data_PCOD9386538
_publ_section_title
;
Structure prediction by ZEFSAII (Michael W. Deem and Ramdas Pophale) SiO2 
 PCOD9386538
Probable space group: P M M M
;
_chemical_formula_sum "Si O2"
_cell_formula_units_Z 48
_cell_length_a 19.488755
_cell_length_b 15.470487
_cell_length_c 8.655951
_cell_angle_alpha 90.000000
_cell_angle_beta 90.000000
_cell_angle_gamma 90.000000
_cell_volume 2609.773822
_symmetry_space_group_name_H-M "P M M M"
_symmetry_group_IT_number 47
_symmetry_cell_setting 'orthorhombic'
loop_
_space_group_symop_operation_xyz
x,y,z
-x,-y,z
x,-y,-z
-x,y,-z
-x,-y,-z
x,y,-z
-x,y,z
x,-y,z
loop_
_atom_site_type_symbol
_atom_site_label
_atom_site_fract_x
_atom_site_fract_y
_atom_site_fract_z
Si Si1 0.321798 0.099881 0.184976
Si Si2 0.174273 0.341415 0.185498
Si Si3 0.321121 0.400603 0.686417
Si Si4 0.420838 0.754266 0.313264
Si Si5 0.921574 0.500000 0.811792
Si Si6 0.080003 0.000000 0.814618
Si Si7 0.826976 0.152196 0.684152
O O1 0.379469 0.164868 0.245659
O O2 0.248740 0.126297 0.256610
O O3 0.336574 0.000000 0.224649
O O4 0.316564 0.106837 0.000000
O O5 0.249785 0.370783 0.238902
O O6 0.120424 0.414935 0.235332
O O7 0.158232 0.248570 0.257074
O O8 0.173155 0.334975 0.000000
O O9 0.313595 0.396525 0.500000
O O10 0.335961 0.500000 0.728354
O O11 0.380431 0.333221 0.730785
O O12 0.419070 0.759852 0.500000
O O13 0.500000 0.752977 0.264081
O O14 0.000000 0.500000 0.758206
O O15 0.922327 0.500000 0.000000
O O16 0.119083 0.916280 0.750423
O O17 0.000000 0.000000 0.771107
O O18 0.085097 0.000000 0.000000
O O19 0.827474 0.149510 0.500000
#
# Coordination Sequence:
#
# PCOD9386538 Si02
#       7
#     8   8   8   8   4   4   8
#     4  11  23  39  62  89 119 157 204 252 302 362
#     4  11  21  36  61  90 119 158 207 254 301 362
#     4  10  20  35  58  87 120 158 201 250 304 364
#     4  10  22  39  59  87 123 162 203 249 305 365
#     4   9  20  38  59  87 122 159 200 248 302 354
#     4  11  25  45  67  93 126 163 204 251 303 361
#     4  12  24  39  63  93 125 161 203 252 305 363
#
# _framework density 18.392396999999999
#
# number of rings (size 3 to 8) (size 9 to 14) (size 15 to 20)
#    0.000    1.333    3.333    2.750    0.000    3.333 
#    0.000    5.000    0.000    3.500    0.000    2.333 
#    0.000    0.000    0.000    0.000    0.000    0.000 
#
# Total GULP energy -268310.678467 kJ/mol
# GULP energy per Si atom -5589.805801 kJ/mol
# Density = 1.835054 g / cm^3
# Si number density = 18.392397 Si / 1000 Ang^3
#
#
#
# Elastic Constant Matrix: (Units=GPa)
#
#
# Indices 1 2 3 4 5 6 
#
# 1 195.0365 122.3728 54.8967 0.0000 0.0000 0.0000
# 2 122.3728 217.2395 59.7091 0.0000 0.0000 0.0000
# 3 54.8967 59.7091 46.8709 0.0000 0.0000 0.0000
# 4 0.0000 0.0000 0.0000 30.2868 0.0000 0.0000
# 5 0.0000 0.0000 0.0000 0.0000 29.0773 0.0000
# 6 0.0000 0.0000 0.0000 0.0000 0.0000 34.9483
#
#
#
# Elastic Compliance Matrix: (Units=1/GPa)
#
#
# Indices 1 2 3 4 5 6 
#
# 1 0.008988 -0.003339 -0.006274 0.000000 0.000000 0.000000
# 2 -0.003339 0.008323 -0.006693 0.000000 0.000000 0.000000
# 3 -0.006274 -0.006693 0.037210 0.000000 0.000000 0.000000
# 4 0.000000 0.000000 0.000000 0.033018 0.000000 0.000000
# 5 0.000000 0.000000 0.000000 0.000000 0.034391 0.000000
# 6 0.000000 0.000000 0.000000 0.000000 0.000000 0.028614
#
#
# Mechanical properties :
#
#
# Convention : Reuss Voigt Hill
#
# Bulk Modulus (GPa) = 45.64123 103.67824 74.65974
# Shear Modulus (GPa) = 26.25250 33.67369 29.96309
#
# Velocity S-wave (km/s) = 3.78214 4.28348 4.04059
# Velocity P-wave (km/s) = 6.62887 8.99760 7.90249
#
# Compressibility (1/GPa) = 0.02191001
#
# Stress axis : x y z
#
# Youngs Moduli (GPa) = 111.26112 120.14225 26.87466
#
# Poissons Ratio (x) = 0.40110 0.16861
# Poissons Ratio (y) = 0.37145 0.17988
# Poissons Ratio (z) = 0.69804 0.80413
#
# Static dielectric constant tensor:
#      x y z
#    x 1.597930 0.000000 0.000000 
#    y 0.000000 1.618860 0.000000 
#    z 0.000000 0.000000 1.625030 
# 
# From -- ./inp_files/9200.got.cif
#   From: 2010.05.17/outbox.cif.g08.bks.cpg/sg47_5_cif.got.tgz:9200.got - 2010.06.03 20:15:42.
