data_PCOD9386694
_publ_section_title
;
Structure prediction by ZEFSAII (Michael W. Deem and Ramdas Pophale) SiO2 
 PCOD9386694
Probable space group: P M M M
;
_chemical_formula_sum "Si O2"
_cell_formula_units_Z 44
_cell_length_a 30.403198
_cell_length_b 10.182489
_cell_length_c 7.722130
_cell_angle_alpha 90.000000
_cell_angle_beta 90.000000
_cell_angle_gamma 90.000000
_cell_volume 2390.618775
_symmetry_space_group_name_H-M "P M M M"
_symmetry_group_IT_number 47
_symmetry_cell_setting 'orthorhombic'
loop_
_space_group_symop_operation_xyz
x,y,z
-x,-y,z
x,-y,-z
-x,y,-z
-x,-y,-z
x,y,-z
-x,y,z
x,-y,z
loop_
_atom_site_type_symbol
_atom_site_label
_atom_site_fract_x
_atom_site_fract_y
_atom_site_fract_z
Si Si1 0.078716 0.151935 0.293965
Si Si2 0.449171 0.500000 0.708561
Si Si3 0.449532 0.000000 0.212418
Si Si4 0.699309 0.345875 0.693718
Si Si5 0.606766 0.245977 0.203117
Si Si6 0.848610 0.151320 0.000000
Si Si7 0.766185 0.657295 0.000000
Si Si8 0.000000 0.347944 0.289978
O O1 0.088335 0.167454 0.500000
O O2 0.120548 0.167416 0.169411
O O3 0.042421 0.260206 0.242814
O O4 0.062784 0.000000 0.271541
O O5 0.500000 0.500000 0.765059
O O6 0.448201 0.500000 0.500000
O O7 0.422995 0.374041 0.773534
O O8 0.422310 0.873772 0.269962
O O9 0.500000 0.000000 0.270572
O O10 0.450664 0.000000 0.000000
O O11 0.716825 0.331934 0.500000
O O12 0.687630 0.500000 0.721863
O O13 0.654085 0.267031 0.712062
O O14 0.735766 0.312017 0.834306
O O15 0.615287 0.225289 0.000000
O O16 0.809638 0.255775 0.000000
O O17 0.832357 0.000000 0.000000
O O18 0.775473 0.500000 0.000000
O O19 0.000000 0.500000 0.228429
O O20 0.000000 0.353303 0.500000
#
# Coordination Sequence:
#
# PCOD9386694 Si02
#       8
#     8   4   4   8   8   4   4   4
#     4   9  18  34  56  79 113 159 199 234 279 334
#     4  11  23  35  51  81 115 147 187 230 267 317
#     4   9  20  36  53  79 115 150 181 217 266 325
#     4  10  20  37  60  85 111 139 178 228 278 337
#     4  11  20  35  59  82 109 145 185 224 271 330
#     4  10  22  39  57  84 113 145 189 240 289 339
#     4  10  22  40  61  83 107 141 182 226 290 351
#     4   9  17  30  51  84 121 157 200 245 283 322
#
# _framework density 18.405276000000001
#
# number of rings (size 3 to 8) (size 9 to 14) (size 15 to 20)
#    0.000    2.091    1.818    1.636    0.000    4.364 
#    1.636    3.636    0.000    3.273    0.000    0.000 
#    0.000    0.000    0.000    0.000    0.000    0.000 
#
# Total GULP energy -245585.371298 kJ/mol
# GULP energy per Si atom -5581.485711 kJ/mol
# Density = 1.836339 g / cm^3
# Si number density = 18.405276 Si / 1000 Ang^3
#
#
#
# Elastic Constant Matrix: (Units=GPa)
#
#
# Indices 1 2 3 4 5 6 
#
# 1 134.9712 88.6238 50.9571 0.0000 0.0000 0.0000
# 2 88.6238 140.4297 32.7962 0.0000 0.0000 0.0000
# 3 50.9571 32.7962 80.3553 0.0000 0.0000 0.0000
# 4 0.0000 0.0000 0.0000 23.4142 0.0000 0.0000
# 5 0.0000 0.0000 0.0000 0.0000 -12.0865 0.0000
# 6 0.0000 0.0000 0.0000 0.0000 0.0000 46.1121
#
#
#
# Elastic Compliance Matrix: (Units=1/GPa)
#
#
# Indices 1 2 3 4 5 6 
#
# 1 0.015050 -0.008035 -0.006264 0.000000 0.000000 0.000000
# 2 -0.008035 0.012161 0.000132 0.000000 0.000000 0.000000
# 3 -0.006264 0.000132 0.016363 0.000000 0.000000 0.000000
# 4 0.000000 0.000000 0.000000 0.042709 0.000000 0.000000
# 5 0.000000 0.000000 0.000000 0.000000 -0.082737 0.000000
# 6 0.000000 0.000000 0.000000 0.000000 0.000000 0.021686
#
#
# Mechanical properties :
#
#
# Convention : Reuss Voigt Hill
#
# Bulk Modulus (GPa) = 65.61914 77.83446 71.72680
# Shear Modulus (GPa) = 85.25511 23.71323 54.48417
#
# Velocity S-wave (km/s) = 6.81334 3.59331 5.44672
# Velocity P-wave (km/s) = 9.88055 7.71990 8.86629
#
# Compressibility (1/GPa) = 0.01523946
#
# Stress axis : x y z
#
# Youngs Moduli (GPa) = 66.44598 82.23100 61.11164
#
# Poissons Ratio (x) = 0.66071 0.38283
# Poissons Ratio (y) = 0.53388 -0.00806
# Poissons Ratio (z) = 0.41625 -0.01085
#
# Static dielectric constant tensor:
#      x y z
#    x 1.587920 0.000000 0.000000 
#    y 0.000000 1.965650 0.000000 
#    z 0.000000 0.000000 1.661880 
# 
# From -- ./inp_files/13788.got.cif
#   From: 2010.05.17/outbox.cif.g08.bks.cpg/sg47_7_cif.got.tgz:13788.got - 2010.06.03 20:15:42.
