data_PCOD9386477
_publ_section_title
;
Structure prediction by ZEFSAII (Michael W. Deem and Ramdas Pophale) SiO2 
 PCOD9386477
Probable space group: P M M M
;
_chemical_formula_sum "Si O2"
_cell_formula_units_Z 44
_cell_length_a 8.164096
_cell_length_b 29.690137
_cell_length_c 9.276671
_cell_angle_alpha 90.000000
_cell_angle_beta 90.000000
_cell_angle_gamma 90.000000
_cell_volume 2248.601308
_symmetry_space_group_name_H-M "P M M M"
_symmetry_group_IT_number 47
_symmetry_cell_setting 'orthorhombic'
loop_
_space_group_symop_operation_xyz
x,y,z
-x,-y,z
x,-y,-z
-x,y,-z
-x,-y,-z
x,y,-z
-x,y,z
x,-y,z
loop_
_atom_site_type_symbol
_atom_site_label
_atom_site_fract_x
_atom_site_fract_y
_atom_site_fract_z
Si Si1 0.698588 0.146595 0.832310
Si Si2 0.197206 0.588837 0.664247
Si Si3 0.195742 0.764926 0.664511
Si Si4 0.695347 0.323101 0.835881
Si Si5 0.305254 0.048408 0.825362
Si Si6 0.200582 0.500000 0.833819
O O1 0.500000 0.145561 0.831394
O O2 0.756038 0.188014 0.737237
O O3 0.758534 0.097309 0.778773
O O4 0.748766 0.152652 0.000000
O O5 0.259067 0.589319 0.500000
O O6 0.240076 0.634482 0.746610
O O7 0.255377 0.544940 0.751199
O O8 0.000000 0.585815 0.658098
O O9 0.257321 0.762374 0.500000
O O10 0.260363 0.723344 0.757780
O O11 0.000000 0.761710 0.661599
O O12 0.500000 0.326514 0.841278
O O13 0.759439 0.323663 0.000000
O O14 0.500000 0.047757 0.792692
O O15 0.236114 0.000000 0.775458
O O16 0.292392 0.048962 0.000000
O O17 0.000000 0.500000 0.833418
O O18 0.252960 0.500000 0.000000
#
# Coordination Sequence:
#
# PCOD9386477 Si02
#       6
#     8   8   8   8   8   4
#     4   9  17  30  51  79 106 132 167 211 258 308
#     4  10  20  35  57  85 115 146 181 219 259 306
#     4  11  24  39  54  74 101 135 175 215 257 310
#     4  11  24  40  58  81 107 135 171 216 265 316
#     4   7  10  19  39  69 102 131 160 200 250 300
#     4   9  17  31  54  83 114 149 186 222 260 301
#
# _framework density 19.567719
#
# number of rings (size 3 to 8) (size 9 to 14) (size 15 to 20)
#    0.000    2.455    0.000    4.636    0.000    9.818 
#    0.000    0.455    0.000    3.818    0.000    6.364 
#    0.000    0.000    0.000    0.000    0.000    0.000 
#
# Total GULP energy -245472.868882 kJ/mol
# GULP energy per Si atom -5578.928838 kJ/mol
# Density = 1.952318 g / cm^3
# Si number density = 19.567719 Si / 1000 Ang^3
#
#
#
# Elastic Constant Matrix: (Units=GPa)
#
#
# Indices 1 2 3 4 5 6 
#
# 1 11.3543 3.1064 11.2490 0.0000 0.0000 0.0000
# 2 3.1064 202.5640 98.7901 0.0000 0.0000 0.0000
# 3 11.2490 98.7901 151.2596 0.0000 0.0000 0.0000
# 4 0.0000 0.0000 0.0000 -164.1569 0.0000 0.0000
# 5 0.0000 0.0000 0.0000 0.0000 21.1739 0.0000
# 6 0.0000 0.0000 0.0000 0.0000 0.0000 24.2696
#
#
#
# Elastic Compliance Matrix: (Units=1/GPa)
#
#
# Indices 1 2 3 4 5 6 
#
# 1 0.096270 0.002957 -0.009091 0.000000 0.000000 0.000000
# 2 0.002957 0.007335 -0.005011 0.000000 0.000000 0.000000
# 3 -0.009091 -0.005011 0.010560 0.000000 0.000000 0.000000
# 4 0.000000 0.000000 0.000000 -0.006092 0.000000 0.000000
# 5 0.000000 0.000000 0.000000 0.000000 0.047228 0.000000
# 6 0.000000 0.000000 0.000000 0.000000 0.000000 0.041204
#
#
# Mechanical properties :
#
#
# Convention : Reuss Voigt Hill
#
# Bulk Modulus (GPa) = 10.88418 65.71876 38.30147
# Shear Modulus (GPa) = 20.04659 -6.94055 6.55302
#
# Velocity S-wave (km/s) = 3.20421 -1.88537 1.83198
# Velocity P-wave (km/s) = 4.38904 5.37761 4.90828
#
# Compressibility (1/GPa) = 0.09187645
#
# Stress axis : x y z
#
# Youngs Moduli (GPa) = 10.38743 136.33286 94.69967
#
# Poissons Ratio (x) = -0.40318 0.86091
# Poissons Ratio (y) = -0.03072 0.47450
# Poissons Ratio (z) = 0.09443 0.68310
#
# Static dielectric constant tensor:
#      x y z
#    x 1.700320 0.000000 0.000000 
#    y 0.000000 1.686700 0.000000 
#    z 0.000000 0.000000 1.671880 
# 
# From -- ./inp_files/2145.got.cif
#   From: 2010.05.17/outbox.cif.g08.bks.cpg/sg47_2_cif.got.tgz:2145.got - 2010.06.03 20:15:42.
