data_PCOD9386493
_publ_section_title
;
Structure prediction by ZEFSAII (Michael W. Deem and Ramdas Pophale) SiO2 
 PCOD9386493
Probable space group: P M M M
;
_chemical_formula_sum "Si O2"
_cell_formula_units_Z 48
_cell_length_a 8.834286
_cell_length_b 15.760588
_cell_length_c 19.042207
_cell_angle_alpha 90.000000
_cell_angle_beta 90.000000
_cell_angle_gamma 90.000000
_cell_volume 2651.313927
_symmetry_space_group_name_H-M "P M M M"
_symmetry_group_IT_number 47
_symmetry_cell_setting 'orthorhombic'
loop_
_space_group_symop_operation_xyz
x,y,z
-x,-y,z
x,-y,-z
-x,y,-z
-x,-y,-z
x,y,-z
-x,y,z
x,-y,z
loop_
_atom_site_type_symbol
_atom_site_label
_atom_site_fract_x
_atom_site_fract_y
_atom_site_fract_z
Si Si1 0.318985 0.900347 0.804830
Si Si2 0.182260 0.222128 0.916507
Si Si3 0.826082 0.500000 0.585261
Si Si4 0.319236 0.678258 0.583280
Si Si5 0.818285 0.408731 0.915567
Si Si6 0.819420 0.160725 0.339898
Si Si7 0.324075 0.000000 0.583944
O O1 0.500000 0.894679 0.798741
O O2 0.262185 0.851487 0.873534
O O3 0.242287 0.856037 0.738009
O O4 0.277471 0.000000 0.805784
O O5 0.235477 0.316227 0.891106
O O6 0.000000 0.217441 0.906868
O O7 0.210619 0.215830 0.000000
O O8 0.826292 0.500000 0.500000
O O9 0.742115 0.413754 0.606009
O O10 0.000000 0.500000 0.609108
O O11 0.283788 0.689362 0.500000
O O12 0.500000 0.681733 0.590524
O O13 0.242883 0.752566 0.627346
O O14 0.758781 0.500000 0.888675
O O15 0.000000 0.409128 0.904618
O O16 0.796211 0.408774 0.000000
O O17 0.000000 0.160800 0.340068
O O18 0.756491 0.083070 0.386278
O O19 0.500000 0.000000 0.607004
O O20 0.320024 0.000000 0.500000
#
# Coordination Sequence:
#
# PCOD9386493 Si02
#       7
#     8   8   4   8   8   8   4
#     4  11  24  41  59  76 104 147 190 233 286 348
#     4   9  18  33  56  86 115 142 180 231 279 327
#     4   9  17  31  53  83 117 151 192 239 280 325
#     4  10  20  35  57  85 118 155 191 230 282 341
#     4   7  10  20  43  76 110 140 169 206 258 317
#     4  12  24  38  59  84 111 146 190 240 288 336
#     4  11  23  39  59  85 118 151 184 225 277 341
#
# _framework density 18.104230999999999
#
# number of rings (size 3 to 8) (size 9 to 14) (size 15 to 20)
#    0.000    2.167    0.833    5.000    0.000    6.333 
#    0.000    1.667    1.833    0.500    0.000    2.333 
#    0.000    0.000    0.000    0.000    0.000    0.000 
#
# Total GULP energy -267779.622744 kJ/mol
# GULP energy per Si atom -5578.742140 kJ/mol
# Density = 1.806302 g / cm^3
# Si number density = 18.104231 Si / 1000 Ang^3
#
#
#
# Elastic Constant Matrix: (Units=GPa)
#
#
# Indices 1 2 3 4 5 6 
#
# 1 88.4153 76.8990 46.6204 0.0000 0.0000 0.0000
# 2 76.8990 184.7440 61.2459 0.0000 0.0000 0.0000
# 3 46.6204 61.2459 51.1693 0.0000 0.0000 0.0000
# 4 0.0000 0.0000 0.0000 179.6235 0.0000 0.0000
# 5 0.0000 0.0000 0.0000 0.0000 25.6624 0.0000
# 6 0.0000 0.0000 0.0000 0.0000 0.0000 29.4226
#
#
#
# Elastic Compliance Matrix: (Units=1/GPa)
#
#
# Indices 1 2 3 4 5 6 
#
# 1 0.023841 -0.004514 -0.016319 0.000000 0.000000 0.000000
# 2 -0.004514 0.009828 -0.007651 0.000000 0.000000 0.000000
# 3 -0.016319 -0.007651 0.043569 0.000000 0.000000 0.000000
# 4 0.000000 0.000000 0.000000 0.005567 0.000000 0.000000
# 5 0.000000 0.000000 0.000000 0.000000 0.038968 0.000000
# 6 0.000000 0.000000 0.000000 0.000000 0.000000 0.033987
#
#
# Mechanical properties :
#
#
# Convention : Reuss Voigt Hill
#
# Bulk Modulus (GPa) = 49.33259 77.09544 63.21401
# Shear Modulus (GPa) = 22.78066 56.24592 39.51329
#
# Velocity S-wave (km/s) = 3.55111 5.57990 4.67684
# Velocity P-wave (km/s) = 6.64245 9.17553 8.00976
#
# Compressibility (1/GPa) = 0.02027058
#
# Stress axis : x y z
#
# Youngs Moduli (GPa) = 41.94511 101.74789 22.95206
#
# Poissons Ratio (x) = 0.45925 0.37455
# Poissons Ratio (y) = 0.18932 0.17561
# Poissons Ratio (z) = 0.68449 0.77850
#
# Static dielectric constant tensor:
#      x y z
#    x 1.605900 0.000000 0.000000 
#    y 0.000000 1.635460 0.000000 
#    z 0.000000 0.000000 1.613090 
# 
# From -- ./inp_files/26553.got.cif
#   From: 2010.05.17/outbox.cif.g08.bks.cpg/sg47_14_cif.got.tgz:26553.got - 2010.06.03 20:15:42.
