data_PCOD9386063
_publ_section_title
;
Structure prediction by ZEFSAII (Michael W. Deem and Ramdas Pophale) SiO2 
 PCOD9386063
Probable space group: P M M M
;
_chemical_formula_sum "Si O2"
_cell_formula_units_Z 56
_cell_length_a 7.637929
_cell_length_b 16.031712
_cell_length_c 19.246588
_cell_angle_alpha 90.000000
_cell_angle_beta 90.000000
_cell_angle_gamma 90.000000
_cell_volume 2356.726955
_symmetry_space_group_name_H-M "P M M M"
_symmetry_group_IT_number 47
_symmetry_cell_setting 'orthorhombic'
loop_
_space_group_symop_operation_xyz
x,y,z
-x,-y,z
x,-y,-z
-x,y,-z
-x,-y,-z
x,y,-z
-x,y,z
x,-y,z
loop_
_atom_site_type_symbol
_atom_site_label
_atom_site_fract_x
_atom_site_fract_y
_atom_site_fract_z
Si Si1 0.296315 0.593658 0.345321
Si Si2 0.288395 0.500000 0.080179
Si Si3 0.797978 0.734687 0.926955
Si Si4 0.789729 0.908221 0.265628
Si Si5 0.797007 0.638688 0.808305
Si Si6 0.293442 0.777434 0.620910
Si Si7 0.295611 0.089521 0.103996
Si Si8 0.285330 0.902354 0.500000
O O1 0.500000 0.590219 0.366251
O O2 0.221550 0.500000 0.360134
O O3 0.290122 0.606834 0.261693
O O4 0.222583 0.681800 0.375809
O O5 0.500000 0.500000 0.080828
O O6 0.220617 0.575302 0.127227
O O7 0.230218 0.500000 0.000000
O O8 0.718801 0.715995 0.850796
O O9 0.798809 0.833179 0.928358
O O10 0.000000 0.706467 0.925579
O O11 0.716990 0.703069 0.000000
O O12 0.728269 0.827035 0.307142
O O13 0.723539 0.907136 0.187261
O O14 0.000000 0.905844 0.264748
O O15 0.736606 0.000000 0.296197
O O16 0.000000 0.651955 0.788787
O O17 0.500000 0.767982 0.606819
O O18 0.226372 0.845188 0.565096
O O19 0.500000 0.095401 0.086278
O O20 0.227379 0.000000 0.082018
O O21 0.500000 0.905345 0.500000
O O22 0.228181 0.000000 0.500000
#
# Coordination Sequence:
#
# PCOD9386063 Si02
#       8
#     8   4   8   8   8   8   8   4
#     4  10  21  37  56  81 115 151 192 243 293 341
#     4  11  23  37  55  81 113 148 185 230 291 355
#     4  10  22  38  54  75 105 141 182 230 286 347
#     4  10  20  34  54  82 114 146 182 230 288 347
#     4  11  22  37  58  82 108 142 187 236 286 342
#     4  10  20  35  58  86 116 156 199 237 284 342
#     4  10  21  36  54  77 105 139 183 234 285 341
#     4   9  18  34  58  90 126 159 195 241 289 342
#
# _framework density 23.761769000000001
#
# number of rings (size 3 to 8) (size 9 to 14) (size 15 to 20)
#    0.000    1.857    0.714    3.214    0.000    8.000 
#    0.000    2.143    0.000    3.429    0.000    0.000 
#    0.000    2.286    0.000    0.000    0.000    0.000 
#
# Total GULP energy -312315.003490 kJ/mol
# GULP energy per Si atom -5577.053634 kJ/mol
# Density = 2.370769 g / cm^3
# Si number density = 23.761769 Si / 1000 Ang^3
#
#
#
# Elastic Constant Matrix: (Units=GPa)
#
#
# Indices 1 2 3 4 5 6 
#
# 1 55.6714 9.8779 -6.1181 0.0000 0.0000 0.0000
# 2 9.8779 204.1780 49.9133 0.0000 0.0000 0.0000
# 3 -6.1181 49.9133 82.6450 0.0000 0.0000 0.0000
# 4 0.0000 0.0000 0.0000 23.0375 0.0000 0.0000
# 5 0.0000 0.0000 0.0000 0.0000 1.9790 0.0000
# 6 0.0000 0.0000 0.0000 0.0000 0.0000 18.7022
#
#
#
# Elastic Compliance Matrix: (Units=1/GPa)
#
#
# Indices 1 2 3 4 5 6 
#
# 1 0.018464 -0.001440 0.002237 0.000000 0.000000 0.000000
# 2 -0.001440 0.005858 -0.003645 0.000000 0.000000 0.000000
# 3 0.002237 -0.003645 0.014467 0.000000 0.000000 0.000000
# 4 0.000000 0.000000 0.000000 0.043407 0.000000 0.000000
# 5 0.000000 0.000000 0.000000 0.000000 0.505317 0.000000
# 6 0.000000 0.000000 0.000000 0.000000 0.000000 0.053470
#
#
# Mechanical properties :
#
#
# Convention : Reuss Voigt Hill
#
# Bulk Modulus (GPa) = 30.21828 49.98228 40.10028
# Shear Modulus (GPa) = 7.60213 27.99849 17.80031
#
# Velocity S-wave (km/s) = 1.79060 3.43636 2.73997
# Velocity P-wave (km/s) = 4.12551 6.06838 5.18869
#
# Compressibility (1/GPa) = 0.03309255
#
# Stress axis : x y z
#
# Youngs Moduli (GPa) = 54.15989 170.69666 69.12400
#
# Poissons Ratio (x) = 0.24580 -0.15460
# Poissons Ratio (y) = 0.07799 0.25194
# Poissons Ratio (z) = -0.12113 0.62215
#
# Static dielectric constant tensor:
#      x y z
#    x 1.880980 0.000000 0.000000 
#    y 0.000000 2.708010 0.000000 
#    z 0.000000 0.000000 1.946750 
# 
# From -- ./inp_files/29808.got.cif
#   From: 2010.05.17/outbox.cif.g08.bks.cpg/sg47_15_cif.got.tgz:29808.got - 2010.06.03 20:15:42.
