data_PCOD9386945
_publ_section_title
;
Structure prediction by ZEFSAII (Michael W. Deem and Ramdas Pophale) SiO2 
 PCOD9386945
Probable space group: P M M M
;
_chemical_formula_sum "Si O2"
_cell_formula_units_Z 64
_cell_length_a 25.000571
_cell_length_b 9.337045
_cell_length_c 14.578958
_cell_angle_alpha 90.000000
_cell_angle_beta 90.000000
_cell_angle_gamma 90.000000
_cell_volume 3403.187400
_symmetry_space_group_name_H-M "P M M M"
_symmetry_group_IT_number 47
_symmetry_cell_setting 'orthorhombic'
loop_
_space_group_symop_operation_xyz
x,y,z
-x,-y,z
x,-y,-z
-x,y,-z
-x,-y,-z
x,y,-z
-x,y,z
x,-y,z
loop_
_atom_site_type_symbol
_atom_site_label
_atom_site_fract_x
_atom_site_fract_y
_atom_site_fract_z
Si Si1 0.760759 0.163281 0.388948
Si Si2 0.850656 0.671131 0.280937
Si Si3 0.782716 0.671439 0.107265
Si Si4 0.441734 0.165242 0.856534
Si Si5 0.063922 0.830422 0.395171
Si Si6 0.439924 0.839404 0.636687
Si Si7 0.676025 0.162587 0.890804
Si Si8 0.661836 0.342091 0.392744
O O1 0.763360 0.162563 0.500000
O O2 0.805154 0.267204 0.348191
O O3 0.703550 0.225250 0.357155
O O4 0.768654 0.000000 0.358062
O O5 0.854319 0.500000 0.287506
O O6 0.830150 0.708252 0.178223
O O7 0.904461 0.743741 0.318275
O O8 0.774987 0.500000 0.111697
O O9 0.727703 0.747658 0.138673
O O10 0.793557 0.707959 0.000000
O O11 0.500000 0.225878 0.886303
O O12 0.442919 0.159373 0.746708
O O13 0.383374 0.228891 0.877695
O O14 0.440069 0.000000 0.890634
O O15 0.079277 0.787458 0.500000
O O16 0.000000 0.813080 0.387480
O O17 0.075988 0.000000 0.386976
O O18 0.500000 0.812910 0.603160
O O19 0.397322 0.720817 0.611660
O O20 0.423258 0.000000 0.607434
O O21 0.676256 0.000000 0.851625
O O22 0.681962 0.150804 0.000000
O O23 0.675026 0.356100 0.500000
O O24 0.666568 0.500000 0.350047
#
# Coordination Sequence:
#
# PCOD9386945 Si02
#       8
#     8   8   8   8   8   8   8   8
#     4  10  21  36  53  75 106 142 176 211 261 328
#     4  11  22  34  55  86 113 145 188 230 272 314
#     4   9  20  38  54  72 106 148 185 225 275 327
#     4   8  15  28  45  67  94 121 153 200 257 316
#     4   9  19  37  60  87 122 161 194 222 259 314
#     4   9  18  32  48  65  87 120 162 204 249 310
#     4   9  17  29  48  74  98 123 163 214 266 321
#     4  10  21  35  49  67  93 122 157 209 265 311
#
# _framework density 18.805900000000001
#
# number of rings (size 3 to 8) (size 9 to 14) (size 15 to 20)
#    0.000    2.625    0.000    2.625    1.750    5.250 
#    0.000    3.125    0.000    1.500    0.000    4.375 
#    0.000    0.000    0.000    0.000    0.000    0.000 
#
# Total GULP energy -356694.183622 kJ/mol
# GULP energy per Si atom -5573.346619 kJ/mol
# Density = 1.876310 g / cm^3
# Si number density = 18.805900 Si / 1000 Ang^3
#
#
#
# Elastic Constant Matrix: (Units=GPa)
#
#
# Indices 1 2 3 4 5 6 
#
# 1 90.0760 43.7162 40.1541 0.0000 0.0000 0.0000
# 2 43.7162 53.7186 32.1603 0.0000 0.0000 0.0000
# 3 40.1541 32.1603 82.2667 0.0000 0.0000 0.0000
# 4 0.0000 0.0000 0.0000 17.0102 0.0000 0.0000
# 5 0.0000 0.0000 0.0000 0.0000 29.8610 0.0000
# 6 0.0000 0.0000 0.0000 0.0000 0.0000 133.4619
#
#
#
# Elastic Compliance Matrix: (Units=1/GPa)
#
#
# Indices 1 2 3 4 5 6 
#
# 1 0.019456 -0.013249 -0.004317 0.000000 0.000000 0.000000
# 2 -0.013249 0.033326 -0.006561 0.000000 0.000000 0.000000
# 3 -0.004317 -0.006561 0.016828 0.000000 0.000000 0.000000
# 4 0.000000 0.000000 0.000000 0.058788 0.000000 0.000000
# 5 0.000000 0.000000 0.000000 0.000000 0.033488 0.000000
# 6 0.000000 0.000000 0.000000 0.000000 0.000000 0.007493
#
#
# Mechanical properties :
#
#
# Convention : Reuss Voigt Hill
#
# Bulk Modulus (GPa) = 46.82723 50.90252 48.86487
# Shear Modulus (GPa) = 22.24676 43.40200 32.82438
#
# Velocity S-wave (km/s) = 3.44316 4.80926 4.18237
# Velocity P-wave (km/s) = 6.38447 7.61346 7.02589
#
# Compressibility (1/GPa) = 0.02135510
#
# Stress axis : x y z
#
# Youngs Moduli (GPa) = 51.39721 30.00699 59.42579
#
# Poissons Ratio (x) = 0.39756 0.25655
# Poissons Ratio (y) = 0.68096 0.38990
# Poissons Ratio (z) = 0.22189 0.19688
#
# Static dielectric constant tensor:
#      x y z
#    x 1.667060 0.000000 0.000000 
#    y 0.000000 1.652020 0.000000 
#    z 0.000000 0.000000 1.689890 
# 
# From -- ./inp_files/25579.got.cif
#   From: 2010.05.17/outbox.cif.g08.bks.cpg/sg47_13_cif.got.tgz:25579.got - 2010.06.03 20:15:42.
