data_PCOD9386207
_publ_section_title
;
Structure prediction by ZEFSAII (Michael W. Deem and Ramdas Pophale) SiO2 
 PCOD9386207
Probable space group: P M M M
;
_chemical_formula_sum "Si O2"
_cell_formula_units_Z 64
_cell_length_a 15.924753
_cell_length_b 24.452328
_cell_length_c 8.600507
_cell_angle_alpha 90.000000
_cell_angle_beta 90.000000
_cell_angle_gamma 90.000000
_cell_volume 3349.014064
_symmetry_space_group_name_H-M "P M M M"
_symmetry_group_IT_number 47
_symmetry_cell_setting 'orthorhombic'
loop_
_space_group_symop_operation_xyz
x,y,z
-x,-y,z
x,-y,-z
-x,y,-z
-x,-y,-z
x,y,-z
-x,y,z
x,-y,z
loop_
_atom_site_type_symbol
_atom_site_label
_atom_site_fract_x
_atom_site_fract_y
_atom_site_fract_z
Si Si1 0.594563 0.936904 0.810629
Si Si2 0.250572 0.742652 0.686041
Si Si3 0.907242 0.670223 0.312550
Si Si4 0.096324 0.936694 0.312329
Si Si5 0.835514 0.438843 0.185033
Si Si6 0.248046 0.864960 0.186387
Si Si7 0.406864 0.324861 0.814718
Si Si8 0.647181 0.561378 0.314411
O O1 0.500000 0.921053 0.761464
O O2 0.669213 0.897845 0.757381
O O3 0.609288 0.000000 0.763887
O O4 0.594831 0.936182 0.000000
O O5 0.247726 0.745567 0.500000
O O6 0.168345 0.709129 0.740303
O O7 0.250237 0.803291 0.753578
O O8 0.332857 0.709291 0.736364
O O9 0.902722 0.666504 0.500000
O O10 0.892632 0.610120 0.243942
O O11 0.000000 0.690691 0.270292
O O12 0.100189 0.933889 0.500000
O O13 0.165337 0.896743 0.242703
O O14 0.000000 0.923626 0.266847
O O15 0.113015 0.000000 0.267476
O O16 0.868924 0.500000 0.216035
O O17 0.745463 0.434263 0.269498
O O18 0.821950 0.433834 0.000000
O O19 0.249241 0.864755 0.000000
O O20 0.500000 0.305530 0.769115
O O21 0.397813 0.388296 0.767440
O O22 0.398443 0.320052 0.000000
O O23 0.637932 0.566560 0.500000
O O24 0.619263 0.500000 0.268878
#
# Coordination Sequence:
#
# PCOD9386207 Si02
#       8
#     8   8   8   8   8   8   8   8
#     4   8  15  30  53  82 116 151 185 223 273 335
#     4  11  24  42  61  82 113 156 201 245 290 343
#     4  10  22  40  61  83 108 145 193 242 293 349
#     4   9  19  37  60  86 119 159 199 240 291 350
#     4  10  20  34  56  86 118 149 182 228 288 349
#     4  11  22  35  57  88 119 152 193 243 295 346
#     4  11  24  41  62  87 116 151 192 243 300 351
#     4  10  20  35  58  87 118 152 189 232 286 349
#
# _framework density 19.110102000000001
#
# number of rings (size 3 to 8) (size 9 to 14) (size 15 to 20)
#    0.000    2.000    1.250    3.000    0.000    5.750 
#    0.000    5.625    0.000    1.125    0.000    4.375 
#    0.000    0.000    0.000    0.000    0.000    0.000 
#
# Total GULP energy -357422.255665 kJ/mol
# GULP energy per Si atom -5584.722745 kJ/mol
# Density = 1.906661 g / cm^3
# Si number density = 19.110102 Si / 1000 Ang^3
#
#
#
# Elastic Constant Matrix: (Units=GPa)
#
#
# Indices 1 2 3 4 5 6 
#
# 1 144.3331 92.7291 28.9331 0.0000 0.0000 0.0000
# 2 92.7291 133.1105 26.7009 0.0000 0.0000 0.0000
# 3 28.9331 26.7009 24.2846 0.0000 0.0000 0.0000
# 4 0.0000 0.0000 0.0000 5.6341 0.0000 0.0000
# 5 0.0000 0.0000 0.0000 0.0000 24.9117 0.0000
# 6 0.0000 0.0000 0.0000 0.0000 0.0000 -4.5508
#
#
#
# Elastic Compliance Matrix: (Units=1/GPa)
#
#
# Indices 1 2 3 4 5 6 
#
# 1 0.013496 -0.007924 -0.007367 0.000000 0.000000 0.000000
# 2 -0.007924 0.014291 -0.006272 0.000000 0.000000 0.000000
# 3 -0.007367 -0.006272 0.056851 0.000000 0.000000 0.000000
# 4 0.000000 0.000000 0.000000 0.177491 0.000000 0.000000
# 5 0.000000 0.000000 0.000000 0.000000 0.040142 0.000000
# 6 0.000000 0.000000 0.000000 0.000000 0.000000 -0.219740
#
#
# Mechanical properties :
#
#
# Convention : Reuss Voigt Hill
#
# Bulk Modulus (GPa) = 24.08916 66.49494 45.29205
# Shear Modulus (GPa) = 35.84381 15.42334 25.63358
#
# Velocity S-wave (km/s) = 4.33557 2.84399 3.66644
# Velocity P-wave (km/s) = 6.13969 6.75690 6.45567
#
# Compressibility (1/GPa) = 0.04151245
#
# Stress axis : x y z
#
# Youngs Moduli (GPa) = 74.09501 69.97494 17.58974
#
# Poissons Ratio (x) = 0.55449 0.12958
# Poissons Ratio (y) = 0.58714 0.11032
# Poissons Ratio (z) = 0.54586 0.43887
#
# Static dielectric constant tensor:
#      x y z
#    x 1.673980 0.000000 0.000000 
#    y 0.000000 1.637450 0.000000 
#    z 0.000000 0.000000 1.648060 
# 
# From -- ./inp_files/7824.got.cif
#   From: 2010.05.17/outbox.cif.g08.bks.cpg/sg47_4_cif.got.tgz:7824.got - 2010.06.03 20:15:42.
