data_PCOD9386111
_publ_section_title
;
Structure prediction by ZEFSAII (Michael W. Deem and Ramdas Pophale) SiO2 
 PCOD9386111
Probable space group: P M M M
;
_chemical_formula_sum "Si O2"
_cell_formula_units_Z 44
_cell_length_a 9.557436
_cell_length_b 29.935042
_cell_length_c 7.661492
_cell_angle_alpha 90.000000
_cell_angle_beta 90.000000
_cell_angle_gamma 90.000000
_cell_volume 2191.970085
_symmetry_space_group_name_H-M "P M M M"
_symmetry_group_IT_number 47
_symmetry_cell_setting 'orthorhombic'
loop_
_space_group_symop_operation_xyz
x,y,z
-x,-y,z
x,-y,-z
-x,y,-z
-x,-y,-z
x,y,-z
-x,y,z
x,-y,z
loop_
_atom_site_type_symbol
_atom_site_label
_atom_site_fract_x
_atom_site_fract_y
_atom_site_fract_z
Si Si1 0.659156 0.000000 0.292153
Si Si2 0.158737 0.644265 0.709450
Si Si3 0.658595 0.269941 0.790314
Si Si4 0.337483 0.829431 0.213209
Si Si5 0.841354 0.913057 0.790950
Si Si6 0.830404 0.548089 0.707852
O O1 0.746137 0.043775 0.240974
O O2 0.500000 0.000000 0.220990
O O3 0.649405 0.000000 0.500000
O O4 0.151040 0.639666 0.500000
O O5 0.247385 0.688037 0.745370
O O6 0.217609 0.596448 0.776111
O O7 0.000000 0.649945 0.775367
O O8 0.500000 0.276598 0.726219
O O9 0.705987 0.220571 0.730954
O O10 0.653523 0.267682 0.000000
O O11 0.500000 0.836490 0.263961
O O12 0.237624 0.868889 0.276302
O O13 0.335545 0.830283 0.000000
O O14 0.000000 0.918157 0.723500
O O15 0.851289 0.908206 0.000000
O O16 0.800296 0.546880 0.500000
O O17 0.782661 0.500000 0.780931
O O18 0.000000 0.549127 0.724547
#
# Coordination Sequence:
#
# PCOD9386111 Si02
#       6
#     4   8   8   8   8   8
#     4  11  24  39  54  74 102 137 172 199 228 274
#     4   9  17  28  44  69  96 119 150 194 240 286
#     4   9  18  32  49  69  94 126 162 195 230 278
#     4   8  15  30  51  72  94 123 161 201 235 271
#     4  10  20  34  55  82 105 125 156 199 244 286
#     4   7  10  19  37  60  85 113 146 187 234 279
#
# _framework density 20.073266
#
# number of rings (size 3 to 8) (size 9 to 14) (size 15 to 20)
#    0.000    3.182    0.000    3.818    0.000    4.364 
#    0.000    2.727    0.000    2.182    0.000    6.364 
#    0.000    0.000    0.000    0.000    0.000    0.000 
#
# Total GULP energy -245135.865416 kJ/mol
# GULP energy per Si atom -5571.269669 kJ/mol
# Density = 2.002758 g / cm^3
# Si number density = 20.073266 Si / 1000 Ang^3
#
#
#
# Elastic Constant Matrix: (Units=GPa)
#
#
# Indices 1 2 3 4 5 6 
#
# 1 108.8232 118.9530 5.6425 0.0000 0.0000 0.0000
# 2 118.9530 253.6976 6.0961 0.0000 0.0000 0.0000
# 3 5.6425 6.0961 34.9900 0.0000 0.0000 0.0000
# 4 0.0000 0.0000 0.0000 19.5901 0.0000 0.0000
# 5 0.0000 0.0000 0.0000 0.0000 12.8822 0.0000
# 6 0.0000 0.0000 0.0000 0.0000 0.0000 68.7427
#
#
#
# Elastic Compliance Matrix: (Units=1/GPa)
#
#
# Indices 1 2 3 4 5 6 
#
# 1 0.018930 -0.008839 -0.001513 0.000000 0.000000 0.000000
# 2 -0.008839 0.008086 0.000017 0.000000 0.000000 0.000000
# 3 -0.001513 0.000017 0.028821 0.000000 0.000000 0.000000
# 4 0.000000 0.000000 0.000000 0.051046 0.000000 0.000000
# 5 0.000000 0.000000 0.000000 0.000000 0.077626 0.000000
# 6 0.000000 0.000000 0.000000 0.000000 0.000000 0.014547
#
#
# Mechanical properties :
#
#
# Convention : Reuss Voigt Hill
#
# Bulk Modulus (GPa) = 28.43682 73.21045 50.82364
# Shear Modulus (GPa) = 21.60307 38.03095 29.81701
#
# Velocity S-wave (km/s) = 3.28412 4.35743 3.85828
# Velocity P-wave (km/s) = 5.34583 7.86556 6.72477
#
# Compressibility (1/GPa) = 0.03516568
#
# Stress axis : x y z
#
# Youngs Moduli (GPa) = 52.82636 123.67169 34.69741
#
# Poissons Ratio (x) = 1.09319 0.05248
# Poissons Ratio (y) = 0.46696 -0.00058
# Poissons Ratio (z) = 0.07991 -0.00207
#
# Static dielectric constant tensor:
#      x y z
#    x 1.693870 0.000000 0.000000 
#    y 0.000000 1.742380 0.000000 
#    z 0.000000 0.000000 1.774190 
# 
# From -- ./inp_files/2045.got.cif
#   From: 2010.05.17/outbox.cif.g08.bks.cpg/sg47_2_cif.got.tgz:2045.got - 2010.06.03 20:15:42.
