data_PCOD9386269
_publ_section_title
;
Structure prediction by ZEFSAII (Michael W. Deem and Ramdas Pophale) SiO2 
 PCOD9386269
Probable space group: P M M M
;
_chemical_formula_sum "Si O2"
_cell_formula_units_Z 52
_cell_length_a 21.194727
_cell_length_b 8.035575
_cell_length_c 15.393065
_cell_angle_alpha 90.000000
_cell_angle_beta 90.000000
_cell_angle_gamma 90.000000
_cell_volume 2621.620891
_symmetry_space_group_name_H-M "P M M M"
_symmetry_group_IT_number 47
_symmetry_cell_setting 'orthorhombic'
loop_
_space_group_symop_operation_xyz
x,y,z
-x,-y,z
x,-y,-z
-x,y,-z
-x,-y,-z
x,y,-z
-x,y,z
x,-y,z
loop_
_atom_site_type_symbol
_atom_site_label
_atom_site_fract_x
_atom_site_fract_y
_atom_site_fract_z
Si Si1 0.868711 0.691728 0.175439
Si Si2 0.426195 0.801095 0.226626
Si Si3 0.170324 0.189410 0.357026
Si Si4 0.739846 0.301076 0.095152
Si Si5 0.000000 0.194728 0.896665
Si Si6 0.701416 0.803506 0.711322
Si Si7 0.424808 0.500000 0.096943
Si Si8 0.071943 0.304447 0.500000
O O1 0.860933 0.500000 0.203718
O O2 0.854951 0.803272 0.258811
O O3 0.815271 0.723547 0.103594
O O4 0.937615 0.721748 0.140051
O O5 0.500000 0.777054 0.250967
O O6 0.372342 0.757850 0.297760
O O7 0.411736 0.670347 0.149089
O O8 0.419481 0.000000 0.204714
O O9 0.240913 0.269029 0.346106
O O10 0.116336 0.263188 0.417857
O O11 0.177864 0.000000 0.386871
O O12 0.727685 0.500000 0.098951
O O13 0.715355 0.227230 0.186045
O O14 0.718619 0.238511 0.000000
O O15 0.000000 0.000000 0.872983
O O16 0.000000 0.208301 0.000000
O O17 0.705066 0.000000 0.696811
O O18 0.500000 0.500000 0.089276
O O19 0.398072 0.500000 0.000000
O O20 0.063672 0.500000 0.500000
O O21 0.000000 0.230483 0.500000
#
# Coordination Sequence:
#
# PCOD9386269 Si02
#       8
#     8   8   8   8   4   8   4   4
#     4  10  20  35  54  74 101 135 175 221 270 323
#     4   9  18  33  51  73 106 146 190 240 289 338
#     4  10  21  39  61  85 113 142 177 221 271 330
#     4   9  18  31  47  68  95 132 178 225 273 322
#     4  11  23  35  49  72 101 136 179 225 273 321
#     4   9  19  34  52  77 106 140 182 228 278 330
#     4   9  18  30  44  68 104 147 197 248 296 345
#     4  11  25  43  63  89 120 147 180 218 263 331
#
# _framework density 19.835058
#
# number of rings (size 3 to 8) (size 9 to 14) (size 15 to 20)
#    0.000    2.385    0.000    1.846    2.154    4.308 
#    0.000    3.077    0.000    0.000    0.000    0.538 
#    0.000    4.308    0.000    0.000    0.000    0.000 
#
# Total GULP energy -289532.319172 kJ/mol
# GULP energy per Si atom -5567.929215 kJ/mol
# Density = 1.978991 g / cm^3
# Si number density = 19.835058 Si / 1000 Ang^3
#
#
#
# Elastic Constant Matrix: (Units=GPa)
#
#
# Indices 1 2 3 4 5 6 
#
# 1 172.6674 25.6216 31.3400 0.0000 0.0000 0.0000
# 2 25.6216 44.7659 16.0154 0.0000 0.0000 0.0000
# 3 31.3400 16.0154 49.8819 0.0000 0.0000 0.0000
# 4 0.0000 0.0000 0.0000 19.8108 0.0000 0.0000
# 5 0.0000 0.0000 0.0000 0.0000 -5.7010 0.0000
# 6 0.0000 0.0000 0.0000 0.0000 0.0000 18.7895
#
#
#
# Elastic Compliance Matrix: (Units=1/GPa)
#
#
# Indices 1 2 3 4 5 6 
#
# 1 0.006809 -0.002674 -0.003419 0.000000 0.000000 0.000000
# 2 -0.002674 0.026287 -0.006760 0.000000 0.000000 0.000000
# 3 -0.003419 -0.006760 0.024366 0.000000 0.000000 0.000000
# 4 0.000000 0.000000 0.000000 0.050478 0.000000 0.000000
# 5 0.000000 0.000000 0.000000 0.000000 -0.175407 0.000000
# 6 0.000000 0.000000 0.000000 0.000000 0.000000 0.053221
#
#
# Mechanical properties :
#
#
# Convention : Reuss Voigt Hill
#
# Bulk Modulus (GPa) = 31.49037 45.91881 38.70459
# Shear Modulus (GPa) = 226.80489 19.53575 123.17032
#
# Velocity S-wave (km/s) = 10.70484 3.14173 7.88873
# Velocity P-wave (km/s) = 12.98854 6.03003 10.12579
#
# Compressibility (1/GPa) = 0.03175574
#
# Stress axis : x y z
#
# Youngs Moduli (GPa) = 146.86721 38.04134 41.04053
#
# Poissons Ratio (x) = 0.10171 0.14034
# Poissons Ratio (y) = 0.39268 0.27744
# Poissons Ratio (z) = 0.50221 0.25716
#
# Static dielectric constant tensor:
#      x y z
#    x 1.777750 0.000000 0.000000 
#    y 0.000000 1.718090 0.000000 
#    z 0.000000 0.000000 1.677860 
# 
# From -- ./inp_files/25089.got.cif
#   From: 2010.05.17/outbox.cif.g08.bks.cpg/sg47_13_cif.got.tgz:25089.got - 2010.06.03 20:15:42.
