data_PCOD9386406
_publ_section_title
;
Structure prediction by ZEFSAII (Michael W. Deem and Ramdas Pophale) SiO2 
 PCOD9386406
Probable space group: P M M M
;
_chemical_formula_sum "Si O2"
_cell_formula_units_Z 40
_cell_length_a 26.646178
_cell_length_b 9.433952
_cell_length_c 7.594608
_cell_angle_alpha 90.000000
_cell_angle_beta 90.000000
_cell_angle_gamma 90.000000
_cell_volume 1909.123174
_symmetry_space_group_name_H-M "P M M M"
_symmetry_group_IT_number 47
_symmetry_cell_setting 'orthorhombic'
loop_
_space_group_symop_operation_xyz
x,y,z
-x,-y,z
x,-y,-z
-x,y,-z
-x,-y,-z
x,y,-z
-x,y,z
x,-y,z
loop_
_atom_site_type_symbol
_atom_site_label
_atom_site_fract_x
_atom_site_fract_y
_atom_site_fract_z
Si Si1 0.400600 0.660846 0.210152
Si Si2 0.695785 0.163130 0.215945
Si Si3 0.000000 0.162385 0.284029
Si Si4 0.500000 0.161184 0.709605
Si Si5 0.904049 0.338454 0.288798
Si Si6 0.791921 0.337985 0.789098
O O1 0.404534 0.500000 0.279666
O O2 0.352017 0.745692 0.276321
O O3 0.450632 0.751401 0.239411
O O4 0.394191 0.649633 0.000000
O O5 0.747142 0.238460 0.274459
O O6 0.692494 0.000000 0.271909
O O7 0.695512 0.162753 0.000000
O O8 0.949872 0.243321 0.224846
O O9 0.000000 0.163697 0.500000
O O10 0.000000 0.000000 0.228132
O O11 0.500000 0.151272 0.500000
O O12 0.500000 0.000000 0.781354
O O13 0.908492 0.344965 0.500000
O O14 0.907721 0.500000 0.220847
O O15 0.848067 0.285201 0.249206
O O16 0.787706 0.500000 0.720954
O O17 0.786991 0.345402 0.000000
#
# Coordination Sequence:
#
# PCOD9386406 Si02
#       6
#     8   8   4   4   8   8
#     4  10  20  35  57  82 104 131 172 215 250 292
#     4   9  17  30  50  75 101 130 164 202 244 289
#     4   9  17  29  46  67  90 118 154 195 236 278
#     4  11  24  39  54  76 108 141 170 205 254 306
#     4   9  17  30  48  68  90 119 156 195 235 282
#     4   9  17  30  48  70  96 125 157 195 239 286
#
# _framework density 20.952027999999999
#
# number of rings (size 3 to 8) (size 9 to 14) (size 15 to 20)
#    0.000    2.600    0.000    2.100    0.000    7.600 
#    0.000    1.500    0.000    6.600    0.000    0.000 
#    0.000    0.000    0.000    0.000    0.000    0.000 
#
# Total GULP energy -223363.443287 kJ/mol
# GULP energy per Si atom -5584.086082 kJ/mol
# Density = 2.090434 g / cm^3
# Si number density = 20.952028 Si / 1000 Ang^3
#
#
#
# Elastic Constant Matrix: (Units=GPa)
#
#
# Indices 1 2 3 4 5 6 
#
# 1 243.2274 148.7500 -1.0869 0.0000 0.0000 0.0000
# 2 148.7500 186.4430 7.0516 0.0000 0.0000 0.0000
# 3 -1.0869 7.0516 44.4250 0.0000 0.0000 0.0000
# 4 0.0000 0.0000 0.0000 5.4330 0.0000 0.0000
# 5 0.0000 0.0000 0.0000 0.0000 26.1317 0.0000
# 6 0.0000 0.0000 0.0000 0.0000 0.0000 -140.7663
#
#
#
# Elastic Compliance Matrix: (Units=1/GPa)
#
#
# Indices 1 2 3 4 5 6 
#
# 1 0.008095 -0.006505 0.001231 0.000000 0.000000 0.000000
# 2 -0.006505 0.010623 -0.001845 0.000000 0.000000 0.000000
# 3 0.001231 -0.001845 0.022833 0.000000 0.000000 0.000000
# 4 0.000000 0.000000 0.000000 0.184062 0.000000 0.000000
# 5 0.000000 0.000000 0.000000 0.000000 0.038268 0.000000
# 6 0.000000 0.000000 0.000000 0.000000 0.000000 -0.007104
#
#
# Mechanical properties :
#
#
# Convention : Reuss Voigt Hill
#
# Bulk Modulus (GPa) = 36.61450 87.05831 61.83641
# Shear Modulus (GPa) = 17.84945 -0.54827 8.65059
#
# Velocity S-wave (km/s) = 2.92193 -0.51210 2.03414
# Velocity P-wave (km/s) = 5.37559 6.42587 5.92405
#
# Compressibility (1/GPa) = 0.02731158
#
# Stress axis : x y z
#
# Youngs Moduli (GPa) = 123.52958 94.13191 43.79651
#
# Poissons Ratio (x) = 0.61234 -0.05390
# Poissons Ratio (y) = 0.80358 0.08082
# Poissons Ratio (z) = -0.15202 0.17371
#
# Static dielectric constant tensor:
#      x y z
#    x 1.717710 0.000000 0.000000 
#    y 0.000000 1.731810 0.000000 
#    z 0.000000 0.000000 1.793300 
# 
# From -- ./inp_files/13054.got.cif
#   From: 2010.05.17/outbox.cif.g08.bks.cpg/sg47_7_cif.got.tgz:13054.got - 2010.06.03 20:15:42.
