data_PCOD9386090
_publ_section_title
;
Structure prediction by ZEFSAII (Michael W. Deem and Ramdas Pophale) SiO2 
 PCOD9386090
Probable space group: P M M M
;
_chemical_formula_sum "Si O2"
_cell_formula_units_Z 52
_cell_length_a 12.158375
_cell_length_b 8.094597
_cell_length_c 30.691384
_cell_angle_alpha 90.000000
_cell_angle_beta 90.000000
_cell_angle_gamma 90.000000
_cell_volume 3020.558414
_symmetry_space_group_name_H-M "P M M M"
_symmetry_group_IT_number 47
_symmetry_cell_setting 'orthorhombic'
loop_
_space_group_symop_operation_xyz
x,y,z
-x,-y,z
x,-y,-z
-x,y,-z
-x,-y,-z
x,y,-z
-x,y,z
x,-y,z
loop_
_atom_site_type_symbol
_atom_site_label
_atom_site_fract_x
_atom_site_fract_y
_atom_site_fract_z
Si Si1 0.261741 0.803385 0.951360
Si Si2 0.125478 0.304289 0.131839
Si Si3 0.500000 0.798499 0.181118
Si Si4 0.865764 0.000000 0.550396
Si Si5 0.871779 0.200632 0.296676
Si Si6 0.500000 0.303721 0.919972
Si Si7 0.133608 0.315018 0.606662
Si Si8 0.266226 0.196513 0.785830
O O1 0.187378 0.728331 0.913427
O O2 0.389145 0.766630 0.941007
O O3 0.246027 0.000000 0.950305
O O4 0.235124 0.742267 0.000000
O O5 0.123679 0.500000 0.139414
O O6 0.193117 0.225966 0.171390
O O7 0.000000 0.242578 0.130553
O O8 0.500000 0.740152 0.131203
O O9 0.388715 0.739922 0.204546
O O10 0.500000 0.000000 0.180203
O O11 0.829397 0.834466 0.575660
O O12 0.832411 0.000000 0.500000
O O13 0.000000 0.000000 0.551415
O O14 0.838454 0.274345 0.343241
O O15 0.796255 0.259948 0.256937
O O16 0.000000 0.242886 0.288311
O O17 0.866699 0.000000 0.299872
O O18 0.500000 0.500000 0.925241
O O19 0.170407 0.500000 0.594594
O O20 0.000000 0.314475 0.604888
O O21 0.276149 0.000000 0.779706
#
# Coordination Sequence:
#
# PCOD9386090 Si02
#       8
#     8   8   4   4   8   4   8   8
#     4  11  24  41  61  82 103 131 168 207 248 300
#     4  11  24  39  55  78 108 136 165 207 255 304
#     4  10  20  35  55  80 108 135 166 205 251 304
#     4   9  16  26  40  60  92 133 177 223 262 304
#     4   9  16  28  46  68  96 132 174 215 256 304
#     4  12  23  37  60  85 108 132 160 200 251 305
#     4   9  16  26  41  62  91 129 172 218 264 307
#     4  10  20  34  55  78 103 137 172 209 254 306
#
# _framework density 17.215358999999999
#
# number of rings (size 3 to 8) (size 9 to 14) (size 15 to 20)
#    0.000    1.923    2.308    2.308    0.000    5.231 
#    0.000    4.615    0.000    0.000    0.000    0.000 
#    0.000    0.000    0.000    1.385    0.000    2.615 
#
# Total GULP energy -290219.300951 kJ/mol
# GULP energy per Si atom -5581.140403 kJ/mol
# Density = 1.717618 g / cm^3
# Si number density = 17.215359 Si / 1000 Ang^3
#
#
#
# Elastic Constant Matrix: (Units=GPa)
#
#
# Indices 1 2 3 4 5 6 
#
# 1 76.8606 -0.2349 35.2452 0.0000 0.0000 0.0000
# 2 -0.2349 36.3437 25.9384 0.0000 0.0000 0.0000
# 3 35.2452 25.9384 130.4508 0.0000 0.0000 0.0000
# 4 0.0000 0.0000 0.0000 -12.5586 0.0000 0.0000
# 5 0.0000 0.0000 0.0000 0.0000 -94.1997 0.0000
# 6 0.0000 0.0000 0.0000 0.0000 0.0000 15.0655
#
#
#
# Elastic Compliance Matrix: (Units=1/GPa)
#
#
# Indices 1 2 3 4 5 6 
#
# 1 0.015231 0.003537 -0.004818 0.000000 0.000000 0.000000
# 2 0.003537 0.032887 -0.007495 0.000000 0.000000 0.000000
# 3 -0.004818 -0.007495 0.010458 0.000000 0.000000 0.000000
# 4 0.000000 0.000000 0.000000 -0.079627 0.000000 0.000000
# 5 0.000000 0.000000 0.000000 0.000000 -0.010616 0.000000
# 6 0.000000 0.000000 0.000000 0.000000 0.000000 0.066377
#
#
# Mechanical properties :
#
#
# Convention : Reuss Voigt Hill
#
# Bulk Modulus (GPa) = 24.37603 40.61693 32.49648
# Shear Modulus (GPa) = 75.83055 -6.15811 34.83622
#
# Velocity S-wave (km/s) = 6.64408 -1.89338 4.50327
# Velocity P-wave (km/s) = 8.54685 4.34336 6.77914
#
# Compressibility (1/GPa) = 0.04102392
#
# Stress axis : x y z
#
# Youngs Moduli (GPa) = 65.65591 30.40708 95.62215
#
# Poissons Ratio (x) = -0.10756 0.46075
# Poissons Ratio (y) = -0.23225 0.71668
# Poissons Ratio (z) = 0.31636 0.22790
#
# Static dielectric constant tensor:
#      x y z
#    x 1.573020 0.000000 0.000000 
#    y 0.000000 1.610080 0.000000 
#    z 0.000000 0.000000 1.569420 
# 
# From -- ./inp_files/33673.got.cif
#   From: 2010.05.17/outbox.cif.g08.bks.cpg/sg47_17_cif.got.tgz:33673.got - 2010.06.03 20:15:42.
