data_PCOD9386183
_publ_section_title
;
Structure prediction by ZEFSAII (Michael W. Deem and Ramdas Pophale) SiO2 
 PCOD9386183
Probable space group: P M M M
;
_chemical_formula_sum "Si O2"
_cell_formula_units_Z 52
_cell_length_a 18.866852
_cell_length_b 10.207742
_cell_length_c 16.334973
_cell_angle_alpha 90.000000
_cell_angle_beta 90.000000
_cell_angle_gamma 90.000000
_cell_volume 3145.919087
_symmetry_space_group_name_H-M "P M M M"
_symmetry_group_IT_number 47
_symmetry_cell_setting 'orthorhombic'
loop_
_space_group_symop_operation_xyz
x,y,z
-x,-y,z
x,-y,-z
-x,y,-z
-x,-y,-z
x,y,-z
-x,y,z
x,-y,z
loop_
_atom_site_type_symbol
_atom_site_label
_atom_site_fract_x
_atom_site_fract_y
_atom_site_fract_z
Si Si1 0.223940 0.344079 0.903389
Si Si2 0.784195 0.351013 0.500000
Si Si3 0.581603 0.152191 0.348900
Si Si4 0.158731 0.763468 0.669035
Si Si5 0.614225 0.655945 0.500000
Si Si6 0.919740 0.346403 0.820362
Si Si7 0.082904 0.000000 0.591400
Si Si8 0.292179 0.152844 0.222283
O O1 0.230201 0.500000 0.881703
O O2 0.143433 0.299001 0.880233
O O3 0.277608 0.254587 0.851127
O O4 0.235141 0.331611 0.000000
O O5 0.806384 0.500000 0.500000
O O6 0.813160 0.293911 0.584306
O O7 0.699421 0.341697 0.500000
O O8 0.500000 0.157596 0.321016
O O9 0.590582 0.259411 0.420834
O O10 0.637195 0.177408 0.275874
O O11 0.594614 0.000000 0.377608
O O12 0.114953 0.671789 0.730645
O O13 0.106502 0.876454 0.642187
O O14 0.225829 0.821913 0.717271
O O15 0.592863 0.500000 0.500000
O O16 0.926288 0.500000 0.837448
O O17 0.000000 0.290263 0.826183
O O18 0.116014 0.000000 0.500000
O O19 0.000000 0.000000 0.582309
O O20 0.292412 0.000000 0.196408
#
# Coordination Sequence:
#
# PCOD9386183 Si02
#       8
#     8   4   8   8   4   8   4   8
#     4   9  19  35  56  81 107 135 167 208 259 316
#     4  11  22  33  49  73 101 137 181 229 266 301
#     4  10  21  37  55  78 110 144 179 218 261 310
#     4  11  19  34  50  69  97 136 175 219 258 309
#     4  11  22  34  51  78 111 146 184 224 263 307
#     4   9  18  32  51  74 100 130 167 212 260 311
#     4  11  22  32  46  68  94 130 178 223 264 308
#     4  10  20  34  56  81 102 134 173 212 258 308
#
# _framework density 16.529350999999998
#
# number of rings (size 3 to 8) (size 9 to 14) (size 15 to 20)
#    0.000    1.923    3.077    1.385    0.000    3.077 
#    1.385    1.538    0.000    2.308    0.000    5.385 
#    0.000    0.000    0.000    0.000    0.000    0.000 
#
# Total GULP energy -289567.360098 kJ/mol
# GULP energy per Si atom -5568.603079 kJ/mol
# Density = 1.649173 g / cm^3
# Si number density = 16.529351 Si / 1000 Ang^3
#
#
#
# Elastic Constant Matrix: (Units=GPa)
#
#
# Indices 1 2 3 4 5 6 
#
# 1 97.7142 45.6904 42.0785 0.0000 0.0000 0.0000
# 2 45.6904 83.3905 49.7446 0.0000 0.0000 0.0000
# 3 42.0785 49.7446 96.6320 0.0000 0.0000 0.0000
# 4 0.0000 0.0000 0.0000 29.0742 0.0000 0.0000
# 5 0.0000 0.0000 0.0000 0.0000 29.1662 0.0000
# 6 0.0000 0.0000 0.0000 0.0000 0.0000 19.3120
#
#
#
# Elastic Compliance Matrix: (Units=1/GPa)
#
#
# Indices 1 2 3 4 5 6 
#
# 1 0.014410 -0.005992 -0.003190 0.000000 0.000000 0.000000
# 2 -0.005992 0.019798 -0.007582 0.000000 0.000000 0.000000
# 3 -0.003190 -0.007582 0.015641 0.000000 0.000000 0.000000
# 4 0.000000 0.000000 0.000000 0.034395 0.000000 0.000000
# 5 0.000000 0.000000 0.000000 0.000000 0.034286 0.000000
# 6 0.000000 0.000000 0.000000 0.000000 0.000000 0.051781
#
#
# Mechanical properties :
#
#
# Convention : Reuss Voigt Hill
#
# Bulk Modulus (GPa) = 61.27692 61.41816 61.34754
# Shear Modulus (GPa) = 23.89146 24.85869 24.37507
#
# Velocity S-wave (km/s) = 3.80596 3.88224 3.84429
# Velocity P-wave (km/s) = 7.51438 7.57188 7.54318
#
# Compressibility (1/GPa) = 0.01631936
#
# Stress axis : x y z
#
# Youngs Moduli (GPa) = 69.39852 50.50992 63.93494
#
# Poissons Ratio (x) = 0.30267 0.20395
# Poissons Ratio (y) = 0.41585 0.48478
# Poissons Ratio (z) = 0.22138 0.38299
#
# Static dielectric constant tensor:
#      x y z
#    x 1.560580 0.000000 0.000000 
#    y 0.000000 1.568560 0.000000 
#    z 0.000000 0.000000 1.477510 
# 
# From -- ./inp_files/21499.got.cif
#   From: 2010.05.17/outbox.cif.g08.bks.cpg/sg47_11_cif.got.tgz:21499.got - 2010.06.03 20:15:42.
