data_PCOD9386033
_publ_section_title
;
Structure prediction by ZEFSAII (Michael W. Deem and Ramdas Pophale) SiO2 
 PCOD9386033
Probable space group: P M M M
;
_chemical_formula_sum "Si O2"
_cell_formula_units_Z 44
_cell_length_a 8.907120
_cell_length_b 9.248859
_cell_length_c 29.802452
_cell_angle_alpha 90.000000
_cell_angle_beta 90.000000
_cell_angle_gamma 90.000000
_cell_volume 2455.146767
_symmetry_space_group_name_H-M "P M M M"
_symmetry_group_IT_number 47
_symmetry_cell_setting 'orthorhombic'
loop_
_space_group_symop_operation_xyz
x,y,z
-x,-y,z
x,-y,-z
-x,y,-z
-x,-y,-z
x,y,-z
-x,y,z
x,-y,z
loop_
_atom_site_type_symbol
_atom_site_label
_atom_site_fract_x
_atom_site_fract_y
_atom_site_fract_z
Si Si1 0.179098 0.829322 0.406627
Si Si2 0.181514 0.329608 0.853609
Si Si3 0.319178 0.669061 0.321924
Si Si4 0.326770 0.175850 0.500000
Si Si5 0.821274 0.674967 0.951765
Si Si6 0.319063 0.168213 0.230952
O O1 0.246211 0.742598 0.365098
O O2 0.246445 0.778303 0.454160
O O3 0.000000 0.816362 0.407797
O O4 0.216764 0.000000 0.401342
O O5 0.219451 0.500000 0.848982
O O6 0.235640 0.276891 0.903014
O O7 0.249295 0.241188 0.812826
O O8 0.000000 0.319643 0.853016
O O9 0.500000 0.682101 0.325501
O O10 0.281193 0.500000 0.319466
O O11 0.271986 0.748983 0.276191
O O12 0.500000 0.220572 0.500000
O O13 0.321573 0.000000 0.500000
O O14 0.807950 0.500000 0.951378
O O15 0.000000 0.705826 0.952285
O O16 0.758721 0.726273 0.000000
O O17 0.500000 0.178053 0.228080
O O18 0.277478 0.000000 0.233871
#
# Coordination Sequence:
#
# PCOD9386033 Si02
#       6
#     8   8   8   4   8   8
#     4  10  20  34  54  81 111 140 170 206 249 295
#     4   9  17  29  48  75 102 127 159 202 251 299
#     4  10  21  37  56  76  98 128 168 211 254 300
#     4   9  17  31  54  81 108 141 178 212 244 283
#     4   7  10  19  38  65  95 124 155 194 240 289
#     4  10  21  36  53  72  96 130 170 208 248 298
#
# _framework density 17.921537000000001
#
# number of rings (size 3 to 8) (size 9 to 14) (size 15 to 20)
#    0.000    2.818    0.000    3.545    0.000    5.455 
#    0.000    0.455    0.000    3.818    0.000    6.364 
#    0.000    0.000    0.000    0.000    0.000    0.000 
#
# Total GULP energy -245217.787832 kJ/mol
# GULP energy per Si atom -5573.131542 kJ/mol
# Density = 1.788075 g / cm^3
# Si number density = 17.921537 Si / 1000 Ang^3
#
#
#
# Elastic Constant Matrix: (Units=GPa)
#
#
# Indices 1 2 3 4 5 6 
#
# 1 18.4196 39.0359 51.7914 0.0000 0.0000 0.0000
# 2 39.0359 83.7311 95.1377 0.0000 0.0000 0.0000
# 3 51.7914 95.1377 242.3943 0.0000 0.0000 0.0000
# 4 0.0000 0.0000 0.0000 36.2654 0.0000 0.0000
# 5 0.0000 0.0000 0.0000 0.0000 40.5139 0.0000
# 6 0.0000 0.0000 0.0000 0.0000 0.0000 21.6027
#
#
#
# Elastic Compliance Matrix: (Units=1/GPa)
#
#
# Indices 1 2 3 4 5 6 
#
# 1 -5.233268 2.110467 0.289832 0.000000 0.000000 0.000000
# 2 2.110467 -0.829551 -0.125344 0.000000 0.000000 0.000000
# 3 0.289832 -0.125344 -0.008605 0.000000 0.000000 0.000000
# 4 0.000000 0.000000 0.000000 0.027574 0.000000 0.000000
# 5 0.000000 0.000000 0.000000 0.000000 0.024683 0.000000
# 6 0.000000 0.000000 0.000000 0.000000 0.000000 0.046291
#
#
# Mechanical properties :
#
#
# Convention : Reuss Voigt Hill
#
# Bulk Modulus (GPa) = -0.65724 79.60834 39.47555
# Shear Modulus (GPa) = -0.45331 30.24840 14.89754
#
# Velocity S-wave (km/s) = -0.50348 4.11277 2.88629
# Velocity P-wave (km/s) = 0.83995 8.18963 5.76041
#
# Compressibility (1/GPa) = -1.52151390
#
# Stress axis : x y z
#
# Youngs Moduli (GPa) = -0.19109 -1.20547 -116.20612
#
# Poissons Ratio (x) = 2.54411 33.68023
# Poissons Ratio (y) = 0.40328 -14.56571
# Poissons Ratio (z) = 0.05538 -0.15110
#
# Static dielectric constant tensor:
#      x y z
#    x 1.604930 0.000000 0.000000 
#    y 0.000000 1.599540 0.000000 
#    z 0.000000 0.000000 1.623190 
# 
# From -- ./inp_files/2059.got.cif
#   From: 2010.05.17/outbox.cif.g08.bks.cpg/sg47_2_cif.got.tgz:2059.got - 2010.06.03 20:15:42.
