data_PCOD9386300
_publ_section_title
;
Structure prediction by ZEFSAII (Michael W. Deem and Ramdas Pophale) SiO2 
 PCOD9386300
Probable space group: P M M M
;
_chemical_formula_sum "Si O2"
_cell_formula_units_Z 44
_cell_length_a 14.059888
_cell_length_b 8.934869
_cell_length_c 18.842451
_cell_angle_alpha 90.000000
_cell_angle_beta 90.000000
_cell_angle_gamma 90.000000
_cell_volume 2367.050073
_symmetry_space_group_name_H-M "P M M M"
_symmetry_group_IT_number 47
_symmetry_cell_setting 'orthorhombic'
loop_
_space_group_symop_operation_xyz
x,y,z
-x,-y,z
x,-y,-z
-x,y,-z
-x,-y,-z
x,y,-z
-x,y,z
x,-y,z
loop_
_atom_site_type_symbol
_atom_site_label
_atom_site_fract_x
_atom_site_fract_y
_atom_site_fract_z
Si Si1 0.610845 0.181024 0.231300
Si Si2 0.114218 0.175727 0.580282
Si Si3 0.883644 0.326168 0.000000
Si Si4 0.789365 0.677243 0.285990
Si Si5 0.384382 0.824067 0.924797
Si Si6 0.114933 0.825176 0.148339
O O1 0.500000 0.217764 0.242087
O O2 0.683406 0.255077 0.284814
O O3 0.642162 0.235550 0.152227
O O4 0.618421 0.000000 0.232390
O O5 0.143206 0.217664 0.500000
O O6 0.159532 0.271651 0.642279
O O7 0.000000 0.188035 0.583936
O O8 0.137629 0.000000 0.591009
O O9 0.853663 0.245564 0.073069
O O10 0.855824 0.500000 0.000000
O O11 0.000000 0.320773 0.000000
O O12 0.787668 0.500000 0.279710
O O13 0.843420 0.745927 0.217658
O O14 0.500000 0.820337 0.924519
O O15 0.358482 0.000000 0.925800
O O16 0.352914 0.755539 0.000000
O O17 0.000000 0.814668 0.151022
O O18 0.141183 0.000000 0.149730
#
# Coordination Sequence:
#
# PCOD9386300 Si02
#       6
#     8   8   4   8   8   8
#     4   9  18  34  55  76 102 141 189 238 284 331
#     4   9  19  38  64  91 117 144 175 217 270 329
#     4   9  17  31  51  75 106 141 178 227 287 339
#     4  12  24  35  52  81 116 151 183 223 277 332
#     4   7  10  20  42  70  94 118 159 220 281 325
#     4  10  20  35  55  77 104 143 191 235 272 321
#
# _framework density 18.588538
#
# number of rings (size 3 to 8) (size 9 to 14) (size 15 to 20)
#    0.000    2.636    0.000    5.182    0.000    5.455 
#    1.636    0.909    0.000    0.545    0.000    6.364 
#    0.000    0.000    0.000    0.000    0.000    0.000 
#
# Total GULP energy -245559.122172 kJ/mol
# GULP energy per Si atom -5580.889140 kJ/mol
# Density = 1.854623 g / cm^3
# Si number density = 18.588538 Si / 1000 Ang^3
#
#
#
# Elastic Constant Matrix: (Units=GPa)
#
#
# Indices 1 2 3 4 5 6 
#
# 1 62.2622 40.7529 45.4926 0.0000 0.0000 0.0000
# 2 40.7529 94.3758 67.6032 0.0000 0.0000 0.0000
# 3 45.4926 67.6032 116.0094 0.0000 0.0000 0.0000
# 4 0.0000 0.0000 0.0000 17.2353 0.0000 0.0000
# 5 0.0000 0.0000 0.0000 0.0000 25.7179 0.0000
# 6 0.0000 0.0000 0.0000 0.0000 0.0000 3.8920
#
#
#
# Elastic Compliance Matrix: (Units=1/GPa)
#
#
# Indices 1 2 3 4 5 6 
#
# 1 0.024550 -0.006360 -0.005921 0.000000 0.000000 0.000000
# 2 -0.006360 0.019836 -0.009065 0.000000 0.000000 0.000000
# 3 -0.005921 -0.009065 0.016225 0.000000 0.000000 0.000000
# 4 0.000000 0.000000 0.000000 0.058020 0.000000 0.000000
# 5 0.000000 0.000000 0.000000 0.000000 0.038883 0.000000
# 6 0.000000 0.000000 0.000000 0.000000 0.000000 0.256938
#
#
# Mechanical properties :
#
#
# Convention : Reuss Voigt Hill
#
# Bulk Modulus (GPa) = 55.80850 64.48276 60.14563
# Shear Modulus (GPa) = 10.79640 17.28896 14.04268
#
# Velocity S-wave (km/s) = 2.41261 3.05304 2.75152
# Velocity P-wave (km/s) = 6.15217 6.86971 6.52082
#
# Compressibility (1/GPa) = 0.01791842
#
# Stress axis : x y z
#
# Youngs Moduli (GPa) = 40.73296 50.41434 61.63498
#
# Poissons Ratio (x) = 0.32062 0.36496
# Poissons Ratio (y) = 0.25905 0.55873
# Poissons Ratio (z) = 0.24119 0.45701
#
# Static dielectric constant tensor:
#      x y z
#    x 1.677220 0.000000 0.000000 
#    y 0.000000 1.617180 0.000000 
#    z 0.000000 0.000000 1.641040 
# 
# From -- ./inp_files/27892.got.cif
#   From: 2010.05.17/outbox.cif.g08.bks.cpg/sg47_14_cif.got.tgz:27892.got - 2010.06.03 20:15:42.
