data_PCOD9386368
_publ_section_title
;
Structure prediction by ZEFSAII (Michael W. Deem and Ramdas Pophale) SiO2 
 PCOD9386368
Probable space group: P M M M
;
_chemical_formula_sum "Si O2"
_cell_formula_units_Z 40
_cell_length_a 9.184838
_cell_length_b 8.017083
_cell_length_c 28.001331
_cell_angle_alpha 90.000000
_cell_angle_beta 90.000000
_cell_angle_gamma 90.000000
_cell_volume 2061.895049
_symmetry_space_group_name_H-M "P M M M"
_symmetry_group_IT_number 47
_symmetry_cell_setting 'orthorhombic'
loop_
_space_group_symop_operation_xyz
x,y,z
-x,-y,z
x,-y,-z
-x,y,-z
-x,-y,-z
x,y,-z
-x,y,z
x,-y,z
loop_
_atom_site_type_symbol
_atom_site_label
_atom_site_fract_x
_atom_site_fract_y
_atom_site_fract_z
Si Si1 0.331645 0.302947 0.712862
Si Si2 0.832883 0.199195 0.808003
Si Si3 0.822636 0.500000 0.554691
Si Si4 0.825396 0.186568 0.381112
Si Si5 0.167903 0.703970 0.000000
Si Si6 0.667432 0.298039 0.904152
O O1 0.500000 0.250567 0.716403
O O2 0.327174 0.500000 0.702205
O O3 0.251564 0.272874 0.762836
O O4 0.250917 0.210947 0.669786
O O5 0.752190 0.242976 0.857033
O O6 0.000000 0.258989 0.809294
O O7 0.834020 0.000000 0.802533
O O8 0.772286 0.500000 0.500000
O O9 0.778181 0.665917 0.583381
O O10 0.000000 0.500000 0.553816
O O11 0.000000 0.201768 0.374461
O O12 0.795708 0.000000 0.399573
O O13 0.250841 0.758319 0.952169
O O14 0.168682 0.500000 0.000000
O O15 0.000000 0.757488 0.000000
O O16 0.500000 0.240981 0.903355
O O17 0.666252 0.500000 0.904748
#
# Coordination Sequence:
#
# PCOD9386368 Si02
#       6
#     8   8   4   8   4   8
#     4  11  23  38  58  84 113 148 190 235 287 347
#     4  11  24  39  55  79 111 146 185 230 282 341
#     4   9  18  34  57  87 123 159 197 246 297 342
#     4  10  20  35  58  87 118 155 198 242 293 351
#     4   9  17  31  54  81 108 141 182 228 280 337
#     4  10  20  35  56  82 110 141 181 229 281 338
#
# _framework density 19.399629999999998
#
# number of rings (size 3 to 8) (size 9 to 14) (size 15 to 20)
#    0.000    1.800    1.000    3.300    0.000   10.800 
#    0.000    2.500    0.000    4.200    0.000    1.400 
#    0.000    0.000    0.000    0.000    0.000    0.000 
#
# Total GULP energy -223527.644502 kJ/mol
# GULP energy per Si atom -5588.191113 kJ/mol
# Density = 1.935548 g / cm^3
# Si number density = 19.399630 Si / 1000 Ang^3
#
#
#
# Elastic Constant Matrix: (Units=GPa)
#
#
# Indices 1 2 3 4 5 6 
#
# 1 110.9053 41.6356 62.3308 0.0000 0.0000 0.0000
# 2 41.6356 79.3180 49.3187 0.0000 0.0000 0.0000
# 3 62.3308 49.3187 155.3443 0.0000 0.0000 0.0000
# 4 0.0000 0.0000 0.0000 -3.9709 0.0000 0.0000
# 5 0.0000 0.0000 0.0000 0.0000 -180.2520 0.0000
# 6 0.0000 0.0000 0.0000 0.0000 0.0000 17.0963
#
#
#
# Elastic Compliance Matrix: (Units=1/GPa)
#
#
# Indices 1 2 3 4 5 6 
#
# 1 0.012755 -0.004377 -0.003728 0.000000 0.000000 0.000000
# 2 -0.004377 0.017211 -0.003708 0.000000 0.000000 0.000000
# 3 -0.003728 -0.003708 0.009110 0.000000 0.000000 0.000000
# 4 0.000000 0.000000 0.000000 -0.251830 0.000000 0.000000
# 5 0.000000 0.000000 0.000000 0.000000 -0.005548 0.000000
# 6 0.000000 0.000000 0.000000 0.000000 0.000000 0.058492
#
#
# Mechanical properties :
#
#
# Convention : Reuss Voigt Hill
#
# Bulk Modulus (GPa) = 64.72582 72.45974 68.59278
# Shear Modulus (GPa) = -38.15847 -20.60649 -29.38248
#
# Velocity S-wave (km/s) = -4.43986 -3.26269 -3.89599
# Velocity P-wave (km/s) = 2.67464 4.82065 3.89823
#
# Compressibility (1/GPa) = 0.01544978
#
# Stress axis : x y z
#
# Youngs Moduli (GPa) = 78.39814 58.10369 109.76520
#
# Poissons Ratio (x) = 0.25434 0.40924
# Poissons Ratio (y) = 0.34318 0.40697
# Poissons Ratio (z) = 0.29229 0.21543
#
# Static dielectric constant tensor:
#      x y z
#    x 1.657750 0.000000 0.000000 
#    y 0.000000 1.701140 0.000000 
#    z 0.000000 0.000000 1.623830 
# 
# From -- ./inp_files/33047.got.cif
#   From: 2010.05.17/outbox.cif.g08.bks.cpg/sg47_17_cif.got.tgz:33047.got - 2010.06.03 20:15:42.
