data_PCOD9386998
_publ_section_title
;
Structure prediction by ZEFSAII (Michael W. Deem and Ramdas Pophale) SiO2 
 PCOD9386998
Probable space group: P M M M
;
_chemical_formula_sum "Si O2"
_cell_formula_units_Z 44
_cell_length_a 7.574884
_cell_length_b 15.140100
_cell_length_c 17.956727
_cell_angle_alpha 90.000000
_cell_angle_beta 90.000000
_cell_angle_gamma 90.000000
_cell_volume 2059.358280
_symmetry_space_group_name_H-M "P M M M"
_symmetry_group_IT_number 47
_symmetry_cell_setting 'orthorhombic'
loop_
_space_group_symop_operation_xyz
x,y,z
-x,-y,z
x,-y,-z
-x,y,-z
-x,-y,-z
x,y,-z
-x,y,z
x,-y,z
loop_
_atom_site_type_symbol
_atom_site_label
_atom_site_fract_x
_atom_site_fract_y
_atom_site_fract_z
Si Si1 0.283694 0.716058 0.143964
Si Si2 0.793054 0.711312 0.415505
Si Si3 0.715004 0.398174 0.000000
Si Si4 0.293338 0.401621 0.278107
Si Si5 0.715056 0.097702 0.912779
Si Si6 0.287462 0.905207 0.412758
O O1 0.500000 0.719370 0.144691
O O2 0.219896 0.667504 0.218239
O O3 0.224085 0.816772 0.132251
O O4 0.232382 0.656120 0.073250
O O5 0.719081 0.709420 0.500000
O O6 0.717564 0.639597 0.359858
O O7 0.769160 0.810384 0.383051
O O8 0.000000 0.694704 0.420475
O O9 0.774645 0.500000 0.000000
O O10 0.500000 0.400116 0.000000
O O11 0.500000 0.409416 0.259378
O O12 0.216353 0.500000 0.273985
O O13 0.500000 0.097283 0.910448
O O14 0.773737 0.000000 0.888119
O O15 0.762545 0.108630 0.000000
O O16 0.232768 0.904893 0.500000
O O17 0.500000 0.905511 0.410767
O O18 0.227451 0.000000 0.380751
#
# Coordination Sequence:
#
# PCOD9386998 Si02
#       6
#     8   8   4   8   8   8
#     4   9  15  25  40  62  93 126 159 199 247 301
#     4  10  21  36  54  75  98 129 172 218 262 311
#     4   9  14  20  35  59  86 118 155 194 238 291
#     4  10  21  35  50  70  98 131 167 214 272 324
#     4   8  12  19  34  58  90 128 163 191 228 283
#     4   8  14  27  50  79 107 132 158 193 242 299
#
# _framework density 21.365879
#
# number of rings (size 3 to 8) (size 9 to 14) (size 15 to 20)
#    0.000    3.000    0.909    2.182    0.000    4.364 
#    0.000    4.545    0.000    3.273    0.000    0.636 
#    0.000    2.182    0.000    2.000    0.000    1.818 
#
# Total GULP energy -245326.857317 kJ/mol
# GULP energy per Si atom -5575.610394 kJ/mol
# Density = 2.131725 g / cm^3
# Si number density = 21.365879 Si / 1000 Ang^3
#
#
#
# Elastic Constant Matrix: (Units=GPa)
#
#
# Indices 1 2 3 4 5 6 
#
# 1 44.1511 4.6858 -1.3141 0.0000 0.0000 0.0000
# 2 4.6858 229.9155 82.0796 0.0000 0.0000 0.0000
# 3 -1.3141 82.0796 84.2192 0.0000 0.0000 0.0000
# 4 0.0000 0.0000 0.0000 17.1487 0.0000 0.0000
# 5 0.0000 0.0000 0.0000 0.0000 -50.7736 0.0000
# 6 0.0000 0.0000 0.0000 0.0000 0.0000 -198.7366
#
#
#
# Elastic Compliance Matrix: (Units=1/GPa)
#
#
# Indices 1 2 3 4 5 6 
#
# 1 0.022783 -0.000907 0.001239 0.000000 0.000000 0.000000
# 2 -0.000907 0.006706 -0.006550 0.000000 0.000000 0.000000
# 3 0.001239 -0.006550 0.018277 0.000000 0.000000 0.000000
# 4 0.000000 0.000000 0.000000 0.058314 0.000000 0.000000
# 5 0.000000 0.000000 0.000000 0.000000 -0.019695 0.000000
# 6 0.000000 0.000000 0.000000 0.000000 0.000000 -0.005032
#
#
# Mechanical properties :
#
#
# Convention : Reuss Voigt Hill
#
# Bulk Modulus (GPa) = 28.30424 58.79871 43.55147
# Shear Modulus (GPa) = 47.36459 -28.28333 9.54063
#
# Velocity S-wave (km/s) = 4.71343 -3.64230 2.11543
# Velocity P-wave (km/s) = 6.54966 3.14503 5.13757
#
# Compressibility (1/GPa) = 0.03533040
#
# Stress axis : x y z
#
# Youngs Moduli (GPa) = 43.89315 149.11443 54.71436
#
# Poissons Ratio (x) = 0.13520 -0.06780
# Poissons Ratio (y) = 0.03980 0.35838
# Poissons Ratio (z) = -0.05439 0.97670
#
# Static dielectric constant tensor:
#      x y z
#    x 1.808460 0.000000 0.000000 
#    y 0.000000 1.791760 0.000000 
#    z 0.000000 0.000000 1.759330 
# 
# From -- ./inp_files/6163.got.cif
#   From: 2010.05.17/outbox.cif.g08.bks.cpg/sg47_4_cif.got.tgz:6163.got - 2010.06.03 20:15:42.
