data_PCOD9386220
_publ_section_title
;
Structure prediction by ZEFSAII (Michael W. Deem and Ramdas Pophale) SiO2 
 PCOD9386220
Probable space group: P M M M
;
_chemical_formula_sum "Si O2"
_cell_formula_units_Z 64
_cell_length_a 8.867794
_cell_length_b 24.243638
_cell_length_c 15.721667
_cell_angle_alpha 90.000000
_cell_angle_beta 90.000000
_cell_angle_gamma 90.000000
_cell_volume 3379.963261
_symmetry_space_group_name_H-M "P M M M"
_symmetry_group_IT_number 47
_symmetry_cell_setting 'orthorhombic'
loop_
_space_group_symop_operation_xyz
x,y,z
-x,-y,z
x,-y,-z
-x,y,-z
-x,-y,-z
x,y,-z
-x,y,z
x,-y,z
loop_
_atom_site_type_symbol
_atom_site_label
_atom_site_fract_x
_atom_site_fract_y
_atom_site_fract_z
Si Si1 0.679489 0.755993 0.251824
Si Si2 0.680943 0.564877 0.098349
Si Si3 0.821176 0.938956 0.831792
Si Si4 0.820710 0.365309 0.250243
Si Si5 0.819075 0.821611 0.095252
Si Si6 0.178678 0.825191 0.595432
Si Si7 0.319664 0.434779 0.401918
Si Si8 0.679584 0.937897 0.645871
O O1 0.500000 0.753668 0.252434
O O2 0.747647 0.694981 0.252883
O O3 0.737207 0.787516 0.168025
O O4 0.737479 0.790087 0.333191
O O5 0.500000 0.571350 0.107814
O O6 0.714778 0.500000 0.112486
O O7 0.763630 0.602234 0.166844
O O8 0.719108 0.577953 0.000000
O O9 0.788311 0.886631 0.890139
O O10 0.726709 0.934517 0.745091
O O11 0.000000 0.935932 0.809755
O O12 0.794598 0.000000 0.869197
O O13 0.766955 0.399250 0.332819
O O14 0.000000 0.360696 0.248971
O O15 0.000000 0.814109 0.103824
O O16 0.774802 0.805265 0.000000
O O17 0.207249 0.804196 0.500000
O O18 0.235040 0.888154 0.601100
O O19 0.000000 0.823524 0.611988
O O20 0.281861 0.420953 0.500000
O O21 0.500000 0.426880 0.391315
O O22 0.289800 0.500000 0.389705
O O23 0.500000 0.930960 0.636913
O O24 0.719115 0.000000 0.616674
#
# Coordination Sequence:
#
# PCOD9386220 Si02
#       8
#     8   8   8   8   8   8   8   8
#     4  12  26  44  64  84 113 156 204 253 299 351
#     4   9  19  38  64  93 126 163 202 245 293 347
#     4   9  17  31  55  85 118 155 191 233 289 352
#     4  12  25  39  60  89 123 161 200 247 299 352
#     4  10  21  38  61  88 120 156 195 243 297 355
#     4  11  24  42  64  88 116 151 193 244 303 364
#     4   9  19  38  64  93 126 163 201 241 286 341
#     4  10  20  34  56  87 121 155 191 236 291 350
#
# _framework density 18.935117000000002
#
# number of rings (size 3 to 8) (size 9 to 14) (size 15 to 20)
#    0.000    1.750    1.250    4.125    0.000    6.000 
#    0.000    3.750    0.000    0.000    0.000    2.625 
#    0.000    0.000    0.000    0.000    0.000    0.000 
#
# Total GULP energy -357617.690652 kJ/mol
# GULP energy per Si atom -5587.776416 kJ/mol
# Density = 1.889202 g / cm^3
# Si number density = 18.935117 Si / 1000 Ang^3
#
#
#
# Elastic Constant Matrix: (Units=GPa)
#
#
# Indices 1 2 3 4 5 6 
#
# 1 95.8600 77.1889 87.3428 0.0000 0.0000 0.0000
# 2 77.1889 126.3920 97.9973 0.0000 0.0000 0.0000
# 3 87.3428 97.9973 144.1511 0.0000 0.0000 0.0000
# 4 0.0000 0.0000 0.0000 -11.5974 0.0000 0.0000
# 5 0.0000 0.0000 0.0000 0.0000 -3.1762 0.0000
# 6 0.0000 0.0000 0.0000 0.0000 0.0000 18.0943
#
#
#
# Elastic Compliance Matrix: (Units=1/GPa)
#
#
# Indices 1 2 3 4 5 6 
#
# 1 0.026574 -0.007919 -0.010718 0.000000 0.000000 0.000000
# 2 -0.007919 0.019090 -0.008180 0.000000 0.000000 0.000000
# 3 -0.010718 -0.008180 0.018992 0.000000 0.000000 0.000000
# 4 0.000000 0.000000 0.000000 -0.086226 0.000000 0.000000
# 5 0.000000 0.000000 0.000000 0.000000 -0.314844 0.000000
# 6 0.000000 0.000000 0.000000 0.000000 0.000000 0.055266
#
#
# Mechanical properties :
#
#
# Convention : Reuss Voigt Hill
#
# Bulk Modulus (GPa) = 90.72004 99.05123 94.88564
# Shear Modulus (GPa) = -22.33743 7.58908 -7.37417
#
# Velocity S-wave (km/s) = -3.43838 2.00416 -1.97558
# Velocity P-wave (km/s) = 5.67906 7.60131 6.70939
#
# Compressibility (1/GPa) = 0.01102292
#
# Stress axis : x y z
#
# Youngs Moduli (GPa) = 37.63047 52.38278 52.65279
#
# Poissons Ratio (x) = 0.41481 0.56434
# Poissons Ratio (y) = 0.29799 0.43069
# Poissons Ratio (z) = 0.40333 0.42849
#
# Static dielectric constant tensor:
#      x y z
#    x 1.628520 0.000000 0.000000 
#    y 0.000000 1.642660 0.000000 
#    z 0.000000 0.000000 1.650200 
# 
# From -- ./inp_files/21915.got.cif
#   From: 2010.05.17/outbox.cif.g08.bks.cpg/sg47_11_cif.got.tgz:21915.got - 2010.06.03 20:15:42.
