data_PCOD9386021
_publ_section_title
;
Structure prediction by ZEFSAII (Michael W. Deem and Ramdas Pophale) SiO2 
 PCOD9386021
Probable space group: P M M M
;
_chemical_formula_sum "Si O2"
_cell_formula_units_Z 40
_cell_length_a 9.358317
_cell_length_b 8.042638
_cell_length_c 28.133746
_cell_angle_alpha 90.000000
_cell_angle_beta 90.000000
_cell_angle_gamma 90.000000
_cell_volume 2117.502033
_symmetry_space_group_name_H-M "P M M M"
_symmetry_group_IT_number 47
_symmetry_cell_setting 'orthorhombic'
loop_
_space_group_symop_operation_xyz
x,y,z
-x,-y,z
x,-y,-z
-x,y,-z
-x,-y,-z
x,y,-z
-x,y,z
x,-y,z
loop_
_atom_site_type_symbol
_atom_site_label
_atom_site_fract_x
_atom_site_fract_y
_atom_site_fract_z
Si Si1 0.162592 0.700653 0.906949
Si Si2 0.171692 0.685862 0.617732
Si Si3 0.332670 0.197590 0.709554
Si Si4 0.174133 0.000000 0.554527
Si Si5 0.334859 0.701117 0.185172
Si Si6 0.337409 0.198702 0.000000
O O1 0.157905 0.500000 0.904541
O O2 0.239429 0.759769 0.858778
O O3 0.000000 0.762011 0.910771
O O4 0.253752 0.746090 0.953046
O O5 0.205385 0.500000 0.599999
O O6 0.242991 0.713298 0.668895
O O7 0.000000 0.697844 0.622572
O O8 0.218756 0.834364 0.582863
O O9 0.500000 0.246287 0.706229
O O10 0.285309 0.238804 0.763143
O O11 0.322214 0.000000 0.702088
O O12 0.222616 0.000000 0.500000
O O13 0.000000 0.000000 0.553935
O O14 0.500000 0.754897 0.178652
O O15 0.333488 0.500000 0.185597
O O16 0.500000 0.264001 0.000000
O O17 0.342908 0.000000 0.000000
#
# Coordination Sequence:
#
# PCOD9386021 Si02
#       6
#     8   8   8   4   8   4
#     4  10  21  37  57  81 108 138 175 220 271 327
#     4  10  20  34  55  82 111 146 188 233 282 336
#     4  10  20  34  54  80 111 148 186 226 275 330
#     4   9  18  34  55  81 115 149 185 234 285 334
#     4   9  18  33  52  75 105 141 180 220 263 318
#     4  11  24  39  56  78 104 137 178 223 270 324
#
# _framework density 18.890184000000001
#
# number of rings (size 3 to 8) (size 9 to 14) (size 15 to 20)
#    0.000    2.200    1.000    1.800    0.000    6.400 
#    0.000    6.000    0.000    1.200    0.000    1.400 
#    0.000    0.000    0.000    0.000    0.000    0.000 
#
# Total GULP energy -223306.701854 kJ/mol
# GULP energy per Si atom -5582.667546 kJ/mol
# Density = 1.884719 g / cm^3
# Si number density = 18.890184 Si / 1000 Ang^3
#
#
#
# Elastic Constant Matrix: (Units=GPa)
#
#
# Indices 1 2 3 4 5 6 
#
# 1 71.7696 34.0050 64.5046 0.0000 0.0000 0.0000
# 2 34.0050 76.1015 59.2948 0.0000 0.0000 0.0000
# 3 64.5046 59.2948 165.3327 0.0000 0.0000 0.0000
# 4 0.0000 0.0000 0.0000 32.0574 0.0000 0.0000
# 5 0.0000 0.0000 0.0000 0.0000 29.1709 0.0000
# 6 0.0000 0.0000 0.0000 0.0000 0.0000 16.6183
#
#
#
# Elastic Compliance Matrix: (Units=1/GPa)
#
#
# Indices 1 2 3 4 5 6 
#
# 1 0.022498 -0.004460 -0.007178 0.000000 0.000000 0.000000
# 2 -0.004460 0.019120 -0.005117 0.000000 0.000000 0.000000
# 3 -0.007178 -0.005117 0.010684 0.000000 0.000000 0.000000
# 4 0.000000 0.000000 0.000000 0.031194 0.000000 0.000000
# 5 0.000000 0.000000 0.000000 0.000000 0.034281 0.000000
# 6 0.000000 0.000000 0.000000 0.000000 0.000000 0.060175
#
#
# Mechanical properties :
#
#
# Convention : Reuss Voigt Hill
#
# Bulk Modulus (GPa) = 53.21457 69.86806 61.54132
# Shear Modulus (GPa) = 22.96454 25.92929 24.44692
#
# Velocity S-wave (km/s) = 3.49045 3.70893 3.60135
# Velocity P-wave (km/s) = 6.66903 7.44367 7.06697
#
# Compressibility (1/GPa) = 0.01879185
#
# Stress axis : x y z
#
# Youngs Moduli (GPa) = 44.44802 52.30022 93.59659
#
# Poissons Ratio (x) = 0.23327 0.67184
# Poissons Ratio (y) = 0.19825 0.47895
# Poissons Ratio (z) = 0.31905 0.26763
#
# Static dielectric constant tensor:
#      x y z
#    x 1.646210 0.000000 0.000000 
#    y 0.000000 1.672960 0.000000 
#    z 0.000000 0.000000 1.618420 
# 
# From -- ./inp_files/33009.got.cif
#   From: 2010.05.17/outbox.cif.g08.bks.cpg/sg47_17_cif.got.tgz:33009.got - 2010.06.03 20:15:42.
