data_PCOD9386623
_publ_section_title
;
Structure prediction by ZEFSAII (Michael W. Deem and Ramdas Pophale) SiO2 
 PCOD9386623
Probable space group: P M M M
;
_chemical_formula_sum "Si O2"
_cell_formula_units_Z 64
_cell_length_a 7.572032
_cell_length_b 26.000454
_cell_length_c 15.133691
_cell_angle_alpha 90.000000
_cell_angle_beta 90.000000
_cell_angle_gamma 90.000000
_cell_volume 2979.464631
_symmetry_space_group_name_H-M "P M M M"
_symmetry_group_IT_number 47
_symmetry_cell_setting 'orthorhombic'
loop_
_space_group_symop_operation_xyz
x,y,z
-x,-y,z
x,-y,-z
-x,y,-z
-x,-y,-z
x,y,-z
-x,y,z
x,-y,z
loop_
_atom_site_type_symbol
_atom_site_label
_atom_site_fract_x
_atom_site_fract_y
_atom_site_fract_z
Si Si1 0.716964 0.752551 0.216089
Si Si2 0.715016 0.283329 0.596725
Si Si3 0.210497 0.937741 0.405468
Si Si4 0.710015 0.846187 0.098497
Si Si5 0.292536 0.656368 0.099843
Si Si6 0.206490 0.556277 0.210529
Si Si7 0.786867 0.941313 0.214044
Si Si8 0.286733 0.403739 0.597780
O O1 0.500000 0.752149 0.218091
O O2 0.775717 0.746986 0.317279
O O3 0.778088 0.803687 0.166743
O O4 0.777635 0.703015 0.159689
O O5 0.774502 0.265178 0.500000
O O6 0.500000 0.282373 0.596290
O O7 0.763962 0.343573 0.606080
O O8 0.283652 0.919199 0.500000
O O9 0.279391 0.920916 0.309867
O O10 0.000000 0.927494 0.406853
O O11 0.229475 0.000000 0.404400
O O12 0.500000 0.837710 0.093119
O O13 0.738336 0.902632 0.137198
O O14 0.783104 0.840271 0.000000
O O15 0.500000 0.667471 0.090971
O O16 0.279213 0.603366 0.153673
O O17 0.219094 0.653458 0.000000
O O18 0.283433 0.500000 0.190324
O O19 0.225662 0.567064 0.315165
O O20 0.000000 0.555002 0.190145
O O21 0.000000 0.943142 0.219326
O O22 0.725571 0.000000 0.200754
O O23 0.228541 0.421921 0.500000
O O24 0.500000 0.405780 0.598498
#
# Coordination Sequence:
#
# PCOD9386623 Si02
#       8
#     8   8   8   8   8   8   8   8
#     4   9  16  31  55  79 104 132 165 210 261 313
#     4   8  13  24  49  82 107 128 160 205 256 307
#     4   7  10  20  42  70  95 121 158 201 242 288
#     4  10  21  35  51  74 104 138 174 213 262 315
#     4  10  20  36  60  83  99 126 176 232 276 314
#     4  11  24  38  51  73 110 150 180 212 263 326
#     4   9  18  33  53  76 102 135 175 216 257 302
#     4   9  17  32  56  83 107 135 177 224 263 305
#
# _framework density 21.480369
#
# number of rings (size 3 to 8) (size 9 to 14) (size 15 to 20)
#    0.000    2.875    1.250    2.625    0.000    4.250 
#    0.000    5.000    0.000    2.625    0.000    1.750 
#    0.000    0.000    0.000    0.000    0.000    0.000 
#
# Total GULP energy -356960.388738 kJ/mol
# GULP energy per Si atom -5577.506074 kJ/mol
# Density = 2.143148 g / cm^3
# Si number density = 21.480369 Si / 1000 Ang^3
#
#
#
# Elastic Constant Matrix: (Units=GPa)
#
#
# Indices 1 2 3 4 5 6 
#
# 1 45.8650 -4.0575 0.1181 0.0000 0.0000 0.0000
# 2 -4.0575 94.3354 73.1601 0.0000 0.0000 0.0000
# 3 0.1181 73.1601 161.2084 0.0000 0.0000 0.0000
# 4 0.0000 0.0000 0.0000 -4.4561 0.0000 0.0000
# 5 0.0000 0.0000 0.0000 0.0000 -7.4783 0.0000
# 6 0.0000 0.0000 0.0000 0.0000 0.0000 15.6525
#
#
#
# Elastic Compliance Matrix: (Units=1/GPa)
#
#
# Indices 1 2 3 4 5 6 
#
# 1 0.021935 0.001475 -0.000686 0.000000 0.000000 0.000000
# 2 0.001475 0.016457 -0.007470 0.000000 0.000000 0.000000
# 3 -0.000686 -0.007470 0.009594 0.000000 0.000000 0.000000
# 4 0.000000 0.000000 0.000000 -0.224412 0.000000 0.000000
# 5 0.000000 0.000000 0.000000 0.000000 -0.133720 0.000000
# 6 0.000000 0.000000 0.000000 0.000000 0.000000 0.063888
#
#
# Mechanical properties :
#
#
# Convention : Reuss Voigt Hill
#
# Bulk Modulus (GPa) = 28.88019 48.87222 38.87621
# Shear Modulus (GPa) = -22.58791 16.22283 -3.18254
#
# Velocity S-wave (km/s) = -3.24630 2.75114 -1.21853
# Velocity P-wave (km/s) = 0.75969 5.73526 4.01970
#
# Compressibility (1/GPa) = 0.03462581
#
# Stress axis : x y z
#
# Youngs Moduli (GPa) = 45.58841 60.76519 104.23716
#
# Poissons Ratio (x) = -0.08964 0.07146
# Poissons Ratio (y) = -0.06725 0.77860
# Poissons Ratio (z) = 0.03125 0.45389
#
# Static dielectric constant tensor:
#      x y z
#    x 1.827570 0.000000 0.000000 
#    y 0.000000 1.757470 0.000000 
#    z 0.000000 0.000000 1.802460 
# 
# From -- ./inp_files/21884.got.cif
#   From: 2010.05.17/outbox.cif.g08.bks.cpg/sg47_11_cif.got.tgz:21884.got - 2010.06.03 20:15:42.
