data_PCOD9386478
_publ_section_title
;
Structure prediction by ZEFSAII (Michael W. Deem and Ramdas Pophale) SiO2 
 PCOD9386478
Probable space group: P M M M
;
_chemical_formula_sum "Si O2"
_cell_formula_units_Z 48
_cell_length_a 8.751710
_cell_length_b 9.416352
_cell_length_c 31.865744
_cell_angle_alpha 90.000000
_cell_angle_beta 90.000000
_cell_angle_gamma 90.000000
_cell_volume 2626.029896
_symmetry_space_group_name_H-M "P M M M"
_symmetry_group_IT_number 47
_symmetry_cell_setting 'orthorhombic'
loop_
_space_group_symop_operation_xyz
x,y,z
-x,-y,z
x,-y,-z
-x,y,-z
-x,-y,-z
x,y,-z
-x,y,z
x,-y,z
loop_
_atom_site_type_symbol
_atom_site_label
_atom_site_fract_x
_atom_site_fract_y
_atom_site_fract_z
Si Si1 0.686117 0.663512 0.581044
Si Si2 0.683820 0.668268 0.324396
Si Si3 0.182740 0.832755 0.088659
Si Si4 0.324151 0.827555 0.000000
Si Si5 0.316717 0.334643 0.167284
Si Si6 0.313021 0.162876 0.500000
Si Si7 0.817039 0.165278 0.246191
O O1 0.500000 0.665147 0.581002
O O2 0.732346 0.500000 0.574633
O O3 0.731530 0.707866 0.628069
O O4 0.738113 0.758535 0.542334
O O5 0.500000 0.684491 0.321200
O O6 0.716350 0.500000 0.318664
O O7 0.762592 0.761421 0.289059
O O8 0.254937 0.740690 0.125530
O O9 0.000000 0.823149 0.090132
O O10 0.224125 0.000000 0.094168
O O11 0.241797 0.784816 0.042976
O O12 0.500000 0.781123 0.000000
O O13 0.321704 0.000000 0.000000
O O14 0.500000 0.328652 0.167614
O O15 0.270148 0.500000 0.168841
O O16 0.253548 0.250967 0.207409
O O17 0.500000 0.167056 0.500000
O O18 0.266035 0.000000 0.500000
O O19 0.000000 0.171323 0.243250
O O20 0.770132 0.000000 0.244786
#
# Coordination Sequence:
#
# PCOD9386478 Si02
#       7
#     8   8   8   4   8   4   8
#     4   8  14  25  41  62  92 129 165 203 250 303
#     4   9  18  33  53  77 103 133 172 215 259 310
#     4  10  20  35  57  85 115 146 182 223 266 315
#     4   9  17  31  54  83 114 149 186 224 268 315
#     4  11  24  40  58  81 108 139 177 220 265 314
#     4   9  15  21  33  59  94 129 166 207 250 298
#     4  11  24  39  55  78 106 136 172 213 259 314
#
# _framework density 18.278544
#
# number of rings (size 3 to 8) (size 9 to 14) (size 15 to 20)
#    0.000    2.333    0.000    4.000    0.000   10.667 
#    0.000    2.083    0.000    2.500    0.000    0.583 
#    0.000    4.667    0.000    0.000    0.000    0.000 
#
# Total GULP energy -267926.623000 kJ/mol
# GULP energy per Si atom -5581.804646 kJ/mol
# Density = 1.823694 g / cm^3
# Si number density = 18.278544 Si / 1000 Ang^3
#
#
#
# Elastic Constant Matrix: (Units=GPa)
#
#
# Indices 1 2 3 4 5 6 
#
# 1 36.8266 47.4964 47.7800 0.0000 0.0000 0.0000
# 2 47.4964 126.1025 121.1116 0.0000 0.0000 0.0000
# 3 47.7800 121.1116 210.5098 0.0000 0.0000 0.0000
# 4 0.0000 0.0000 0.0000 35.1791 0.0000 0.0000
# 5 0.0000 0.0000 0.0000 0.0000 -101.3265 0.0000
# 6 0.0000 0.0000 0.0000 0.0000 0.0000 20.9549
#
#
#
# Elastic Compliance Matrix: (Units=1/GPa)
#
#
# Indices 1 2 3 4 5 6 
#
# 1 0.052945 -0.018774 -0.001216 0.000000 0.000000 0.000000
# 2 -0.018774 0.024380 -0.009765 0.000000 0.000000 0.000000
# 3 -0.001216 -0.009765 0.010645 0.000000 0.000000 0.000000
# 4 0.000000 0.000000 0.000000 0.028426 0.000000 0.000000
# 5 0.000000 0.000000 0.000000 0.000000 -0.009869 0.000000
# 6 0.000000 0.000000 0.000000 0.000000 0.000000 0.047722
#
#
# Mechanical properties :
#
#
# Convention : Reuss Voigt Hill
#
# Bulk Modulus (GPa) = 35.13771 89.57943 62.35857
# Shear Modulus (GPa) = 22.39691 1.43156 11.91424
#
# Velocity S-wave (km/s) = 3.50424 0.88594 2.55584
# Velocity P-wave (km/s) = 5.96977 7.08243 6.54977
#
# Compressibility (1/GPa) = 0.02845945
#
# Stress axis : x y z
#
# Youngs Moduli (GPa) = 18.88745 41.01728 93.94455
#
# Poissons Ratio (x) = 0.77005 0.11424
# Poissons Ratio (y) = 0.35459 0.91739
# Poissons Ratio (z) = 0.02297 0.40054
#
# Static dielectric constant tensor:
#      x y z
#    x 1.614230 0.000000 0.000000 
#    y 0.000000 1.612960 0.000000 
#    z 0.000000 0.000000 1.610620 
# 
# From -- ./inp_files/34214.got.cif
#   From: 2010.05.17/outbox.cif.g08.bks.cpg/sg47_18_cif.got.tgz:34214.got - 2010.06.03 20:15:42.
