data_PCOD9386675
_publ_section_title
;
Structure prediction by ZEFSAII (Michael W. Deem and Ramdas Pophale) SiO2 
 PCOD9386675
Probable space group: P M M M
;
_chemical_formula_sum "Si O2"
_cell_formula_units_Z 56
_cell_length_a 21.220728
_cell_length_b 8.799148
_cell_length_c 15.558932
_cell_angle_alpha 90.000000
_cell_angle_beta 90.000000
_cell_angle_gamma 90.000000
_cell_volume 2905.231096
_symmetry_space_group_name_H-M "P M M M"
_symmetry_group_IT_number 47
_symmetry_cell_setting 'orthorhombic'
loop_
_space_group_symop_operation_xyz
x,y,z
-x,-y,z
x,-y,-z
-x,y,-z
-x,-y,-z
x,y,-z
-x,y,z
x,-y,z
loop_
_atom_site_type_symbol
_atom_site_label
_atom_site_fract_x
_atom_site_fract_y
_atom_site_fract_z
Si Si1 0.570781 0.318706 0.352076
Si Si2 0.701374 0.182610 0.407773
Si Si3 0.241714 0.181675 0.229236
Si Si4 0.076298 0.822905 0.596446
Si Si5 0.000000 0.182842 0.898427
Si Si6 0.890308 0.680489 0.220185
Si Si7 0.425100 0.173314 0.000000
Si Si8 0.369847 0.679647 0.168318
O O1 0.500000 0.265820 0.373909
O O2 0.573213 0.500000 0.367997
O O3 0.629945 0.241724 0.398161
O O4 0.585673 0.293380 0.251176
O O5 0.727037 0.231092 0.500000
O O6 0.743212 0.232126 0.327440
O O7 0.699304 0.000000 0.404526
O O8 0.179651 0.264330 0.196871
O O9 0.304808 0.230377 0.180432
O O10 0.233209 0.000000 0.226809
O O11 0.095752 0.770459 0.500000
O O12 0.098107 0.735176 0.681275
O O13 0.000000 0.820042 0.597483
O O14 0.096230 0.000000 0.604638
O O15 0.059869 0.244662 0.845089
O O16 0.000000 0.000000 0.894682
O O17 0.000000 0.226949 0.000000
O O18 0.896486 0.500000 0.216109
O O19 0.402677 0.261747 0.916449
O O20 0.500000 0.167273 0.000000
O O21 0.400676 0.000000 0.000000
O O22 0.356954 0.500000 0.165280
#
# Coordination Sequence:
#
# PCOD9386675 Si02
#       8
#     8   8   8   8   4   8   4   8
#     4   9  18  32  51  76 107 145 187 233 289 347
#     4   9  19  35  54  78 109 148 195 243 286 332
#     4  10  21  39  61  83 114 157 200 240 287 348
#     4   9  18  34  58  87 121 162 203 242 290 351
#     4  11  25  47  72  95 120 155 201 248 296 351
#     4  12  24  39  63  95 128 160 196 246 305 360
#     4  11  23  37  57  87 119 150 187 232 287 357
#     4  10  20  37  58  81 111 146 189 241 295 348
#
# _framework density 19.275576000000001
#
# number of rings (size 3 to 8) (size 9 to 14) (size 15 to 20)
#    0.000    2.000    0.714    3.429    0.000    4.571 
#    1.286    3.571    0.000    0.000    0.000    0.000 
#    0.000    0.000    0.000    0.000    0.000    0.000 
#
# Total GULP energy -312676.742386 kJ/mol
# GULP energy per Si atom -5583.513257 kJ/mol
# Density = 1.923170 g / cm^3
# Si number density = 19.275576 Si / 1000 Ang^3
#
#
#
# Elastic Constant Matrix: (Units=GPa)
#
#
# Indices 1 2 3 4 5 6 
#
# 1 96.2100 20.9517 26.4850 0.0000 0.0000 0.0000
# 2 20.9517 55.0260 31.8979 0.0000 0.0000 0.0000
# 3 26.4850 31.8979 101.8230 0.0000 0.0000 0.0000
# 4 0.0000 0.0000 0.0000 14.8357 0.0000 0.0000
# 5 0.0000 0.0000 0.0000 0.0000 -7.4413 0.0000
# 6 0.0000 0.0000 0.0000 0.0000 0.0000 26.6657
#
#
#
# Elastic Compliance Matrix: (Units=1/GPa)
#
#
# Indices 1 2 3 4 5 6 
#
# 1 0.011660 -0.003276 -0.002006 0.000000 0.000000 0.000000
# 2 -0.003276 0.023126 -0.006393 0.000000 0.000000 0.000000
# 3 -0.002006 -0.006393 0.012345 0.000000 0.000000 0.000000
# 4 0.000000 0.000000 0.000000 0.067405 0.000000 0.000000
# 5 0.000000 0.000000 0.000000 0.000000 -0.134385 0.000000
# 6 0.000000 0.000000 0.000000 0.000000 0.000000 0.037501
#
#
# Mechanical properties :
#
#
# Convention : Reuss Voigt Hill
#
# Bulk Modulus (GPa) = 42.05070 45.74758 43.89914
# Shear Modulus (GPa) = 102.18530 18.39366 60.28948
#
# Velocity S-wave (km/s) = 7.28889 3.09244 5.59871
# Velocity P-wave (km/s) = 9.62809 6.04449 8.03853
#
# Compressibility (1/GPa) = 0.02378082
#
# Stress axis : x y z
#
# Youngs Moduli (GPa) = 85.76499 43.24052 81.00177
#
# Poissons Ratio (x) = 0.14168 0.16252
# Poissons Ratio (y) = 0.28101 0.51781
# Poissons Ratio (z) = 0.17208 0.27642
#
# Static dielectric constant tensor:
#      x y z
#    x 1.656630 0.000000 0.000000 
#    y 0.000000 1.649310 0.000000 
#    z 0.000000 0.000000 1.671410 
# 
# From -- ./inp_files/25255.got.cif
#   From: 2010.05.17/outbox.cif.g08.bks.cpg/sg47_13_cif.got.tgz:25255.got - 2010.06.03 20:15:42.
