data_PCOD9386508
_publ_section_title
;
Structure prediction by ZEFSAII (Michael W. Deem and Ramdas Pophale) SiO2 
 PCOD9386508
Probable space group: P M M M
;
_chemical_formula_sum "Si O2"
_cell_formula_units_Z 52
_cell_length_a 16.204162
_cell_length_b 8.473012
_cell_length_c 19.979276
_cell_angle_alpha 90.000000
_cell_angle_beta 90.000000
_cell_angle_gamma 90.000000
_cell_volume 2743.115817
_symmetry_space_group_name_H-M "P M M M"
_symmetry_group_IT_number 47
_symmetry_cell_setting 'orthorhombic'
loop_
_space_group_symop_operation_xyz
x,y,z
-x,-y,z
x,-y,-z
-x,y,-z
-x,-y,-z
x,y,-z
-x,y,z
x,-y,z
loop_
_atom_site_type_symbol
_atom_site_label
_atom_site_fract_x
_atom_site_fract_y
_atom_site_fract_z
Si Si1 0.410230 0.689381 0.215537
Si Si2 0.643865 0.190085 0.925038
Si Si3 0.247938 0.311796 0.706070
Si Si4 0.500000 0.321140 0.418754
Si Si5 0.322527 0.188041 0.577049
Si Si6 0.838983 0.808544 0.073287
Si Si7 0.091813 0.809134 0.213815
O O1 0.500000 0.747310 0.239989
O O2 0.409791 0.500000 0.222292
O O3 0.400829 0.732710 0.137530
O O4 0.329137 0.750204 0.254006
O O5 0.741665 0.228074 0.919557
O O6 0.635664 0.000000 0.920446
O O7 0.616515 0.236974 0.000000
O O8 0.247221 0.500000 0.711604
O O9 0.259972 0.262911 0.629364
O O10 0.165116 0.246429 0.738725
O O11 0.500000 0.500000 0.392673
O O12 0.500000 0.326092 0.500000
O O13 0.585105 0.237514 0.400856
O O14 0.311119 0.241109 0.500000
O O15 0.316102 0.000000 0.578558
O O16 0.887651 0.753177 0.138259
O O17 0.844674 0.000000 0.072442
O O18 0.867050 0.752181 0.000000
O O19 0.000000 0.757342 0.233631
O O20 0.092772 0.000000 0.212971
#
# Coordination Sequence:
#
# PCOD9386508 Si02
#       7
#     8   8   8   4   8   8   8
#     4  10  22  37  51  73 106 145 189 231 273 323
#     4   9  17  31  52  75 101 137 183 234 281 325
#     4  11  23  38  58  81 111 150 186 229 281 336
#     4   9  17  31  53  83 119 155 188 221 262 319
#     4  10  21  37  58  85 116 149 188 233 277 326
#     4   8  14  27  49  77 107 137 174 224 277 330
#     4  10  20  35  58  85 112 144 183 230 283 339
#
# _framework density 18.956545999999999
#
# number of rings (size 3 to 8) (size 9 to 14) (size 15 to 20)
#    0.000    2.385    1.538    2.077    1.077    4.000 
#    0.000    3.077    0.000    0.923    0.000    4.308 
#    0.000    0.000    0.000    0.000    0.000    0.000 
#
# Total GULP energy -290210.175894 kJ/mol
# GULP energy per Si atom -5580.964921 kJ/mol
# Density = 1.891340 g / cm^3
# Si number density = 18.956546 Si / 1000 Ang^3
#
#
#
# Elastic Constant Matrix: (Units=GPa)
#
#
# Indices 1 2 3 4 5 6 
#
# 1 139.2656 25.8072 78.3685 0.0000 0.0000 0.0000
# 2 25.8072 11.4107 11.5233 0.0000 0.0000 0.0000
# 3 78.3685 11.5233 111.6822 0.0000 0.0000 0.0000
# 4 0.0000 0.0000 0.0000 19.4399 0.0000 0.0000
# 5 0.0000 0.0000 0.0000 0.0000 21.8928 0.0000
# 6 0.0000 0.0000 0.0000 0.0000 0.0000 17.1711
#
#
#
# Elastic Compliance Matrix: (Units=1/GPa)
#
#
# Indices 1 2 3 4 5 6 
#
# 1 0.018674 -0.032374 -0.009763 0.000000 0.000000 0.000000
# 2 -0.032374 0.153957 0.006832 0.000000 0.000000 0.000000
# 3 -0.009763 0.006832 0.015100 0.000000 0.000000 0.000000
# 4 0.000000 0.000000 0.000000 0.051441 0.000000 0.000000
# 5 0.000000 0.000000 0.000000 0.000000 0.045677 0.000000
# 6 0.000000 0.000000 0.000000 0.000000 0.000000 0.058237
#
#
# Mechanical properties :
#
#
# Convention : Reuss Voigt Hill
#
# Bulk Modulus (GPa) = 8.53823 54.86182 31.70003
# Shear Modulus (GPa) = 11.04394 21.47807 16.26100
#
# Velocity S-wave (km/s) = 2.41631 3.36968 2.93201
# Velocity P-wave (km/s) = 3.50694 6.64404 5.31234
#
# Compressibility (1/GPa) = 0.11712027
#
# Stress axis : x y z
#
# Youngs Moduli (GPa) = 53.55092 6.49531 66.22514
#
# Poissons Ratio (x) = 0.21028 0.64657
# Poissons Ratio (y) = 1.73367 -0.45246
# Poissons Ratio (z) = 0.52283 -0.04438
#
# Static dielectric constant tensor:
#      x y z
#    x 1.658060 0.000000 0.000000 
#    y 0.000000 1.650200 0.000000 
#    z 0.000000 0.000000 1.676640 
# 
# From -- ./inp_files/30871.got.cif
#   From: 2010.05.17/outbox.cif.g08.bks.cpg/sg47_16_cif.got.tgz:30871.got - 2010.06.03 20:15:42.
