data_PCOD9386729
_publ_section_title
;
Structure prediction by ZEFSAII (Michael W. Deem and Ramdas Pophale) SiO2 
 PCOD9386729
Probable space group: P M M M
;
_chemical_formula_sum "Si O2"
_cell_formula_units_Z 21
_cell_length_a 17.212299
_cell_length_b 7.417950
_cell_length_c 7.835950
_cell_angle_alpha 90.000000
_cell_angle_beta 90.000000
_cell_angle_gamma 90.000000
_cell_volume 1000.493887
_symmetry_space_group_name_H-M "P M M M"
_symmetry_group_IT_number 47
_symmetry_cell_setting 'orthorhombic'
loop_
_space_group_symop_operation_xyz
x,y,z
-x,-y,z
x,-y,-z
-x,y,-z
-x,-y,-z
x,y,-z
-x,y,z
x,-y,z
loop_
_atom_site_type_symbol
_atom_site_label
_atom_site_fract_x
_atom_site_fract_y
_atom_site_fract_z
Si Si1 0.500000 0.500000 0.500000
Si Si2 0.746313 0.208249 0.299533
Si Si3 0.083908 0.783057 0.796821
Si Si4 0.626207 0.500000 0.189291
O O1 0.567292 0.500000 0.347474
O O2 0.728241 0.210913 0.500000
O O3 0.834384 0.279355 0.277209
O O4 0.683303 0.328675 0.206694
O O5 0.744592 0.000000 0.240121
O O6 0.000000 0.715637 0.732495
O O7 0.083001 0.000000 0.770330
O O8 0.086152 0.750685 0.000000
O O9 0.590846 0.500000 0.000000
#
# Coordination Sequence:
#
# PCOD9386729 Si02
#       4
#     1   8   8   4
#     4  12  26  52  70  98 130 146 202 256 314 398
#     4  10  20  37  62  92 129 168 209 258 304 360
#     4   8  14  26  47  79 120 165 212 256 297 348
#     4  12  25  45  72  95 124 163 199 252 317 377
#
# _framework density 20.989633999999999
#
# number of rings (size 3 to 8) (size 9 to 14) (size 15 to 20)
#    0.000    2.286    1.905    2.571    0.000    3.048 
#    0.000    6.667    0.000    8.000    0.000    0.000 
#    0.000    0.000    0.000    0.000    0.000    0.000 
#
# Total GULP energy -116934.706514 kJ/mol
# GULP energy per Si atom -5568.319358 kJ/mol
# Density = 2.094186 g / cm^3
# Si number density = 20.989634 Si / 1000 Ang^3
#
#
#
# Elastic Constant Matrix: (Units=GPa)
#
#
# Indices 1 2 3 4 5 6 
#
# 1 161.9227 46.4191 63.9850 0.0000 0.0000 0.0000
# 2 46.4191 87.4356 24.0185 0.0000 0.0000 0.0000
# 3 63.9850 24.0185 110.2702 0.0000 0.0000 0.0000
# 4 0.0000 0.0000 0.0000 8.5491 0.0000 0.0000
# 5 0.0000 0.0000 0.0000 0.0000 56.5233 0.0000
# 6 0.0000 0.0000 0.0000 0.0000 0.0000 -9.1668
#
#
#
# Elastic Compliance Matrix: (Units=1/GPa)
#
#
# Indices 1 2 3 4 5 6 
#
# 1 0.008932 -0.003529 -0.004414 0.000000 0.000000 0.000000
# 2 -0.003529 0.013559 -0.000906 0.000000 0.000000 0.000000
# 3 -0.004414 -0.000906 0.011827 0.000000 0.000000 0.000000
# 4 0.000000 0.000000 0.000000 0.116972 0.000000 0.000000
# 5 0.000000 0.000000 0.000000 0.000000 0.017692 0.000000
# 6 0.000000 0.000000 0.000000 0.000000 0.000000 -0.109090
#
#
# Mechanical properties :
#
#
# Convention : Reuss Voigt Hill
#
# Bulk Modulus (GPa) = 60.16610 69.83041 64.99825
# Shear Modulus (GPa) = 60.14671 26.19485 43.17078
#
# Velocity S-wave (km/s) = 5.35888 3.53652 4.54008
# Velocity P-wave (km/s) = 8.18640 7.07228 7.64965
#
# Compressibility (1/GPa) = 0.01662066
#
# Stress axis : x y z
#
# Youngs Moduli (GPa) = 111.95990 73.74933 84.55150
#
# Poissons Ratio (x) = 0.26028 0.37321
# Poissons Ratio (y) = 0.39514 0.07656
# Poissons Ratio (z) = 0.49419 0.06678
#
# Static dielectric constant tensor:
#      x y z
#    x 1.738790 0.000000 0.000000 
#    y 0.000000 1.815450 0.000000 
#    z 0.000000 0.000000 1.747270 
# 
# From -- ./inp_files/324.got.cif
#   From: 2010.05.17/outbox.cif.g08.bks.cpg/sg47_1_cif.got.tgz:324.got - 2010.06.03 20:15:42.
