data_PCOD9386245
_publ_section_title
;
Structure prediction by ZEFSAII (Michael W. Deem and Ramdas Pophale) SiO2 
 PCOD9386245
Probable space group: P M M M
;
_chemical_formula_sum "Si O2"
_cell_formula_units_Z 48
_cell_length_a 20.288115
_cell_length_b 13.733283
_cell_length_c 9.836579
_cell_angle_alpha 90.000000
_cell_angle_beta 90.000000
_cell_angle_gamma 90.000000
_cell_volume 2740.691493
_symmetry_space_group_name_H-M "P M M M"
_symmetry_group_IT_number 47
_symmetry_cell_setting 'orthorhombic'
loop_
_space_group_symop_operation_xyz
x,y,z
-x,-y,z
x,-y,-z
-x,y,-z
-x,-y,-z
x,y,-z
-x,y,z
x,-y,z
loop_
_atom_site_type_symbol
_atom_site_label
_atom_site_fract_x
_atom_site_fract_y
_atom_site_fract_z
Si Si1 0.629134 0.117723 0.662634
Si Si2 0.077081 0.618036 0.500000
Si Si3 0.926185 0.382085 0.000000
Si Si4 0.257447 0.220242 0.161787
Si Si5 0.500000 0.117641 0.159290
Si Si6 0.832250 0.383465 0.247392
Si Si7 0.117222 0.882860 0.847337
Si Si8 0.000000 0.118279 0.656915
O O1 0.625020 0.141116 0.500000
O O2 0.688197 0.170964 0.742453
O O3 0.563780 0.143857 0.749907
O O4 0.637465 0.000000 0.670945
O O5 0.073303 0.500000 0.500000
O O6 0.123523 0.645319 0.375088
O O7 0.000000 0.648798 0.500000
O O8 0.881542 0.356846 0.873696
O O9 0.931563 0.500000 0.000000
O O10 0.000000 0.343441 0.000000
O O11 0.234617 0.324848 0.220406
O O12 0.190275 0.157623 0.171430
O O13 0.275404 0.224879 0.000000
O O14 0.500000 0.000000 0.151063
O O15 0.500000 0.152067 0.000000
O O16 0.821146 0.500000 0.249658
O O17 0.064774 0.848655 0.736690
O O18 0.120372 0.000000 0.839586
O O19 0.094344 0.857833 0.000000
O O20 0.000000 0.144690 0.500000
O O21 0.000000 0.000000 0.662883
#
# Coordination Sequence:
#
# PCOD9386245 Si02
#       8
#     8   4   4   8   4   8   8   4
#     4  10  21  36  57  85 118 149 179 215 257 307
#     4   9  18  34  54  72  95 132 175 226 291 350
#     4   9  16  30  52  72  95 130 173 228 289 338
#     4  11  22  35  51  77 105 140 179 219 264 320
#     4   9  17  33  59  89 118 149 178 209 251 304
#     4  10  20  35  52  74 104 137 178 228 280 336
#     4   9  18  33  49  64  89 126 168 212 258 307
#     4   9  17  31  49  65  84 117 162 214 264 308
#
# _framework density 17.513829000000001
#
# number of rings (size 3 to 8) (size 9 to 14) (size 15 to 20)
#    0.000    2.333    0.833    2.000    1.167    6.333 
#    3.000    1.667    0.000    0.000    0.000    0.583 
#    0.000    3.333    0.000    0.000    0.000    0.000 
#
# Total GULP energy -267671.128474 kJ/mol
# GULP energy per Si atom -5576.481843 kJ/mol
# Density = 1.747397 g / cm^3
# Si number density = 17.513829 Si / 1000 Ang^3
#
#
#
# Elastic Constant Matrix: (Units=GPa)
#
#
# Indices 1 2 3 4 5 6 
#
# 1 128.8635 40.9693 92.7462 0.0000 0.0000 0.0000
# 2 40.9693 69.7503 42.2091 0.0000 0.0000 0.0000
# 3 92.7462 42.2091 189.9848 0.0000 0.0000 0.0000
# 4 0.0000 0.0000 0.0000 14.3656 0.0000 0.0000
# 5 0.0000 0.0000 0.0000 0.0000 33.7207 0.0000
# 6 0.0000 0.0000 0.0000 0.0000 0.0000 17.0227
#
#
#
# Elastic Compliance Matrix: (Units=1/GPa)
#
#
# Indices 1 2 3 4 5 6 
#
# 1 0.013035 -0.004397 -0.005386 0.000000 0.000000 0.000000
# 2 -0.004397 0.018047 -0.001863 0.000000 0.000000 0.000000
# 3 -0.005386 -0.001863 0.008307 0.000000 0.000000 0.000000
# 4 0.000000 0.000000 0.000000 0.069611 0.000000 0.000000
# 5 0.000000 0.000000 0.000000 0.000000 0.029655 0.000000
# 6 0.000000 0.000000 0.000000 0.000000 0.000000 0.058745
#
#
# Mechanical properties :
#
#
# Convention : Reuss Voigt Hill
#
# Bulk Modulus (GPa) = 62.12677 82.27200 72.19938
# Shear Modulus (GPa) = 22.11825 27.20006 24.65915
#
# Velocity S-wave (km/s) = 3.55759 3.94517 3.75638
# Velocity P-wave (km/s) = 7.24053 8.23589 7.75420
#
# Compressibility (1/GPa) = 0.01609612
#
# Stress axis : x y z
#
# Youngs Moduli (GPa) = 76.71822 55.41155 120.37967
#
# Poissons Ratio (x) = 0.24362 0.64842
# Poissons Ratio (y) = 0.33730 0.22428
# Poissons Ratio (z) = 0.41324 0.10324
#
# Static dielectric constant tensor:
#      x y z
#    x 1.568270 0.000000 0.000000 
#    y 0.000000 1.642910 0.000000 
#    z 0.000000 0.000000 1.661270 
# 
# From -- ./inp_files/9287.got.cif
#   From: 2010.05.17/outbox.cif.g08.bks.cpg/sg47_5_cif.got.tgz:9287.got - 2010.06.03 20:15:42.
