data_PCOD9386473
_publ_section_title
;
Structure prediction by ZEFSAII (Michael W. Deem and Ramdas Pophale) SiO2 
 PCOD9386473
Probable space group: P M M M
;
_chemical_formula_sum "Si O2"
_cell_formula_units_Z 40
_cell_length_a 7.655572
_cell_length_b 27.796768
_cell_length_c 9.382406
_cell_angle_alpha 90.000000
_cell_angle_beta 90.000000
_cell_angle_gamma 90.000000
_cell_volume 1996.577487
_symmetry_space_group_name_H-M "P M M M"
_symmetry_group_IT_number 47
_symmetry_cell_setting 'orthorhombic'
loop_
_space_group_symop_operation_xyz
x,y,z
-x,-y,z
x,-y,-z
-x,y,-z
-x,-y,-z
x,y,-z
-x,y,z
x,-y,z
loop_
_atom_site_type_symbol
_atom_site_label
_atom_site_fract_x
_atom_site_fract_y
_atom_site_fract_z
Si Si1 0.198413 0.388336 0.333197
Si Si2 0.500000 0.442455 0.833592
Si Si3 0.213801 0.094458 0.336377
Si Si4 0.706404 0.296035 0.164426
Si Si5 0.789027 0.187512 0.836465
Si Si6 0.786362 0.000000 0.163922
O O1 0.246505 0.387116 0.500000
O O2 0.331835 0.420655 0.244658
O O3 0.207807 0.334969 0.266468
O O4 0.000000 0.406152 0.320922
O O5 0.500000 0.500000 0.824756
O O6 0.500000 0.428173 0.000000
O O7 0.269559 0.091278 0.500000
O O8 0.271310 0.143899 0.262121
O O9 0.000000 0.094530 0.335620
O O10 0.269159 0.048005 0.246379
O O11 0.500000 0.305965 0.164433
O O12 0.734720 0.240886 0.209615
O O13 0.769746 0.300258 0.000000
O O14 0.000000 0.186516 0.837612
O O15 0.729190 0.180643 0.000000
O O16 0.000000 0.000000 0.163643
O O17 0.729868 0.000000 0.000000
#
# Coordination Sequence:
#
# PCOD9386473 Si02
#       6
#     8   4   8   8   8   4
#     4  11  24  41  64  95 130 168 208 253 309 369
#     4  11  25  45  69  97 129 167 213 262 307 356
#     4   9  16  25  38  59  89 124 165 215 270 331
#     4  10  20  35  57  84 114 152 197 244 294 351
#     4   9  17  29  45  68 100 137 177 223 276 336
#     4   9  15  23  37  57  84 121 162 207 266 334
#
# _framework density 20.034284
#
# number of rings (size 3 to 8) (size 9 to 14) (size 15 to 20)
#    0.000    2.200    1.000    2.400    0.000    8.000 
#    0.000    4.000    0.000    0.000    0.000    0.700 
#    0.000    5.600    0.000    0.000    0.000    0.000 
#
# Total GULP energy -223513.455664 kJ/mol
# GULP energy per Si atom -5587.836392 kJ/mol
# Density = 1.998869 g / cm^3
# Si number density = 20.034284 Si / 1000 Ang^3
#
#
#
# Elastic Constant Matrix: (Units=GPa)
#
#
# Indices 1 2 3 4 5 6 
#
# 1 66.4324 35.7817 47.9387 0.0000 0.0000 0.0000
# 2 35.7817 132.3450 100.0160 0.0000 0.0000 0.0000
# 3 47.9387 100.0160 164.9112 0.0000 0.0000 0.0000
# 4 0.0000 0.0000 0.0000 -22.8705 0.0000 0.0000
# 5 0.0000 0.0000 0.0000 0.0000 -7.2669 0.0000
# 6 0.0000 0.0000 0.0000 0.0000 0.0000 22.5849
#
#
#
# Elastic Compliance Matrix: (Units=1/GPa)
#
#
# Indices 1 2 3 4 5 6 
#
# 1 0.019279 -0.001804 -0.004510 0.000000 0.000000 0.000000
# 2 -0.001804 0.014118 -0.008038 0.000000 0.000000 0.000000
# 3 -0.004510 -0.008038 0.012250 0.000000 0.000000 0.000000
# 4 0.000000 0.000000 0.000000 -0.043725 0.000000 0.000000
# 5 0.000000 0.000000 0.000000 0.000000 -0.137611 0.000000
# 6 0.000000 0.000000 0.000000 0.000000 0.000000 0.044277
#
#
# Mechanical properties :
#
#
# Convention : Reuss Voigt Hill
#
# Bulk Modulus (GPa) = 59.02215 81.24015 70.13115
# Shear Modulus (GPa) = -87.63067 10.48631 -38.57218
#
# Velocity S-wave (km/s) = -6.62082 2.29032 -4.39259
# Velocity P-wave (km/s) = 5.37797 6.90164 3.05860
#
# Compressibility (1/GPa) = 0.01694279
#
# Stress axis : x y z
#
# Youngs Moduli (GPa) = 51.86927 70.82988 81.63270
#
# Poissons Ratio (x) = 0.12777 0.36819
# Poissons Ratio (y) = 0.09357 0.65618
# Poissons Ratio (z) = 0.23395 0.56934
#
# Static dielectric constant tensor:
#      x y z
#    x 1.737730 0.000000 0.000000 
#    y 0.000000 1.675880 0.000000 
#    z 0.000000 0.000000 1.674720 
# 
# From -- ./inp_files/1752.got.cif
#   From: 2010.05.17/outbox.cif.g08.bks.cpg/sg47_1_cif.got.tgz:1752.got - 2010.06.03 20:15:42.
