data_PCOD9386857
_publ_section_title
;
Structure prediction by ZEFSAII (Michael W. Deem and Ramdas Pophale) SiO2 
 PCOD9386857
Probable space group: P M M M
;
_chemical_formula_sum "Si O2"
_cell_formula_units_Z 52
_cell_length_a 14.818815
_cell_length_b 8.825802
_cell_length_c 20.900850
_cell_angle_alpha 90.000000
_cell_angle_beta 90.000000
_cell_angle_gamma 90.000000
_cell_volume 2733.578845
_symmetry_space_group_name_H-M "P M M M"
_symmetry_group_IT_number 47
_symmetry_cell_setting 'orthorhombic'
loop_
_space_group_symop_operation_xyz
x,y,z
-x,-y,z
x,-y,-z
-x,y,-z
-x,-y,-z
x,y,-z
-x,y,z
x,-y,z
loop_
_atom_site_type_symbol
_atom_site_label
_atom_site_fract_x
_atom_site_fract_y
_atom_site_fract_z
Si Si1 0.396694 0.180805 0.830975
Si Si2 0.104749 0.180365 0.766712
Si Si3 0.895979 0.684833 0.000000
Si Si4 0.102552 0.818047 0.383784
Si Si5 0.717132 0.317552 0.430323
Si Si6 0.393240 0.678645 0.692881
Si Si7 0.220874 0.680565 0.877756
O O1 0.500000 0.230180 0.844527
O O2 0.374954 0.233715 0.758511
O O3 0.320677 0.250039 0.876342
O O4 0.393275 0.000000 0.833938
O O5 0.116398 0.216263 0.691713
O O6 0.170329 0.269514 0.813111
O O7 0.000000 0.212130 0.782967
O O8 0.119641 0.000000 0.774236
O O9 0.840843 0.732411 0.937130
O O10 0.898201 0.500000 0.000000
O O11 0.000000 0.736730 0.000000
O O12 0.180451 0.736505 0.422378
O O13 0.000000 0.774704 0.400890
O O14 0.109616 0.000000 0.391220
O O15 0.682189 0.267354 0.500000
O O16 0.713262 0.500000 0.429026
O O17 0.661624 0.263787 0.368450
O O18 0.500000 0.690515 0.679605
O O19 0.372543 0.500000 0.703138
O O20 0.227856 0.500000 0.880094
#
# Coordination Sequence:
#
# PCOD9386857 Si02
#       7
#     8   8   4   8   8   8   8
#     4  10  21  37  57  81 109 139 172 216 269 317
#     4   9  18  33  53  78 107 136 170 217 269 317
#     4   9  20  38  56  79 114 150 181 213 252 301
#     4   9  19  35  52  70  95 130 171 214 261 311
#     4  10  21  34  48  71 102 134 169 210 258 310
#     4   9  18  34  56  80 105 134 170 212 258 312
#     4  11  21  34  56  82 109 143 180 218 259 305
#
# _framework density 19.022682
#
# number of rings (size 3 to 8) (size 9 to 14) (size 15 to 20)
#    0.000    2.385    0.000    3.231    0.000    6.769 
#    0.000    6.538    0.000    5.077    0.000    3.231 
#    0.000    0.000    0.000    0.000    0.000    0.000 
#
# Total GULP energy -290276.325896 kJ/mol
# GULP energy per Si atom -5582.237036 kJ/mol
# Density = 1.897939 g / cm^3
# Si number density = 19.022682 Si / 1000 Ang^3
#
#
#
# Elastic Constant Matrix: (Units=GPa)
#
#
# Indices 1 2 3 4 5 6 
#
# 1 109.4304 29.0279 64.8170 0.0000 0.0000 0.0000
# 2 29.0279 18.9266 17.2329 0.0000 0.0000 0.0000
# 3 64.8170 17.2329 49.8664 0.0000 0.0000 0.0000
# 4 0.0000 0.0000 0.0000 -517.2064 0.0000 0.0000
# 5 0.0000 0.0000 0.0000 0.0000 17.6749 0.0000
# 6 0.0000 0.0000 0.0000 0.0000 0.0000 31.0899
#
#
#
# Elastic Compliance Matrix: (Units=1/GPa)
#
#
# Indices 1 2 3 4 5 6 
#
# 1 0.045886 -0.023447 -0.051540 0.000000 0.000000 0.000000
# 2 -0.023447 0.089075 -0.000306 0.000000 0.000000 0.000000
# 3 -0.051540 -0.000306 0.087151 0.000000 0.000000 0.000000
# 4 0.000000 0.000000 0.000000 -0.001933 0.000000 0.000000
# 5 0.000000 0.000000 0.000000 0.000000 0.056577 0.000000
# 6 0.000000 0.000000 0.000000 0.000000 0.000000 0.032165
#
#
# Mechanical properties :
#
#
# Convention : Reuss Voigt Hill
#
# Bulk Modulus (GPa) = 13.98078 44.48657 29.23367
# Shear Modulus (GPa) = 10.34450 -89.21195 -39.43372
#
# Velocity S-wave (km/s) = 2.33448 -6.85562 -4.55794
# Velocity P-wave (km/s) = 3.82516 6.26332 3.50694
#
# Compressibility (1/GPa) = 0.07152677
#
# Stress axis : x y z
#
# Youngs Moduli (GPa) = 21.79335 11.22644 11.47431
#
# Poissons Ratio (x) = 0.26323 0.59138
# Poissons Ratio (y) = 0.51100 0.00351
# Poissons Ratio (z) = 1.12322 0.00343
#
# Static dielectric constant tensor:
#      x y z
#    x 1.666580 0.000000 0.000000 
#    y 0.000000 1.638710 0.000000 
#    z 0.000000 0.000000 1.662260 
# 
# From -- ./inp_files/7059.got.cif
#   From: 2010.05.17/outbox.cif.g08.bks.cpg/sg47_4_cif.got.tgz:7059.got - 2010.06.03 20:15:42.
