data_PCOD9386883
_publ_section_title
;
Structure prediction by ZEFSAII (Michael W. Deem and Ramdas Pophale) SiO2 
 PCOD9386883
Probable space group: P M M M
;
_chemical_formula_sum "Si O2"
_cell_formula_units_Z 48
_cell_length_a 33.659216
_cell_length_b 9.727937
_cell_length_c 8.089571
_cell_angle_alpha 90.000000
_cell_angle_beta 90.000000
_cell_angle_gamma 90.000000
_cell_volume 2648.806518
_symmetry_space_group_name_H-M "P M M M"
_symmetry_group_IT_number 47
_symmetry_cell_setting 'orthorhombic'
loop_
_space_group_symop_operation_xyz
x,y,z
-x,-y,z
x,-y,-z
-x,y,-z
-x,-y,-z
x,y,-z
-x,y,z
x,-y,z
loop_
_atom_site_type_symbol
_atom_site_label
_atom_site_fract_x
_atom_site_fract_y
_atom_site_fract_z
Si Si1 0.178388 0.157209 0.301853
Si Si2 0.045336 0.666749 0.000000
Si Si3 0.898383 0.665155 0.305016
Si Si4 0.734942 0.155650 0.803370
Si Si5 0.500000 0.155192 0.803358
Si Si6 0.426792 0.657723 0.300578
Si Si7 0.662154 0.343319 0.300934
O O1 0.178291 0.150497 0.500000
O O2 0.141924 0.255240 0.256892
O O3 0.221781 0.209386 0.249570
O O4 0.173651 0.000000 0.237824
O O5 0.068579 0.704857 0.831238
O O6 0.044205 0.500000 0.000000
O O7 0.000000 0.717038 0.000000
O O8 0.907802 0.696090 0.500000
O O9 0.892733 0.500000 0.295414
O O10 0.697824 0.246228 0.750508
O O11 0.731421 0.000000 0.735186
O O12 0.734845 0.148510 0.000000
O O13 0.461040 0.239714 0.752574
O O14 0.500000 0.000000 0.734332
O O15 0.500000 0.146458 0.000000
O O16 0.426605 0.655090 0.500000
O O17 0.434374 0.500000 0.245233
O O18 0.382258 0.698218 0.244815
O O19 0.661184 0.345358 0.500000
O O20 0.668932 0.500000 0.243856
#
# Coordination Sequence:
#
# PCOD9386883 Si02
#       7
#     8   4   8   8   4   8   8
#     4   9  18  33  52  73  99 134 173 212 256 304
#     4   9  18  32  51  77 107 137 171 215 267 318
#     4   9  18  32  51  76 103 133 173 218 262 311
#     4  10  21  34  49  74 106 138 172 209 252 306
#     4  11  24  37  50  76 110 137 164 203 252 304
#     4   9  19  37  59  79  99 128 169 213 254 301
#     4   9  19  36  56  77 101 131 169 212 256 302
#
# _framework density 18.121369999999999
#
# number of rings (size 3 to 8) (size 9 to 14) (size 15 to 20)
#    0.000    2.667    0.000    2.000    1.167    5.667 
#    0.000    8.333    0.000    1.000    0.000    2.333 
#    0.000    0.000    0.000    0.000    0.000    0.000 
#
# Total GULP energy -267545.442412 kJ/mol
# GULP energy per Si atom -5573.863384 kJ/mol
# Density = 1.808012 g / cm^3
# Si number density = 18.121370 Si / 1000 Ang^3
#
#
#
# Elastic Constant Matrix: (Units=GPa)
#
#
# Indices 1 2 3 4 5 6 
#
# 1 204.1737 91.6111 57.2262 0.0000 0.0000 0.0000
# 2 91.6111 66.0449 30.7424 0.0000 0.0000 0.0000
# 3 57.2262 30.7424 46.4425 0.0000 0.0000 0.0000
# 4 0.0000 0.0000 0.0000 19.5491 0.0000 0.0000
# 5 0.0000 0.0000 0.0000 0.0000 53.3463 0.0000
# 6 0.0000 0.0000 0.0000 0.0000 0.0000 -96.5458
#
#
#
# Elastic Compliance Matrix: (Units=1/GPa)
#
#
# Indices 1 2 3 4 5 6 
#
# 1 0.014188 -0.016683 -0.006439 0.000000 0.000000 0.000000
# 2 -0.016683 0.041501 -0.006915 0.000000 0.000000 0.000000
# 3 -0.006439 -0.006915 0.034044 0.000000 0.000000 0.000000
# 4 0.000000 0.000000 0.000000 0.051153 0.000000 0.000000
# 5 0.000000 0.000000 0.000000 0.000000 0.018745 0.000000
# 6 0.000000 0.000000 0.000000 0.000000 0.000000 -0.010358
#
#
# Mechanical properties :
#
#
# Convention : Reuss Voigt Hill
#
# Bulk Modulus (GPa) = 33.71680 75.09118 54.40399
# Shear Modulus (GPa) = 22.80665 4.40866 13.60766
#
# Velocity S-wave (km/s) = 3.55145 1.56145 2.74326
# Velocity P-wave (km/s) = 5.95513 6.69169 6.33413
#
# Compressibility (1/GPa) = 0.02965880
#
# Stress axis : x y z
#
# Youngs Moduli (GPa) = 70.48094 24.09574 29.37415
#
# Poissons Ratio (x) = 0.40199 0.18915
# Poissons Ratio (y) = 1.17585 0.20311
# Poissons Ratio (z) = 0.45385 0.16661
#
# Static dielectric constant tensor:
#      x y z
#    x 1.610550 0.000000 0.000000 
#    y 0.000000 1.628560 0.000000 
#    z 0.000000 0.000000 1.634900 
# 
# From -- ./inp_files/13880.got.cif
#   From: 2010.05.17/outbox.cif.g08.bks.cpg/sg47_7_cif.got.tgz:13880.got - 2010.06.03 20:15:42.
