data_PCOD9386619
_publ_section_title
;
Structure prediction by ZEFSAII (Michael W. Deem and Ramdas Pophale) SiO2 
 PCOD9386619
Probable space group: P M M M
;
_chemical_formula_sum "Si O2"
_cell_formula_units_Z 48
_cell_length_a 29.509680
_cell_length_b 8.775737
_cell_length_c 10.132923
_cell_angle_alpha 90.000000
_cell_angle_beta 90.000000
_cell_angle_gamma 90.000000
_cell_volume 2624.114868
_symmetry_space_group_name_H-M "P M M M"
_symmetry_group_IT_number 47
_symmetry_cell_setting 'orthorhombic'
loop_
_space_group_symop_operation_xyz
x,y,z
-x,-y,z
x,-y,-z
-x,y,-z
-x,-y,-z
x,y,-z
-x,y,z
x,-y,z
loop_
_atom_site_type_symbol
_atom_site_label
_atom_site_fract_x
_atom_site_fract_y
_atom_site_fract_z
Si Si1 0.125904 0.317315 0.345768
Si Si2 0.392181 0.817002 0.755564
Si Si3 0.300228 0.319993 0.843977
Si Si4 0.053804 0.817560 0.149834
Si Si5 0.446548 0.317670 0.000000
Si Si6 0.201383 0.182640 0.847274
Si Si7 0.551731 0.185283 0.500000
O O1 0.126040 0.267763 0.500000
O O2 0.127913 0.500000 0.344492
O O3 0.081869 0.262282 0.264650
O O4 0.167509 0.251921 0.259965
O O5 0.341818 0.749895 0.764038
O O6 0.419648 0.769167 0.626598
O O7 0.389585 0.000000 0.761627
O O8 0.421548 0.753700 0.875563
O O9 0.295899 0.500000 0.819507
O O10 0.252387 0.238705 0.819783
O O11 0.310810 0.299023 0.000000
O O12 0.000000 0.790613 0.162369
O O13 0.061295 0.000000 0.157857
O O14 0.067406 0.770358 0.000000
O O15 0.440912 0.500000 0.000000
O O16 0.500000 0.282815 0.000000
O O17 0.199037 0.000000 0.841815
O O18 0.190398 0.228441 0.000000
O O19 0.500000 0.241268 0.500000
O O20 0.549580 0.000000 0.500000
#
# Coordination Sequence:
#
# PCOD9386619 Si02
#       7
#     8   8   8   8   4   8   4
#     4  11  24  39  55  82 121 159 196 239 291 347
#     4  11  21  36  60  85 112 147 189 234 281 337
#     4  10  20  36  59  86 118 149 181 228 285 342
#     4   9  19  37  61  88 117 152 198 248 294 344
#     4  11  23  37  55  83 117 149 185 233 286 339
#     4  10  21  38  62  88 112 144 191 240 286 341
#     4   9  20  38  57  81 113 147 187 233 278 329
#
# _framework density 18.291881
#
# number of rings (size 3 to 8) (size 9 to 14) (size 15 to 20)
#    0.000    1.833    0.833    3.750    0.000    7.333 
#    1.500    4.167    0.000    3.000    0.000    0.000 
#    0.000    0.000    0.000    0.000    0.000    0.000 
#
# Total GULP energy -268070.516800 kJ/mol
# GULP energy per Si atom -5584.802433 kJ/mol
# Density = 1.825025 g / cm^3
# Si number density = 18.291881 Si / 1000 Ang^3
#
#
#
# Elastic Constant Matrix: (Units=GPa)
#
#
# Indices 1 2 3 4 5 6 
#
# 1 126.0168 49.6919 95.9904 0.0000 0.0000 0.0000
# 2 49.6919 54.0305 52.9932 0.0000 0.0000 0.0000
# 3 95.9904 52.9932 175.3808 0.0000 0.0000 0.0000
# 4 0.0000 0.0000 0.0000 33.2514 0.0000 0.0000
# 5 0.0000 0.0000 0.0000 0.0000 33.6631 0.0000
# 6 0.0000 0.0000 0.0000 0.0000 0.0000 -29.3186
#
#
#
# Elastic Compliance Matrix: (Units=1/GPa)
#
#
# Indices 1 2 3 4 5 6 
#
# 1 0.016072 -0.008745 -0.006154 0.000000 0.000000 0.000000
# 2 -0.008745 0.031062 -0.004599 0.000000 0.000000 0.000000
# 3 -0.006154 -0.004599 0.010460 0.000000 0.000000 0.000000
# 4 0.000000 0.000000 0.000000 0.030074 0.000000 0.000000
# 5 0.000000 0.000000 0.000000 0.000000 0.029706 0.000000
# 6 0.000000 0.000000 0.000000 0.000000 0.000000 -0.034108
#
#
# Mechanical properties :
#
#
# Convention : Reuss Voigt Hill
#
# Bulk Modulus (GPa) = 53.77331 83.64214 68.70772
# Shear Modulus (GPa) = 38.92231 17.96934 28.44583
#
# Velocity S-wave (km/s) = 4.61786 3.13767 3.94776
# Velocity P-wave (km/s) = 7.60881 7.67804 7.64351
#
# Compressibility (1/GPa) = 0.01859659
#
# Stress axis : x y z
#
# Youngs Moduli (GPa) = 62.22183 32.19362 95.60446
#
# Poissons Ratio (x) = 0.28154 0.58834
# Poissons Ratio (y) = 0.54415 0.43971
# Poissons Ratio (z) = 0.38291 0.14807
#
# Static dielectric constant tensor:
#      x y z
#    x 1.615230 0.000000 0.000000 
#    y 0.000000 1.613760 0.000000 
#    z 0.000000 0.000000 1.584360 
# 
# From -- ./inp_files/13904.got.cif
#   From: 2010.05.17/outbox.cif.g08.bks.cpg/sg47_7_cif.got.tgz:13904.got - 2010.06.03 20:15:42.
