data_PCOD9386593
_publ_section_title
;
Structure prediction by ZEFSAII (Michael W. Deem and Ramdas Pophale) SiO2 
 PCOD9386593
Probable space group: P M M M
;
_chemical_formula_sum "Si O2"
_cell_formula_units_Z 33
_cell_length_a 7.441328
_cell_length_b 9.580061
_cell_length_c 20.869138
_cell_angle_alpha 90.000000
_cell_angle_beta 90.000000
_cell_angle_gamma 90.000000
_cell_volume 1487.726960
_symmetry_space_group_name_H-M "P M M M"
_symmetry_group_IT_number 47
_symmetry_cell_setting 'orthorhombic'
loop_
_space_group_symop_operation_xyz
x,y,z
-x,-y,z
x,-y,-z
-x,y,-z
-x,-y,-z
x,y,-z
-x,y,z
x,-y,z
loop_
_atom_site_type_symbol
_atom_site_label
_atom_site_fract_x
_atom_site_fract_y
_atom_site_fract_z
Si Si1 0.000000 0.000000 0.500000
Si Si2 0.219590 0.159757 0.247074
Si Si3 0.695803 0.236856 0.500000
Si Si4 0.219373 0.161787 0.000000
Si Si5 0.217144 0.653509 0.636590
Si Si6 0.219437 0.338709 0.875785
O O1 0.846255 0.879117 0.500000
O O2 0.276829 0.227236 0.314307
O O3 0.275338 0.258758 0.188626
O O4 0.000000 0.158609 0.246928
O O5 0.277910 0.000000 0.239409
O O6 0.500000 0.172180 0.500000
O O7 0.716455 0.324951 0.564835
O O8 0.275085 0.247578 0.937110
O O9 0.000000 0.159316 0.000000
O O10 0.277508 0.000000 0.000000
O O11 0.267816 0.500000 0.660974
O O12 0.000000 0.659529 0.634392
O O13 0.277717 0.500000 0.878588
O O14 0.000000 0.340874 0.875909
#
# Coordination Sequence:
#
# PCOD9386593 Si02
#       6
#     1   8   4   4   8   8
#     4  12  26  48  66  94 136 160 200 258 308 370
#     4   9  17  27  44  66  95 135 185 237 296 364
#     4  12  26  42  68  95 124 165 207 252 309 367
#     4   9  15  21  31  47  77 117 166 229 300 363
#     4  10  20  36  58  83 115 155 197 250 309 367
#     4   9  15  23  34  53  81 120 174 233 294 363
#
# _framework density 22.181488999999999
#
# number of rings (size 3 to 8) (size 9 to 14) (size 15 to 20)
#    0.000    2.303    1.212    2.364    1.697    9.212 
#    0.000    0.000    0.000    0.000    0.000    0.000 
#    0.000    0.000    0.000    1.091    0.000   14.788 
#
# Total GULP energy -184214.941725 kJ/mol
# GULP energy per Si atom -5582.270961 kJ/mol
# Density = 2.213100 g / cm^3
# Si number density = 22.181489 Si / 1000 Ang^3
#
#
#
# Elastic Constant Matrix: (Units=GPa)
#
#
# Indices 1 2 3 4 5 6 
#
# 1 92.3855 18.2219 -3.1366 0.0000 0.0000 0.0000
# 2 18.2219 219.5884 102.4896 0.0000 0.0000 0.0000
# 3 -3.1366 102.4896 180.3987 0.0000 0.0000 0.0000
# 4 0.0000 0.0000 0.0000 123.5673 0.0000 0.0000
# 5 0.0000 0.0000 0.0000 0.0000 -12.0156 0.0000
# 6 0.0000 0.0000 0.0000 0.0000 0.0000 15.9564
#
#
#
# Elastic Compliance Matrix: (Units=1/GPa)
#
#
# Indices 1 2 3 4 5 6 
#
# 1 0.011130 -0.001380 0.000977 0.000000 0.000000 0.000000
# 2 -0.001380 0.006368 -0.003642 0.000000 0.000000 0.000000
# 3 0.000977 -0.003642 0.007629 0.000000 0.000000 0.000000
# 4 0.000000 0.000000 0.000000 0.008093 0.000000 0.000000
# 5 0.000000 0.000000 0.000000 0.000000 -0.083225 0.000000
# 6 0.000000 0.000000 0.000000 0.000000 0.000000 0.062671
#
#
# Mechanical properties :
#
#
# Convention : Reuss Voigt Hill
#
# Bulk Modulus (GPa) = 58.69057 80.83582 69.76320
# Shear Modulus (GPa) = 189.15240 50.48813 119.82026
#
# Velocity S-wave (km/s) = 9.24446 4.77606 7.35768
# Velocity P-wave (km/s) = 11.85172 8.18147 10.18331
#
# Compressibility (1/GPa) = 0.01703851
#
# Stress axis : x y z
#
# Youngs Moduli (GPa) = 89.85112 157.02724 131.07188
#
# Poissons Ratio (x) = 0.21665 -0.12811
# Poissons Ratio (y) = 0.12397 0.47737
# Poissons Ratio (z) = -0.08782 0.57190
#
# Static dielectric constant tensor:
#      x y z
#    x 1.820930 0.000000 0.000000 
#    y 0.000000 1.757840 0.000000 
#    z 0.000000 0.000000 1.772340 
# 
# From -- ./inp_files/10408.got.cif
#   From: 2010.05.17/outbox.cif.g08.bks.cpg/sg47_6_cif.got.tgz:10408.got - 2010.06.03 20:15:42.
