data_PCOD9386795
_publ_section_title
;
Structure prediction by ZEFSAII (Michael W. Deem and Ramdas Pophale) SiO2 
 PCOD9386795
Probable space group: P M M M
;
_chemical_formula_sum "Si O2"
_cell_formula_units_Z 56
_cell_length_a 10.024241
_cell_length_b 22.371265
_cell_length_c 14.566250
_cell_angle_alpha 90.000000
_cell_angle_beta 90.000000
_cell_angle_gamma 90.000000
_cell_volume 3266.553692
_symmetry_space_group_name_H-M "P M M M"
_symmetry_group_IT_number 47
_symmetry_cell_setting 'orthorhombic'
loop_
_space_group_symop_operation_xyz
x,y,z
-x,-y,z
x,-y,-z
-x,y,-z
-x,-y,-z
x,y,-z
-x,y,z
x,-y,z
loop_
_atom_site_type_symbol
_atom_site_label
_atom_site_fract_x
_atom_site_fract_y
_atom_site_fract_z
Si Si1 0.154707 0.500000 0.611639
Si Si2 0.853646 0.692118 0.707031
Si Si3 0.162315 0.067378 0.604982
Si Si4 0.353792 0.203126 0.105922
Si Si5 0.735210 0.340195 0.893247
Si Si6 0.846602 0.831777 0.745215
Si Si7 0.500000 0.431580 0.888747
Si Si8 0.654570 0.390362 0.389029
O O1 0.149130 0.500000 0.500000
O O2 0.244718 0.443439 0.639201
O O3 0.000000 0.500000 0.643806
O O4 0.841433 0.667413 0.811638
O O5 0.846084 0.763879 0.707516
O O6 0.727617 0.667145 0.652043
O O7 0.000000 0.674344 0.669465
O O8 0.205809 0.077445 0.500000
O O9 0.204847 0.119799 0.672754
O O10 0.000000 0.068546 0.603904
O O11 0.201802 0.000000 0.632654
O O12 0.500000 0.189109 0.142875
O O13 0.335649 0.275180 0.108216
O O14 0.241914 0.171608 0.164744
O O15 0.345646 0.185763 0.000000
O O16 0.630906 0.392299 0.866525
O O17 0.779638 0.349649 0.000000
O O18 0.000000 0.846280 0.767283
O O19 0.500000 0.500000 0.853782
O O20 0.500000 0.434626 0.000000
O O21 0.653254 0.388482 0.500000
O O22 0.500000 0.398061 0.359327
#
# Coordination Sequence:
#
# PCOD9386795 Si02
#       8
#     4   8   8   8   8   8   4   8
#     4   9  17  33  57  77  94 119 154 201 255 304
#     4  10  21  33  48  73 102 131 161 198 250 301
#     4   8  14  27  49  75 101 130 164 200 240 291
#     4   9  16  28  48  70  94 128 165 199 242 296
#     4   9  17  31  50  69  94 125 161 204 248 297
#     4   9  18  30  47  74 102 126 159 204 248 289
#     4   9  16  28  48  72  93 119 160 207 253 297
#     4  10  21  36  53  72  95 126 165 205 242 289
#
# _framework density 17.143450999999999
#
# number of rings (size 3 to 8) (size 9 to 14) (size 15 to 20)
#    0.000    2.857    0.714    1.071    1.000    3.429 
#    1.286    4.286    0.000    1.286    0.000    6.000 
#    0.000    0.000    0.000    0.000    0.000    0.000 
#
# Total GULP energy -311780.024273 kJ/mol
# GULP energy per Si atom -5567.500433 kJ/mol
# Density = 1.710443 g / cm^3
# Si number density = 17.143451 Si / 1000 Ang^3
#
#
#
# Elastic Constant Matrix: (Units=GPa)
#
#
# Indices 1 2 3 4 5 6 
#
# 1 104.0435 36.6070 34.0872 0.0000 0.0000 0.0000
# 2 36.6070 85.0116 41.2806 0.0000 0.0000 0.0000
# 3 34.0872 41.2806 41.1796 0.0000 0.0000 0.0000
# 4 0.0000 0.0000 0.0000 21.7938 0.0000 0.0000
# 5 0.0000 0.0000 0.0000 0.0000 22.3112 0.0000
# 6 0.0000 0.0000 0.0000 0.0000 0.0000 14.0240
#
#
#
# Elastic Compliance Matrix: (Units=1/GPa)
#
#
# Indices 1 2 3 4 5 6 
#
# 1 0.013212 -0.000738 -0.010197 0.000000 0.000000 0.000000
# 2 -0.000738 0.022961 -0.022407 0.000000 0.000000 0.000000
# 3 -0.010197 -0.022407 0.055186 0.000000 0.000000 0.000000
# 4 0.000000 0.000000 0.000000 0.045885 0.000000 0.000000
# 5 0.000000 0.000000 0.000000 0.000000 0.044820 0.000000
# 6 0.000000 0.000000 0.000000 0.000000 0.000000 0.071306
#
#
# Mechanical properties :
#
#
# Convention : Reuss Voigt Hill
#
# Bulk Modulus (GPa) = 40.52430 50.46491 45.49460
# Shear Modulus (GPa) = 15.23096 19.50980 17.37038
#
# Velocity S-wave (km/s) = 2.98391 3.37713 3.18659
# Velocity P-wave (km/s) = 5.96333 6.68636 6.33517
#
# Compressibility (1/GPa) = 0.02467655
#
# Stress axis : x y z
#
# Youngs Moduli (GPa) = 75.69114 43.55146 18.12044
#
# Poissons Ratio (x) = 0.03213 0.18477
# Poissons Ratio (y) = 0.05584 0.40602
# Poissons Ratio (z) = 0.77179 0.97586
#
# Static dielectric constant tensor:
#      x y z
#    x 1.585830 0.000000 0.000000 
#    y 0.000000 1.582410 0.000000 
#    z 0.000000 0.000000 1.594700 
# 
# From -- ./inp_files/21650.got.cif
#   From: 2010.05.17/outbox.cif.g08.bks.cpg/sg47_11_cif.got.tgz:21650.got - 2010.06.03 20:15:42.
