data_PCOD9386810
_publ_section_title
;
Structure prediction by ZEFSAII (Michael W. Deem and Ramdas Pophale) SiO2 
 PCOD9386810
Probable space group: P M M M
;
_chemical_formula_sum "Si O2"
_cell_formula_units_Z 52
_cell_length_a 13.782100
_cell_length_b 7.389529
_cell_length_c 22.572779
_cell_angle_alpha 90.000000
_cell_angle_beta 90.000000
_cell_angle_gamma 90.000000
_cell_volume 2298.884670
_symmetry_space_group_name_H-M "P M M M"
_symmetry_group_IT_number 47
_symmetry_cell_setting 'orthorhombic'
loop_
_space_group_symop_operation_xyz
x,y,z
-x,-y,z
x,-y,-z
-x,y,-z
-x,-y,-z
x,y,-z
-x,y,z
x,-y,z
loop_
_atom_site_type_symbol
_atom_site_label
_atom_site_fract_x
_atom_site_fract_y
_atom_site_fract_z
Si Si1 0.000000 0.779399 0.068287
Si Si2 0.615808 0.291511 0.311151
Si Si3 0.682879 0.709414 0.436691
Si Si4 0.812572 0.777352 0.143972
Si Si5 0.109105 0.779792 0.401094
Si Si6 0.391039 0.210273 0.824587
Si Si7 0.115154 0.207813 0.731494
O O1 0.900101 0.722066 0.100723
O O2 0.000000 0.000000 0.070361
O O3 0.000000 0.724163 0.000000
O O4 0.500000 0.286558 0.316729
O O5 0.648945 0.500000 0.308540
O O6 0.654537 0.209544 0.372752
O O7 0.636049 0.215548 0.245719
O O8 0.647935 0.785950 0.500000
O O9 0.649768 0.500000 0.434957
O O10 0.799435 0.715737 0.437374
O O11 0.700352 0.718780 0.137587
O O12 0.840731 0.712309 0.209726
O O13 0.813621 0.000000 0.143705
O O14 0.128552 0.714714 0.333676
O O15 0.000000 0.724716 0.418609
O O16 0.108844 0.000000 0.401361
O O17 0.500000 0.290014 0.830600
O O18 0.398953 0.000000 0.840305
O O19 0.000000 0.203147 0.741049
O O20 0.149860 0.000000 0.727724
#
# Coordination Sequence:
#
# PCOD9386810 Si02
#       7
#     4   8   8   8   8   8   8
#     4   9  16  24  36  60  95 133 168 195 220 254
#     4   9  18  33  51  69  90 116 147 187 233 278
#     4  10  21  34  46  62  85 115 150 185 226 279
#     4   9  14  22  38  59  88 122 153 189 225 263
#     4   9  18  31  47  66  86 111 147 191 233 275
#     4   9  17  28  45  70  95 119 148 185 235 289
#     4   8  12  20  36  58  79  99 132 178 227 267
#
# _framework density 22.619665000000001
#
# number of rings (size 3 to 8) (size 9 to 14) (size 15 to 20)
#    0.000    3.000    0.769    1.846    0.000    3.077 
#    0.000    3.077    0.000    0.462    0.000    6.462 
#    0.000    1.231    0.000    3.846    0.000    4.000 
#
# Total GULP energy -289842.176653 kJ/mol
# GULP energy per Si atom -5573.888013 kJ/mol
# Density = 2.256818 g / cm^3
# Si number density = 22.619665 Si / 1000 Ang^3
#
#
#
# Elastic Constant Matrix: (Units=GPa)
#
#
# Indices 1 2 3 4 5 6 
#
# 1 145.6889 5.6345 82.0277 0.0000 0.0000 0.0000
# 2 5.6345 77.0137 -2.5786 0.0000 0.0000 0.0000
# 3 82.0277 -2.5786 59.6671 0.0000 0.0000 0.0000
# 4 0.0000 0.0000 0.0000 -3.7877 0.0000 0.0000
# 5 0.0000 0.0000 0.0000 0.0000 69.9375 0.0000
# 6 0.0000 0.0000 0.0000 0.0000 0.0000 17.5268
#
#
#
# Elastic Compliance Matrix: (Units=1/GPa)
#
#
# Indices 1 2 3 4 5 6 
#
# 1 0.031422 -0.003751 -0.043359 0.000000 0.000000 0.000000
# 2 -0.003751 0.013451 0.005738 0.000000 0.000000 0.000000
# 3 -0.043359 0.005738 0.076616 0.000000 0.000000 0.000000
# 4 0.000000 0.000000 0.000000 -0.264014 0.000000 0.000000
# 5 0.000000 0.000000 0.000000 0.000000 0.014298 0.000000
# 6 0.000000 0.000000 0.000000 0.000000 0.000000 0.057055
#
#
# Mechanical properties :
#
#
# Convention : Reuss Voigt Hill
#
# Bulk Modulus (GPa) = 25.81031 50.28189 38.04610
# Shear Modulus (GPa) = 204.17424 29.88774 117.03099
#
# Velocity S-wave (km/s) = 9.51105 3.63894 7.20076
# Velocity P-wave (km/s) = 11.49124 6.31928 9.27313
#
# Compressibility (1/GPa) = 0.03874421
#
# Stress axis : x y z
#
# Youngs Moduli (GPa) = 31.82508 74.34276 13.05208
#
# Poissons Ratio (x) = 0.27883 0.56593
# Poissons Ratio (y) = 0.11936 -0.07489
# Poissons Ratio (z) = 1.37991 -0.42655
#
# Static dielectric constant tensor:
#      x y z
#    x 1.878720 0.000000 0.000000 
#    y 0.000000 1.909600 0.000000 
#    z 0.000000 0.000000 1.835820 
# 
# From -- ./inp_files/32650.got.cif
#   From: 2010.05.17/outbox.cif.g08.bks.cpg/sg47_17_cif.got.tgz:32650.got - 2010.06.03 20:15:42.
