data_PCOD9386643
_publ_section_title
;
Structure prediction by ZEFSAII (Michael W. Deem and Ramdas Pophale) SiO2 
 PCOD9386643
Probable space group: P M M M
;
_chemical_formula_sum "Si O2"
_cell_formula_units_Z 52
_cell_length_a 16.147125
_cell_length_b 8.116885
_cell_length_c 19.827433
_cell_angle_alpha 90.000000
_cell_angle_beta 90.000000
_cell_angle_gamma 90.000000
_cell_volume 2598.669751
_symmetry_space_group_name_H-M "P M M M"
_symmetry_group_IT_number 47
_symmetry_cell_setting 'orthorhombic'
loop_
_space_group_symop_operation_xyz
x,y,z
-x,-y,z
x,-y,-z
-x,y,-z
-x,-y,-z
x,y,-z
-x,y,z
x,-y,z
loop_
_atom_site_type_symbol
_atom_site_label
_atom_site_fract_x
_atom_site_fract_y
_atom_site_fract_z
Si Si1 0.400952 0.305580 0.073653
Si Si2 0.130792 0.802619 0.812440
Si Si3 0.248095 0.300771 0.577168
Si Si4 0.089777 0.698858 0.337050
Si Si5 0.684536 0.192683 0.205216
Si Si6 0.000000 0.695861 0.077240
Si Si7 0.594429 0.800851 0.660776
O O1 0.500000 0.291108 0.074327
O O2 0.381361 0.500000 0.080264
O O3 0.364640 0.210949 0.136305
O O4 0.370934 0.248991 0.000000
O O5 0.092623 0.751658 0.740828
O O6 0.224522 0.735342 0.807514
O O7 0.078961 0.744730 0.877006
O O8 0.131899 0.000000 0.816144
O O9 0.237225 0.246839 0.500000
O O10 0.246299 0.500000 0.578478
O O11 0.171569 0.240579 0.623700
O O12 0.336856 0.246583 0.605953
O O13 0.092170 0.500000 0.339413
O O14 0.000000 0.751415 0.365660
O O15 0.632212 0.261662 0.267893
O O16 0.696691 0.000000 0.220926
O O17 0.000000 0.500000 0.072352
O O18 0.000000 0.762374 0.000000
O O19 0.500000 0.741551 0.649934
O O20 0.590189 0.000000 0.663147
#
# Coordination Sequence:
#
# PCOD9386643 Si02
#       7
#     8   8   8   8   8   4   8
#     4   9  19  35  53  76 108 144 182 227 280 336
#     4  11  22  37  60  86 114 150 190 239 290 338
#     4  10  22  39  59  87 122 156 193 242 294 348
#     4  10  20  36  61  89 117 152 193 234 284 352
#     4  10  21  36  56  83 112 144 188 240 290 343
#     4  11  25  43  61  85 120 159 198 239 287 350
#     4  10  21  38  59  83 115 156 201 247 296 354
#
# _framework density 20.010235999999999
#
# number of rings (size 3 to 8) (size 9 to 14) (size 15 to 20)
#    0.000    1.923    2.308    1.615    0.000    5.538 
#    0.000    6.923    0.000    0.000    0.000    2.154 
#    0.000    0.000    0.000    0.000    0.000    0.000 
#
# Total GULP energy -290127.633177 kJ/mol
# GULP energy per Si atom -5579.377561 kJ/mol
# Density = 1.996469 g / cm^3
# Si number density = 20.010236 Si / 1000 Ang^3
#
#
#
# Elastic Constant Matrix: (Units=GPa)
#
#
# Indices 1 2 3 4 5 6 
#
# 1 151.1050 22.0183 77.5231 0.0000 0.0000 0.0000
# 2 22.0183 13.9904 9.0340 0.0000 0.0000 0.0000
# 3 77.5231 9.0340 143.0027 0.0000 0.0000 0.0000
# 4 0.0000 0.0000 0.0000 34.5580 0.0000 0.0000
# 5 0.0000 0.0000 0.0000 0.0000 34.6486 0.0000
# 6 0.0000 0.0000 0.0000 0.0000 0.0000 7.1392
#
#
#
# Elastic Compliance Matrix: (Units=1/GPa)
#
#
# Indices 1 2 3 4 5 6 
#
# 1 0.011463 -0.014625 -0.005290 0.000000 0.000000 0.000000
# 2 -0.014625 0.093176 0.002042 0.000000 0.000000 0.000000
# 3 -0.005290 0.002042 0.009732 0.000000 0.000000 0.000000
# 4 0.000000 0.000000 0.000000 0.028937 0.000000 0.000000
# 5 0.000000 0.000000 0.000000 0.000000 0.028861 0.000000
# 6 0.000000 0.000000 0.000000 0.000000 0.000000 0.140072
#
#
# Mechanical properties :
#
#
# Convention : Reuss Voigt Hill
#
# Bulk Modulus (GPa) = 12.71870 58.36098 35.53984
# Shear Modulus (GPa) = 13.36203 28.57067 20.96635
#
# Velocity S-wave (km/s) = 2.58691 3.78273 3.24046
# Velocity P-wave (km/s) = 3.91059 6.95037 5.63916
#
# Compressibility (1/GPa) = 0.07862440
#
# Stress axis : x y z
#
# Youngs Moduli (GPa) = 87.23612 10.73241 102.75539
#
# Poissons Ratio (x) = 0.15696 0.54362
# Poissons Ratio (y) = 1.27580 -0.20982
# Poissons Ratio (z) = 0.46151 -0.02192
#
# Static dielectric constant tensor:
#      x y z
#    x 1.737460 0.000000 0.000000 
#    y 0.000000 1.716130 0.000000 
#    z 0.000000 0.000000 1.685930 
# 
# From -- ./inp_files/30876.got.cif
#   From: 2010.05.17/outbox.cif.g08.bks.cpg/sg47_16_cif.got.tgz:30876.got - 2010.06.03 20:15:42.
