data_PCOD9386324
_publ_section_title
;
Structure prediction by ZEFSAII (Michael W. Deem and Ramdas Pophale) SiO2 
 PCOD9386324
Probable space group: P M M M
;
_chemical_formula_sum "Si O2"
_cell_formula_units_Z 64
_cell_length_a 24.573782
_cell_length_b 7.858387
_cell_length_c 15.979063
_cell_angle_alpha 90.000000
_cell_angle_beta 90.000000
_cell_angle_gamma 90.000000
_cell_volume 3085.721474
_symmetry_space_group_name_H-M "P M M M"
_symmetry_group_IT_number 47
_symmetry_cell_setting 'orthorhombic'
loop_
_space_group_symop_operation_xyz
x,y,z
-x,-y,z
x,-y,-z
-x,y,-z
-x,-y,-z
x,y,-z
-x,y,z
x,-y,z
loop_
_atom_site_type_symbol
_atom_site_label
_atom_site_fract_x
_atom_site_fract_y
_atom_site_fract_z
Si Si1 0.134166 0.294834 0.093701
Si Si2 0.254480 0.695312 0.361381
Si Si3 0.752329 0.196191 0.825681
Si Si4 0.373494 0.799896 0.408309
Si Si5 0.062597 0.291537 0.250099
Si Si6 0.562340 0.794012 0.753854
Si Si7 0.639831 0.297188 0.093943
Si Si8 0.134733 0.291949 0.407408
O O1 0.130381 0.500000 0.091962
O O2 0.195180 0.249604 0.121655
O O3 0.093103 0.234681 0.165774
O O4 0.122890 0.231265 0.000000
O O5 0.258916 0.500000 0.389381
O O6 0.251588 0.701370 0.260715
O O7 0.309156 0.785066 0.391122
O O8 0.197026 0.764915 0.394064
O O9 0.697197 0.219624 0.877448
O O10 0.757904 0.000000 0.801202
O O11 0.386010 0.725827 0.500000
O O12 0.405842 0.728783 0.328508
O O13 0.386964 0.000000 0.411626
O O14 0.063168 0.500000 0.250190
O O15 0.096758 0.235550 0.331240
O O16 0.000000 0.237765 0.253097
O O17 0.500000 0.735811 0.755026
O O18 0.594851 0.744956 0.837008
O O19 0.562455 0.000000 0.750648
O O20 0.647065 0.500000 0.092887
O O21 0.625407 0.240369 0.000000
O O22 0.115652 0.242674 0.500000
O O23 0.135775 0.500000 0.404101
#
# Coordination Sequence:
#
# PCOD9386324 Si02
#       8
#     8   8   8   8   8   8   8   8
#     4  10  20  35  55  80 111 146 184 227 278 335
#     4  11  20  34  57  83 115 151 187 232 287 344
#     4  12  23  36  58  86 115 147 184 229 287 348
#     4  10  21  37  58  87 121 155 193 236 283 338
#     4   9  17  30  49  76 110 145 184 230 277 326
#     4  10  22  40  61  86 118 158 200 239 280 329
#     4  11  24  41  62  88 117 151 190 235 289 344
#     4   9  17  29  48  77 111 144 178 221 276 333
#
# _framework density 20.740693
#
# number of rings (size 3 to 8) (size 9 to 14) (size 15 to 20)
#    0.000    1.750    2.500    2.625    0.000    4.750 
#    0.000    5.000    0.000    0.375    0.000    2.625 
#    0.000    1.000    0.000    0.000    0.000    0.000 
#
# Total GULP energy -357623.336915 kJ/mol
# GULP energy per Si atom -5587.864639 kJ/mol
# Density = 2.069349 g / cm^3
# Si number density = 20.740693 Si / 1000 Ang^3
#
#
#
# Elastic Constant Matrix: (Units=GPa)
#
#
# Indices 1 2 3 4 5 6 
#
# 1 136.1308 -7.1323 86.3369 0.0000 0.0000 0.0000
# 2 -7.1323 27.1407 2.0231 0.0000 0.0000 0.0000
# 3 86.3369 2.0231 193.4344 0.0000 0.0000 0.0000
# 4 0.0000 0.0000 0.0000 6.2722 0.0000 0.0000
# 5 0.0000 0.0000 0.0000 0.0000 -1.5052 0.0000
# 6 0.0000 0.0000 0.0000 0.0000 0.0000 22.9197
#
#
#
# Elastic Compliance Matrix: (Units=1/GPa)
#
#
# Indices 1 2 3 4 5 6 
#
# 1 0.010503 0.003112 -0.004720 0.000000 0.000000 0.000000
# 2 0.003112 0.037796 -0.001784 0.000000 0.000000 0.000000
# 3 -0.004720 -0.001784 0.007295 0.000000 0.000000 0.000000
# 4 0.000000 0.000000 0.000000 0.159433 0.000000 0.000000
# 5 0.000000 0.000000 0.000000 0.000000 -0.664343 0.000000
# 6 0.000000 0.000000 0.000000 0.000000 0.000000 0.043631
#
#
# Mechanical properties :
#
#
# Convention : Reuss Voigt Hill
#
# Bulk Modulus (GPa) = 20.48830 57.68458 39.08644
# Shear Modulus (GPa) = -13.06741 23.90257 5.41758
#
# Velocity S-wave (km/s) = -2.51278 3.39846 1.61794
# Velocity P-wave (km/s) = 1.21697 6.57814 4.73038
#
# Compressibility (1/GPa) = 0.04880834
#
# Stress axis : x y z
#
# Youngs Moduli (GPa) = 95.21471 26.45795 137.07673
#
# Poissons Ratio (x) = -0.08233 0.64703
# Poissons Ratio (y) = -0.29629 0.24458
# Poissons Ratio (z) = 0.44944 0.04721
#
# Static dielectric constant tensor:
#      x y z
#    x 1.693050 0.000000 0.000000 
#    y 0.000000 1.764850 0.000000 
#    z 0.000000 0.000000 1.749320 
# 
# From -- ./inp_files/7812.got.cif
#   From: 2010.05.17/outbox.cif.g08.bks.cpg/sg47_4_cif.got.tgz:7812.got - 2010.06.03 20:15:42.
