data_PCOD9386150
_publ_section_title
;
Structure prediction by ZEFSAII (Michael W. Deem and Ramdas Pophale) SiO2 
 PCOD9386150
Probable space group: P M M M
;
_chemical_formula_sum "Si O2"
_cell_formula_units_Z 37
_cell_length_a 18.915187
_cell_length_b 12.272896
_cell_length_c 7.488069
_cell_angle_alpha 90.000000
_cell_angle_beta 90.000000
_cell_angle_gamma 90.000000
_cell_volume 1738.311210
_symmetry_space_group_name_H-M "P M M M"
_symmetry_group_IT_number 47
_symmetry_cell_setting 'orthorhombic'
loop_
_space_group_symop_operation_xyz
x,y,z
-x,-y,z
x,-y,-z
-x,y,-z
-x,-y,-z
x,y,-z
-x,y,z
x,-y,z
loop_
_atom_site_type_symbol
_atom_site_label
_atom_site_fract_x
_atom_site_fract_y
_atom_site_fract_z
Si Si1 0.076721 0.244593 0.789455
Si Si2 0.881925 0.000000 0.285881
Si Si3 0.500000 0.301531 0.218872
Si Si4 0.346295 0.230649 0.791298
Si Si5 0.720997 0.000000 0.713089
Si Si6 0.215622 0.626767 0.781069
Si Si7 0.500000 0.500000 0.500000
O O1 0.084476 0.114177 0.771283
O O2 0.146428 0.305914 0.719262
O O3 0.000000 0.277164 0.714124
O O4 0.075276 0.269363 0.000000
O O5 0.882863 0.000000 0.500000
O O6 0.801241 0.000000 0.218749
O O7 0.573095 0.241355 0.268707
O O8 0.500000 0.407208 0.341148
O O9 0.500000 0.319754 0.000000
O O10 0.287127 0.313448 0.715990
O O11 0.317866 0.109190 0.769975
O O12 0.348506 0.257048 0.000000
O O13 0.724632 0.000000 0.500000
O O14 0.213145 0.500000 0.729685
O O15 0.215748 0.630213 0.000000
#
# Coordination Sequence:
#
# PCOD9386150 Si02
#       7
#     8   4   4   8   4   8   1
#     4  10  20  34  55  83 113 146 193 248 298 359
#     4  11  22  36  54  83 115 153 193 247 301 358
#     4  10  25  44  66 101 132 167 222 264 305 376
#     4  10  21  40  64  89 122 161 203 254 307 364
#     4  11  23  37  61  89 122 154 202 256 305 378
#     4   9  18  33  56  84 114 152 194 242 303 361
#     4  12  26  44  72  96 136 184 204 264 330 354
#
# _framework density 21.285025000000001
#
# number of rings (size 3 to 8) (size 9 to 14) (size 15 to 20)
#    0.000    1.946    2.162    1.135    3.027    3.459 
#    0.000    4.324    0.000    1.946    0.000    1.514 
#    0.000    0.000    0.000    0.000    0.000    0.000 
#
# Total GULP energy -206275.593767 kJ/mol
# GULP energy per Si atom -5575.016048 kJ/mol
# Density = 2.123658 g / cm^3
# Si number density = 21.285025 Si / 1000 Ang^3
#
#
#
# Elastic Constant Matrix: (Units=GPa)
#
#
# Indices 1 2 3 4 5 6 
#
# 1 224.6843 90.3266 12.7267 0.0000 0.0000 0.0000
# 2 90.3266 127.6581 -14.2609 0.0000 0.0000 0.0000
# 3 12.7267 -14.2609 59.3443 0.0000 0.0000 0.0000
# 4 0.0000 0.0000 0.0000 18.4629 0.0000 0.0000
# 5 0.0000 0.0000 0.0000 0.0000 -3.3683 0.0000
# 6 0.0000 0.0000 0.0000 0.0000 0.0000 -437.4948
#
#
#
# Elastic Compliance Matrix: (Units=1/GPa)
#
#
# Indices 1 2 3 4 5 6 
#
# 1 0.006589 -0.004953 -0.002603 0.000000 0.000000 0.000000
# 2 -0.004953 0.011773 0.003891 0.000000 0.000000 0.000000
# 3 -0.002603 0.003891 0.018344 0.000000 0.000000 0.000000
# 4 0.000000 0.000000 0.000000 0.054163 0.000000 0.000000
# 5 0.000000 0.000000 0.000000 0.000000 -0.296886 0.000000
# 6 0.000000 0.000000 0.000000 0.000000 0.000000 -0.002286
#
#
# Mechanical properties :
#
#
# Convention : Reuss Voigt Hill
#
# Bulk Modulus (GPa) = 34.04148 65.47461 49.75804
# Shear Modulus (GPa) = -26.15345 -62.95375 -44.55360
#
# Velocity S-wave (km/s) = -3.50912 -5.44433 -4.58010
# Velocity P-wave (km/s) = 0.62505 2.94845 2.13120
#
# Compressibility (1/GPa) = 0.02937593
#
# Stress axis : x y z
#
# Youngs Moduli (GPa) = 151.75719 84.94045 54.51285
#
# Poissons Ratio (x) = 0.42074 0.14192
# Poissons Ratio (y) = 0.75170 -0.21213
# Poissons Ratio (z) = 0.39510 -0.33054
#
# Static dielectric constant tensor:
#      x y z
#    x 1.810100 0.000000 0.000000 
#    y 0.000000 1.695710 0.000000 
#    z 0.000000 0.000000 1.793940 
# 
# From -- ./inp_files/8713.got.cif
#   From: 2010.05.17/outbox.cif.g08.bks.cpg/sg47_5_cif.got.tgz:8713.got - 2010.06.03 20:15:42.
