data_PCOD9386965
_publ_section_title
;
Structure prediction by ZEFSAII (Michael W. Deem and Ramdas Pophale) SiO2 
 PCOD9386965
Probable space group: P M M M
;
_chemical_formula_sum "Si O2"
_cell_formula_units_Z 48
_cell_length_a 33.872371
_cell_length_b 7.701161
_cell_length_c 9.820794
_cell_angle_alpha 90.000000
_cell_angle_beta 90.000000
_cell_angle_gamma 90.000000
_cell_volume 2561.818760
_symmetry_space_group_name_H-M "P M M M"
_symmetry_group_IT_number 47
_symmetry_cell_setting 'orthorhombic'
loop_
_space_group_symop_operation_xyz
x,y,z
-x,-y,z
x,-y,-z
-x,y,-z
-x,-y,-z
x,y,-z
-x,y,z
x,-y,z
loop_
_atom_site_type_symbol
_atom_site_label
_atom_site_fract_x
_atom_site_fract_y
_atom_site_fract_z
Si Si1 0.000000 0.213371 0.656599
Si Si2 0.606100 0.205178 0.837288
Si Si3 0.841222 0.294033 0.153363
Si Si4 0.928842 0.794292 0.845134
Si Si5 0.319505 0.788703 0.657234
Si Si6 0.455119 0.500000 0.165205
Si Si7 0.768454 0.791205 0.345365
O O1 0.038499 0.272351 0.740706
O O2 0.000000 0.270202 0.500000
O O3 0.000000 0.000000 0.654056
O O4 0.645189 0.262909 0.756248
O O5 0.569830 0.328898 0.796921
O O6 0.598756 0.000000 0.810173
O O7 0.612325 0.222970 0.000000
O O8 0.844484 0.500000 0.144928
O O9 0.883862 0.229564 0.203001
O O10 0.804220 0.254069 0.247634
O O11 0.835299 0.223293 0.000000
O O12 0.935881 0.000000 0.855612
O O13 0.932027 0.722550 0.000000
O O14 0.326106 0.735955 0.500000
O O15 0.275368 0.730671 0.698211
O O16 0.319269 0.000000 0.658814
O O17 0.500000 0.500000 0.216294
O O18 0.456908 0.500000 0.000000
O O19 0.775306 0.728839 0.500000
O O20 0.766631 0.000000 0.350372
#
# Coordination Sequence:
#
# PCOD9386965 Si02
#       7
#     4   8   8   8   8   4   8
#     4   9  17  29  48  75  98 114 146 199 248 289
#     4   9  17  30  50  75 100 130 169 210 255 306
#     4  10  21  35  49  70 101 134 167 203 245 293
#     4   9  17  31  51  71  92 122 158 195 239 291
#     4   8  15  30  51  73  98 128 162 202 249 298
#     4   9  18  32  49  73 105 135 167 213 261 304
#     4   9  18  33  53  75  98 128 167 207 249 300
#
# _framework density 18.736687
#
# number of rings (size 3 to 8) (size 9 to 14) (size 15 to 20)
#    0.000    3.000    0.000    1.750    0.000    4.000 
#    1.500    5.833    0.000    3.500    0.000    2.333 
#    0.000    0.000    0.000    0.000    0.000    0.000 
#
# Total GULP energy -267528.620492 kJ/mol
# GULP energy per Si atom -5573.512927 kJ/mol
# Density = 1.869404 g / cm^3
# Si number density = 18.736687 Si / 1000 Ang^3
#
#
#
# Elastic Constant Matrix: (Units=GPa)
#
#
# Indices 1 2 3 4 5 6 
#
# 1 205.8391 34.3770 100.4701 0.0000 0.0000 0.0000
# 2 34.3770 45.1887 23.3724 0.0000 0.0000 0.0000
# 3 100.4701 23.3724 72.8380 0.0000 0.0000 0.0000
# 4 0.0000 0.0000 0.0000 7.0991 0.0000 0.0000
# 5 0.0000 0.0000 0.0000 0.0000 33.2966 0.0000
# 6 0.0000 0.0000 0.0000 0.0000 0.0000 115.1573
#
#
#
# Elastic Compliance Matrix: (Units=1/GPa)
#
#
# Indices 1 2 3 4 5 6 
#
# 1 0.014896 -0.000845 -0.020276 0.000000 0.000000 0.000000
# 2 -0.000845 0.026581 -0.007364 0.000000 0.000000 0.000000
# 3 -0.020276 -0.007364 0.044059 0.000000 0.000000 0.000000
# 4 0.000000 0.000000 0.000000 0.140862 0.000000 0.000000
# 5 0.000000 0.000000 0.000000 0.000000 0.030033 0.000000
# 6 0.000000 0.000000 0.000000 0.000000 0.000000 0.008684
#
#
# Mechanical properties :
#
#
# Convention : Reuss Voigt Hill
#
# Bulk Modulus (GPa) = 35.00495 71.14497 53.07496
# Shear Modulus (GPa) = 15.07813 42.15371 28.61592
#
# Velocity S-wave (km/s) = 2.83987 4.74835 3.91227
# Velocity P-wave (km/s) = 5.42921 8.25323 6.98541
#
# Compressibility (1/GPa) = 0.02856739
#
# Stress axis : x y z
#
# Youngs Moduli (GPa) = 67.13313 37.62094 22.69666
#
# Poissons Ratio (x) = 0.03179 0.46019
# Poissons Ratio (y) = 0.05673 0.16713
# Poissons Ratio (z) = 1.36116 0.27703
#
# Static dielectric constant tensor:
#      x y z
#    x 1.639560 0.000000 0.000000 
#    y 0.000000 1.681640 0.000000 
#    z 0.000000 0.000000 1.652120 
# 
# From -- ./inp_files/13969.got.cif
#   From: 2010.05.17/outbox.cif.g08.bks.cpg/sg47_7_cif.got.tgz:13969.got - 2010.06.03 20:15:42.
