data_PCOD9386437
_publ_section_title
;
Structure prediction by ZEFSAII (Michael W. Deem and Ramdas Pophale) SiO2 
 PCOD9386437
Probable space group: P M M M
;
_chemical_formula_sum "Si O2"
_cell_formula_units_Z 44
_cell_length_a 9.331581
_cell_length_b 29.103750
_cell_length_c 8.084750
_cell_angle_alpha 90.000000
_cell_angle_beta 90.000000
_cell_angle_gamma 90.000000
_cell_volume 2195.688748
_symmetry_space_group_name_H-M "P M M M"
_symmetry_group_IT_number 47
_symmetry_cell_setting 'orthorhombic'
loop_
_space_group_symop_operation_xyz
x,y,z
-x,-y,z
x,-y,-z
-x,y,-z
-x,-y,-z
x,y,-z
-x,y,z
x,-y,z
loop_
_atom_site_type_symbol
_atom_site_label
_atom_site_fract_x
_atom_site_fract_y
_atom_site_fract_z
Si Si1 0.162312 0.859455 0.303264
Si Si2 0.335869 0.590562 0.800433
Si Si3 0.665224 0.051873 0.800116
Si Si4 0.662642 0.770706 0.801506
Si Si5 0.164002 0.500000 0.697825
Si Si6 0.834724 0.318883 0.202582
O O1 0.157458 0.854472 0.500000
O O2 0.232091 0.908426 0.262427
O O3 0.259595 0.818421 0.235645
O O4 0.000000 0.856371 0.237349
O O5 0.500000 0.588999 0.739858
O O6 0.248668 0.545213 0.753707
O O7 0.252647 0.636155 0.743293
O O8 0.341236 0.592693 0.000000
O O9 0.500000 0.060434 0.748823
O O10 0.704384 0.000000 0.747333
O O11 0.667426 0.052640 0.000000
O O12 0.500000 0.770019 0.736782
O O13 0.755537 0.727453 0.741127
O O14 0.654751 0.766204 0.000000
O O15 0.159047 0.500000 0.500000
O O16 0.000000 0.500000 0.761210
O O17 0.000000 0.320323 0.255767
O O18 0.834987 0.318799 0.000000
#
# Coordination Sequence:
#
# PCOD9386437 Si02
#       6
#     8   8   8   8   4   8
#     4  11  24  38  52  76 111 147 182 221 265 315
#     4  10  20  35  57  84 111 140 178 223 269 319
#     4   9  19  37  60  84 108 136 175 222 269 319
#     4  10  20  35  57  83 109 139 178 223 268 316
#     4  11  24  39  54  76 108 145 184 225 270 320
#     4   9  17  31  54  83 112 141 174 216 267 319
#
# _framework density 20.039270999999999
#
# number of rings (size 3 to 8) (size 9 to 14) (size 15 to 20)
#    0.000    2.091    0.000    3.818    0.000   10.909 
#    0.000    3.636    0.000    5.455    0.000    0.000 
#    0.000    0.000    0.000    0.000    0.000    0.000 
#
# Total GULP energy -245827.269022 kJ/mol
# GULP energy per Si atom -5586.983387 kJ/mol
# Density = 1.999366 g / cm^3
# Si number density = 20.039271 Si / 1000 Ang^3
#
#
#
# Elastic Constant Matrix: (Units=GPa)
#
#
# Indices 1 2 3 4 5 6 
#
# 1 214.7702 120.5621 12.0149 0.0000 0.0000 0.0000
# 2 120.5621 170.4951 2.5279 0.0000 0.0000 0.0000
# 3 12.0149 2.5279 10.9165 0.0000 0.0000 0.0000
# 4 0.0000 0.0000 0.0000 -66.7158 0.0000 0.0000
# 5 0.0000 0.0000 0.0000 0.0000 7.6629 0.0000
# 6 0.0000 0.0000 0.0000 0.0000 0.0000 45.5085
#
#
#
# Elastic Compliance Matrix: (Units=1/GPa)
#
#
# Indices 1 2 3 4 5 6 
#
# 1 0.008340 -0.005781 -0.007841 0.000000 0.000000 0.000000
# 2 -0.005781 0.009893 0.004072 0.000000 0.000000 0.000000
# 3 -0.007841 0.004072 0.099291 0.000000 0.000000 0.000000
# 4 0.000000 0.000000 0.000000 -0.014989 0.000000 0.000000
# 5 0.000000 0.000000 0.000000 0.000000 0.130500 0.000000
# 6 0.000000 0.000000 0.000000 0.000000 0.000000 0.021974
#
#
# Mechanical properties :
#
#
# Convention : Reuss Voigt Hill
#
# Bulk Modulus (GPa) = 10.16007 74.04351 42.10179
# Shear Modulus (GPa) = 16.29109 14.69624 15.49367
#
# Velocity S-wave (km/s) = 2.85434 2.71102 2.78360
# Velocity P-wave (km/s) = 3.99300 6.84317 5.60237
#
# Compressibility (1/GPa) = 0.09842453
#
# Stress axis : x y z
#
# Youngs Moduli (GPa) = 119.90238 101.08135 10.07142
#
# Poissons Ratio (x) = 0.58438 0.07897
# Poissons Ratio (y) = 0.69319 -0.04101
# Poissons Ratio (z) = 0.94010 -0.41161
#
# Static dielectric constant tensor:
#      x y z
#    x 1.699340 0.000000 0.000000 
#    y 0.000000 1.662580 0.000000 
#    z 0.000000 0.000000 1.711340 
# 
# From -- ./inp_files/2027.got.cif
#   From: 2010.05.17/outbox.cif.g08.bks.cpg/sg47_2_cif.got.tgz:2027.got - 2010.06.03 20:15:42.
