data_PCOD9386582
_publ_section_title
;
Structure prediction by ZEFSAII (Michael W. Deem and Ramdas Pophale) SiO2 
 PCOD9386582
Probable space group: P M M M
;
_chemical_formula_sum "Si O2"
_cell_formula_units_Z 64
_cell_length_a 24.543691
_cell_length_b 8.243222
_cell_length_c 15.731541
_cell_angle_alpha 90.000000
_cell_angle_beta 90.000000
_cell_angle_gamma 90.000000
_cell_volume 3182.791116
_symmetry_space_group_name_H-M "P M M M"
_symmetry_group_IT_number 47
_symmetry_cell_setting 'orthorhombic'
loop_
_space_group_symop_operation_xyz
x,y,z
-x,-y,z
x,-y,-z
-x,y,-z
-x,-y,-z
x,y,-z
-x,y,z
x,-y,z
loop_
_atom_site_type_symbol
_atom_site_label
_atom_site_fract_x
_atom_site_fract_y
_atom_site_fract_z
Si Si1 0.064097 0.195424 0.404357
Si Si2 0.560118 0.306737 0.601369
Si Si3 0.559477 0.810031 0.102340
Si Si4 0.671216 0.819794 0.342354
Si Si5 0.320848 0.810768 0.142984
Si Si6 0.149655 0.306345 0.733371
Si Si7 0.227285 0.311366 0.409836
Si Si8 0.201341 0.804481 0.905713
O O1 0.081984 0.251538 0.500000
O O2 0.096947 0.262578 0.323505
O O3 0.000000 0.234575 0.397217
O O4 0.069362 0.000000 0.403466
O O5 0.564895 0.279868 0.500000
O O6 0.500000 0.253798 0.628330
O O7 0.564654 0.500000 0.615250
O O8 0.608072 0.216047 0.647672
O O9 0.500000 0.741796 0.131067
O O10 0.618869 0.738093 0.125651
O O11 0.560209 0.000000 0.130031
O O12 0.558295 0.808370 0.000000
O O13 0.685832 0.808253 0.243988
O O14 0.708424 0.699821 0.395639
O O15 0.683722 0.000000 0.373598
O O16 0.264008 0.742691 0.106775
O O17 0.324094 0.000000 0.113664
O O18 0.152544 0.500000 0.740209
O O19 0.197661 0.239554 0.671754
O O20 0.162093 0.243257 0.827857
O O21 0.212604 0.234702 0.500000
O O22 0.211627 0.500000 0.412626
O O23 0.204769 0.000000 0.903862
O O24 0.182481 0.754448 0.000000
#
# Coordination Sequence:
#
# PCOD9386582 Si02
#       8
#     8   8   8   8   8   8   8   8
#     4   9  19  37  62  93 129 167 202 235 275 328
#     4   9  19  36  53  65  84 123 172 216 263 329
#     4   8  13  22  38  60  86 119 159 203 259 330
#     4  11  21  31  47  73 102 128 163 220 280 329
#     4   9  17  29  44  67 100 133 170 219 278 340
#     4  11  22  36  57  86 120 155 195 243 286 332
#     4  10  21  36  52  72 104 147 186 219 265 328
#     4  10  20  36  58  80 108 151 200 247 295 349
#
# _framework density 20.108136999999999
#
# number of rings (size 3 to 8) (size 9 to 14) (size 15 to 20)
#    0.000    2.375    1.250    3.000    0.000    6.000 
#    0.000    2.500    0.000    0.375    0.000    2.625 
#    0.000    0.000    0.000    8.250    0.000    8.000 
#
# Total GULP energy -356637.693164 kJ/mol
# GULP energy per Si atom -5572.463956 kJ/mol
# Density = 2.006237 g / cm^3
# Si number density = 20.108137 Si / 1000 Ang^3
#
#
#
# Elastic Constant Matrix: (Units=GPa)
#
#
# Indices 1 2 3 4 5 6 
#
# 1 99.2084 10.0438 57.4583 0.0000 0.0000 0.0000
# 2 10.0438 14.7071 27.4221 0.0000 0.0000 0.0000
# 3 57.4583 27.4221 128.0862 0.0000 0.0000 0.0000
# 4 0.0000 0.0000 0.0000 7.5823 0.0000 0.0000
# 5 0.0000 0.0000 0.0000 0.0000 32.3790 0.0000
# 6 0.0000 0.0000 0.0000 0.0000 0.0000 14.8215
#
#
#
# Elastic Compliance Matrix: (Units=1/GPa)
#
#
# Indices 1 2 3 4 5 6 
#
# 1 0.013726 0.003507 -0.006908 0.000000 0.000000 0.000000
# 2 0.003507 0.114065 -0.025993 0.000000 0.000000 0.000000
# 3 -0.006908 -0.025993 0.016471 0.000000 0.000000 0.000000
# 4 0.000000 0.000000 0.000000 0.131886 0.000000 0.000000
# 5 0.000000 0.000000 0.000000 0.000000 0.030884 0.000000
# 6 0.000000 0.000000 0.000000 0.000000 0.000000 0.067469
#
#
# Mechanical properties :
#
#
# Convention : Reuss Voigt Hill
#
# Bulk Modulus (GPa) = 11.69966 47.98334 29.84150
# Shear Modulus (GPa) = 10.82761 20.76174 15.79467
#
# Velocity S-wave (km/s) = 2.32301 3.21675 2.80569
# Velocity P-wave (km/s) = 3.60918 6.14093 5.03673
#
# Compressibility (1/GPa) = 0.08547256
#
# Stress axis : x y z
#
# Youngs Moduli (GPa) = 72.85644 8.76691 60.71269
#
# Poissons Ratio (x) = -0.03074 0.41940
# Poissons Ratio (y) = -0.25548 1.57813
# Poissons Ratio (z) = 0.50329 0.22788
#
# Static dielectric constant tensor:
#      x y z
#    x 1.746220 0.000000 0.000000 
#    y 0.000000 1.714770 0.000000 
#    z 0.000000 0.000000 1.731450 
# 
# From -- ./inp_files/25529.got.cif
#   From: 2010.05.17/outbox.cif.g08.bks.cpg/sg47_13_cif.got.tgz:25529.got - 2010.06.03 20:15:42.
