data_PCOD9386421
_publ_section_title
;
Structure prediction by ZEFSAII (Michael W. Deem and Ramdas Pophale) SiO2 
 PCOD9386421
Probable space group: P M M M
;
_chemical_formula_sum "Si O2"
_cell_formula_units_Z 40
_cell_length_a 9.269571
_cell_length_b 9.017526
_cell_length_c 26.745629
_cell_angle_alpha 90.000000
_cell_angle_beta 90.000000
_cell_angle_gamma 90.000000
_cell_volume 2235.629617
_symmetry_space_group_name_H-M "P M M M"
_symmetry_group_IT_number 47
_symmetry_cell_setting 'orthorhombic'
loop_
_space_group_symop_operation_xyz
x,y,z
-x,-y,z
x,-y,-z
-x,y,-z
-x,-y,-z
x,y,-z
-x,y,z
x,-y,z
loop_
_atom_site_type_symbol
_atom_site_label
_atom_site_fract_x
_atom_site_fract_y
_atom_site_fract_z
Si Si1 0.329134 0.322277 0.700063
Si Si2 0.675512 0.829356 0.802965
Si Si3 0.666298 0.318834 0.500000
Si Si4 0.166125 0.319066 0.400418
Si Si5 0.829407 0.176805 0.000000
Si Si6 0.672262 0.676197 0.906209
O O1 0.500000 0.292521 0.693177
O O2 0.313304 0.500000 0.705562
O O3 0.278374 0.244857 0.750987
O O4 0.243640 0.273304 0.650823
O O5 0.500000 0.826002 0.802278
O O6 0.719057 0.740749 0.852526
O O7 0.721272 0.000000 0.806051
O O8 0.667409 0.500000 0.500000
O O9 0.500000 0.272096 0.500000
O O10 0.748045 0.270801 0.550217
O O11 0.168063 0.500000 0.400684
O O12 0.000000 0.272095 0.402121
O O13 0.755732 0.246213 0.048866
O O14 0.000000 0.207771 0.000000
O O15 0.808313 0.000000 0.000000
O O16 0.500000 0.703830 0.911748
O O17 0.694308 0.500000 0.907619
#
# Coordination Sequence:
#
# PCOD9386421 Si02
#       6
#     8   8   4   8   4   8
#     4   9  16  27  44  66  92 122 157 197 239 285
#     4   9  17  30  50  75 100 127 162 205 250 294
#     4   9  15  23  37  59  88 121 156 195 240 288
#     4   9  16  25  38  59  89 123 157 194 238 288
#     4  11  24  39  54  76 108 143 176 211 254 304
#     4  10  20  35  57  83 107 134 172 215 257 303
#
# _framework density 17.892050999999999
#
# number of rings (size 3 to 8) (size 9 to 14) (size 15 to 20)
#    0.000    2.600    0.000    2.700    0.000    9.200 
#    0.000    1.000    0.000    4.200    0.000    0.700 
#    0.000    5.600    0.000    0.000    0.000    0.000 
#
# Total GULP energy -223132.131641 kJ/mol
# GULP energy per Si atom -5578.303291 kJ/mol
# Density = 1.785133 g / cm^3
# Si number density = 17.892051 Si / 1000 Ang^3
#
#
#
# Elastic Constant Matrix: (Units=GPa)
#
#
# Indices 1 2 3 4 5 6 
#
# 1 89.8764 51.8971 98.3204 0.0000 0.0000 0.0000
# 2 51.8971 52.1439 71.2173 0.0000 0.0000 0.0000
# 3 98.3204 71.2173 228.9230 0.0000 0.0000 0.0000
# 4 0.0000 0.0000 0.0000 -12.7397 0.0000 0.0000
# 5 0.0000 0.0000 0.0000 0.0000 -7.6296 0.0000
# 6 0.0000 0.0000 0.0000 0.0000 0.0000 12.6124
#
#
#
# Elastic Compliance Matrix: (Units=1/GPa)
#
#
# Indices 1 2 3 4 5 6 
#
# 1 0.030764 -0.021861 -0.006412 0.000000 0.000000 0.000000
# 2 -0.021861 0.048881 -0.005818 0.000000 0.000000 0.000000
# 3 -0.006412 -0.005818 0.008932 0.000000 0.000000 0.000000
# 4 0.000000 0.000000 0.000000 -0.078495 0.000000 0.000000
# 5 0.000000 0.000000 0.000000 0.000000 -0.131068 0.000000
# 6 0.000000 0.000000 0.000000 0.000000 0.000000 0.079287
#
#
# Mechanical properties :
#
#
# Convention : Reuss Voigt Hill
#
# Bulk Modulus (GPa) = 49.03001 90.42367 69.72684
# Shear Modulus (GPa) = 150.24232 8.41585 79.32908
#
# Velocity S-wave (km/s) = 9.17354 2.17115 6.66587
# Velocity P-wave (km/s) = 11.81812 7.54542 9.91467
#
# Compressibility (1/GPa) = 0.02039567
#
# Stress axis : x y z
#
# Youngs Moduli (GPa) = 32.50576 20.45799 111.95730
#
# Poissons Ratio (x) = 0.44723 0.71786
# Poissons Ratio (y) = 0.71060 0.65132
# Poissons Ratio (z) = 0.20842 0.11902
#
# Static dielectric constant tensor:
#      x y z
#    x 1.595710 0.000000 0.000000 
#    y 0.000000 1.593550 0.000000 
#    z 0.000000 0.000000 1.590640 
# 
# From -- ./inp_files/1875.got.cif
#   From: 2010.05.17/outbox.cif.g08.bks.cpg/sg47_1_cif.got.tgz:1875.got - 2010.06.03 20:15:42.
