data_PCOD9386645
_publ_section_title
;
Structure prediction by ZEFSAII (Michael W. Deem and Ramdas Pophale) SiO2 
 PCOD9386645
Probable space group: P M M M
;
_chemical_formula_sum "Si O2"
_cell_formula_units_Z 44
_cell_length_a 8.240774
_cell_length_b 7.844613
_cell_length_c 31.554685
_cell_angle_alpha 90.000000
_cell_angle_beta 90.000000
_cell_angle_gamma 90.000000
_cell_volume 2039.874159
_symmetry_space_group_name_H-M "P M M M"
_symmetry_group_IT_number 47
_symmetry_cell_setting 'orthorhombic'
loop_
_space_group_symop_operation_xyz
x,y,z
-x,-y,z
x,-y,-z
-x,y,-z
-x,-y,-z
x,y,-z
-x,y,z
x,-y,z
loop_
_atom_site_type_symbol
_atom_site_label
_atom_site_fract_x
_atom_site_fract_y
_atom_site_fract_z
Si Si1 0.500000 0.697860 0.216001
Si Si2 0.500000 0.801985 0.689399
Si Si3 0.174325 0.300064 0.176184
Si Si4 0.690018 0.292423 0.453212
Si Si5 0.819704 0.706628 0.363699
Si Si6 0.316804 0.202020 0.908618
Si Si7 0.813922 0.295678 0.000000
O O1 0.500000 0.500000 0.201640
O O2 0.500000 0.702980 0.266453
O O3 0.665757 0.776430 0.197858
O O4 0.336345 0.762450 0.663199
O O5 0.500000 0.000000 0.700098
O O6 0.168943 0.500000 0.187864
O O7 0.200442 0.286390 0.125755
O O8 0.000000 0.223903 0.187849
O O9 0.744238 0.235229 0.500000
O O10 0.500000 0.245628 0.448022
O O11 0.695395 0.500000 0.453460
O O12 0.789235 0.236293 0.412282
O O13 0.818689 0.500000 0.363220
O O14 0.000000 0.761999 0.349358
O O15 0.500000 0.264507 0.901075
O O16 0.311726 0.000000 0.901307
O O17 0.269984 0.235271 0.957013
O O18 0.811909 0.500000 0.000000
O O19 0.000000 0.235863 0.000000
#
# Coordination Sequence:
#
# PCOD9386645 Si02
#       7
#     4   4   8   8   8   8   4
#     4  10  22  42  66  90 118 150 192 247 297 351
#     4  12  26  42  61  85 121 160 196 246 304 365
#     4  10  21  39  65  94 120 150 190 235 289 350
#     4   8  13  24  48  83 119 151 188 242 301 349
#     4  10  20  36  61  89 118 156 202 249 297 354
#     4  11  23  38  58  86 121 159 199 239 287 346
#     4  11  24  39  56  82 116 157 206 252 293 339
#
# _framework density 21.569956999999999
#
# number of rings (size 3 to 8) (size 9 to 14) (size 15 to 20)
#    0.000    1.909    1.818    3.000    0.000    7.636 
#    0.000    3.636    0.000    1.091    0.000    1.273 
#    0.000    0.000    0.000    0.000    0.000    0.000 
#
# Total GULP energy -245741.727158 kJ/mol
# GULP energy per Si atom -5585.039254 kJ/mol
# Density = 2.152086 g / cm^3
# Si number density = 21.569957 Si / 1000 Ang^3
#
#
#
# Elastic Constant Matrix: (Units=GPa)
#
#
# Indices 1 2 3 4 5 6 
#
# 1 182.8400 9.5054 55.3448 0.0000 0.0000 0.0000
# 2 9.5054 33.8377 -12.8053 0.0000 0.0000 0.0000
# 3 55.3448 -12.8053 91.3598 0.0000 0.0000 0.0000
# 4 0.0000 0.0000 0.0000 104.8261 0.0000 0.0000
# 5 0.0000 0.0000 0.0000 0.0000 12.0629 0.0000
# 6 0.0000 0.0000 0.0000 0.0000 0.0000 3.0635
#
#
#
# Elastic Compliance Matrix: (Units=1/GPa)
#
#
# Indices 1 2 3 4 5 6 
#
# 1 0.007142 -0.003848 -0.004866 0.000000 0.000000 0.000000
# 2 -0.003848 0.033281 0.006996 0.000000 0.000000 0.000000
# 3 -0.004866 0.006996 0.014874 0.000000 0.000000 0.000000
# 4 0.000000 0.000000 0.000000 0.009540 0.000000 0.000000
# 5 0.000000 0.000000 0.000000 0.000000 0.082899 0.000000
# 6 0.000000 0.000000 0.000000 0.000000 0.000000 0.326420
#
#
# Mechanical properties :
#
#
# Convention : Reuss Voigt Hill
#
# Bulk Modulus (GPa) = 19.28219 45.79191 32.53705
# Shear Modulus (GPa) = 10.10348 41.05668 25.58008
#
# Velocity S-wave (km/s) = 2.16662 4.36755 3.44744
# Velocity P-wave (km/s) = 3.90099 6.83444 5.56450
#
# Compressibility (1/GPa) = 0.05186133
#
# Stress axis : x y z
#
# Youngs Moduli (GPa) = 140.01269 30.04703 67.23127
#
# Poissons Ratio (x) = 0.11561 0.32715
# Poissons Ratio (y) = 0.53874 -0.47033
# Poissons Ratio (z) = 0.68130 -0.21020
#
# Static dielectric constant tensor:
#      x y z
#    x 1.814130 0.000000 0.000000 
#    y 0.000000 1.778750 0.000000 
#    z 0.000000 0.000000 1.757650 
# 
# From -- ./inp_files/33970.got.cif
#   From: 2010.05.17/outbox.cif.g08.bks.cpg/sg47_17_cif.got.tgz:33970.got - 2010.06.03 20:15:42.
