data_PCOD9386078
_publ_section_title
;
Structure prediction by ZEFSAII (Michael W. Deem and Ramdas Pophale) SiO2 
 PCOD9386078
Probable space group: P M M M
;
_chemical_formula_sum "Si O2"
_cell_formula_units_Z 48
_cell_length_a 8.857064
_cell_length_b 19.289873
_cell_length_c 15.809295
_cell_angle_alpha 90.000000
_cell_angle_beta 90.000000
_cell_angle_gamma 90.000000
_cell_volume 2701.043973
_symmetry_space_group_name_H-M "P M M M"
_symmetry_group_IT_number 47
_symmetry_cell_setting 'orthorhombic'
loop_
_space_group_symop_operation_xyz
x,y,z
-x,-y,z
x,-y,-z
-x,y,-z
-x,-y,-z
x,y,-z
-x,y,z
x,-y,z
loop_
_atom_site_type_symbol
_atom_site_label
_atom_site_fract_x
_atom_site_fract_y
_atom_site_fract_z
Si Si1 0.682716 0.081080 0.723819
Si Si2 0.679388 0.916079 0.090925
Si Si3 0.173689 0.584155 0.000000
Si Si4 0.818122 0.191003 0.598365
Si Si5 0.181103 0.343138 0.661569
Si Si6 0.319426 0.418127 0.822492
Si Si7 0.322946 0.417238 0.500000
O O1 0.500000 0.084486 0.723709
O O2 0.737566 0.106418 0.817144
O O3 0.747934 0.127945 0.650047
O O4 0.723698 0.000000 0.713976
O O5 0.500000 0.900645 0.089894
O O6 0.691466 0.000000 0.091655
O O7 0.743094 0.891769 0.000000
O O8 0.256660 0.604783 0.913754
O O9 0.175093 0.500000 0.000000
O O10 0.000000 0.607025 0.000000
O O11 0.770727 0.192425 0.500000
O O12 0.776628 0.263426 0.643094
O O13 0.000000 0.185711 0.599756
O O14 0.248948 0.373549 0.747439
O O15 0.244233 0.386861 0.582942
O O16 0.000000 0.348023 0.663575
O O17 0.500000 0.412799 0.821422
O O18 0.280551 0.500000 0.810548
O O19 0.311469 0.500000 0.500000
O O20 0.500000 0.398432 0.500000
#
# Coordination Sequence:
#
# PCOD9386078 Si02
#       7
#     8   8   4   8   8   8   4
#     4   9  18  32  53  83 110 133 172 222 266 315
#     4   7  10  20  42  72 104 133 159 195 247 302
#     4   9  17  31  53  81 111 147 188 223 264 321
#     4  10  22  40  56  72 100 140 183 223 269 324
#     4  11  22  38  57  77 104 143 189 229 267 324
#     4  10  20  34  54  83 116 145 178 226 278 324
#     4  11  23  37  55  83 114 139 170 219 279 334
#
# _framework density 17.770906
#
# number of rings (size 3 to 8) (size 9 to 14) (size 15 to 20)
#    0.000    2.500    0.833    3.500    0.000    7.000 
#    0.000    1.667    1.833    0.500    0.000    2.333 
#    0.000    0.000    0.000    0.000    0.000    0.000 
#
# Total GULP energy -267589.782948 kJ/mol
# GULP energy per Si atom -5574.787145 kJ/mol
# Density = 1.773046 g / cm^3
# Si number density = 17.770906 Si / 1000 Ang^3
#
#
#
# Elastic Constant Matrix: (Units=GPa)
#
#
# Indices 1 2 3 4 5 6 
#
# 1 40.2911 38.8265 54.5864 0.0000 0.0000 0.0000
# 2 38.8265 75.7774 81.5700 0.0000 0.0000 0.0000
# 3 54.5864 81.5700 202.1466 0.0000 0.0000 0.0000
# 4 0.0000 0.0000 0.0000 -253.5981 0.0000 0.0000
# 5 0.0000 0.0000 0.0000 0.0000 29.5949 0.0000
# 6 0.0000 0.0000 0.0000 0.0000 0.0000 27.3142
#
#
#
# Elastic Compliance Matrix: (Units=1/GPa)
#
#
# Indices 1 2 3 4 5 6 
#
# 1 0.052725 -0.020666 -0.005899 0.000000 0.000000 0.000000
# 2 -0.020666 0.031430 -0.007102 0.000000 0.000000 0.000000
# 3 -0.005899 -0.007102 0.009406 0.000000 0.000000 0.000000
# 4 0.000000 0.000000 0.000000 -0.003943 0.000000 0.000000
# 5 0.000000 0.000000 0.000000 0.000000 0.033790 0.000000
# 6 0.000000 0.000000 0.000000 0.000000 0.000000 0.036611
#
#
# Mechanical properties :
#
#
# Convention : Reuss Voigt Hill
#
# Bulk Modulus (GPa) = 38.12698 74.24233 56.18465
# Shear Modulus (GPa) = 21.17794 -29.78898 -4.30552
#
# Velocity S-wave (km/s) = 3.45587 -4.09868 -1.55822
# Velocity P-wave (km/s) = 6.11763 4.41240 5.33360
#
# Compressibility (1/GPa) = 0.02622815
#
# Stress axis : x y z
#
# Youngs Moduli (GPa) = 18.96619 31.81639 106.31896
#
# Poissons Ratio (x) = 0.65751 0.62714
# Poissons Ratio (y) = 0.39195 0.75511
# Poissons Ratio (z) = 0.11188 0.22597
#
# Static dielectric constant tensor:
#      x y z
#    x 1.598970 0.000000 0.000000 
#    y 0.000000 1.588880 0.000000 
#    z 0.000000 0.000000 1.620350 
# 
# From -- ./inp_files/21127.got.cif
#   From: 2010.05.17/outbox.cif.g08.bks.cpg/sg47_11_cif.got.tgz:21127.got - 2010.06.03 20:15:42.
