data_PCOD9386985
_publ_section_title
;
Structure prediction by ZEFSAII (Michael W. Deem and Ramdas Pophale) SiO2 
 PCOD9386985
Probable space group: P M M M
;
_chemical_formula_sum "Si O2"
_cell_formula_units_Z 52
_cell_length_a 23.873262
_cell_length_b 14.961740
_cell_length_c 7.888689
_cell_angle_alpha 90.000000
_cell_angle_beta 90.000000
_cell_angle_gamma 90.000000
_cell_volume 2817.725632
_symmetry_space_group_name_H-M "P M M M"
_symmetry_group_IT_number 47
_symmetry_cell_setting 'orthorhombic'
loop_
_space_group_symop_operation_xyz
x,y,z
-x,-y,z
x,-y,-z
-x,y,-z
-x,-y,-z
x,y,-z
-x,y,z
x,-y,z
loop_
_atom_site_type_symbol
_atom_site_label
_atom_site_fract_x
_atom_site_fract_y
_atom_site_fract_z
Si Si1 0.862971 0.598605 0.201697
Si Si2 0.932800 0.768646 0.800797
Si Si3 0.566720 0.399749 0.697033
Si Si4 0.436504 0.104391 0.792861
Si Si5 0.265112 0.399253 0.701278
Si Si6 0.932006 0.100943 0.500000
Si Si7 0.355520 0.745813 0.811117
O O1 0.875244 0.500000 0.274112
O O2 0.902054 0.678815 0.260304
O O3 0.797491 0.617123 0.232112
O O4 0.871863 0.594041 0.000000
O O5 0.916049 0.846535 0.670846
O O6 0.000000 0.757450 0.792006
O O7 0.918996 0.786021 0.000000
O O8 0.584286 0.386216 0.500000
O O9 0.500000 0.395540 0.701874
O O10 0.583563 0.500000 0.745802
O O11 0.593750 0.324962 0.809956
O O12 0.500000 0.131688 0.738704
O O13 0.385905 0.167582 0.729634
O O14 0.429173 0.000000 0.748468
O O15 0.436273 0.109979 0.000000
O O16 0.262374 0.405217 0.500000
O O17 0.282340 0.500000 0.763827
O O18 0.305684 0.316165 0.740700
O O19 0.000000 0.098258 0.500000
O O20 0.910903 0.000000 0.500000
O O21 0.338197 0.771932 0.000000
#
# Coordination Sequence:
#
# PCOD9386985 Si02
#       7
#     8   8   8   8   8   4   8
#     4   9  18  33  53  77 106 139 175 217 263 313
#     4   9  18  32  52  81 114 146 182 226 276 330
#     4   9  18  31  44  60  88 124 153 179 223 285
#     4   8  15  29  48  70  95 120 149 191 245 302
#     4  10  21  35  50  69  96 133 172 205 244 299
#     4   9  18  32  51  77 109 145 184 226 270 317
#     4  11  20  29  47  72  93 117 155 201 243 286
#
# _framework density 18.454599999999999
#
# number of rings (size 3 to 8) (size 9 to 14) (size 15 to 20)
#    0.000    2.692    0.000    2.769    1.077    4.615 
#    0.000    3.846    0.000    4.154    0.000    7.538 
#    0.000    0.000    0.000    0.000    0.000    0.000 
#
# Total GULP energy -289591.570368 kJ/mol
# GULP energy per Si atom -5569.068661 kJ/mol
# Density = 1.841260 g / cm^3
# Si number density = 18.454600 Si / 1000 Ang^3
#
#
#
# Elastic Constant Matrix: (Units=GPa)
#
#
# Indices 1 2 3 4 5 6 
#
# 1 36.4135 49.8036 12.1573 0.0000 0.0000 0.0000
# 2 49.8036 135.9568 35.1475 0.0000 0.0000 0.0000
# 3 12.1573 35.1475 36.7272 0.0000 0.0000 0.0000
# 4 0.0000 0.0000 0.0000 72.7941 0.0000 0.0000
# 5 0.0000 0.0000 0.0000 0.0000 0.9200 0.0000
# 6 0.0000 0.0000 0.0000 0.0000 0.0000 3.7414
#
#
#
# Elastic Compliance Matrix: (Units=1/GPa)
#
#
# Indices 1 2 3 4 5 6 
#
# 1 0.055094 -0.020552 0.001431 0.000000 0.000000 0.000000
# 2 -0.020552 0.017440 -0.009887 0.000000 0.000000 0.000000
# 3 0.001431 -0.009887 0.036216 0.000000 0.000000 0.000000
# 4 0.000000 0.000000 0.000000 0.013737 0.000000 0.000000
# 5 0.000000 0.000000 0.000000 0.000000 1.086905 0.000000
# 6 0.000000 0.000000 0.000000 0.000000 0.000000 0.267279
#
#
# Mechanical properties :
#
#
# Convention : Reuss Voigt Hill
#
# Bulk Modulus (GPa) = 19.71062 44.81269 32.26166
# Shear Modulus (GPa) = 3.22249 22.95706 13.08977
#
# Velocity S-wave (km/s) = 1.32286 3.53083 2.66615
# Velocity P-wave (km/s) = 3.61069 6.39982 5.19590
#
# Compressibility (1/GPa) = 0.05073407
#
# Stress axis : x y z
#
# Youngs Moduli (GPa) = 18.15083 57.34044 27.61247
#
# Poissons Ratio (x) = 1.17845 -0.03951
# Poissons Ratio (y) = 0.37303 0.27299
# Poissons Ratio (z) = -0.02597 0.56690
#
# Static dielectric constant tensor:
#      x y z
#    x 1.631540 0.000000 0.000000 
#    y 0.000000 1.658860 0.000000 
#    z 0.000000 0.000000 1.686610 
# 
# From -- ./inp_files/11097.got.cif
#   From: 2010.05.17/outbox.cif.g08.bks.cpg/sg47_6_cif.got.tgz:11097.got - 2010.06.03 20:15:42.
