data_PCOD9386031
_publ_section_title
;
Structure prediction by ZEFSAII (Michael W. Deem and Ramdas Pophale) SiO2 
 PCOD9386031
Probable space group: P M M M
;
_chemical_formula_sum "Si O2"
_cell_formula_units_Z 52
_cell_length_a 8.837436
_cell_length_b 14.532768
_cell_length_c 23.638772
_cell_angle_alpha 90.000000
_cell_angle_beta 90.000000
_cell_angle_gamma 90.000000
_cell_volume 3035.984389
_symmetry_space_group_name_H-M "P M M M"
_symmetry_group_IT_number 47
_symmetry_cell_setting 'orthorhombic'
loop_
_space_group_symop_operation_xyz
x,y,z
-x,-y,z
x,-y,-z
-x,y,-z
-x,-y,-z
x,y,-z
-x,y,z
x,-y,z
loop_
_atom_site_type_symbol
_atom_site_label
_atom_site_fract_x
_atom_site_fract_y
_atom_site_fract_z
Si Si1 0.181545 0.786764 0.612880
Si Si2 0.680918 0.779634 0.166839
Si Si3 0.184295 0.105747 0.500000
Si Si4 0.180019 0.394190 0.779153
Si Si5 0.182079 0.893110 0.065271
Si Si6 0.682065 0.892309 0.279873
Si Si7 0.680971 0.394777 0.345731
O O1 0.230845 0.840729 0.556547
O O2 0.240780 0.840982 0.667843
O O3 0.246627 0.683848 0.615938
O O4 0.000000 0.783482 0.614250
O O5 0.500000 0.772131 0.165611
O O6 0.753593 0.680440 0.178311
O O7 0.740313 0.827476 0.110332
O O8 0.723035 0.843088 0.220970
O O9 0.000000 0.103955 0.500000
O O10 0.236479 0.000000 0.500000
O O11 0.208936 0.500000 0.796192
O O12 0.257260 0.380354 0.717944
O O13 0.000000 0.381901 0.772966
O O14 0.000000 0.885983 0.070110
O O15 0.222798 0.000000 0.076382
O O16 0.222196 0.872560 0.000000
O O17 0.500000 0.885183 0.286192
O O18 0.722685 0.000000 0.278801
O O19 0.500000 0.385284 0.345077
O O20 0.719025 0.500000 0.362051
#
# Coordination Sequence:
#
# PCOD9386031 Si02
#       7
#     8   8   4   8   8   8   8
#     4  11  21  35  57  80 104 139 181 225 272 321
#     4  11  21  33  53  81 113 146 179 219 272 326
#     4   9  20  38  56  77 106 140 181 225 268 321
#     4  10  20  34  54  81 110 141 180 222 266 321
#     4   9  19  36  56  78 108 148 191 231 269 314
#     4  10  21  35  50  74 110 144 175 217 268 321
#     4  10  20  35  55  79 109 142 174 215 270 327
#
# _framework density 17.127887999999999
#
# number of rings (size 3 to 8) (size 9 to 14) (size 15 to 20)
#    0.000    1.923    1.538    3.231    0.000    4.615 
#    0.000    2.692    0.000    5.538    0.000    3.231 
#    0.000    0.000    0.000    0.000    0.000    0.000 
#
# Total GULP energy -290375.943909 kJ/mol
# GULP energy per Si atom -5584.152767 kJ/mol
# Density = 1.708890 g / cm^3
# Si number density = 17.127888 Si / 1000 Ang^3
#
#
#
# Elastic Constant Matrix: (Units=GPa)
#
#
# Indices 1 2 3 4 5 6 
#
# 1 41.4672 53.9323 40.3225 0.0000 0.0000 0.0000
# 2 53.9323 155.6931 85.2056 0.0000 0.0000 0.0000
# 3 40.3225 85.2056 110.8944 0.0000 0.0000 0.0000
# 4 0.0000 0.0000 0.0000 32.8202 0.0000 0.0000
# 5 0.0000 0.0000 0.0000 0.0000 82.4404 0.0000
# 6 0.0000 0.0000 0.0000 0.0000 0.0000 29.4063
#
#
#
# Elastic Compliance Matrix: (Units=1/GPa)
#
#
# Indices 1 2 3 4 5 6 
#
# 1 0.047693 -0.012132 -0.008020 0.000000 0.000000 0.000000
# 2 -0.012132 0.014169 -0.006476 0.000000 0.000000 0.000000
# 3 -0.008020 -0.006476 0.016910 0.000000 0.000000 0.000000
# 4 0.000000 0.000000 0.000000 0.030469 0.000000 0.000000
# 5 0.000000 0.000000 0.000000 0.000000 0.012130 0.000000
# 6 0.000000 0.000000 0.000000 0.000000 0.000000 0.034006
#
#
# Mechanical properties :
#
#
# Convention : Reuss Voigt Hill
#
# Bulk Modulus (GPa) = 39.19084 74.10837 56.64960
# Shear Modulus (GPa) = 23.02688 37.50634 30.26661
#
# Velocity S-wave (km/s) = 3.67060 4.68459 4.20824
# Velocity P-wave (km/s) = 6.39495 8.52186 7.53384
#
# Compressibility (1/GPa) = 0.02551617
#
# Stress axis : x y z
#
# Youngs Moduli (GPa) = 20.96756 70.57545 59.13822
#
# Poissons Ratio (x) = 0.85619 0.47431
# Poissons Ratio (y) = 0.25437 0.38296
# Poissons Ratio (z) = 0.16817 0.45703
#
# Static dielectric constant tensor:
#      x y z
#    x 1.572980 0.000000 0.000000 
#    y 0.000000 1.583780 0.000000 
#    z 0.000000 0.000000 1.547150 
# 
# From -- ./inp_files/6914.got.cif
#   From: 2010.05.17/outbox.cif.g08.bks.cpg/sg47_4_cif.got.tgz:6914.got - 2010.06.03 20:15:42.
