data_PCOD9386434
_publ_section_title
;
Structure prediction by ZEFSAII (Michael W. Deem and Ramdas Pophale) SiO2 
 PCOD9386434
Probable space group: P M M M
;
_chemical_formula_sum "Si O2"
_cell_formula_units_Z 48
_cell_length_a 8.317377
_cell_length_b 33.582763
_cell_length_c 9.380383
_cell_angle_alpha 90.000000
_cell_angle_beta 90.000000
_cell_angle_gamma 90.000000
_cell_volume 2620.133275
_symmetry_space_group_name_H-M "P M M M"
_symmetry_group_IT_number 47
_symmetry_cell_setting 'orthorhombic'
loop_
_space_group_symop_operation_xyz
x,y,z
-x,-y,z
x,-y,-z
-x,y,-z
-x,-y,-z
x,y,-z
-x,y,z
x,-y,z
loop_
_atom_site_type_symbol
_atom_site_label
_atom_site_fract_x
_atom_site_fract_y
_atom_site_fract_z
Si Si1 0.000000 0.954206 0.673418
Si Si2 0.687361 0.902887 0.671955
Si Si3 0.191531 0.415807 0.836469
Si Si4 0.808951 0.264537 0.835747
Si Si5 0.692243 0.821497 0.835747
Si Si6 0.308464 0.500000 0.165057
Si Si7 0.691501 0.660089 0.338340
O O1 0.833029 0.932308 0.715872
O O2 0.000000 0.954083 0.500000
O O3 0.000000 0.000000 0.721239
O O4 0.689713 0.900365 0.500000
O O5 0.500000 0.913523 0.711769
O O6 0.725235 0.859972 0.740365
O O7 0.249823 0.458052 0.773688
O O8 0.243958 0.377787 0.747326
O O9 0.000000 0.416783 0.842561
O O10 0.254218 0.412317 0.000000
O O11 0.768090 0.219940 0.785432
O O12 0.735802 0.299169 0.740921
O O13 0.000000 0.269626 0.836991
O O14 0.749948 0.267676 0.000000
O O15 0.500000 0.816049 0.836158
O O16 0.744626 0.828437 0.000000
O O17 0.500000 0.500000 0.164377
O O18 0.248358 0.500000 0.000000
O O19 0.754536 0.660390 0.500000
O O20 0.500000 0.656863 0.342628
#
# Coordination Sequence:
#
# PCOD9386434 Si02
#       7
#     4   8   8   8   8   4   8
#     4   9  18  32  51  77 107 139 179 225 271 318
#     4   9  18  32  51  76 105 138 178 222 267 318
#     4  10  20  35  57  83 109 137 172 216 263 312
#     4  10  21  36  55  80 106 135 175 218 261 315
#     4   9  18  33  53  77 105 137 171 211 261 314
#     4   9  17  31  54  83 110 137 172 212 256 307
#     4  11  24  39  54  75 105 141 179 218 262 313
#
# _framework density 18.319679000000001
#
# number of rings (size 3 to 8) (size 9 to 14) (size 15 to 20)
#    0.000    2.333    0.000    2.250    1.167    7.333 
#    0.000    3.750    0.000    3.500    0.000    2.333 
#    0.000    0.000    0.000    0.000    0.000    0.000 
#
# Total GULP energy -267689.517887 kJ/mol
# GULP energy per Si atom -5576.864956 kJ/mol
# Density = 1.827798 g / cm^3
# Si number density = 18.319679 Si / 1000 Ang^3
#
#
#
# Elastic Constant Matrix: (Units=GPa)
#
#
# Indices 1 2 3 4 5 6 
#
# 1 73.3367 67.9399 28.8050 0.0000 0.0000 0.0000
# 2 67.9399 153.3007 54.4885 0.0000 0.0000 0.0000
# 3 28.8050 54.4885 46.4070 0.0000 0.0000 0.0000
# 4 0.0000 0.0000 0.0000 -86.8197 0.0000 0.0000
# 5 0.0000 0.0000 0.0000 0.0000 16.5007 0.0000
# 6 0.0000 0.0000 0.0000 0.0000 0.0000 40.1754
#
#
#
# Elastic Compliance Matrix: (Units=1/GPa)
#
#
# Indices 1 2 3 4 5 6 
#
# 1 0.023571 -0.009003 -0.004059 0.000000 0.000000 0.000000
# 2 -0.009003 0.014634 -0.011594 0.000000 0.000000 0.000000
# 3 -0.004059 -0.011594 0.037682 0.000000 0.000000 0.000000
# 4 0.000000 0.000000 0.000000 -0.011518 0.000000 0.000000
# 5 0.000000 0.000000 0.000000 0.000000 0.060604 0.000000
# 6 0.000000 0.000000 0.000000 0.000000 0.000000 0.024891
#
#
# Mechanical properties :
#
#
# Convention : Reuss Voigt Hill
#
# Bulk Modulus (GPa) = 37.63262 63.94568 50.78915
# Shear Modulus (GPa) = 24.03446 2.09203 13.06325
#
# Velocity S-wave (km/s) = 3.62601 1.06978 2.67324
# Velocity P-wave (km/s) = 6.17393 6.04211 6.10838
#
# Compressibility (1/GPa) = 0.02657269
#
# Stress axis : x y z
#
# Youngs Moduli (GPa) = 42.42511 68.33284 26.53819
#
# Poissons Ratio (x) = 0.61522 0.10773
# Poissons Ratio (y) = 0.38197 0.30769
# Poissons Ratio (z) = 0.17222 0.79227
#
# Static dielectric constant tensor:
#      x y z
#    x 1.634200 0.000000 0.000000 
#    y 0.000000 1.610650 0.000000 
#    z 0.000000 0.000000 1.640170 
# 
# From -- ./inp_files/2629.got.cif
#   From: 2010.05.17/outbox.cif.g08.bks.cpg/sg47_2_cif.got.tgz:2629.got - 2010.06.03 20:15:42.
