data_PCOD9386240
_publ_section_title
;
Structure prediction by ZEFSAII (Michael W. Deem and Ramdas Pophale) SiO2 
 PCOD9386240
Probable space group: P M M M
;
_chemical_formula_sum "Si O2"
_cell_formula_units_Z 45
_cell_length_a 18.931982
_cell_length_b 16.861319
_cell_length_c 7.503388
_cell_angle_alpha 90.000000
_cell_angle_beta 90.000000
_cell_angle_gamma 90.000000
_cell_volume 2395.217920
_symmetry_space_group_name_H-M "P M M M"
_symmetry_group_IT_number 47
_symmetry_cell_setting 'orthorhombic'
loop_
_space_group_symop_operation_xyz
x,y,z
-x,-y,z
x,-y,-z
-x,y,-z
-x,-y,-z
x,y,-z
-x,y,z
x,-y,z
loop_
_atom_site_type_symbol
_atom_site_label
_atom_site_fract_x
_atom_site_fract_y
_atom_site_fract_z
Si Si1 0.674639 0.410447 0.284636
Si Si2 0.624787 0.000000 0.695228
Si Si3 0.421243 0.727220 0.284348
Si Si4 0.500000 0.000000 0.000000
Si Si5 0.917903 0.588917 0.782446
Si Si6 0.704504 0.843950 0.795639
Si Si7 0.801687 0.292686 0.207697
O O1 0.679647 0.411586 0.500000
O O2 0.675734 0.500000 0.219487
O O3 0.604343 0.361310 0.239195
O O4 0.739854 0.358399 0.217479
O O5 0.676157 0.923882 0.709921
O O6 0.591207 0.000000 0.500000
O O7 0.563623 0.000000 0.844474
O O8 0.419111 0.734744 0.500000
O O9 0.500000 0.744720 0.223564
O O10 0.363668 0.786509 0.208201
O O11 0.893891 0.500000 0.726845
O O12 0.869376 0.661036 0.716714
O O13 0.000000 0.597441 0.733058
O O14 0.914653 0.589341 0.000000
O O15 0.767508 0.788642 0.717487
O O16 0.722595 0.862426 0.000000
O O17 0.816424 0.276103 0.000000
#
# Coordination Sequence:
#
# PCOD9386240 Si02
#       7
#     8   4   8   1   8   8   8
#     4   9  17  28  41  59  85 118 158 204 249 295
#     4  12  25  41  61  84 110 142 175 216 273 333
#     4   9  18  30  44  62  84 116 159 203 252 308
#     4  12  26  44  60  90 116 136 170 224 272 334
#     4   8  13  22  40  71 107 138 174 221 269 317
#     4  10  20  35  50  71 101 129 167 215 261 318
#     4   9  17  29  48  69  94 131 168 210 260 310
#
# _framework density 18.787436
#
# number of rings (size 3 to 8) (size 9 to 14) (size 15 to 20)
#    0.000    2.667    0.889    1.733    1.244    2.489 
#    0.000    1.778    0.000    0.533    0.000    8.089 
#    0.000    4.978    0.000    0.000    0.000    0.000 
#
# Total GULP energy -250556.694342 kJ/mol
# GULP energy per Si atom -5567.926541 kJ/mol
# Density = 1.874467 g / cm^3
# Si number density = 18.787436 Si / 1000 Ang^3
#
#
#
# Elastic Constant Matrix: (Units=GPa)
#
#
# Indices 1 2 3 4 5 6 
#
# 1 87.9295 45.2162 11.1586 0.0000 0.0000 0.0000
# 2 45.2162 128.6166 18.5698 0.0000 0.0000 0.0000
# 3 11.1586 18.5698 77.4885 0.0000 0.0000 0.0000
# 4 0.0000 0.0000 0.0000 12.8083 0.0000 0.0000
# 5 0.0000 0.0000 0.0000 0.0000 7.1447 0.0000
# 6 0.0000 0.0000 0.0000 0.0000 0.0000 9.9242
#
#
#
# Elastic Compliance Matrix: (Units=1/GPa)
#
#
# Indices 1 2 3 4 5 6 
#
# 1 0.013938 -0.004775 -0.000863 0.000000 0.000000 0.000000
# 2 -0.004775 0.009690 -0.001634 0.000000 0.000000 0.000000
# 3 -0.000863 -0.001634 0.013421 0.000000 0.000000 0.000000
# 4 0.000000 0.000000 0.000000 0.078075 0.000000 0.000000
# 5 0.000000 0.000000 0.000000 0.000000 0.139964 0.000000
# 6 0.000000 0.000000 0.000000 0.000000 0.000000 0.100764
#
#
# Mechanical properties :
#
#
# Convention : Reuss Voigt Hill
#
# Bulk Modulus (GPa) = 44.43717 49.32487 46.88102
# Shear Modulus (GPa) = 13.23107 20.58142 16.90625
#
# Velocity S-wave (km/s) = 2.65665 3.31341 3.00304
# Velocity P-wave (km/s) = 5.75451 6.39917 6.08538
#
# Compressibility (1/GPa) = 0.02250368
#
# Stress axis : x y z
#
# Youngs Moduli (GPa) = 71.74676 103.20052 74.50973
#
# Poissons Ratio (x) = 0.49283 0.06428
# Poissons Ratio (y) = 0.34262 0.12178
# Poissons Ratio (z) = 0.06190 0.16868
#
# Static dielectric constant tensor:
#      x y z
#    x 1.641450 0.000000 0.000000 
#    y 0.000000 1.672350 0.000000 
#    z 0.000000 0.000000 1.717170 
# 
# From -- ./inp_files/9464.got.cif
#   From: 2010.05.17/outbox.cif.g08.bks.cpg/sg47_5_cif.got.tgz:9464.got - 2010.06.03 20:15:42.
