data_PCOD9386821
_publ_section_title
;
Structure prediction by ZEFSAII (Michael W. Deem and Ramdas Pophale) SiO2 
 PCOD9386821
Probable space group: P M M M
;
_chemical_formula_sum "Si O2"
_cell_formula_units_Z 52
_cell_length_a 15.041034
_cell_length_b 20.987019
_cell_length_c 7.389708
_cell_angle_alpha 90.000000
_cell_angle_beta 90.000000
_cell_angle_gamma 90.000000
_cell_volume 2332.683012
_symmetry_space_group_name_H-M "P M M M"
_symmetry_group_IT_number 47
_symmetry_cell_setting 'orthorhombic'
loop_
_space_group_symop_operation_xyz
x,y,z
-x,-y,z
x,-y,-z
-x,y,-z
-x,-y,-z
x,y,-z
-x,y,z
x,-y,z
loop_
_atom_site_type_symbol
_atom_site_label
_atom_site_fract_x
_atom_site_fract_y
_atom_site_fract_z
Si Si1 0.100304 0.259874 0.719680
Si Si2 0.709181 0.068623 0.788809
Si Si3 0.099455 0.113872 0.718695
Si Si4 0.599161 0.663492 0.289073
Si Si5 0.397292 0.809872 0.781902
Si Si6 0.783609 0.377730 0.278155
Si Si7 0.897381 0.500000 0.720896
O O1 0.102953 0.258818 0.500000
O O2 0.114753 0.187194 0.778124
O O3 0.169649 0.312245 0.780960
O O4 0.000000 0.278533 0.771091
O O5 0.815551 0.074646 0.778246
O O6 0.664838 0.132954 0.713642
O O7 0.682094 0.000000 0.710606
O O8 0.683815 0.067658 0.000000
O O9 0.098764 0.112781 0.500000
O O10 0.000000 0.094272 0.777399
O O11 0.592331 0.646626 0.500000
O O12 0.500000 0.656861 0.209524
O O13 0.624304 0.738543 0.281513
O O14 0.681705 0.623608 0.214927
O O15 0.500000 0.822717 0.732417
O O16 0.391745 0.807367 0.000000
O O17 0.782835 0.377600 0.500000
O O18 0.843069 0.437449 0.222723
O O19 0.899053 0.500000 0.500000
O O20 0.000000 0.500000 0.779905
#
# Coordination Sequence:
#
# PCOD9386821 Si02
#       7
#     8   8   8   8   8   8   4
#     4   8  13  22  38  59  80 104 139 183 226 263
#     4  10  21  34  47  66  92 121 151 184 229 284
#     4   9  18  32  49  68  89 117 156 197 233 272
#     4   9  17  29  46  68  92 118 149 185 228 275
#     4   9  18  33  52  72  93 118 151 192 234 276
#     4   9  15  23  37  58  87 121 151 181 220 263
#     4   9  16  24  35  57  92 129 159 185 218 264
#
# _framework density 22.291927999999999
#
# number of rings (size 3 to 8) (size 9 to 14) (size 15 to 20)
#    0.000    3.000    0.000    2.308    0.000    4.923 
#    0.000    3.462    0.000    2.308    0.000    3.769 
#    0.000    3.077    0.000    0.000    0.000    0.308 
#
# Total GULP energy -290272.014564 kJ/mol
# GULP energy per Si atom -5582.154126 kJ/mol
# Density = 2.224119 g / cm^3
# Si number density = 22.291928 Si / 1000 Ang^3
#
#
#
# Elastic Constant Matrix: (Units=GPa)
#
#
# Indices 1 2 3 4 5 6 
#
# 1 146.5164 76.1078 -0.2587 0.0000 0.0000 0.0000
# 2 76.1078 61.2782 -2.6697 0.0000 0.0000 0.0000
# 3 -0.2587 -2.6697 76.5038 0.0000 0.0000 0.0000
# 4 0.0000 0.0000 0.0000 2.7273 0.0000 0.0000
# 5 0.0000 0.0000 0.0000 0.0000 0.7851 0.0000
# 6 0.0000 0.0000 0.0000 0.0000 0.0000 -2.0697
#
#
#
# Elastic Compliance Matrix: (Units=1/GPa)
#
#
# Indices 1 2 3 4 5 6 
#
# 1 0.019280 -0.023979 -0.000772 0.000000 0.000000 0.000000
# 2 -0.023979 0.046168 0.001530 0.000000 0.000000 0.000000
# 3 -0.000772 0.001530 0.013122 0.000000 0.000000 0.000000
# 4 0.000000 0.000000 0.000000 0.366661 0.000000 0.000000
# 5 0.000000 0.000000 0.000000 0.000000 1.273661 0.000000
# 6 0.000000 0.000000 0.000000 0.000000 0.000000 -0.483159
#
#
# Mechanical properties :
#
#
# Convention : Reuss Voigt Hill
#
# Bulk Modulus (GPa) = 31.12533 47.85079 39.48806
# Shear Modulus (GPa) = 3.86733 14.36315 9.11524
#
# Velocity S-wave (km/s) = 1.31857 2.54110 2.02433
# Velocity P-wave (km/s) = 4.03870 5.48833 4.81834
#
# Compressibility (1/GPa) = 0.03212818
#
# Stress axis : x y z
#
# Youngs Moduli (GPa) = 51.86787 21.66010 76.20769
#
# Poissons Ratio (x) = 0.51939 0.05880
# Poissons Ratio (y) = 1.24375 -0.11660
# Poissons Ratio (z) = 0.04002 -0.03314
#
# Static dielectric constant tensor:
#      x y z
#    x 1.814920 0.000000 0.000000 
#    y 0.000000 1.794730 0.000000 
#    z 0.000000 0.000000 1.892600 
# 
# From -- ./inp_files/7009.got.cif
#   From: 2010.05.17/outbox.cif.g08.bks.cpg/sg47_4_cif.got.tgz:7009.got - 2010.06.03 20:15:42.
