data_PCOD9386671
_publ_section_title
;
Structure prediction by ZEFSAII (Michael W. Deem and Ramdas Pophale) SiO2 
 PCOD9386671
Probable space group: P M M M
;
_chemical_formula_sum "Si O2"
_cell_formula_units_Z 48
_cell_length_a 15.589102
_cell_length_b 15.234368
_cell_length_c 9.990615
_cell_angle_alpha 90.000000
_cell_angle_beta 90.000000
_cell_angle_gamma 90.000000
_cell_volume 2372.672322
_symmetry_space_group_name_H-M "P M M M"
_symmetry_group_IT_number 47
_symmetry_cell_setting 'orthorhombic'
loop_
_space_group_symop_operation_xyz
x,y,z
-x,-y,z
x,-y,-z
-x,y,-z
-x,-y,-z
x,y,-z
-x,y,z
x,-y,z
loop_
_atom_site_type_symbol
_atom_site_label
_atom_site_fract_x
_atom_site_fract_y
_atom_site_fract_z
Si Si1 0.100130 0.746617 0.851106
Si Si2 0.395237 0.500000 0.154617
Si Si3 0.603564 0.341205 0.653858
Si Si4 0.895071 0.399380 0.651114
Si Si5 0.601197 0.000000 0.149207
Si Si6 0.335673 0.855315 0.350372
Si Si7 0.865915 0.103072 0.351364
O O1 0.138352 0.669949 0.758413
O O2 0.102092 0.836133 0.767408
O O3 0.000000 0.723711 0.865658
O O4 0.137738 0.753918 0.000000
O O5 0.500000 0.500000 0.153528
O O6 0.369333 0.414205 0.239255
O O7 0.366647 0.500000 0.000000
O O8 0.620761 0.369636 0.500000
O O9 0.500000 0.329424 0.664723
O O10 0.647578 0.247134 0.674885
O O11 0.867192 0.376629 0.500000
O O12 0.870929 0.500000 0.679939
O O13 0.000000 0.396850 0.649911
O O14 0.625711 0.915192 0.235317
O O15 0.500000 0.000000 0.135995
O O16 0.640429 0.000000 0.000000
O O17 0.371335 0.874729 0.500000
O O18 0.235839 0.880050 0.354240
O O19 0.898907 0.128196 0.500000
O O20 0.883094 0.000000 0.331703
#
# Coordination Sequence:
#
# PCOD9386671 Si02
#       7
#     8   4   8   8   4   8   8
#     4  10  21  35  53  80 111 142 177 218 265 320
#     4   9  17  29  47  73 107 143 174 211 260 311
#     4   9  17  30  52  80 106 135 174 219 262 305
#     4   8  14  27  50  79 108 137 170 211 259 308
#     4  11  23  35  51  81 116 145 176 217 265 318
#     4  10  20  37  58  79 104 139 183 225 267 317
#     4  10  21  38  58  78 102 136 180 226 271 321
#
# _framework density 20.230352
#
# number of rings (size 3 to 8) (size 9 to 14) (size 15 to 20)
#    0.000    2.500    0.833    2.000    0.000    5.667 
#    0.000    5.000    1.833    0.000    0.000    0.000 
#    0.000    0.000    0.000    0.000    0.000    0.000 
#
# Total GULP energy -267872.033344 kJ/mol
# GULP energy per Si atom -5580.667361 kJ/mol
# Density = 2.018431 g / cm^3
# Si number density = 20.230352 Si / 1000 Ang^3
#
#
#
# Elastic Constant Matrix: (Units=GPa)
#
#
# Indices 1 2 3 4 5 6 
#
# 1 25.8775 4.5106 16.2443 0.0000 0.0000 0.0000
# 2 4.5106 133.8493 122.5065 0.0000 0.0000 0.0000
# 3 16.2443 122.5065 203.7784 0.0000 0.0000 0.0000
# 4 0.0000 0.0000 0.0000 107.1988 0.0000 0.0000
# 5 0.0000 0.0000 0.0000 0.0000 5.0592 0.0000
# 6 0.0000 0.0000 0.0000 0.0000 0.0000 19.3320
#
#
#
# Elastic Compliance Matrix: (Units=1/GPa)
#
#
# Indices 1 2 3 4 5 6 
#
# 1 0.041453 0.003618 -0.005480 0.000000 0.000000 0.000000
# 2 0.003618 0.016927 -0.010464 0.000000 0.000000 0.000000
# 3 -0.005480 -0.010464 0.011635 0.000000 0.000000 0.000000
# 4 0.000000 0.000000 0.000000 0.009328 0.000000 0.000000
# 5 0.000000 0.000000 0.000000 0.000000 0.197659 0.000000
# 6 0.000000 0.000000 0.000000 0.000000 0.000000 0.051728
#
#
# Mechanical properties :
#
#
# Convention : Reuss Voigt Hill
#
# Bulk Modulus (GPa) = 22.04432 72.22532 47.13482
# Shear Modulus (GPa) = 13.56844 41.00091 27.28467
#
# Velocity S-wave (km/s) = 2.59259 4.50678 3.67645
# Velocity P-wave (km/s) = 4.45896 7.92845 6.43206
#
# Compressibility (1/GPa) = 0.04536315
#
# Stress axis : x y z
#
# Youngs Moduli (GPa) = 24.12388 59.07802 85.94717
#
# Poissons Ratio (x) = -0.21377 0.47097
# Poissons Ratio (y) = -0.08729 0.89939
# Poissons Ratio (z) = 0.13219 0.61822
#
# Static dielectric constant tensor:
#      x y z
#    x 1.705590 0.000000 0.000000 
#    y 0.000000 1.688060 0.000000 
#    z 0.000000 0.000000 1.738750 
# 
# From -- ./inp_files/9190.got.cif
#   From: 2010.05.17/outbox.cif.g08.bks.cpg/sg47_5_cif.got.tgz:9190.got - 2010.06.03 20:15:42.
