data_PCOD9386711
_publ_section_title
;
Structure prediction by ZEFSAII (Michael W. Deem and Ramdas Pophale) SiO2 
 PCOD9386711
Probable space group: P M M M
;
_chemical_formula_sum "Si O2"
_cell_formula_units_Z 34
_cell_length_a 9.301297
_cell_length_b 20.523169
_cell_length_c 9.364327
_cell_angle_alpha 90.000000
_cell_angle_beta 90.000000
_cell_angle_gamma 90.000000
_cell_volume 1787.575955
_symmetry_space_group_name_H-M "P M M M"
_symmetry_group_IT_number 47
_symmetry_cell_setting 'orthorhombic'
loop_
_space_group_symop_operation_xyz
x,y,z
-x,-y,z
x,-y,-z
-x,y,-z
-x,-y,-z
x,y,-z
-x,y,z
x,-y,z
loop_
_atom_site_type_symbol
_atom_site_label
_atom_site_fract_x
_atom_site_fract_y
_atom_site_fract_z
Si Si1 0.825562 0.500000 0.165034
Si Si2 0.265438 0.000000 0.748681
Si Si3 0.327949 0.750039 0.169025
Si Si4 0.826618 0.368196 0.669262
Si Si5 0.500000 0.000000 0.000000
Si Si6 0.500000 0.000000 0.500000
Si Si7 0.836409 0.861790 0.669803
O O1 0.784088 0.564647 0.251996
O O2 0.000000 0.500000 0.160604
O O3 0.775132 0.500000 0.000000
O O4 0.374973 0.000000 0.619415
O O5 0.174520 0.065865 0.733007
O O6 0.371876 0.000000 0.880381
O O7 0.500000 0.745706 0.182472
O O8 0.251951 0.690657 0.251005
O O9 0.270766 0.815395 0.244236
O O10 0.292385 0.749553 0.000000
O O11 0.793377 0.369720 0.500000
O O12 0.000000 0.360952 0.682223
O O13 0.802080 0.862528 0.500000
O O14 0.000000 0.837094 0.684240
#
# Coordination Sequence:
#
# PCOD9386711 Si02
#       7
#     4   4   8   8   1   1   8
#     4   9  17  31  58  91 124 161 198 240 296 355
#     4  11  23  41  64  91 125 160 201 247 296 361
#     4  11  26  42  60  85 121 160 202 247 302 362
#     4  10  20  37  61  91 123 157 201 249 296 352
#     4  10  28  38  62  94 132 154 198 244 304 350
#     4  10  20  38  66  94 116 166 198 236 308 350
#     4  11  24  42  65  92 120 154 200 253 302 356
#
# _framework density 19.020171000000001
#
# number of rings (size 3 to 8) (size 9 to 14) (size 15 to 20)
#    0.000    1.529    1.176    2.824    4.941    8.941 
#    0.000    1.176    0.000    3.529    0.000    0.000 
#    0.000    0.000    0.000    0.000    0.000    0.000 
#
# Total GULP energy -189333.323811 kJ/mol
# GULP energy per Si atom -5568.627171 kJ/mol
# Density = 1.897688 g / cm^3
# Si number density = 19.020171 Si / 1000 Ang^3
#
#
#
# Elastic Constant Matrix: (Units=GPa)
#
#
# Indices 1 2 3 4 5 6 
#
# 1 62.1480 36.2104 60.1718 0.0000 0.0000 0.0000
# 2 36.2104 152.9116 72.5220 0.0000 0.0000 0.0000
# 3 60.1718 72.5220 199.2849 0.0000 0.0000 0.0000
# 4 0.0000 0.0000 0.0000 49.7043 0.0000 0.0000
# 5 0.0000 0.0000 0.0000 0.0000 35.2307 0.0000
# 6 0.0000 0.0000 0.0000 0.0000 0.0000 -38.6805
#
#
#
# Elastic Compliance Matrix: (Units=1/GPa)
#
#
# Indices 1 2 3 4 5 6 
#
# 1 0.023607 -0.002671 -0.006156 0.000000 0.000000 0.000000
# 2 -0.002671 0.008206 -0.002180 0.000000 0.000000 0.000000
# 3 -0.006156 -0.002180 0.007670 0.000000 0.000000 0.000000
# 4 0.000000 0.000000 0.000000 0.020119 0.000000 0.000000
# 5 0.000000 0.000000 0.000000 0.000000 0.028384 0.000000
# 6 0.000000 0.000000 0.000000 0.000000 0.000000 -0.025853
#
#
# Mechanical properties :
#
#
# Convention : Reuss Voigt Hill
#
# Bulk Modulus (GPa) = 57.24140 83.57253 70.40696
# Shear Modulus (GPa) = 55.57435 25.61360 40.59398
#
# Velocity S-wave (km/s) = 5.41129 3.67366 4.62482
# Velocity P-wave (km/s) = 8.31885 7.87583 8.10037
#
# Compressibility (1/GPa) = 0.01746987
#
# Stress axis : x y z
#
# Youngs Moduli (GPa) = 42.36053 121.86180 130.37904
#
# Poissons Ratio (x) = 0.32545 0.80261
# Poissons Ratio (y) = 0.11313 0.28421
# Poissons Ratio (z) = 0.26077 0.26565
#
# Static dielectric constant tensor:
#      x y z
#    x 1.633110 0.000000 0.000000 
#    y 0.000000 1.577780 0.000000 
#    z 0.000000 0.000000 1.630320 
# 
# From -- ./inp_files/1208.got.cif
#   From: 2010.05.17/outbox.cif.g08.bks.cpg/sg47_1_cif.got.tgz:1208.got - 2010.06.03 20:15:42.
