data_PCOD9386205
_publ_section_title
;
Structure prediction by ZEFSAII (Michael W. Deem and Ramdas Pophale) SiO2 
 PCOD9386205
Probable space group: P M M M
;
_chemical_formula_sum "Si O2"
_cell_formula_units_Z 64
_cell_length_a 14.986798
_cell_length_b 25.956605
_cell_length_c 7.973605
_cell_angle_alpha 90.000000
_cell_angle_beta 90.000000
_cell_angle_gamma 90.000000
_cell_volume 3101.783343
_symmetry_space_group_name_H-M "P M M M"
_symmetry_group_IT_number 47
_symmetry_cell_setting 'orthorhombic'
loop_
_space_group_symop_operation_xyz
x,y,z
-x,-y,z
x,-y,-z
-x,y,-z
-x,-y,-z
x,y,-z
-x,y,z
x,-y,z
loop_
_atom_site_type_symbol
_atom_site_label
_atom_site_fract_x
_atom_site_fract_y
_atom_site_fract_z
Si Si1 0.293269 0.056699 0.302467
Si Si2 0.289596 0.440719 0.793833
Si Si3 0.094978 0.437552 0.801345
Si Si4 0.099140 0.087800 0.198426
Si Si5 0.602997 0.157446 0.196791
Si Si6 0.098701 0.207380 0.296434
Si Si7 0.280690 0.746904 0.305105
Si Si8 0.598269 0.653616 0.199592
O O1 0.312594 0.059184 0.500000
O O2 0.186873 0.063665 0.279042
O O3 0.346623 0.103278 0.219030
O O4 0.318540 0.000000 0.238250
O O5 0.304055 0.500000 0.742960
O O6 0.191487 0.421794 0.735113
O O7 0.362765 0.400259 0.735389
O O8 0.287627 0.440989 0.000000
O O9 0.095650 0.500000 0.790050
O O10 0.000000 0.419483 0.728446
O O11 0.093835 0.425303 0.000000
O O12 0.105861 0.149271 0.228027
O O13 0.000000 0.071886 0.260226
O O14 0.102548 0.077302 0.000000
O O15 0.500000 0.154848 0.254661
O O16 0.659816 0.201672 0.286475
O O17 0.602282 0.170759 0.000000
O O18 0.103935 0.203729 0.500000
O O19 0.182487 0.240354 0.235065
O O20 0.000000 0.227304 0.252447
O O21 0.269857 0.734910 0.500000
O O22 0.333144 0.699654 0.227038
O O23 0.500000 0.665882 0.268008
O O24 0.590644 0.647462 0.000000
#
# Coordination Sequence:
#
# PCOD9386205 Si02
#       8
#     8   8   8   8   8   8   8   8
#     4  11  24  40  58  83 116 154 194 234 277 330
#     4   8  14  26  45  69  98 135 179 223 268 324
#     4   7   9  15  31  57  89 124 161 203 254 310
#     4  10  20  34  56  86 117 150 188 231 279 330
#     4  11  24  41  62  86 111 142 182 233 292 343
#     4   9  18  34  57  83 110 141 178 220 271 333
#     4  11  22  37  60  85 109 142 182 223 269 329
#     4  10  21  35  51  75 108 143 180 229 284 328
#
# _framework density 20.633292999999998
#
# number of rings (size 3 to 8) (size 9 to 14) (size 15 to 20)
#    0.000    2.375    1.250    3.000    0.000    5.750 
#    0.000    4.375    0.000    1.125    0.000    0.875 
#    0.000    0.000    0.000    6.250    0.000    2.500 
#
# Total GULP energy -357033.450621 kJ/mol
# GULP energy per Si atom -5578.647666 kJ/mol
# Density = 2.058633 g / cm^3
# Si number density = 20.633293 Si / 1000 Ang^3
#
#
#
# Elastic Constant Matrix: (Units=GPa)
#
#
# Indices 1 2 3 4 5 6 
#
# 1 116.7508 46.2246 0.8791 0.0000 0.0000 0.0000
# 2 46.2246 81.0611 -6.0643 0.0000 0.0000 0.0000
# 3 0.8791 -6.0643 18.3160 0.0000 0.0000 0.0000
# 4 0.0000 0.0000 0.0000 19.8711 0.0000 0.0000
# 5 0.0000 0.0000 0.0000 0.0000 17.2359 0.0000
# 6 0.0000 0.0000 0.0000 0.0000 0.0000 -3.7149
#
#
#
# Elastic Compliance Matrix: (Units=1/GPa)
#
#
# Indices 1 2 3 4 5 6 
#
# 1 0.011193 -0.006586 -0.002718 0.000000 0.000000 0.000000
# 2 -0.006586 0.016525 0.005788 0.000000 0.000000 0.000000
# 3 -0.002718 0.005788 0.056644 0.000000 0.000000 0.000000
# 4 0.000000 0.000000 0.000000 0.050324 0.000000 0.000000
# 5 0.000000 0.000000 0.000000 0.000000 0.058019 0.000000
# 6 0.000000 0.000000 0.000000 0.000000 0.000000 -0.269186
#
#
# Mechanical properties :
#
#
# Convention : Reuss Voigt Hill
#
# Bulk Modulus (GPa) = 12.93179 33.13408 23.03293
# Shear Modulus (GPa) = -114.49135 18.35099 -48.07018
#
# Velocity S-wave (km/s) = -7.45715 2.98550 -4.83197
# Velocity P-wave (km/s) = 8.23799 5.28939 4.46580
#
# Compressibility (1/GPa) = 0.07732881
#
# Stress axis : x y z
#
# Youngs Moduli (GPa) = 89.33836 60.51387 17.65421
#
# Poissons Ratio (x) = 0.39856 0.04798
# Poissons Ratio (y) = 0.58841 -0.10217
# Poissons Ratio (z) = 0.24282 -0.35023
#
# Static dielectric constant tensor:
#      x y z
#    x 1.781300 0.000000 0.000000 
#    y 0.000000 1.706050 0.000000 
#    z 0.000000 0.000000 1.757910 
# 
# From -- ./inp_files/7856.got.cif
#   From: 2010.05.17/outbox.cif.g08.bks.cpg/sg47_4_cif.got.tgz:7856.got - 2010.06.03 20:15:42.
