data_PCOD9386681
_publ_section_title
;
Structure prediction by ZEFSAII (Michael W. Deem and Ramdas Pophale) SiO2 
 PCOD9386681
Probable space group: P M M M
;
_chemical_formula_sum "Si O2"
_cell_formula_units_Z 48
_cell_length_a 30.679351
_cell_length_b 7.562401
_cell_length_c 9.972333
_cell_angle_alpha 90.000000
_cell_angle_beta 90.000000
_cell_angle_gamma 90.000000
_cell_volume 2313.676538
_symmetry_space_group_name_H-M "P M M M"
_symmetry_group_IT_number 47
_symmetry_cell_setting 'orthorhombic'
loop_
_space_group_symop_operation_xyz
x,y,z
-x,-y,z
x,-y,-z
-x,y,-z
-x,-y,-z
x,y,-z
-x,y,z
x,-y,z
loop_
_atom_site_type_symbol
_atom_site_label
_atom_site_fract_x
_atom_site_fract_y
_atom_site_fract_z
Si Si1 0.546825 0.712867 0.343210
Si Si2 0.949574 0.282284 0.000000
Si Si3 0.356916 0.790986 0.346091
Si Si4 0.949660 0.786715 0.500000
Si Si5 0.892924 0.295431 0.246256
Si Si6 0.199910 0.286760 0.653644
Si Si7 0.718977 0.788192 0.846380
O O1 0.546868 0.767627 0.500000
O O2 0.500000 0.772966 0.285315
O O3 0.546682 0.500000 0.339879
O O4 0.593822 0.770301 0.291556
O O5 0.921543 0.219679 0.126434
O O6 0.951110 0.500000 0.000000
O O7 0.000000 0.225036 0.000000
O O8 0.354260 0.718614 0.500000
O O9 0.321548 0.717898 0.242245
O O10 0.348646 0.000000 0.357710
O O11 0.924189 0.714570 0.626891
O O12 0.000000 0.734218 0.500000
O O13 0.947385 0.000000 0.500000
O O14 0.884300 0.500000 0.209907
O O15 0.846205 0.218709 0.288482
O O16 0.207473 0.223708 0.500000
O O17 0.196961 0.500000 0.645241
O O18 0.238185 0.244187 0.757171
O O19 0.713722 0.000000 0.856556
O O20 0.721541 0.720782 0.000000
#
# Coordination Sequence:
#
# PCOD9386681 Si02
#       7
#     8   4   8   4   8   8   8
#     4   8  14  25  43  70 103 135 168 211 263 314
#     4   9  18  32  55  85 109 137 179 219 258 307
#     4   9  17  30  49  73 101 134 174 219 262 307
#     4  11  23  37  55  83 115 145 179 217 260 311
#     4  10  20  37  59  82 109 142 179 220 264 313
#     4  10  21  37  57  82 107 134 175 223 270 318
#     4  10  22  38  55  77 106 142 181 218 265 326
#
# _framework density 20.746200999999999
#
# number of rings (size 3 to 8) (size 9 to 14) (size 15 to 20)
#    0.000    2.500    0.833    1.750    1.167    4.333 
#    0.000    3.750    0.000    2.000    0.000    3.500 
#    0.000    0.000    0.000    0.000    0.000    0.000 
#
# Total GULP energy -267642.602856 kJ/mol
# GULP energy per Si atom -5575.887560 kJ/mol
# Density = 2.069898 g / cm^3
# Si number density = 20.746201 Si / 1000 Ang^3
#
#
#
# Elastic Constant Matrix: (Units=GPa)
#
#
# Indices 1 2 3 4 5 6 
#
# 1 220.6904 -2.8851 109.2508 0.0000 0.0000 0.0000
# 2 -2.8851 48.6046 0.1554 0.0000 0.0000 0.0000
# 3 109.2508 0.1554 166.5006 0.0000 0.0000 0.0000
# 4 0.0000 0.0000 0.0000 10.6258 0.0000 0.0000
# 5 0.0000 0.0000 0.0000 0.0000 38.5785 0.0000
# 6 0.0000 0.0000 0.0000 0.0000 0.0000 12.4640
#
#
#
# Elastic Compliance Matrix: (Units=1/GPa)
#
#
# Indices 1 2 3 4 5 6 
#
# 1 0.006719 0.000413 -0.004409 0.000000 0.000000 0.000000
# 2 0.000413 0.020600 -0.000290 0.000000 0.000000 0.000000
# 3 -0.004409 -0.000290 0.008900 0.000000 0.000000 0.000000
# 4 0.000000 0.000000 0.000000 0.094111 0.000000 0.000000
# 5 0.000000 0.000000 0.000000 0.000000 0.025921 0.000000
# 6 0.000000 0.000000 0.000000 0.000000 0.000000 0.080231
#
#
# Mechanical properties :
#
#
# Convention : Reuss Voigt Hill
#
# Bulk Modulus (GPa) = 36.17252 72.09309 54.13281
# Shear Modulus (GPa) = 19.66412 34.28529 26.97470
#
# Velocity S-wave (km/s) = 3.08204 4.06964 3.60977
# Velocity P-wave (km/s) = 5.48989 7.54374 6.59723
#
# Compressibility (1/GPa) = 0.02764529
#
# Stress axis : x y z
#
# Youngs Moduli (GPa) = 148.82096 48.54461 112.36531
#
# Poissons Ratio (x) = -0.02005 0.49547
# Poissons Ratio (y) = -0.06146 0.03261
# Poissons Ratio (z) = 0.65622 0.01409
#
# Static dielectric constant tensor:
#      x y z
#    x 1.746600 0.000000 0.000000 
#    y 0.000000 1.797910 0.000000 
#    z 0.000000 0.000000 1.727270 
# 
# From -- ./inp_files/13873.got.cif
#   From: 2010.05.17/outbox.cif.g08.bks.cpg/sg47_7_cif.got.tgz:13873.got - 2010.06.03 20:15:42.
