data_PCOD9386164
_publ_section_title
;
Structure prediction by ZEFSAII (Michael W. Deem and Ramdas Pophale) SiO2 
 PCOD9386164
Probable space group: P M M M
;
_chemical_formula_sum "Si O2"
_cell_formula_units_Z 44
_cell_length_a 14.674828
_cell_length_b 18.474556
_cell_length_c 8.711751
_cell_angle_alpha 90.000000
_cell_angle_beta 90.000000
_cell_angle_gamma 90.000000
_cell_volume 2361.850930
_symmetry_space_group_name_H-M "P M M M"
_symmetry_group_IT_number 47
_symmetry_cell_setting 'orthorhombic'
loop_
_space_group_symop_operation_xyz
x,y,z
-x,-y,z
x,-y,-z
-x,y,-z
-x,-y,-z
x,y,-z
-x,y,z
x,-y,z
loop_
_atom_site_type_symbol
_atom_site_label
_atom_site_fract_x
_atom_site_fract_y
_atom_site_fract_z
Si Si1 0.101675 0.850748 0.815372
Si Si2 0.606114 0.219263 0.683699
Si Si3 0.897221 0.310820 0.316486
Si Si4 0.712871 0.356844 0.183958
Si Si5 0.604733 0.500000 0.812840
Si Si6 0.708267 0.918645 0.185418
O O1 0.113746 0.772155 0.739468
O O2 0.186472 0.901080 0.773585
O O3 0.000000 0.877873 0.775509
O O4 0.104440 0.841169 0.000000
O O5 0.613543 0.221935 0.500000
O O6 0.500000 0.226357 0.726914
O O7 0.663611 0.285056 0.753865
O O8 0.646390 0.143643 0.743188
O O9 0.889729 0.312686 0.500000
O O10 0.816280 0.356356 0.242836
O O11 0.000000 0.333511 0.272809
O O12 0.657567 0.427724 0.235421
O O13 0.712662 0.354264 0.000000
O O14 0.500000 0.500000 0.760829
O O15 0.603696 0.500000 0.000000
O O16 0.683936 0.000000 0.233359
O O17 0.701313 0.914686 0.000000
#
# Coordination Sequence:
#
# PCOD9386164 Si02
#       6
#     8   8   8   8   4   8
#     4   9  17  31  53  81 112 147 187 230 278 334
#     4  11  24  40  58  81 110 148 193 237 287 346
#     4  10  20  34  55  84 118 154 190 229 275 332
#     4  11  21  37  63  90 116 148 187 233 285 340
#     4   9  20  38  60  89 120 148 183 233 290 341
#     4  10  21  36  55  82 114 149 191 239 289 338
#
# _framework density 18.629456000000001
#
# number of rings (size 3 to 8) (size 9 to 14) (size 15 to 20)
#    0.000    1.909    1.818    2.182    0.000    4.364 
#    0.000    5.909    0.000    6.000    0.000    3.818 
#    0.000    0.000    0.000    0.000    0.000    0.000 
#
# Total GULP energy -245706.158302 kJ/mol
# GULP energy per Si atom -5584.230871 kJ/mol
# Density = 1.858705 g / cm^3
# Si number density = 18.629456 Si / 1000 Ang^3
#
#
#
# Elastic Constant Matrix: (Units=GPa)
#
#
# Indices 1 2 3 4 5 6 
#
# 1 150.2319 80.8684 42.3017 0.0000 0.0000 0.0000
# 2 80.8684 122.3553 28.3544 0.0000 0.0000 0.0000
# 3 42.3017 28.3544 27.2644 0.0000 0.0000 0.0000
# 4 0.0000 0.0000 0.0000 -36.0878 0.0000 0.0000
# 5 0.0000 0.0000 0.0000 0.0000 30.5045 0.0000
# 6 0.0000 0.0000 0.0000 0.0000 0.0000 13.6288
#
#
#
# Elastic Compliance Matrix: (Units=1/GPa)
#
#
# Indices 1 2 3 4 5 6 
#
# 1 0.014295 -0.005676 -0.016275 0.000000 0.000000 0.000000
# 2 -0.005676 0.013022 -0.004736 0.000000 0.000000 0.000000
# 3 -0.016275 -0.004736 0.066855 0.000000 0.000000 0.000000
# 4 0.000000 0.000000 0.000000 -0.027710 0.000000 0.000000
# 5 0.000000 0.000000 0.000000 0.000000 0.032782 0.000000
# 6 0.000000 0.000000 0.000000 0.000000 0.000000 0.073374
#
#
# Mechanical properties :
#
#
# Convention : Reuss Voigt Hill
#
# Bulk Modulus (GPa) = 24.51187 66.98897 45.75042
# Shear Modulus (GPa) = 20.86891 11.49756 16.18323
#
# Velocity S-wave (km/s) = 3.35059 2.48699 2.95055
# Velocity P-wave (km/s) = 5.30610 6.65459 6.01823
#
# Compressibility (1/GPa) = 0.04079657
#
# Stress axis : x y z
#
# Youngs Moduli (GPa) = 69.95696 76.79376 14.95775
#
# Poissons Ratio (x) = 0.43588 0.24344
# Poissons Ratio (y) = 0.39708 0.07084
# Poissons Ratio (z) = 1.13858 0.36369
#
# Static dielectric constant tensor:
#      x y z
#    x 1.656390 0.000000 0.000000 
#    y 0.000000 1.608670 0.000000 
#    z 0.000000 0.000000 1.629310 
# 
# From -- ./inp_files/6149.got.cif
#   From: 2010.05.17/outbox.cif.g08.bks.cpg/sg47_4_cif.got.tgz:6149.got - 2010.06.03 20:15:42.
