data_PCOD9386011
_publ_section_title
;
Structure prediction by ZEFSAII (Michael W. Deem and Ramdas Pophale) SiO2 
 PCOD9386011
Probable space group: P M M M
;
_chemical_formula_sum "Si O2"
_cell_formula_units_Z 48
_cell_length_a 9.431083
_cell_length_b 33.563670
_cell_length_c 7.979031
_cell_angle_alpha 90.000000
_cell_angle_beta 90.000000
_cell_angle_gamma 90.000000
_cell_volume 2525.696496
_symmetry_space_group_name_H-M "P M M M"
_symmetry_group_IT_number 47
_symmetry_cell_setting 'orthorhombic'
loop_
_space_group_symop_operation_xyz
x,y,z
-x,-y,z
x,-y,-z
-x,y,-z
-x,-y,-z
x,y,-z
-x,y,z
x,-y,z
loop_
_atom_site_type_symbol
_atom_site_label
_atom_site_fract_x
_atom_site_fract_y
_atom_site_fract_z
Si Si1 0.338612 0.576732 0.800132
Si Si2 0.662239 0.816235 0.796029
Si Si3 0.159631 0.500000 0.300272
Si Si4 0.662126 0.335401 0.698903
Si Si5 0.839675 0.740541 0.799646
Si Si6 0.170322 0.896963 0.196471
Si Si7 0.827908 0.954585 0.500000
O O1 0.500000 0.571019 0.735490
O O2 0.242878 0.539588 0.751845
O O3 0.287718 0.619798 0.737593
O O4 0.344464 0.578569 0.000000
O O5 0.500000 0.817402 0.736328
O O6 0.745428 0.777227 0.734084
O O7 0.748551 0.856326 0.758097
O O8 0.657515 0.814023 0.000000
O O9 0.152285 0.500000 0.500000
O O10 0.000000 0.500000 0.230996
O O11 0.656909 0.330607 0.500000
O O12 0.500000 0.331767 0.765458
O O13 0.761834 0.301098 0.768565
O O14 0.000000 0.740865 0.732331
O O15 0.848786 0.745905 0.000000
O O16 0.211542 0.930606 0.331234
O O17 0.000000 0.890756 0.208130
O O18 0.200791 0.906735 0.000000
O O19 0.000000 0.955929 0.500000
O O20 0.775759 0.000000 0.500000
#
# Coordination Sequence:
#
# PCOD9386011 Si02
#       7
#     8   8   4   8   8   8   4
#     4  10  21  38  61  85 107 137 179 223 267 318
#     4   9  17  31  53  78 104 137 178 223 269 319
#     4  11  24  39  56  82 114 145 176 215 266 320
#     4  10  21  37  56  79 108 142 180 221 267 320
#     4  10  20  34  54  80 109 142 180 221 268 324
#     4   9  17  31  52  77 106 141 181 226 276 330
#     4   9  18  32  51  79 111 141 179 227 277 330
#
# _framework density 19.004660999999999
#
# number of rings (size 3 to 8) (size 9 to 14) (size 15 to 20)
#    0.000    2.333    0.000    2.500    0.000    7.667 
#    1.500    2.083    0.000    1.000    0.000    2.333 
#    0.000    0.000    0.000    0.000    0.000    0.000 
#
# Total GULP energy -267875.511862 kJ/mol
# GULP energy per Si atom -5580.739830 kJ/mol
# Density = 1.896141 g / cm^3
# Si number density = 19.004661 Si / 1000 Ang^3
#
#
#
# Elastic Constant Matrix: (Units=GPa)
#
#
# Indices 1 2 3 4 5 6 
#
# 1 98.4924 94.1394 28.3729 0.0000 0.0000 0.0000
# 2 94.1394 180.6325 36.3233 0.0000 0.0000 0.0000
# 3 28.3729 36.3233 46.9116 0.0000 0.0000 0.0000
# 4 0.0000 0.0000 0.0000 53.5419 0.0000 0.0000
# 5 0.0000 0.0000 0.0000 0.0000 14.7031 0.0000
# 6 0.0000 0.0000 0.0000 0.0000 0.0000 28.5037
#
#
#
# Elastic Compliance Matrix: (Units=1/GPa)
#
#
# Indices 1 2 3 4 5 6 
#
# 1 0.021196 -0.010030 -0.005053 0.000000 0.000000 0.000000
# 2 -0.010030 0.011304 -0.002686 0.000000 0.000000 0.000000
# 3 -0.005053 -0.002686 0.026453 0.000000 0.000000 0.000000
# 4 0.000000 0.000000 0.000000 0.018677 0.000000 0.000000
# 5 0.000000 0.000000 0.000000 0.000000 0.068013 0.000000
# 6 0.000000 0.000000 0.000000 0.000000 0.000000 0.035083
#
#
# Mechanical properties :
#
#
# Convention : Reuss Voigt Hill
#
# Bulk Modulus (GPa) = 42.71069 71.52309 57.11689
# Shear Modulus (GPa) = 22.31466 30.49648 26.40557
#
# Velocity S-wave (km/s) = 3.43033 4.01020 3.73154
# Velocity P-wave (km/s) = 6.18160 7.69145 6.97748
#
# Compressibility (1/GPa) = 0.02341334
#
# Stress axis : x y z
#
# Youngs Moduli (GPa) = 47.17903 88.46664 37.80361
#
# Poissons Ratio (x) = 0.88736 0.19103
# Poissons Ratio (y) = 0.47323 0.10153
# Poissons Ratio (z) = 0.23840 0.23760
#
# Static dielectric constant tensor:
#      x y z
#    x 1.667120 0.000000 0.000000 
#    y 0.000000 1.733920 0.000000 
#    z 0.000000 0.000000 1.673970 
# 
# From -- ./inp_files/2704.got.cif
#   From: 2010.05.17/outbox.cif.g08.bks.cpg/sg47_2_cif.got.tgz:2704.got - 2010.06.03 20:15:42.
