data_PCOD9386426
_publ_section_title
;
Structure prediction by ZEFSAII (Michael W. Deem and Ramdas Pophale) SiO2 
 PCOD9386426
Probable space group: P M M M
;
_chemical_formula_sum "Si O2"
_cell_formula_units_Z 48
_cell_length_a 9.521332
_cell_length_b 8.535216
_cell_length_c 31.952715
_cell_angle_alpha 90.000000
_cell_angle_beta 90.000000
_cell_angle_gamma 90.000000
_cell_volume 2596.689315
_symmetry_space_group_name_H-M "P M M M"
_symmetry_group_IT_number 47
_symmetry_cell_setting 'orthorhombic'
loop_
_space_group_symop_operation_xyz
x,y,z
-x,-y,z
x,-y,-z
-x,y,-z
-x,-y,-z
x,y,-z
-x,y,z
x,-y,z
loop_
_atom_site_type_symbol
_atom_site_label
_atom_site_fract_x
_atom_site_fract_y
_atom_site_fract_z
Si Si1 0.839247 0.812679 0.666800
Si Si2 0.661703 0.690937 0.838995
Si Si3 0.670136 0.182123 0.500000
Si Si4 0.161640 0.308398 0.918699
Si Si5 0.336450 0.689064 0.255691
Si Si6 0.662680 0.312866 0.589031
Si Si7 0.337977 0.691407 0.000000
O O1 0.761421 0.758153 0.708780
O O2 0.755130 0.751399 0.626658
O O3 0.000000 0.755920 0.666248
O O4 0.839622 0.000000 0.665542
O O5 0.500000 0.737882 0.847184
O O6 0.662652 0.500000 0.839147
O O7 0.764778 0.743398 0.875660
O O8 0.700366 0.738915 0.791762
O O9 0.500000 0.196234 0.500000
O O10 0.716330 0.259428 0.543437
O O11 0.707349 0.000000 0.500000
O O12 0.161551 0.500000 0.918595
O O13 0.254104 0.259446 0.958526
O O14 0.000000 0.258194 0.921937
O O15 0.500000 0.731212 0.263030
O O16 0.328078 0.500000 0.257377
O O17 0.500000 0.258581 0.593693
O O18 0.662077 0.500000 0.590517
O O19 0.339493 0.500000 0.000000
O O20 0.500000 0.742703 0.000000
#
# Coordination Sequence:
#
# PCOD9386426 Si02
#       7
#     8   8   4   8   8   8   4
#     4  11  24  38  51  72 103 136 169 206 250 300
#     4   8  14  25  40  58  81 108 141 184 233 285
#     4   9  17  31  54  83 112 141 172 208 252 299
#     4   9  15  21  30  47  72 103 142 186 230 280
#     4   9  18  33  53  75  96 122 161 206 249 297
#     4  10  20  35  57  83 108 135 171 213 253 296
#     4   9  15  21  29  41  63 101 146 189 234 281
#
# _framework density 18.485075999999999
#
# number of rings (size 3 to 8) (size 9 to 14) (size 15 to 20)
#    0.000    2.667    0.000    3.500    0.000    9.333 
#    0.000    2.083    0.000    2.500    0.000    0.000 
#    0.000    0.000    0.000    0.750    0.000   14.833 
#
# Total GULP energy -267759.741815 kJ/mol
# GULP energy per Si atom -5578.327954 kJ/mol
# Density = 1.844300 g / cm^3
# Si number density = 18.485076 Si / 1000 Ang^3
#
#
#
# Elastic Constant Matrix: (Units=GPa)
#
#
# Indices 1 2 3 4 5 6 
#
# 1 140.3621 22.9715 129.9599 0.0000 0.0000 0.0000
# 2 22.9715 11.7218 29.5247 0.0000 0.0000 0.0000
# 3 129.9599 29.5247 202.8567 0.0000 0.0000 0.0000
# 4 0.0000 0.0000 0.0000 -28.9167 0.0000 0.0000
# 5 0.0000 0.0000 0.0000 0.0000 -8.7615 0.0000
# 6 0.0000 0.0000 0.0000 0.0000 0.0000 15.2386
#
#
#
# Elastic Compliance Matrix: (Units=1/GPa)
#
#
# Indices 1 2 3 4 5 6 
#
# 1 0.018219 -0.009954 -0.010223 0.000000 0.000000 0.000000
# 2 -0.009954 0.140126 -0.014017 0.000000 0.000000 0.000000
# 3 -0.010223 -0.014017 0.013519 0.000000 0.000000 0.000000
# 4 0.000000 0.000000 0.000000 -0.034582 0.000000 0.000000
# 5 0.000000 0.000000 0.000000 0.000000 -0.114136 0.000000
# 6 0.000000 0.000000 0.000000 0.000000 0.000000 0.065623
#
#
# Mechanical properties :
#
#
# Convention : Reuss Voigt Hill
#
# Bulk Modulus (GPa) = 9.66424 79.98364 44.82394
# Shear Modulus (GPa) = 26.08924 7.01106 16.55015
#
# Velocity S-wave (km/s) = 3.76089 1.94963 2.99544
# Velocity P-wave (km/s) = 4.90903 6.95926 6.02204
#
# Compressibility (1/GPa) = 0.10347428
#
# Stress axis : x y z
#
# Youngs Moduli (GPa) = 54.88700 7.13645 73.96835
#
# Poissons Ratio (x) = 0.07104 0.75620
# Poissons Ratio (y) = 0.54637 1.03683
# Poissons Ratio (z) = 0.56113 0.10003
#
# Static dielectric constant tensor:
#      x y z
#    x 1.622600 0.000000 0.000000 
#    y 0.000000 1.626770 0.000000 
#    z 0.000000 0.000000 1.623300 
# 
# From -- ./inp_files/34202.got.cif
#   From: 2010.05.17/outbox.cif.g08.bks.cpg/sg47_18_cif.got.tgz:34202.got - 2010.06.03 20:15:42.
