data_PCOD9386004
_publ_section_title
;
Structure prediction by ZEFSAII (Michael W. Deem and Ramdas Pophale) SiO2 
 PCOD9386004
Probable space group: P M M M
;
_chemical_formula_sum "Si O2"
_cell_formula_units_Z 48
_cell_length_a 9.200977
_cell_length_b 33.545553
_cell_length_c 8.107497
_cell_angle_alpha 90.000000
_cell_angle_beta 90.000000
_cell_angle_gamma 90.000000
_cell_volume 2502.394042
_symmetry_space_group_name_H-M "P M M M"
_symmetry_group_IT_number 47
_symmetry_cell_setting 'orthorhombic'
loop_
_space_group_symop_operation_xyz
x,y,z
-x,-y,z
x,-y,-z
-x,y,-z
-x,-y,-z
x,y,-z
-x,y,z
x,-y,z
loop_
_atom_site_type_symbol
_atom_site_label
_atom_site_fract_x
_atom_site_fract_y
_atom_site_fract_z
Si Si1 0.825206 0.901696 0.185566
Si Si2 0.166812 0.585267 0.303538
Si Si3 0.167741 0.257031 0.200106
Si Si4 0.330328 0.177015 0.696240
Si Si5 0.334887 0.336085 0.198484
Si Si6 0.176921 0.045691 0.500000
Si Si7 0.832627 0.500000 0.196581
O O1 0.750033 0.859185 0.213466
O O2 0.778934 0.930892 0.334088
O O3 0.000000 0.896707 0.197816
O O4 0.793266 0.916483 0.000000
O O5 0.160766 0.586801 0.500000
O O6 0.258077 0.622600 0.242198
O O7 0.230426 0.542149 0.253845
O O8 0.000000 0.587810 0.238312
O O9 0.254348 0.218690 0.261988
O O10 0.243377 0.297928 0.257196
O O11 0.000000 0.255557 0.252942
O O12 0.170287 0.256489 0.000000
O O13 0.319654 0.169992 0.500000
O O14 0.500000 0.178452 0.742172
O O15 0.500000 0.334730 0.261218
O O16 0.339766 0.333470 0.000000
O O17 0.000000 0.045148 0.500000
O O18 0.226937 0.000000 0.500000
O O19 0.000000 0.500000 0.261256
O O20 0.835656 0.500000 0.000000
#
# Coordination Sequence:
#
# PCOD9386004 Si02
#       7
#     8   8   8   8   8   4   4
#     4  10  20  35  58  86 116 154 198 242 293 350
#     4  10  20  34  54  80 109 140 176 220 271 326
#     4  10  21  37  58  83 109 141 184 231 280 335
#     4  11  23  37  55  81 114 152 192 235 286 342
#     4  10  21  37  56  78 107 144 184 226 274 329
#     4   9  18  34  57  87 123 157 193 245 299 344
#     4   9  17  31  54  81 106 135 174 220 268 319
#
# _framework density 19.181632
#
# number of rings (size 3 to 8) (size 9 to 14) (size 15 to 20)
#    0.000    2.000    0.833    2.750    0.000    8.333 
#    0.000    2.083    0.000    3.500    0.000    1.167 
#    0.000    0.000    0.000    0.000    0.000    0.000 
#
# Total GULP energy -268026.037070 kJ/mol
# GULP energy per Si atom -5583.875772 kJ/mol
# Density = 1.913797 g / cm^3
# Si number density = 19.181632 Si / 1000 Ang^3
#
#
#
# Elastic Constant Matrix: (Units=GPa)
#
#
# Indices 1 2 3 4 5 6 
#
# 1 77.1179 57.1309 38.4511 0.0000 0.0000 0.0000
# 2 57.1309 171.5477 53.2676 0.0000 0.0000 0.0000
# 3 38.4511 53.2676 70.6060 0.0000 0.0000 0.0000
# 4 0.0000 0.0000 0.0000 32.3607 0.0000 0.0000
# 5 0.0000 0.0000 0.0000 0.0000 19.3626 0.0000
# 6 0.0000 0.0000 0.0000 0.0000 0.0000 -2.8599
#
#
#
# Elastic Compliance Matrix: (Units=1/GPa)
#
#
# Indices 1 2 3 4 5 6 
#
# 1 0.019937 -0.004268 -0.007637 0.000000 0.000000 0.000000
# 2 -0.004268 0.008526 -0.004108 0.000000 0.000000 0.000000
# 3 -0.007637 -0.004108 0.021422 0.000000 0.000000 0.000000
# 4 0.000000 0.000000 0.000000 0.030902 0.000000 0.000000
# 5 0.000000 0.000000 0.000000 0.000000 0.051646 0.000000
# 6 0.000000 0.000000 0.000000 0.000000 0.000000 -0.349663
#
#
# Mechanical properties :
#
#
# Convention : Reuss Voigt Hill
#
# Bulk Modulus (GPa) = 55.99857 68.55231 62.27544
# Shear Modulus (GPa) = -27.89406 21.13414 -3.37996
#
# Velocity S-wave (km/s) = -3.81754 3.32292 -1.32887
# Velocity P-wave (km/s) = 3.13460 7.10905 5.49383
#
# Compressibility (1/GPa) = 0.01785760
#
# Stress axis : x y z
#
# Youngs Moduli (GPa) = 50.15740 117.28315 46.68157
#
# Poissons Ratio (x) = 0.50059 0.35653
# Poissons Ratio (y) = 0.21408 0.19178
# Poissons Ratio (z) = 0.38308 0.48182
#
# Static dielectric constant tensor:
#      x y z
#    x 1.654760 0.000000 0.000000 
#    y 0.000000 1.636270 0.000000 
#    z 0.000000 0.000000 1.679030 
# 
# From -- ./inp_files/2707.got.cif
#   From: 2010.05.17/outbox.cif.g08.bks.cpg/sg47_2_cif.got.tgz:2707.got - 2010.06.03 20:15:42.
