data_PCOD9386061
_publ_section_title
;
Structure prediction by ZEFSAII (Michael W. Deem and Ramdas Pophale) SiO2 
 PCOD9386061
Probable space group: P M M M
;
_chemical_formula_sum "Si O2"
_cell_formula_units_Z 49
_cell_length_a 9.534152
_cell_length_b 7.848414
_cell_length_c 31.618389
_cell_angle_alpha 90.000000
_cell_angle_beta 90.000000
_cell_angle_gamma 90.000000
_cell_volume 2365.939928
_symmetry_space_group_name_H-M "P M M M"
_symmetry_group_IT_number 47
_symmetry_cell_setting 'orthorhombic'
loop_
_space_group_symop_operation_xyz
x,y,z
-x,-y,z
x,-y,-z
-x,y,-z
-x,-y,-z
x,y,-z
-x,y,z
x,-y,z
loop_
_atom_site_type_symbol
_atom_site_label
_atom_site_fract_x
_atom_site_fract_y
_atom_site_fract_z
Si Si1 0.659301 0.705729 0.333361
Si Si2 0.840214 0.794932 0.748422
Si Si3 0.160490 0.203172 0.000000
Si Si4 0.161097 0.701951 0.908106
Si Si5 0.727941 0.191404 0.500000
Si Si6 0.156879 0.706002 0.411726
Si Si7 0.658971 0.203151 0.827406
Si Si8 0.500000 0.500000 0.500000
O O1 0.500000 0.768402 0.328358
O O2 0.654889 0.500000 0.334882
O O3 0.756564 0.754964 0.294204
O O4 0.729400 0.763126 0.377261
O O5 0.751919 0.728460 0.788541
O O6 0.000000 0.729689 0.747729
O O7 0.847903 0.000000 0.752205
O O8 0.220051 0.259440 0.045040
O O9 0.000000 0.271745 0.000000
O O10 0.156632 0.000000 0.000000
O O11 0.152955 0.500000 0.903456
O O12 0.258905 0.769114 0.871013
O O13 0.000000 0.771041 0.905333
O O14 0.816844 0.214095 0.457274
O O15 0.619956 0.348223 0.500000
O O16 0.667544 0.000000 0.500000
O O17 0.167926 0.500000 0.415901
O O18 0.000000 0.744805 0.396290
O O19 0.500000 0.271973 0.828093
O O20 0.648464 0.000000 0.821179
#
# Coordination Sequence:
#
# PCOD9386061 Si02
#       8
#     8   8   4   8   4   8   8   1
#     4  10  22  38  61  90 123 163 204 243 298 362
#     4  10  21  38  60  85 114 150 194 247 299 349
#     4   9  17  31  54  81 110 145 186 230 276 331
#     4  10  20  34  54  82 113 146 184 231 283 338
#     4  12  26  42  70  99 128 175 219 262 323 381
#     4  10  21  40  65  92 127 170 210 261 320 370
#     4  10  21  37  57  80 109 147 191 238 294 353
#     4  12  26  48  66  94 144 168 208 280 316 386
#
# _framework density 20.710587
#
# number of rings (size 3 to 8) (size 9 to 14) (size 15 to 20)
#    0.000    1.878    0.816    2.571    1.143    7.510 
#    0.000    0.408    0.000    2.449    0.000    0.000 
#    0.000    0.000    0.000    0.000    0.000    0.000 
#
# Total GULP energy -273406.679469 kJ/mol
# GULP energy per Si atom -5579.728152 kJ/mol
# Density = 2.066345 g / cm^3
# Si number density = 20.710587 Si / 1000 Ang^3
#
#
#
# Elastic Constant Matrix: (Units=GPa)
#
#
# Indices 1 2 3 4 5 6 
#
# 1 167.6313 20.4190 93.0870 0.0000 0.0000 0.0000
# 2 20.4190 53.3846 -1.5332 0.0000 0.0000 0.0000
# 3 93.0870 -1.5332 176.7151 0.0000 0.0000 0.0000
# 4 0.0000 0.0000 0.0000 29.2240 0.0000 0.0000
# 5 0.0000 0.0000 0.0000 0.0000 -40.6731 0.0000
# 6 0.0000 0.0000 0.0000 0.0000 0.0000 14.7347
#
#
#
# Elastic Compliance Matrix: (Units=1/GPa)
#
#
# Indices 1 2 3 4 5 6 
#
# 1 0.009078 -0.003611 -0.004813 0.000000 0.000000 0.000000
# 2 -0.003611 0.020173 0.002077 0.000000 0.000000 0.000000
# 3 -0.004813 0.002077 0.008212 0.000000 0.000000 0.000000
# 4 0.000000 0.000000 0.000000 0.034218 0.000000 0.000000
# 5 0.000000 0.000000 0.000000 0.000000 -0.024586 0.000000
# 6 0.000000 0.000000 0.000000 0.000000 0.000000 0.067867
#
#
# Mechanical properties :
#
#
# Convention : Reuss Voigt Hill
#
# Bulk Modulus (GPa) = 40.37276 69.07516 54.72396
# Shear Modulus (GPa) = 36.78831 19.70766 28.24799
#
# Velocity S-wave (km/s) = 4.21920 3.08811 3.69716
# Velocity P-wave (km/s) = 6.57811 6.79266 6.68625
#
# Compressibility (1/GPa) = 0.02476918
#
# Stress axis : x y z
#
# Youngs Moduli (GPa) = 110.15436 49.57212 121.76782
#
# Poissons Ratio (x) = 0.17898 0.58611
# Poissons Ratio (y) = 0.39772 -0.25290
# Poissons Ratio (z) = 0.53021 -0.10296
#
# Static dielectric constant tensor:
#      x y z
#    x 1.742210 0.000000 0.000000 
#    y 0.000000 1.755350 0.000000 
#    z 0.000000 0.000000 1.713800 
# 
# From -- ./inp_files/34223.got.cif
#   From: 2010.05.17/outbox.cif.g08.bks.cpg/sg47_18_cif.got.tgz:34223.got - 2010.06.03 20:15:42.
