data_PCOD9386684
_publ_section_title
;
Structure prediction by ZEFSAII (Michael W. Deem and Ramdas Pophale) SiO2 
 PCOD9386684
Probable space group: P M M M
;
_chemical_formula_sum "Si O2"
_cell_formula_units_Z 48
_cell_length_a 29.543719
_cell_length_b 10.282060
_cell_length_c 8.840910
_cell_angle_alpha 90.000000
_cell_angle_beta 90.000000
_cell_angle_gamma 90.000000
_cell_volume 2685.605807
_symmetry_space_group_name_H-M "P M M M"
_symmetry_group_IT_number 47
_symmetry_cell_setting 'orthorhombic'
loop_
_space_group_symop_operation_xyz
x,y,z
-x,-y,z
x,-y,-z
-x,y,-z
-x,-y,-z
x,y,-z
-x,y,z
x,-y,z
loop_
_atom_site_type_symbol
_atom_site_label
_atom_site_fract_x
_atom_site_fract_y
_atom_site_fract_z
Si Si1 0.722623 0.149813 0.318645
Si Si2 0.623419 0.850164 0.819674
Si Si3 0.053785 0.500000 0.323744
Si Si4 0.795280 0.652934 0.182981
Si Si5 0.947334 0.000000 0.815420
Si Si6 0.552525 0.349565 0.682058
Si Si7 0.104503 0.259048 0.182405
O O1 0.722773 0.157562 0.500000
O O2 0.672014 0.172931 0.257349
O O3 0.756312 0.256623 0.250994
O O4 0.735144 0.000000 0.275707
O O5 0.586436 0.750084 0.759150
O O6 0.610290 0.000000 0.785648
O O7 0.628291 0.837707 0.000000
O O8 0.066305 0.500000 0.500000
O O9 0.074352 0.375294 0.243461
O O10 0.000000 0.500000 0.311143
O O11 0.792731 0.500000 0.227193
O O12 0.843822 0.713351 0.229142
O O13 0.792593 0.656922 0.000000
O O14 0.918991 0.874093 0.766780
O O15 0.000000 0.000000 0.765755
O O16 0.948406 0.000000 0.000000
O O17 0.556297 0.338880 0.500000
O O18 0.500000 0.323940 0.721994
O O19 0.562580 0.500000 0.722261
O O20 0.104197 0.260321 0.000000
#
# Coordination Sequence:
#
# PCOD9386684 Si02
#       7
#     8   8   4   8   4   8   8
#     4  10  22  39  59  83 110 145 188 228 276 337
#     4  10  21  37  57  83 114 148 188 235 285 332
#     4  11  23  37  55  81 113 149 185 223 272 325
#     4  10  21  37  57  83 111 141 183 228 276 331
#     4   9  18  32  55  87 113 137 179 229 272 319
#     4   9  19  36  57  82 114 153 195 236 280 333
#     4  10  20  37  59  83 110 144 184 227 273 326
#
# _framework density 17.873062999999998
#
# number of rings (size 3 to 8) (size 9 to 14) (size 15 to 20)
#    0.000    2.167    0.833    2.250    1.167    6.000 
#    0.000    2.917    0.000    1.500    0.000    0.000 
#    0.000    0.000    0.000    0.000    0.000    0.000 
#
# Total GULP energy -267906.771231 kJ/mol
# GULP energy per Si atom -5581.391067 kJ/mol
# Density = 1.783238 g / cm^3
# Si number density = 17.873063 Si / 1000 Ang^3
#
#
#
# Elastic Constant Matrix: (Units=GPa)
#
#
# Indices 1 2 3 4 5 6 
#
# 1 125.2267 117.9111 42.9757 0.0000 0.0000 0.0000
# 2 117.9111 186.2460 46.2014 0.0000 0.0000 0.0000
# 3 42.9757 46.2014 21.4563 0.0000 0.0000 0.0000
# 4 0.0000 0.0000 0.0000 24.3890 0.0000 0.0000
# 5 0.0000 0.0000 0.0000 0.0000 38.1660 0.0000
# 6 0.0000 0.0000 0.0000 0.0000 0.0000 48.0472
#
#
#
# Elastic Compliance Matrix: (Units=1/GPa)
#
#
# Indices 1 2 3 4 5 6 
#
# 1 0.031517 -0.009217 -0.043281 0.000000 0.000000 0.000000
# 2 -0.009217 0.014221 -0.012162 0.000000 0.000000 0.000000
# 3 -0.043281 -0.012162 0.159483 0.000000 0.000000 0.000000
# 4 0.000000 0.000000 0.000000 0.041002 0.000000 0.000000
# 5 0.000000 0.000000 0.000000 0.000000 0.026201 0.000000
# 6 0.000000 0.000000 0.000000 0.000000 0.000000 0.020813
#
#
# Mechanical properties :
#
#
# Convention : Reuss Voigt Hill
#
# Bulk Modulus (GPa) = 13.17474 83.01170 48.09322
# Shear Modulus (GPa) = 11.16430 30.50981 20.83706
#
# Velocity S-wave (km/s) = 2.50200 4.13610 3.41814
# Velocity P-wave (km/s) = 3.96660 8.32801 6.52264
#
# Compressibility (1/GPa) = 0.07590284
#
# Stress axis : x y z
#
# Youngs Moduli (GPa) = 31.72884 70.31750 6.27028
#
# Poissons Ratio (x) = 0.64810 0.27138
# Poissons Ratio (y) = 0.29244 0.07626
# Poissons Ratio (z) = 1.37324 0.85517
#
# Static dielectric constant tensor:
#      x y z
#    x 1.583210 0.000000 0.000000 
#    y 0.000000 1.590660 0.000000 
#    z 0.000000 0.000000 1.600970 
# 
# From -- ./inp_files/13977.got.cif
#   From: 2010.05.17/outbox.cif.g08.bks.cpg/sg47_7_cif.got.tgz:13977.got - 2010.06.03 20:15:42.
