data_PCOD9386361
_publ_section_title
;
Structure prediction by ZEFSAII (Michael W. Deem and Ramdas Pophale) SiO2 
 PCOD9386361
Probable space group: P M M M
;
_chemical_formula_sum "Si O2"
_cell_formula_units_Z 40
_cell_length_a 28.922938
_cell_length_b 9.539254
_cell_length_c 7.836942
_cell_angle_alpha 90.000000
_cell_angle_beta 90.000000
_cell_angle_gamma 90.000000
_cell_volume 2162.237784
_symmetry_space_group_name_H-M "P M M M"
_symmetry_group_IT_number 47
_symmetry_cell_setting 'orthorhombic'
loop_
_space_group_symop_operation_xyz
x,y,z
-x,-y,z
x,-y,-z
-x,y,-z
-x,-y,-z
x,y,-z
-x,y,z
x,-y,z
loop_
_atom_site_type_symbol
_atom_site_label
_atom_site_fract_x
_atom_site_fract_y
_atom_site_fract_z
Si Si1 0.050980 0.337301 0.293917
Si Si2 0.759208 0.832225 0.693542
Si Si3 0.860323 0.840105 0.799467
Si Si4 0.601629 0.336168 0.000000
Si Si5 0.712355 0.664831 0.000000
Si Si6 0.555413 0.164793 0.697483
O O1 0.051573 0.332797 0.500000
O O2 0.054916 0.500000 0.242771
O O3 0.094541 0.251555 0.230059
O O4 0.000000 0.285924 0.238000
O O5 0.742774 0.808960 0.500000
O O6 0.813649 0.794366 0.705399
O O7 0.756102 0.000000 0.730273
O O8 0.732331 0.743372 0.833940
O O9 0.870456 0.000000 0.746802
O O10 0.848932 0.839215 0.000000
O O11 0.656984 0.325359 0.000000
O O12 0.581248 0.259661 0.833673
O O13 0.588800 0.500000 0.000000
O O14 0.725295 0.500000 0.000000
O O15 0.566954 0.197479 0.500000
O O16 0.500000 0.181082 0.716969
O O17 0.565869 0.000000 0.726511
#
# Coordination Sequence:
#
# PCOD9386361 Si02
#       6
#     8   8   8   4   4   8
#     4   9  19  35  52  73 105 143 181 220 265 324
#     4  10  21  40  65  87 110 145 191 242 293 346
#     4  10  20  35  56  81 109 138 174 225 280 336
#     4  11  24  38  55  84 122 161 197 238 293 350
#     4  11  25  42  58  83 121 157 192 240 293 349
#     4   9  19  37  61  89 120 156 201 248 290 337
#
# _framework density 18.499351999999998
#
# number of rings (size 3 to 8) (size 9 to 14) (size 15 to 20)
#    0.000    2.200    1.000    2.700    0.000    8.000 
#    0.000    8.000    0.000    0.000    0.000    0.000 
#    0.000    0.000    0.000    0.000    0.000    0.000 
#
# Total GULP energy -223301.253347 kJ/mol
# GULP energy per Si atom -5582.531334 kJ/mol
# Density = 1.845725 g / cm^3
# Si number density = 18.499352 Si / 1000 Ang^3
#
#
#
# Elastic Constant Matrix: (Units=GPa)
#
#
# Indices 1 2 3 4 5 6 
#
# 1 76.3391 70.2025 65.1016 0.0000 0.0000 0.0000
# 2 70.2025 97.0227 80.7538 0.0000 0.0000 0.0000
# 3 65.1016 80.7538 122.7127 0.0000 0.0000 0.0000
# 4 0.0000 0.0000 0.0000 10.7511 0.0000 0.0000
# 5 0.0000 0.0000 0.0000 0.0000 -154.6359 0.0000
# 6 0.0000 0.0000 0.0000 0.0000 0.0000 37.1422
#
#
#
# Elastic Compliance Matrix: (Units=1/GPa)
#
#
# Indices 1 2 3 4 5 6 
#
# 1 0.040419 -0.025202 -0.004858 0.000000 0.000000 0.000000
# 2 -0.025202 0.038503 -0.011968 0.000000 0.000000 0.000000
# 3 -0.004858 -0.011968 0.018602 0.000000 0.000000 0.000000
# 4 0.000000 0.000000 0.000000 0.093014 0.000000 0.000000
# 5 0.000000 0.000000 0.000000 0.000000 -0.006467 0.000000
# 6 0.000000 0.000000 0.000000 0.000000 0.000000 0.026924
#
#
# Mechanical properties :
#
#
# Convention : Reuss Voigt Hill
#
# Bulk Modulus (GPa) = 74.24945 80.91004 77.57974
# Shear Modulus (GPa) = 16.69229 -16.01408 0.33911
#
# Velocity S-wave (km/s) = 3.00712 -2.94540 0.42861
# Velocity P-wave (km/s) = 7.23052 5.68018 6.50173
#
# Compressibility (1/GPa) = 0.01346811
#
# Stress axis : x y z
#
# Youngs Moduli (GPa) = 24.74107 25.97187 53.75770
#
# Poissons Ratio (x) = 0.65455 0.26116
# Poissons Ratio (y) = 0.62353 0.64335
# Poissons Ratio (z) = 0.12019 0.31082
#
# Static dielectric constant tensor:
#      x y z
#    x 1.621130 0.000000 0.000000 
#    y 0.000000 1.618270 0.000000 
#    z 0.000000 0.000000 1.649090 
# 
# From -- ./inp_files/13059.got.cif
#   From: 2010.05.17/outbox.cif.g08.bks.cpg/sg47_7_cif.got.tgz:13059.got - 2010.06.03 20:15:42.
