data_PCOD9386739
_publ_section_title
;
Structure prediction by ZEFSAII (Michael W. Deem and Ramdas Pophale) SiO2 
 PCOD9386739
Probable space group: P M M M
;
_chemical_formula_sum "Si O2"
_cell_formula_units_Z 30
_cell_length_a 7.606756
_cell_length_b 11.516269
_cell_length_c 15.690879
_cell_angle_alpha 90.000000
_cell_angle_beta 90.000000
_cell_angle_gamma 90.000000
_cell_volume 1374.543726
_symmetry_space_group_name_H-M "P M M M"
_symmetry_group_IT_number 47
_symmetry_cell_setting 'orthorhombic'
loop_
_space_group_symop_operation_xyz
x,y,z
-x,-y,z
x,-y,-z
-x,y,-z
-x,-y,-z
x,y,-z
-x,y,z
x,-y,z
loop_
_atom_site_type_symbol
_atom_site_label
_atom_site_fract_x
_atom_site_fract_y
_atom_site_fract_z
Si Si1 0.500000 0.500000 0.500000
Si Si2 0.500000 0.500000 0.000000
Si Si3 0.713401 0.130979 0.351625
Si Si4 0.804735 0.500000 0.143180
Si Si5 0.285063 0.864552 0.000000
Si Si6 0.287147 0.750165 0.821667
Si Si7 0.194034 0.693963 0.500000
O O1 0.346876 0.600689 0.500000
O O2 0.653102 0.500000 0.073218
O O3 0.500000 0.134537 0.356182
O O4 0.763277 0.166345 0.255480
O O5 0.784841 0.223100 0.418050
O O6 0.769124 0.000000 0.371224
O O7 0.780290 0.620102 0.193663
O O8 0.000000 0.500000 0.106184
O O9 0.229000 0.798460 0.085992
O O10 0.500000 0.862275 0.000000
O O11 0.232901 0.000000 0.000000
O O12 0.500000 0.745484 0.824477
O O13 0.000000 0.642173 0.500000
#
# Coordination Sequence:
#
# PCOD9386739 Si02
#       7
#     1   1   8   4   4   8   4
#     4  12  26  52  72 102 148 182 222 290 342 422
#     4  12  22  44  62  86 126 166 230 288 338 396
#     4  10  21  41  70 105 144 185 228 280 348 418
#     4  12  25  40  64  93 129 177 228 281 343 409
#     4   9  17  31  57  93 127 166 222 276 326 391
#     4  10  20  37  64  95 136 178 223 276 336 403
#     4  12  26  46  76 107 137 182 232 286 351 411
#
# _framework density 21.825426
#
# number of rings (size 3 to 8) (size 9 to 14) (size 15 to 20)
#    0.000    1.467    2.667    2.400    1.867    7.467 
#    0.000    0.000    0.000    3.200    0.000    0.000 
#    0.000    0.000    0.000    0.000    0.000    0.000 
#
# Total GULP energy -167268.438705 kJ/mol
# GULP energy per Si atom -5575.614624 kJ/mol
# Density = 2.177575 g / cm^3
# Si number density = 21.825426 Si / 1000 Ang^3
#
#
#
# Elastic Constant Matrix: (Units=GPa)
#
#
# Indices 1 2 3 4 5 6 
#
# 1 134.9180 39.8717 26.4666 0.0000 0.0000 0.0000
# 2 39.8717 170.4121 45.5151 0.0000 0.0000 0.0000
# 3 26.4666 45.5151 105.3633 0.0000 0.0000 0.0000
# 4 0.0000 0.0000 0.0000 -56.7671 0.0000 0.0000
# 5 0.0000 0.0000 0.0000 0.0000 -17.5683 0.0000
# 6 0.0000 0.0000 0.0000 0.0000 0.0000 -153.0516
#
#
#
# Elastic Compliance Matrix: (Units=1/GPa)
#
#
# Indices 1 2 3 4 5 6 
#
# 1 0.008136 -0.001535 -0.001381 0.000000 0.000000 0.000000
# 2 -0.001535 0.006923 -0.002605 0.000000 0.000000 0.000000
# 3 -0.001381 -0.002605 0.010963 0.000000 0.000000 0.000000
# 4 0.000000 0.000000 0.000000 -0.017616 0.000000 0.000000
# 5 0.000000 0.000000 0.000000 0.000000 -0.056921 0.000000
# 6 0.000000 0.000000 0.000000 0.000000 0.000000 -0.006534
#
#
# Mechanical properties :
#
#
# Convention : Reuss Voigt Hill
#
# Bulk Modulus (GPa) = 66.75076 70.48891 68.61983
# Shear Modulus (GPa) = -128.16355 -25.55473 -76.85914
#
# Velocity S-wave (km/s) = -7.67135 -3.42551 -5.94070
# Velocity P-wave (km/s) = 6.91490 4.08917 3.94300
#
# Compressibility (1/GPa) = 0.01498110
#
# Stress axis : x y z
#
# Youngs Moduli (GPa) = 122.90486 144.44531 91.21462
#
# Poissons Ratio (x) = 0.22171 0.12595
# Poissons Ratio (y) = 0.18865 0.23762
# Poissons Ratio (z) = 0.16970 0.37629
#
# Static dielectric constant tensor:
#      x y z
#    x 1.796870 0.000000 0.000000 
#    y 0.000000 1.779650 0.000000 
#    z 0.000000 0.000000 1.760470 
# 
# From -- ./inp_files/20372.got.cif
#   From: 2010.05.17/outbox.cif.g08.bks.cpg/sg47_11_cif.got.tgz:20372.got - 2010.06.03 20:15:42.
