data_PCOD9386151
_publ_section_title
;
Structure prediction by ZEFSAII (Michael W. Deem and Ramdas Pophale) SiO2 
 PCOD9386151
Probable space group: P M M M
;
_chemical_formula_sum "Si O2"
_cell_formula_units_Z 48
_cell_length_a 8.116511
_cell_length_b 9.304663
_cell_length_c 33.312237
_cell_angle_alpha 90.000000
_cell_angle_beta 90.000000
_cell_angle_gamma 90.000000
_cell_volume 2515.786762
_symmetry_space_group_name_H-M "P M M M"
_symmetry_group_IT_number 47
_symmetry_cell_setting 'orthorhombic'
loop_
_space_group_symop_operation_xyz
x,y,z
-x,-y,z
x,-y,-z
-x,y,-z
-x,-y,-z
x,y,-z
-x,y,z
x,-y,z
loop_
_atom_site_type_symbol
_atom_site_label
_atom_site_fract_x
_atom_site_fract_y
_atom_site_fract_z
Si Si1 0.801050 0.664206 0.579042
Si Si2 0.199038 0.164258 0.657461
Si Si3 0.697051 0.334552 0.736093
Si Si4 0.302884 0.164222 0.500000
Si Si5 0.804898 0.668929 0.175567
Si Si6 0.000000 0.824848 0.046122
Si Si7 0.684126 0.172952 0.098163
O O1 0.740884 0.500000 0.577126
O O2 0.741679 0.744143 0.619236
O O3 0.753677 0.752200 0.539612
O O4 0.000000 0.659797 0.580785
O O5 0.249554 0.238439 0.698861
O O6 0.000000 0.162284 0.655913
O O7 0.257721 0.000000 0.655172
O O8 0.500000 0.335054 0.738720
O O9 0.753783 0.500000 0.729769
O O10 0.766056 0.284461 0.778997
O O11 0.500000 0.160206 0.500000
O O12 0.240102 0.000000 0.500000
O O13 0.759563 0.500000 0.172858
O O14 0.711855 0.757786 0.141692
O O15 0.000000 0.682386 0.168466
O O16 0.165565 0.779684 0.069542
O O17 0.000000 0.000000 0.045922
O O18 0.000000 0.776897 0.000000
O O19 0.500000 0.209046 0.083271
O O20 0.693855 0.000000 0.101527
#
# Coordination Sequence:
#
# PCOD9386151 Si02
#       7
#     8   8   8   4   8   4   8
#     4  10  21  38  61  85 108 139 181 226 272 326
#     4  10  21  37  57  81 108 141 180 222 271 324
#     4  10  21  36  54  78 108 143 183 225 271 326
#     4  11  24  39  56  82 114 145 178 219 270 326
#     4  10  20  35  57  82 109 146 189 233 283 337
#     4   9  18  34  55  81 115 151 189 237 289 342
#     4  10  20  34  55  83 113 147 188 235 288 343
#
# _framework density 19.079516999999999
#
# number of rings (size 3 to 8) (size 9 to 14) (size 15 to 20)
#    0.000    2.000    0.833    2.500    0.000    7.333 
#    0.000    1.667    0.000    1.000    0.000    1.167 
#    0.000    0.000    0.000    0.000    0.000    0.000 
#
# Total GULP energy -268078.322232 kJ/mol
# GULP energy per Si atom -5584.965047 kJ/mol
# Density = 1.903609 g / cm^3
# Si number density = 19.079517 Si / 1000 Ang^3
#
#
#
# Elastic Constant Matrix: (Units=GPa)
#
#
# Indices 1 2 3 4 5 6 
#
# 1 70.1583 35.0180 52.4353 0.0000 0.0000 0.0000
# 2 35.0180 91.6148 67.3656 0.0000 0.0000 0.0000
# 3 52.4353 67.3656 160.4567 0.0000 0.0000 0.0000
# 4 0.0000 0.0000 0.0000 32.8869 0.0000 0.0000
# 5 0.0000 0.0000 0.0000 0.0000 -8.0979 0.0000
# 6 0.0000 0.0000 0.0000 0.0000 0.0000 20.3039
#
#
#
# Elastic Compliance Matrix: (Units=1/GPa)
#
#
# Indices 1 2 3 4 5 6 
#
# 1 0.019860 -0.004078 -0.004778 0.000000 0.000000 0.000000
# 2 -0.004078 0.016627 -0.005648 0.000000 0.000000 0.000000
# 3 -0.004778 -0.005648 0.010165 0.000000 0.000000 0.000000
# 4 0.000000 0.000000 0.000000 0.030407 0.000000 0.000000
# 5 0.000000 0.000000 0.000000 0.000000 -0.123490 0.000000
# 6 0.000000 0.000000 0.000000 0.000000 0.000000 0.049252
#
#
# Mechanical properties :
#
#
# Convention : Reuss Voigt Hill
#
# Bulk Modulus (GPa) = 56.67608 70.20752 63.44180
# Shear Modulus (GPa) = 132.59089 20.17930 76.38510
#
# Velocity S-wave (km/s) = 8.34534 3.25567 6.33420
# Velocity P-wave (km/s) = 11.07381 7.14211 9.31770
#
# Compressibility (1/GPa) = 0.01764413
#
# Stress axis : x y z
#
# Youngs Moduli (GPa) = 50.35300 60.14314 98.37809
#
# Poissons Ratio (x) = 0.24525 0.47005
# Poissons Ratio (y) = 0.20533 0.55565
# Poissons Ratio (z) = 0.24058 0.33969
#
# Static dielectric constant tensor:
#      x y z
#    x 1.679030 0.000000 0.000000 
#    y 0.000000 1.653400 0.000000 
#    z 0.000000 0.000000 1.622200 
# 
# From -- ./inp_files/34065.got.cif
#   From: 2010.05.17/outbox.cif.g08.bks.cpg/sg47_18_cif.got.tgz:34065.got - 2010.06.03 20:15:42.
