data_PCOD9386084
_publ_section_title
;
Structure prediction by ZEFSAII (Michael W. Deem and Ramdas Pophale) SiO2 
 PCOD9386084
Probable space group: P M M M
;
_chemical_formula_sum "Si O2"
_cell_formula_units_Z 56
_cell_length_a 14.613060
_cell_length_b 8.713741
_cell_length_c 21.817671
_cell_angle_alpha 90.000000
_cell_angle_beta 90.000000
_cell_angle_gamma 90.000000
_cell_volume 2778.140484
_symmetry_space_group_name_H-M "P M M M"
_symmetry_group_IT_number 47
_symmetry_cell_setting 'orthorhombic'
loop_
_space_group_symop_operation_xyz
x,y,z
-x,-y,z
x,-y,-z
-x,y,-z
-x,-y,-z
x,y,-z
-x,y,z
x,-y,z
loop_
_atom_site_type_symbol
_atom_site_label
_atom_site_fract_x
_atom_site_fract_y
_atom_site_fract_z
Si Si1 0.282448 0.685006 0.567405
Si Si2 0.291073 0.320737 0.930357
Si Si3 0.605649 0.314583 0.312672
Si Si4 0.104234 0.817127 0.620215
Si Si5 0.289569 0.181298 0.804297
Si Si6 0.898987 0.826704 0.926818
Si Si7 0.894553 0.683189 0.243992
O O1 0.319746 0.724522 0.500000
O O2 0.275273 0.500000 0.570645
O O3 0.343426 0.736032 0.625084
O O4 0.182222 0.756347 0.575752
O O5 0.313018 0.500000 0.927708
O O6 0.328455 0.236315 0.870161
O O7 0.182271 0.293777 0.921273
O O8 0.313478 0.264896 0.000000
O O9 0.500000 0.266769 0.313257
O O10 0.609014 0.500000 0.311292
O O11 0.656094 0.254044 0.252430
O O12 0.118571 0.733595 0.685433
O O13 0.000000 0.785562 0.599881
O O14 0.113067 0.000000 0.629108
O O15 0.183883 0.233842 0.794694
O O16 0.294744 0.000000 0.800591
O O17 0.000000 0.782801 0.904149
O O18 0.875348 0.000000 0.904136
O O19 0.906840 0.841935 0.000000
O O20 0.883453 0.500000 0.238321
O O21 0.000000 0.723239 0.229189
#
# Coordination Sequence:
#
# PCOD9386084 Si02
#       7
#     8   8   8   8   8   8   8
#     4  10  21  37  60  91 126 165 206 248 296 350
#     4  10  21  36  55  80 111 149 193 241 294 353
#     4  10  22  42  67  92 120 155 197 247 301 360
#     4  10  20  34  54  83 121 165 209 251 299 351
#     4  12  24  38  61  89 120 158 198 245 300 360
#     4   8  14  26  44  67 100 143 188 233 281 335
#     4  10  20  35  57  84 116 156 203 254 302 351
#
# _framework density 20.157368000000002
#
# number of rings (size 3 to 8) (size 9 to 14) (size 15 to 20)
#    0.000    2.000    1.429    3.000    0.000    4.571 
#    0.000    4.286    0.000    0.429    0.000    5.000 
#    0.000    0.000    0.000    0.000    0.000    0.000 
#
# Total GULP energy -312512.523323 kJ/mol
# GULP energy per Si atom -5580.580774 kJ/mol
# Density = 2.011149 g / cm^3
# Si number density = 20.157368 Si / 1000 Ang^3
#
#
#
# Elastic Constant Matrix: (Units=GPa)
#
#
# Indices 1 2 3 4 5 6 
#
# 1 68.0293 20.1731 53.8325 0.0000 0.0000 0.0000
# 2 20.1731 33.1796 30.5774 0.0000 0.0000 0.0000
# 3 53.8325 30.5774 156.3295 0.0000 0.0000 0.0000
# 4 0.0000 0.0000 0.0000 10.8270 0.0000 0.0000
# 5 0.0000 0.0000 0.0000 0.0000 -0.3149 0.0000
# 6 0.0000 0.0000 0.0000 0.0000 0.0000 20.6875
#
#
#
# Elastic Compliance Matrix: (Units=1/GPa)
#
#
# Indices 1 2 3 4 5 6 
#
# 1 0.021705 -0.007696 -0.005969 0.000000 0.000000 0.000000
# 2 -0.007696 0.039495 -0.005075 0.000000 0.000000 0.000000
# 3 -0.005969 -0.005075 0.009445 0.000000 0.000000 0.000000
# 4 0.000000 0.000000 0.000000 0.092362 0.000000 0.000000
# 5 0.000000 0.000000 0.000000 0.000000 -3.175319 0.000000
# 6 0.000000 0.000000 0.000000 0.000000 0.000000 0.048338
#
#
# Mechanical properties :
#
#
# Convention : Reuss Voigt Hill
#
# Bulk Modulus (GPa) = 30.15194 51.85604 41.00399
# Shear Modulus (GPa) = -1.71501 16.43695 7.36097
#
# Velocity S-wave (km/s) = -0.92339 2.85867 1.91303
# Velocity P-wave (km/s) = 3.72208 6.05619 5.02650
#
# Compressibility (1/GPa) = 0.03316537
#
# Stress axis : x y z
#
# Youngs Moduli (GPa) = 46.07265 25.31968 105.87846
#
# Poissons Ratio (x) = 0.19485 0.63197
# Poissons Ratio (y) = 0.35456 0.53733
# Poissons Ratio (z) = 0.27500 0.12850
#
# Static dielectric constant tensor:
#      x y z
#    x 1.713860 0.000000 0.000000 
#    y 0.000000 1.691250 0.000000 
#    z 0.000000 0.000000 1.767820 
# 
# From -- ./inp_files/30962.got.cif
#   From: 2010.05.17/outbox.cif.g08.bks.cpg/sg47_16_cif.got.tgz:30962.got - 2010.06.03 20:15:42.
