data_PCOD9386992
_publ_section_title
;
Structure prediction by ZEFSAII (Michael W. Deem and Ramdas Pophale) SiO2 
 PCOD9386992
Probable space group: P M M M
;
_chemical_formula_sum "Si O2"
_cell_formula_units_Z 56
_cell_length_a 19.801486
_cell_length_b 17.393800
_cell_length_c 7.473269
_cell_angle_alpha 90.000000
_cell_angle_beta 90.000000
_cell_angle_gamma 90.000000
_cell_volume 2573.966380
_symmetry_space_group_name_H-M "P M M M"
_symmetry_group_IT_number 47
_symmetry_cell_setting 'orthorhombic'
loop_
_space_group_symop_operation_xyz
x,y,z
-x,-y,z
x,-y,-z
-x,y,-z
-x,-y,-z
x,y,-z
-x,y,z
x,-y,z
loop_
_atom_site_type_symbol
_atom_site_label
_atom_site_fract_x
_atom_site_fract_y
_atom_site_fract_z
Si Si1 0.793597 0.587679 0.715048
Si Si2 0.571650 0.089766 0.284952
Si Si3 0.146758 0.157042 0.781418
Si Si4 0.923736 0.000000 0.217759
Si Si5 0.352949 0.407048 0.714485
Si Si6 0.075851 0.689541 0.213799
Si Si7 0.500000 0.408031 0.283098
Si Si8 0.281026 0.911344 0.789229
O O1 0.788244 0.585684 0.500000
O O2 0.798777 0.500000 0.779725
O O3 0.720838 0.620962 0.780177
O O4 0.862781 0.630993 0.755802
O O5 0.570832 0.089955 0.500000
O O6 0.500000 0.123605 0.223192
O O7 0.643822 0.121264 0.231070
O O8 0.572506 0.000000 0.226762
O O9 0.104206 0.229218 0.715945
O O10 0.223982 0.146408 0.720642
O O11 0.112858 0.077272 0.727422
O O12 0.145710 0.162064 0.000000
O O13 0.000000 0.000000 0.278904
O O14 0.923334 0.000000 0.000000
O O15 0.354409 0.394559 0.500000
O O16 0.351813 0.500000 0.741272
O O17 0.426469 0.378699 0.781980
O O18 0.000000 0.671036 0.281315
O O19 0.069621 0.696102 0.000000
O O20 0.500000 0.500000 0.247995
O O21 0.500000 0.399491 0.500000
O O22 0.277637 0.000000 0.715989
O O23 0.268059 0.919606 0.000000
#
# Coordination Sequence:
#
# PCOD9386992 Si02
#       8
#     8   8   8   4   8   8   4   8
#     4   9  18  33  52  73  97 125 159 199 240 281
#     4   8  14  24  37  56  86 121 153 187 228 273
#     4   9  16  28  44  67  96 121 149 190 236 280
#     4   9  14  22  42  68  92 119 148 182 229 281
#     4   7  10  18  35  62  93 119 144 178 220 265
#     4  10  21  35  50  70  96 125 158 196 238 286
#     4   7   8  12  28  58  93 119 137 168 217 264
#     4   9  15  24  41  65  91 116 147 190 233 272
#
# _framework density 21.756304
#
# number of rings (size 3 to 8) (size 9 to 14) (size 15 to 20)
#    0.000    3.429    0.714    2.571    0.000    2.857 
#    0.000    3.571    0.000    0.000    1.857    0.500 
#    0.000    5.143    0.000    0.000    0.000    0.000 
#
# Total GULP energy -311761.286277 kJ/mol
# GULP energy per Si atom -5567.165826 kJ/mol
# Density = 2.170679 g / cm^3
# Si number density = 21.756304 Si / 1000 Ang^3
#
#
#
# Elastic Constant Matrix: (Units=GPa)
#
#
# Indices 1 2 3 4 5 6 
#
# 1 282.9380 64.8424 6.9503 0.0000 0.0000 0.0000
# 2 64.8424 45.9034 0.1478 0.0000 0.0000 0.0000
# 3 6.9503 0.1478 58.6729 0.0000 0.0000 0.0000
# 4 0.0000 0.0000 0.0000 10.2560 0.0000 0.0000
# 5 0.0000 0.0000 0.0000 0.0000 5.1092 0.0000
# 6 0.0000 0.0000 0.0000 0.0000 0.0000 16.9082
#
#
#
# Elastic Compliance Matrix: (Units=1/GPa)
#
#
# Indices 1 2 3 4 5 6 
#
# 1 0.005247 -0.007411 -0.000603 0.000000 0.000000 0.000000
# 2 -0.007411 0.032250 0.000797 0.000000 0.000000 0.000000
# 3 -0.000603 0.000797 0.017113 0.000000 0.000000 0.000000
# 4 0.000000 0.000000 0.000000 0.097504 0.000000 0.000000
# 5 0.000000 0.000000 0.000000 0.000000 0.195726 0.000000
# 6 0.000000 0.000000 0.000000 0.000000 0.000000 0.059143
#
#
# Mechanical properties :
#
#
# Convention : Reuss Voigt Hill
#
# Bulk Modulus (GPa) = 24.88981 59.04390 41.96685
# Shear Modulus (GPa) = 11.49928 27.49293 19.49610
#
# Velocity S-wave (km/s) = 2.30151 3.55868 2.99676
# Velocity P-wave (km/s) = 4.30439 6.63952 5.59513
#
# Compressibility (1/GPa) = 0.04017708
#
# Stress axis : x y z
#
# Youngs Moduli (GPa) = 190.56820 31.00748 58.43491
#
# Poissons Ratio (x) = 0.22978 0.03523
# Poissons Ratio (y) = 1.41221 -0.04655
# Poissons Ratio (z) = 0.11490 -0.02470
#
# Static dielectric constant tensor:
#      x y z
#    x 1.877010 0.000000 0.000000 
#    y 0.000000 1.794080 0.000000 
#    z 0.000000 0.000000 1.862740 
# 
# From -- ./inp_files/11380.got.cif
#   From: 2010.05.17/outbox.cif.g08.bks.cpg/sg47_6_cif.got.tgz:11380.got - 2010.06.03 20:15:42.
