data_PCOD9386636
_publ_section_title
;
Structure prediction by ZEFSAII (Michael W. Deem and Ramdas Pophale) SiO2 
 PCOD9386636
Probable space group: P M M M
;
_chemical_formula_sum "Si O2"
_cell_formula_units_Z 37
_cell_length_a 10.404055
_cell_length_b 7.609293
_cell_length_c 23.343349
_cell_angle_alpha 90.000000
_cell_angle_beta 90.000000
_cell_angle_gamma 90.000000
_cell_volume 1848.034649
_symmetry_space_group_name_H-M "P M M M"
_symmetry_group_IT_number 47
_symmetry_cell_setting 'orthorhombic'
loop_
_space_group_symop_operation_xyz
x,y,z
-x,-y,z
x,-y,-z
-x,y,-z
-x,-y,-z
x,y,-z
-x,y,z
x,-y,z
loop_
_atom_site_type_symbol
_atom_site_label
_atom_site_fract_x
_atom_site_fract_y
_atom_site_fract_z
Si Si1 0.643395 0.210396 0.158663
Si Si2 0.720158 0.302775 0.500000
Si Si3 0.353442 0.214519 0.711437
Si Si4 0.146294 0.213572 0.382002
Si Si5 0.144573 0.289231 0.064332
Si Si6 0.500000 0.000000 0.500000
O O1 0.500000 0.275259 0.142927
O O2 0.673267 0.272532 0.223290
O O3 0.750529 0.248610 0.111900
O O4 0.635833 0.000000 0.162543
O O5 0.666481 0.500000 0.500000
O O6 0.806415 0.277923 0.556508
O O7 0.611935 0.153796 0.500000
O O8 0.500000 0.266473 0.696419
O O9 0.247444 0.273318 0.666255
O O10 0.352021 0.000000 0.710842
O O11 0.000000 0.267450 0.369969
O O12 0.149370 0.000000 0.382891
O O13 0.138089 0.500000 0.061412
O O14 0.000000 0.225372 0.078334
O O15 0.177852 0.225675 0.000000
#
# Coordination Sequence:
#
# PCOD9386636 Si02
#       6
#     8   4   8   8   8   1
#     4   9  18  33  52  80 112 142 180 229 281 333
#     4  12  26  42  66  95 124 161 205 250 301 361
#     4   8  16  31  54  79 111 153 195 234 277 337
#     4  10  20  36  60  88 121 161 199 240 296 352
#     4   9  19  35  52  71  99 138 183 229 280 340
#     4  12  26  48  66  94 128 160 200 256 302 362
#
# _framework density 20.021270000000001
#
# number of rings (size 3 to 8) (size 9 to 14) (size 15 to 20)
#    0.000    2.595    1.081    2.432    1.514    4.324 
#    0.000    6.486    0.000    1.297    0.000    0.000 
#    0.000    0.000    0.000    0.000    0.000    0.000 
#
# Total GULP energy -206211.471998 kJ/mol
# GULP energy per Si atom -5573.283027 kJ/mol
# Density = 1.997570 g / cm^3
# Si number density = 20.021270 Si / 1000 Ang^3
#
#
#
# Elastic Constant Matrix: (Units=GPa)
#
#
# Indices 1 2 3 4 5 6 
#
# 1 201.1745 25.8150 154.2453 0.0000 0.0000 0.0000
# 2 25.8150 69.7561 13.5828 0.0000 0.0000 0.0000
# 3 154.2453 13.5828 181.2050 0.0000 0.0000 0.0000
# 4 0.0000 0.0000 0.0000 33.3046 0.0000 0.0000
# 5 0.0000 0.0000 0.0000 0.0000 -47.6332 0.0000
# 6 0.0000 0.0000 0.0000 0.0000 0.0000 17.9264
#
#
#
# Elastic Compliance Matrix: (Units=1/GPa)
#
#
# Indices 1 2 3 4 5 6 
#
# 1 0.014943 -0.003098 -0.012487 0.000000 0.000000 0.000000
# 2 -0.003098 0.015190 0.001499 0.000000 0.000000 0.000000
# 3 -0.012487 0.001499 0.016036 0.000000 0.000000 0.000000
# 4 0.000000 0.000000 0.000000 0.030026 0.000000 0.000000
# 5 0.000000 0.000000 0.000000 0.000000 -0.020994 0.000000
# 6 0.000000 0.000000 0.000000 0.000000 0.000000 0.055784
#
#
# Mechanical properties :
#
#
# Convention : Reuss Voigt Hill
#
# Bulk Modulus (GPa) = 55.57088 93.26908 74.41998
# Shear Modulus (GPa) = 34.44551 17.95239 26.19895
#
# Velocity S-wave (km/s) = 4.15233 2.99769 3.62132
# Velocity P-wave (km/s) = 7.12778 7.65948 7.39841
#
# Compressibility (1/GPa) = 0.01799504
#
# Stress axis : x y z
#
# Youngs Moduli (GPa) = 66.92232 65.83077 62.36090
#
# Poissons Ratio (x) = 0.20397 0.77872
# Poissons Ratio (y) = 0.20735 -0.09346
# Poissons Ratio (z) = 0.83568 -0.09867
#
# Static dielectric constant tensor:
#      x y z
#    x 1.689340 0.000000 0.000000 
#    y 0.000000 1.746300 0.000000 
#    z 0.000000 0.000000 1.686580 
# 
# From -- ./inp_files/12091.got.cif
#   From: 2010.05.17/outbox.cif.g08.bks.cpg/sg47_7_cif.got.tgz:12091.got - 2010.06.03 20:15:42.
