data_PCOD9386321
_publ_section_title
;
Structure prediction by ZEFSAII (Michael W. Deem and Ramdas Pophale) SiO2 
 PCOD9386321
Probable space group: P M M M
;
_chemical_formula_sum "Si O2"
_cell_formula_units_Z 54
_cell_length_a 17.600316
_cell_length_b 12.322624
_cell_length_c 14.051794
_cell_angle_alpha 90.000000
_cell_angle_beta 90.000000
_cell_angle_gamma 90.000000
_cell_volume 3047.582259
_symmetry_space_group_name_H-M "P M M M"
_symmetry_group_IT_number 47
_symmetry_cell_setting 'orthorhombic'
loop_
_space_group_symop_operation_xyz
x,y,z
-x,-y,z
x,-y,-z
-x,y,-z
-x,-y,-z
x,y,-z
-x,y,z
x,-y,z
loop_
_atom_site_type_symbol
_atom_site_label
_atom_site_fract_x
_atom_site_fract_y
_atom_site_fract_z
Si Si1 0.907909 0.000000 0.609357
Si Si2 0.228363 0.371538 0.285542
Si Si3 0.412295 0.872857 0.229883
Si Si4 0.379153 0.696099 0.612045
Si Si5 0.117020 0.875317 0.107910
Si Si6 0.500000 0.500000 0.357674
Si Si7 0.721786 0.226195 0.109915
Si Si8 0.914233 0.227060 0.701018
O O1 0.884688 0.112586 0.657937
O O2 0.884228 0.000000 0.500000
O O3 0.000000 0.000000 0.614064
O O4 0.223123 0.500000 0.279238
O O5 0.293750 0.337071 0.359330
O O6 0.254045 0.320582 0.183659
O O7 0.148146 0.318637 0.314759
O O8 0.500000 0.860872 0.199474
O O9 0.400166 0.799955 0.323812
O O10 0.354079 0.827968 0.151145
O O11 0.397622 0.000000 0.247748
O O12 0.386674 0.717061 0.500000
O O13 0.434086 0.595722 0.637860
O O14 0.208008 0.858358 0.113100
O O15 0.082992 0.796947 0.186376
O O16 0.096987 0.000000 0.128677
O O17 0.093954 0.850762 0.000000
O O18 0.713210 0.261030 0.000000
O O19 0.000000 0.249050 0.666023
#
# Coordination Sequence:
#
# PCOD9386321 Si02
#       8
#     4   8   8   8   8   2   8   8
#     4   9  18  34  55  77 105 144 187 230 276 333
#     4  10  22  38  57  82 113 145 186 240 286 336
#     4  10  21  35  53  82 118 150 183 227 281 344
#     4  11  22  38  61  86 112 145 186 234 287 341
#     4   9  16  28  50  78 106 137 176 227 281 327
#     4  12  21  36  66  90 107 146 197 238 286 340
#     4   9  19  35  54  76 107 150 192 228 275 335
#     4  10  20  35  55  79 111 148 188 232 282 339
#
# _framework density 17.718964
#
# number of rings (size 3 to 8) (size 9 to 14) (size 15 to 20)
#    0.000    2.148    2.222    1.111    0.000    2.963 
#    1.333    2.222    0.000    0.000    0.000   11.407 
#    0.000    0.000    0.000    0.000    0.000    0.000 
#
# Total GULP energy -300621.903527 kJ/mol
# GULP energy per Si atom -5567.072288 kJ/mol
# Density = 1.767864 g / cm^3
# Si number density = 17.718964 Si / 1000 Ang^3
#
#
#
# Elastic Constant Matrix: (Units=GPa)
#
#
# Indices 1 2 3 4 5 6 
#
# 1 115.0876 46.3446 15.5070 0.0000 0.0000 0.0000
# 2 46.3446 79.4462 11.4977 0.0000 0.0000 0.0000
# 3 15.5070 11.4977 43.7792 0.0000 0.0000 0.0000
# 4 0.0000 0.0000 0.0000 4.0335 0.0000 0.0000
# 5 0.0000 0.0000 0.0000 0.0000 4.2805 0.0000
# 6 0.0000 0.0000 0.0000 0.0000 0.0000 15.2215
#
#
#
# Elastic Compliance Matrix: (Units=1/GPa)
#
#
# Indices 1 2 3 4 5 6 
#
# 1 0.011599 -0.006416 -0.002424 0.000000 0.000000 0.000000
# 2 -0.006416 0.016633 -0.002096 0.000000 0.000000 0.000000
# 3 -0.002424 -0.002096 0.024251 0.000000 0.000000 0.000000
# 4 0.000000 0.000000 0.000000 0.247926 0.000000 0.000000
# 5 0.000000 0.000000 0.000000 0.000000 0.233619 0.000000
# 6 0.000000 0.000000 0.000000 0.000000 0.000000 0.065696
#
#
# Mechanical properties :
#
#
# Convention : Reuss Voigt Hill
#
# Bulk Modulus (GPa) = 32.66602 42.77904 37.72253
# Shear Modulus (GPa) = 7.91392 15.70468 11.80930
#
# Velocity S-wave (km/s) = 2.11567 2.98034 2.58442
# Velocity P-wave (km/s) = 4.94406 6.00323 5.49920
#
# Compressibility (1/GPa) = 0.03061285
#
# Stress axis : x y z
#
# Youngs Moduli (GPa) = 86.21400 60.12176 41.23579
#
# Poissons Ratio (x) = 0.38571 0.09994
# Poissons Ratio (y) = 0.55311 0.08642
# Poissons Ratio (z) = 0.20895 0.12601
#
# Static dielectric constant tensor:
#      x y z
#    x 1.629260 0.000000 0.000000 
#    y 0.000000 1.571200 0.000000 
#    z 0.000000 0.000000 1.608980 
# 
# From -- ./inp_files/23672.got.cif
#   From: 2010.05.17/outbox.cif.g08.bks.cpg/sg47_12_cif.got.tgz:23672.got - 2010.06.03 20:15:42.
