data_PCOD9386649
_publ_section_title
;
Structure prediction by ZEFSAII (Michael W. Deem and Ramdas Pophale) SiO2 
 PCOD9386649
Probable space group: P M M M
;
_chemical_formula_sum "Si O2"
_cell_formula_units_Z 52
_cell_length_a 20.015252
_cell_length_b 15.855684
_cell_length_c 7.850835
_cell_angle_alpha 90.000000
_cell_angle_beta 90.000000
_cell_angle_gamma 90.000000
_cell_volume 2491.505752
_symmetry_space_group_name_H-M "P M M M"
_symmetry_group_IT_number 47
_symmetry_cell_setting 'orthorhombic'
loop_
_space_group_symop_operation_xyz
x,y,z
-x,-y,z
x,-y,-z
-x,y,-z
-x,-y,-z
x,y,-z
-x,y,z
x,-y,z
loop_
_atom_site_type_symbol
_atom_site_label
_atom_site_fract_x
_atom_site_fract_y
_atom_site_fract_z
Si Si1 0.578198 0.000000 0.208163
Si Si2 0.829501 0.091917 0.705750
Si Si3 0.152914 0.404009 0.801050
Si Si4 0.925243 0.240897 0.298135
Si Si5 0.429114 0.399881 0.295002
Si Si6 0.293070 0.672047 0.302031
Si Si7 0.315849 0.860310 0.199191
O O1 0.622538 0.918411 0.261161
O O2 0.500000 0.000000 0.261635
O O3 0.578516 0.000000 0.000000
O O4 0.822510 0.099236 0.500000
O O5 0.873595 0.170505 0.769462
O O6 0.755186 0.093910 0.780836
O O7 0.860274 0.000000 0.742031
O O8 0.150388 0.500000 0.731927
O O9 0.103764 0.334687 0.722674
O O10 0.226978 0.364885 0.782161
O O11 0.136764 0.408296 0.000000
O O12 0.929150 0.224437 0.500000
O O13 0.000000 0.233937 0.226568
O O14 0.428485 0.384430 0.500000
O O15 0.500000 0.365988 0.228784
O O16 0.428835 0.500000 0.271752
O O17 0.360987 0.364229 0.223789
O O18 0.287731 0.646682 0.500000
O O19 0.302697 0.772068 0.291753
O O20 0.327707 0.842591 0.000000
#
# Coordination Sequence:
#
# PCOD9386649 Si02
#       7
#     4   8   8   8   8   8   8
#     4   9  20  38  57  81 116 159 204 246 292 350
#     4  10  20  36  61  90 120 153 189 234 288 348
#     4  11  24  40  59  85 118 158 202 247 297 352
#     4  10  22  40  62  90 122 157 195 237 289 352
#     4   8  15  29  49  74 105 140 177 221 277 337
#     4  11  21  34  56  85 114 146 190 242 295 348
#     4  11  21  35  57  82 110 152 197 238 285 341
#
# _framework density 20.870913000000002
#
# number of rings (size 3 to 8) (size 9 to 14) (size 15 to 20)
#    0.000    1.923    2.308    2.308    0.000    3.385 
#    0.000    3.077    0.000    4.615    0.000    7.538 
#    0.000    0.000    0.000    0.000    0.000    0.000 
#
# Total GULP energy -290107.692382 kJ/mol
# GULP energy per Si atom -5578.994084 kJ/mol
# Density = 2.082341 g / cm^3
# Si number density = 20.870913 Si / 1000 Ang^3
#
#
#
# Elastic Constant Matrix: (Units=GPa)
#
#
# Indices 1 2 3 4 5 6 
#
# 1 144.4067 54.9828 -3.7815 0.0000 0.0000 0.0000
# 2 54.9828 94.2952 -8.1776 0.0000 0.0000 0.0000
# 3 -3.7815 -8.1776 28.1751 0.0000 0.0000 0.0000
# 4 0.0000 0.0000 0.0000 -7.8757 0.0000 0.0000
# 5 0.0000 0.0000 0.0000 0.0000 -3.7275 0.0000
# 6 0.0000 0.0000 0.0000 0.0000 0.0000 29.2203
#
#
#
# Elastic Compliance Matrix: (Units=1/GPa)
#
#
# Indices 1 2 3 4 5 6 
#
# 1 0.008904 -0.005219 -0.000320 0.000000 0.000000 0.000000
# 2 -0.005219 0.013939 0.003345 0.000000 0.000000 0.000000
# 3 -0.000320 0.003345 0.036420 0.000000 0.000000 0.000000
# 4 0.000000 0.000000 0.000000 -0.126973 0.000000 0.000000
# 5 0.000000 0.000000 0.000000 0.000000 -0.268275 0.000000
# 6 0.000000 0.000000 0.000000 0.000000 0.000000 0.034223
#
#
# Mechanical properties :
#
#
# Convention : Reuss Voigt Hill
#
# Bulk Modulus (GPa) = 18.22364 39.21383 28.71874
# Shear Modulus (GPa) = -17.91584 18.44697 0.26556
#
# Velocity S-wave (km/s) = -2.93305 2.97620 0.35710
# Velocity P-wave (km/s) = 1.64918 5.53533 3.73632
#
# Compressibility (1/GPa) = 0.05487378
#
# Stress axis : x y z
#
# Youngs Moduli (GPa) = 112.31127 71.74366 27.45728
#
# Poissons Ratio (x) = 0.37447 0.00878
# Poissons Ratio (y) = 0.58621 -0.09184
# Poissons Ratio (z) = 0.03593 -0.23998
#
# Static dielectric constant tensor:
#      x y z
#    x 1.755240 0.000000 0.000000 
#    y 0.000000 1.802360 0.000000 
#    z 0.000000 0.000000 1.764530 
# 
# From -- ./inp_files/11021.got.cif
#   From: 2010.05.17/outbox.cif.g08.bks.cpg/sg47_6_cif.got.tgz:11021.got - 2010.06.03 20:15:42.
