data_PCOD9386620
_publ_section_title
;
Structure prediction by ZEFSAII (Michael W. Deem and Ramdas Pophale) SiO2 
 PCOD9386620
Probable space group: P M M M
;
_chemical_formula_sum "Si O2"
_cell_formula_units_Z 48
_cell_length_a 16.665676
_cell_length_b 9.337622
_cell_length_c 15.495588
_cell_angle_alpha 90.000000
_cell_angle_beta 90.000000
_cell_angle_gamma 90.000000
_cell_volume 2411.389049
_symmetry_space_group_name_H-M "P M M M"
_symmetry_group_IT_number 47
_symmetry_cell_setting 'orthorhombic'
loop_
_space_group_symop_operation_xyz
x,y,z
-x,-y,z
x,-y,-z
-x,y,-z
-x,-y,-z
x,y,-z
-x,y,z
x,-y,z
loop_
_atom_site_type_symbol
_atom_site_label
_atom_site_fract_x
_atom_site_fract_y
_atom_site_fract_z
Si Si1 0.593597 0.160224 0.163938
Si Si2 0.645449 0.668269 0.325702
Si Si3 0.401348 0.664429 0.000000
Si Si4 0.597279 0.170831 0.500000
Si Si5 0.825991 0.334439 0.252877
Si Si6 0.093742 0.828222 0.899683
Si Si7 0.903823 0.162543 0.596258
O O1 0.500000 0.143622 0.142574
O O2 0.597287 0.248051 0.252052
O O3 0.627785 0.252244 0.084906
O O4 0.628656 0.000000 0.172009
O O5 0.623625 0.500000 0.333883
O O6 0.632369 0.750618 0.415485
O O7 0.735601 0.676428 0.288412
O O8 0.374997 0.500000 0.000000
O O9 0.500000 0.661040 0.000000
O O10 0.500000 0.185943 0.500000
O O11 0.615106 0.000000 0.500000
O O12 0.844644 0.500000 0.237841
O O13 0.847059 0.247455 0.166829
O O14 0.877831 0.268888 0.330112
O O15 0.000000 0.791635 0.879923
O O16 0.100486 0.000000 0.891239
O O17 0.108606 0.791401 0.000000
O O18 0.875058 0.202610 0.500000
O O19 0.000000 0.158056 0.593684
O O20 0.875490 0.000000 0.614716
#
# Coordination Sequence:
#
# PCOD9386620 Si02
#       7
#     8   8   4   4   8   8   8
#     4  10  20  36  59  87 116 147 193 247 290 341
#     4  11  25  42  59  85 121 161 197 238 299 366
#     4   9  17  31  55  85 115 149 184 223 282 349
#     4  11  25  45  69  95 118 147 198 259 309 360
#     4  11  24  38  55  85 123 158 195 242 295 352
#     4   9  19  38  64  91 119 157 207 256 299 352
#     4   9  19  36  58  84 113 150 196 240 285 343
#
# _framework density 19.905539999999998
#
# number of rings (size 3 to 8) (size 9 to 14) (size 15 to 20)
#    0.000    2.000    0.000    4.000    1.167   10.667 
#    1.500    1.667    0.000    0.000    0.000    0.000 
#    0.000    0.000    0.000    0.000    0.000    0.000 
#
# Total GULP energy -267972.791980 kJ/mol
# GULP energy per Si atom -5582.766500 kJ/mol
# Density = 1.986023 g / cm^3
# Si number density = 19.905540 Si / 1000 Ang^3
#
#
#
# Elastic Constant Matrix: (Units=GPa)
#
#
# Indices 1 2 3 4 5 6 
#
# 1 26.9495 38.6745 30.0976 0.0000 0.0000 0.0000
# 2 38.6745 152.1084 97.0807 0.0000 0.0000 0.0000
# 3 30.0976 97.0807 155.9775 0.0000 0.0000 0.0000
# 4 0.0000 0.0000 0.0000 47.4740 0.0000 0.0000
# 5 0.0000 0.0000 0.0000 0.0000 7.4827 0.0000
# 6 0.0000 0.0000 0.0000 0.0000 0.0000 49.2894
#
#
#
# Elastic Compliance Matrix: (Units=1/GPa)
#
#
# Indices 1 2 3 4 5 6 
#
# 1 0.059508 -0.012943 -0.003427 0.000000 0.000000 0.000000
# 2 -0.012943 0.013722 -0.006043 0.000000 0.000000 0.000000
# 3 -0.003427 -0.006043 0.010834 0.000000 0.000000 0.000000
# 4 0.000000 0.000000 0.000000 0.021064 0.000000 0.000000
# 5 0.000000 0.000000 0.000000 0.000000 0.133641 0.000000
# 6 0.000000 0.000000 0.000000 0.000000 0.000000 0.020288
#
#
# Mechanical properties :
#
#
# Convention : Reuss Voigt Hill
#
# Bulk Modulus (GPa) = 25.48586 74.08233 49.78409
# Shear Modulus (GPa) = 15.77474 32.12805 23.95140
#
# Velocity S-wave (km/s) = 2.81816 4.02185 3.47256
# Velocity P-wave (km/s) = 4.83948 7.67234 6.41425
#
# Compressibility (1/GPa) = 0.03923745
#
# Stress axis : x y z
#
# Youngs Moduli (GPa) = 16.80447 72.87548 92.30469
#
# Poissons Ratio (x) = 0.94323 0.31632
# Poissons Ratio (y) = 0.21750 0.55781
# Poissons Ratio (z) = 0.05759 0.44039
#
# Static dielectric constant tensor:
#      x y z
#    x 1.694770 0.000000 0.000000 
#    y 0.000000 1.689360 0.000000 
#    z 0.000000 0.000000 1.678030 
# 
# From -- ./inp_files/24457.got.cif
#   From: 2010.05.17/outbox.cif.g08.bks.cpg/sg47_13_cif.got.tgz:24457.got - 2010.06.03 20:15:42.
