data_PCOD9386442
_publ_section_title
;
Structure prediction by ZEFSAII (Michael W. Deem and Ramdas Pophale) SiO2 
 PCOD9386442
Probable space group: P M M M
;
_chemical_formula_sum "Si O2"
_cell_formula_units_Z 40
_cell_length_a 7.714595
_cell_length_b 29.493305
_cell_length_c 8.378844
_cell_angle_alpha 90.000000
_cell_angle_beta 90.000000
_cell_angle_gamma 90.000000
_cell_volume 1906.429186
_symmetry_space_group_name_H-M "P M M M"
_symmetry_group_IT_number 47
_symmetry_cell_setting 'orthorhombic'
loop_
_space_group_symop_operation_xyz
x,y,z
-x,-y,z
x,-y,-z
-x,y,-z
-x,-y,-z
x,y,-z
-x,y,z
x,-y,z
loop_
_atom_site_type_symbol
_atom_site_label
_atom_site_fract_x
_atom_site_fract_y
_atom_site_fract_z
Si Si1 0.702063 0.402570 0.826457
Si Si2 0.795832 0.313412 0.322046
Si Si3 0.300656 0.880753 0.307390
Si Si4 0.288841 0.553089 0.500000
Si Si5 0.000000 0.948043 0.304790
Si Si6 0.290721 0.217473 0.817439
O O1 0.500000 0.416000 0.831342
O O2 0.711773 0.348478 0.799903
O O3 0.776412 0.424386 0.664511
O O4 0.778572 0.414285 0.000000
O O5 0.725993 0.322061 0.500000
O O6 0.770208 0.261076 0.279079
O O7 0.000000 0.322797 0.320834
O O8 0.302030 0.880366 0.500000
O O9 0.500000 0.887545 0.253285
O O10 0.169741 0.919915 0.254352
O O11 0.238280 0.831331 0.250652
O O12 0.249755 0.500000 0.500000
O O13 0.500000 0.558360 0.500000
O O14 0.000000 0.948512 0.500000
O O15 0.000000 0.000000 0.251029
O O16 0.500000 0.218027 0.813214
O O17 0.232900 0.221798 0.000000
#
# Coordination Sequence:
#
# PCOD9386442 Si02
#       6
#     8   8   8   4   4   8
#     4  10  20  35  57  83 112 148 188 233 287 345
#     4  11  23  36  53  79 111 148 187 228 278 338
#     4   9  18  33  53  77 107 143 182 230 287 344
#     4   9  18  34  57  85 115 147 187 239 293 340
#     4   9  18  32  53  81 109 139 183 239 289 342
#     4  10  21  36  54  78 108 143 183 227 279 338
#
# _framework density 20.981634
#
# number of rings (size 3 to 8) (size 9 to 14) (size 15 to 20)
#    0.000    2.200    1.000    1.800    1.400    6.000 
#    0.000    4.000    0.000    2.400    0.000    4.200 
#    0.000    0.000    0.000    0.000    0.000    0.000 
#
# Total GULP energy -223349.153621 kJ/mol
# GULP energy per Si atom -5583.728841 kJ/mol
# Density = 2.093388 g / cm^3
# Si number density = 20.981634 Si / 1000 Ang^3
#
#
#
# Elastic Constant Matrix: (Units=GPa)
#
#
# Indices 1 2 3 4 5 6 
#
# 1 51.3357 18.6394 21.3050 0.0000 0.0000 0.0000
# 2 18.6394 120.3823 51.7600 0.0000 0.0000 0.0000
# 3 21.3050 51.7600 120.3646 0.0000 0.0000 0.0000
# 4 0.0000 0.0000 0.0000 -2.3468 0.0000 0.0000
# 5 0.0000 0.0000 0.0000 0.0000 2.2039 0.0000
# 6 0.0000 0.0000 0.0000 0.0000 0.0000 52.6046
#
#
#
# Elastic Compliance Matrix: (Units=1/GPa)
#
#
# Indices 1 2 3 4 5 6 
#
# 1 0.021437 -0.002071 -0.002904 0.000000 0.000000 0.000000
# 2 -0.002071 0.010391 -0.004102 0.000000 0.000000 0.000000
# 3 -0.002904 -0.004102 0.010586 0.000000 0.000000 0.000000
# 4 0.000000 0.000000 0.000000 -0.426116 0.000000 0.000000
# 5 0.000000 0.000000 0.000000 0.000000 0.453742 0.000000
# 6 0.000000 0.000000 0.000000 0.000000 0.000000 0.019010
#
#
# Mechanical properties :
#
#
# Convention : Reuss Voigt Hill
#
# Bulk Modulus (GPa) = 41.21871 52.83239 47.02555
# Shear Modulus (GPa) = 43.36889 23.85089 33.60989
#
# Velocity S-wave (km/s) = 4.55135 3.37523 4.00668
# Velocity P-wave (km/s) = 6.87805 6.35803 6.62314
#
# Compressibility (1/GPa) = 0.02426083
#
# Stress axis : x y z
#
# Youngs Moduli (GPa) = 46.64923 96.23560 94.46378
#
# Poissons Ratio (x) = 0.19926 0.27432
# Poissons Ratio (y) = 0.09659 0.38749
# Poissons Ratio (z) = 0.13547 0.39476
#
# Static dielectric constant tensor:
#      x y z
#    x 1.766930 0.000000 0.000000 
#    y 0.000000 1.712070 0.000000 
#    z 0.000000 0.000000 1.770410 
# 
# From -- ./inp_files/1829.got.cif
#   From: 2010.05.17/outbox.cif.g08.bks.cpg/sg47_1_cif.got.tgz:1829.got - 2010.06.03 20:15:42.
