data_PCOD9386448
_publ_section_title
;
Structure prediction by ZEFSAII (Michael W. Deem and Ramdas Pophale) SiO2 
 PCOD9386448
Probable space group: P M M M
;
_chemical_formula_sum "Si O2"
_cell_formula_units_Z 48
_cell_length_a 8.819658
_cell_length_b 31.874436
_cell_length_c 9.189989
_cell_angle_alpha 90.000000
_cell_angle_beta 90.000000
_cell_angle_gamma 90.000000
_cell_volume 2583.504636
_symmetry_space_group_name_H-M "P M M M"
_symmetry_group_IT_number 47
_symmetry_cell_setting 'orthorhombic'
loop_
_space_group_symop_operation_xyz
x,y,z
-x,-y,z
x,-y,-z
-x,y,-z
-x,-y,-z
x,y,-z
-x,y,z
x,-y,z
loop_
_atom_site_type_symbol
_atom_site_label
_atom_site_fract_x
_atom_site_fract_y
_atom_site_fract_z
Si Si1 0.181544 0.331571 0.669876
Si Si2 0.818280 0.000000 0.670094
Si Si3 0.316634 0.080794 0.170250
Si Si4 0.174884 0.500000 0.823076
Si Si5 0.319083 0.411972 0.172422
Si Si6 0.683291 0.250950 0.170049
Si Si7 0.684721 0.834062 0.332385
O O1 0.223985 0.329143 0.500000
O O2 0.245993 0.373892 0.740472
O O3 0.247319 0.291569 0.754090
O O4 0.000000 0.331694 0.680951
O O5 0.753425 0.958886 0.748525
O O6 0.774441 0.000000 0.500000
O O7 0.000000 0.000000 0.679430
O O8 0.500000 0.078136 0.179495
O O9 0.268436 0.124100 0.247117
O O10 0.275820 0.080906 0.000000
O O11 0.256219 0.542893 0.777657
O O12 0.000000 0.500000 0.777331
O O13 0.179108 0.500000 0.000000
O O14 0.500000 0.411130 0.187389
O O15 0.283259 0.407220 0.000000
O O16 0.500000 0.253528 0.179383
O O17 0.732303 0.208401 0.251317
O O18 0.723836 0.249283 0.000000
O O19 0.734842 0.834744 0.500000
O O20 0.500000 0.833979 0.332324
#
# Coordination Sequence:
#
# PCOD9386448 Si02
#       7
#     8   4   8   4   8   8   8
#     4  11  24  39  54  76 108 145 184 226 272 322
#     4  11  24  39  54  76 108 145 184 227 276 328
#     4  10  20  35  57  84 111 141 181 227 272 322
#     4   9  17  31  54  83 114 147 180 218 268 323
#     4  10  20  35  57  84 111 141 181 227 272 321
#     4  10  20  35  57  84 111 140 177 221 268 320
#     4   9  17  31  54  83 113 144 177 217 267 320
#
# _framework density 18.579412000000001
#
# number of rings (size 3 to 8) (size 9 to 14) (size 15 to 20)
#    0.000    2.000    0.000    3.750    0.000   11.000 
#    0.000    1.250    0.000    7.500    0.000    0.000 
#    0.000    0.000    0.000    0.000    0.000    0.000 
#
# Total GULP energy -268157.845502 kJ/mol
# GULP energy per Si atom -5586.621781 kJ/mol
# Density = 1.853712 g / cm^3
# Si number density = 18.579412 Si / 1000 Ang^3
#
#
#
# Elastic Constant Matrix: (Units=GPa)
#
#
# Indices 1 2 3 4 5 6 
#
# 1 27.6941 49.2672 54.7885 0.0000 0.0000 0.0000
# 2 49.2672 227.9802 127.6600 0.0000 0.0000 0.0000
# 3 54.7885 127.6600 174.9356 0.0000 0.0000 0.0000
# 4 0.0000 0.0000 0.0000-1837.5768 0.0000 0.0000
# 5 0.0000 0.0000 0.0000 0.0000 23.5728 0.0000
# 6 0.0000 0.0000 0.0000 0.0000 0.0000 -44.5503
#
#
#
# Elastic Compliance Matrix: (Units=1/GPa)
#
#
# Indices 1 2 3 4 5 6 
#
# 1 0.101058 -0.006960 -0.026572 0.000000 0.000000 0.000000
# 2 -0.006960 0.007897 -0.003583 0.000000 0.000000 0.000000
# 3 -0.026572 -0.003583 0.016653 0.000000 0.000000 0.000000
# 4 0.000000 0.000000 0.000000 -0.000544 0.000000 0.000000
# 5 0.000000 0.000000 0.000000 0.000000 0.042422 0.000000
# 6 0.000000 0.000000 0.000000 0.000000 0.000000 -0.022447
#
#
# Mechanical properties :
#
#
# Convention : Reuss Voigt Hill
#
# Bulk Modulus (GPa) = 19.46319 99.33795 59.40057
# Shear Modulus (GPa) = 21.15114 -358.45127 -168.65007
#
# Velocity S-wave (km/s) = 3.37771 -13.90497 -9.53780
# Velocity P-wave (km/s) = 5.07053 14.29037 9.44734
#
# Compressibility (1/GPa) = 0.05137903
#
# Stress axis : x y z
#
# Youngs Moduli (GPa) = 9.89530 126.63614 60.04916
#
# Poissons Ratio (x) = 0.88137 1.59561
# Poissons Ratio (y) = 0.06887 0.21515
# Poissons Ratio (z) = 0.26293 0.45372
#
# Static dielectric constant tensor:
#      x y z
#    x 1.623270 0.000000 0.000000 
#    y 0.000000 1.602540 0.000000 
#    z 0.000000 0.000000 1.624930 
# 
# From -- ./inp_files/2649.got.cif
#   From: 2010.05.17/outbox.cif.g08.bks.cpg/sg47_2_cif.got.tgz:2649.got - 2010.06.03 20:15:42.
