data_PCOD9386716
_publ_section_title
;
Structure prediction by ZEFSAII (Michael W. Deem and Ramdas Pophale) SiO2 
 PCOD9386716
Probable space group: P M M M
;
_chemical_formula_sum "Si O2"
_cell_formula_units_Z 36
_cell_length_a 7.988775
_cell_length_b 9.535651
_cell_length_c 24.650884
_cell_angle_alpha 90.000000
_cell_angle_beta 90.000000
_cell_angle_gamma 90.000000
_cell_volume 1877.859240
_symmetry_space_group_name_H-M "P M M M"
_symmetry_group_IT_number 47
_symmetry_cell_setting 'orthorhombic'
loop_
_space_group_symop_operation_xyz
x,y,z
-x,-y,z
x,-y,-z
-x,y,-z
-x,-y,-z
x,y,-z
-x,y,z
x,-y,z
loop_
_atom_site_type_symbol
_atom_site_label
_atom_site_fract_x
_atom_site_fract_y
_atom_site_fract_z
Si Si1 0.801294 0.159098 0.164234
Si Si2 0.702372 0.661734 0.061032
Si Si3 0.810010 0.332177 0.615285
Si Si4 0.695680 0.660107 0.265861
Si Si5 0.500000 0.163872 0.434953
O O1 0.765282 0.239804 0.108524
O O2 0.724717 0.240475 0.215115
O O3 0.000000 0.156468 0.172496
O O4 0.738055 0.000000 0.161287
O O5 0.500000 0.663846 0.062028
O O6 0.754393 0.500000 0.070126
O O7 0.755560 0.702650 0.000000
O O8 0.779922 0.500000 0.608258
O O9 0.796118 0.303871 0.679845
O O10 0.665386 0.243350 0.586609
O O11 0.000000 0.301571 0.596866
O O12 0.500000 0.663292 0.281074
O O13 0.738354 0.500000 0.249992
O O14 0.500000 0.168569 0.500000
O O15 0.500000 0.000000 0.417824
#
# Coordination Sequence:
#
# PCOD9386716 Si02
#       5
#     8   8   8   8   4
#     4  11  24  37  50  77 116 152 187 230 284 348
#     4   9  19  37  59  80 102 134 182 237 290 346
#     4  10  21  40  67  96 125 161 209 263 314 363
#     4  10  20  37  62  88 115 149 192 243 297 353
#     4  11  25  43  63  91 131 175 212 251 304 367
#
# _framework density 19.170767000000001
#
# number of rings (size 3 to 8) (size 9 to 14) (size 15 to 20)
#    0.000    1.889    1.111    3.000    0.000    9.778 
#    0.000    5.556    0.000    0.000    0.000    0.000 
#    0.000    0.000    0.000    0.000    0.000    0.000 
#
# Total GULP energy -201080.666395 kJ/mol
# GULP energy per Si atom -5585.574067 kJ/mol
# Density = 1.912713 g / cm^3
# Si number density = 19.170767 Si / 1000 Ang^3
#
#
#
# Elastic Constant Matrix: (Units=GPa)
#
#
# Indices 1 2 3 4 5 6 
#
# 1 96.0680 52.1812 39.9054 0.0000 0.0000 0.0000
# 2 52.1812 103.5917 69.0406 0.0000 0.0000 0.0000
# 3 39.9054 69.0406 84.8457 0.0000 0.0000 0.0000
# 4 0.0000 0.0000 0.0000 99.4249 0.0000 0.0000
# 5 0.0000 0.0000 0.0000 0.0000 -11.2504 0.0000
# 6 0.0000 0.0000 0.0000 0.0000 0.0000 26.4044
#
#
#
# Elastic Compliance Matrix: (Units=1/GPa)
#
#
# Indices 1 2 3 4 5 6 
#
# 1 0.014471 -0.006015 -0.001911 0.000000 0.000000 0.000000
# 2 -0.006015 0.023592 -0.016368 0.000000 0.000000 0.000000
# 3 -0.001911 -0.016368 0.026004 0.000000 0.000000 0.000000
# 4 0.000000 0.000000 0.000000 0.010058 0.000000 0.000000
# 5 0.000000 0.000000 0.000000 0.000000 -0.088885 0.000000
# 6 0.000000 0.000000 0.000000 0.000000 0.000000 0.037873
#
#
# Mechanical properties :
#
#
# Convention : Reuss Voigt Hill
#
# Bulk Modulus (GPa) = 64.61020 67.41774 66.01397
# Shear Modulus (GPa) = 65.05297 31.14098 48.09697
#
# Velocity S-wave (km/s) = 5.83156 4.03476 5.01430
# Velocity P-wave (km/s) = 8.89485 7.54645 8.24825
#
# Compressibility (1/GPa) = 0.01547743
#
# Stress axis : x y z
#
# Youngs Moduli (GPa) = 69.10605 42.38668 38.45553
#
# Poissons Ratio (x) = 0.25498 0.07349
# Poissons Ratio (y) = 0.41570 0.62945
# Poissons Ratio (z) = 0.13206 0.69380
#
# Static dielectric constant tensor:
#      x y z
#    x 1.687590 0.000000 0.000000 
#    y 0.000000 1.654680 0.000000 
#    z 0.000000 0.000000 1.637370 
# 
# From -- ./inp_files/1431.got.cif
#   From: 2010.05.17/outbox.cif.g08.bks.cpg/sg47_1_cif.got.tgz:1431.got - 2010.06.03 20:15:42.
