data_PCOD9386654
_publ_section_title
;
Structure prediction by ZEFSAII (Michael W. Deem and Ramdas Pophale) SiO2 
 PCOD9386654
Probable space group: P M M M
;
_chemical_formula_sum "Si O2"
_cell_formula_units_Z 44
_cell_length_a 7.651863
_cell_length_b 8.396231
_cell_length_c 31.378695
_cell_angle_alpha 90.000000
_cell_angle_beta 90.000000
_cell_angle_gamma 90.000000
_cell_volume 2015.981035
_symmetry_space_group_name_H-M "P M M M"
_symmetry_group_IT_number 47
_symmetry_cell_setting 'orthorhombic'
loop_
_space_group_symop_operation_xyz
x,y,z
-x,-y,z
x,-y,-z
-x,y,-z
-x,-y,-z
x,y,-z
-x,y,z
x,-y,z
loop_
_atom_site_type_symbol
_atom_site_label
_atom_site_fract_x
_atom_site_fract_y
_atom_site_fract_z
Si Si1 0.292699 0.500000 0.952115
Si Si2 0.786522 0.818090 0.726902
Si Si3 0.213338 0.679146 0.815702
Si Si4 0.790965 0.318953 0.637520
Si Si5 0.209865 0.825677 0.902001
Si Si6 0.709836 0.685707 0.545794
O O1 0.500000 0.500000 0.954992
O O2 0.247179 0.665222 0.928385
O O3 0.217578 0.500000 0.000000
O O4 0.727842 0.719890 0.768025
O O5 0.724619 0.762154 0.680503
O O6 0.000000 0.809273 0.726153
O O7 0.737971 0.000000 0.733766
O O8 0.264752 0.500000 0.827115
O O9 0.271380 0.794951 0.853430
O O10 0.000000 0.684797 0.814932
O O11 0.721532 0.500000 0.636250
O O12 0.757663 0.241290 0.591371
O O13 0.000000 0.327117 0.641449
O O14 0.000000 0.834425 0.900750
O O15 0.273461 0.000000 0.917494
O O16 0.769972 0.753576 0.500000
O O17 0.500000 0.683475 0.544715
O O18 0.770519 0.500000 0.546761
#
# Coordination Sequence:
#
# PCOD9386654 Si02
#       6
#     4   8   8   8   8   8
#     4  11  25  43  61  83 117 161 203 241 286 345
#     4   9  16  25  39  64  98 131 160 193 240 300
#     4   9  15  26  48  78 110 139 170 214 266 318
#     4   9  16  25  39  62  89 114 145 188 235 281
#     4  10  20  36  61  92 121 150 191 244 296 341
#     4   8  14  25  41  60  81 107 142 185 234 288
#
# _framework density 21.825602
#
# number of rings (size 3 to 8) (size 9 to 14) (size 15 to 20)
#    0.000    2.818    0.909    1.909    0.000    6.182 
#    0.000    3.636    0.000    2.182    0.000    3.818 
#    0.000    0.000    0.000    0.000    0.000    0.000 
#
# Total GULP energy -245237.424136 kJ/mol
# GULP energy per Si atom -5573.577821 kJ/mol
# Density = 2.177593 g / cm^3
# Si number density = 21.825602 Si / 1000 Ang^3
#
#
#
# Elastic Constant Matrix: (Units=GPa)
#
#
# Indices 1 2 3 4 5 6 
#
# 1 40.2928 7.7400 5.8961 0.0000 0.0000 0.0000
# 2 7.7400 114.8060 67.9801 0.0000 0.0000 0.0000
# 3 5.8961 67.9801 165.7255 0.0000 0.0000 0.0000
# 4 0.0000 0.0000 0.0000 4.5791 0.0000 0.0000
# 5 0.0000 0.0000 0.0000 0.0000 31.5962 0.0000
# 6 0.0000 0.0000 0.0000 0.0000 0.0000 -5.3123
#
#
#
# Elastic Compliance Matrix: (Units=1/GPa)
#
#
# Indices 1 2 3 4 5 6 
#
# 1 0.025153 -0.001540 -0.000263 0.000000 0.000000 0.000000
# 2 -0.001540 0.011599 -0.004703 0.000000 0.000000 0.000000
# 3 -0.000263 -0.004703 0.007973 0.000000 0.000000 0.000000
# 4 0.000000 0.000000 0.000000 0.218384 0.000000 0.000000
# 5 0.000000 0.000000 0.000000 0.000000 0.031649 0.000000
# 6 0.000000 0.000000 0.000000 0.000000 0.000000 -0.188242
#
#
# Mechanical properties :
#
#
# Convention : Reuss Voigt Hill
#
# Bulk Modulus (GPa) = 31.53390 53.78408 42.65899
# Shear Modulus (GPa) = 38.43211 22.11980 30.27596
#
# Velocity S-wave (km/s) = 4.20083 3.18697 3.72852
# Velocity P-wave (km/s) = 6.16513 6.18373 6.17444
#
# Compressibility (1/GPa) = 0.03171190
#
# Stress axis : x y z
#
# Youngs Moduli (GPa) = 39.75725 86.21428 125.42911
#
# Poissons Ratio (x) = 0.13276 0.03301
# Poissons Ratio (y) = 0.06122 0.58990
# Poissons Ratio (z) = 0.01046 0.40547
#
# Static dielectric constant tensor:
#      x y z
#    x 1.823900 0.000000 0.000000 
#    y 0.000000 1.838030 0.000000 
#    z 0.000000 0.000000 1.837090 
# 
# From -- ./inp_files/33918.got.cif
#   From: 2010.05.17/outbox.cif.g08.bks.cpg/sg47_17_cif.got.tgz:33918.got - 2010.06.03 20:15:42.
