data_PCOD9386641
_publ_section_title
;
Structure prediction by ZEFSAII (Michael W. Deem and Ramdas Pophale) SiO2 
 PCOD9386641
Probable space group: P M M M
;
_chemical_formula_sum "Si O2"
_cell_formula_units_Z 48
_cell_length_a 8.629100
_cell_length_b 18.137731
_cell_length_c 15.864340
_cell_angle_alpha 90.000000
_cell_angle_beta 90.000000
_cell_angle_gamma 90.000000
_cell_volume 2482.964255
_symmetry_space_group_name_H-M "P M M M"
_symmetry_group_IT_number 47
_symmetry_cell_setting 'orthorhombic'
loop_
_space_group_symop_operation_xyz
x,y,z
-x,-y,z
x,-y,-z
-x,y,-z
-x,-y,-z
x,y,-z
-x,y,z
x,-y,z
loop_
_atom_site_type_symbol
_atom_site_label
_atom_site_fract_x
_atom_site_fract_y
_atom_site_fract_z
Si Si1 0.187196 0.917267 0.229138
Si Si2 0.815422 0.653733 0.167438
Si Si3 0.314654 0.198776 0.905505
Si Si4 0.688463 0.416742 0.500000
Si Si5 0.313512 0.308483 0.351240
Si Si6 0.685581 0.500000 0.099164
Si Si7 0.812649 0.149998 0.594327
O O1 0.252198 0.856083 0.165963
O O2 0.232788 0.899902 0.325885
O O3 0.000000 0.913905 0.225390
O O4 0.236527 0.000000 0.205930
O O5 0.751421 0.719517 0.109268
O O6 0.759221 0.674604 0.261037
O O7 0.750877 0.574296 0.140666
O O8 0.000000 0.652939 0.163790
O O9 0.500000 0.202213 0.898923
O O10 0.272894 0.173377 0.000000
O O11 0.746260 0.500000 0.500000
O O12 0.500000 0.418715 0.500000
O O13 0.733830 0.371392 0.582550
O O14 0.500000 0.307249 0.344108
O O15 0.256071 0.230519 0.386928
O O16 0.500000 0.500000 0.107555
O O17 0.725260 0.500000 0.000000
O O18 0.766379 0.125467 0.500000
O O19 0.000000 0.154780 0.595211
#
# Coordination Sequence:
#
# PCOD9386641 Si02
#       7
#     8   8   8   4   8   4   8
#     4  10  22  40  62  91 127 167 209 255 311 375
#     4  12  25  41  63  93 127 162 204 254 312 369
#     4  11  24  42  65  92 122 162 211 259 312 374
#     4   9  20  36  55  85 120 159 205 251 301 357
#     4  11  21  36  60  87 118 161 209 254 301 361
#     4  11  25  45  67  92 123 160 203 251 304 364
#     4  10  20  36  60  89 123 162 204 253 307 368
#
# _framework density 19.331731999999999
#
# number of rings (size 3 to 8) (size 9 to 14) (size 15 to 20)
#    0.000    1.333    2.500    3.250    1.167    5.000 
#    0.000    3.333    0.000    2.000    0.000    2.333 
#    0.000    0.000    0.000    0.000    0.000    0.000 
#
# Total GULP energy -268286.186488 kJ/mol
# GULP energy per Si atom -5589.295552 kJ/mol
# Density = 1.928773 g / cm^3
# Si number density = 19.331732 Si / 1000 Ang^3
#
#
#
# Elastic Constant Matrix: (Units=GPa)
#
#
# Indices 1 2 3 4 5 6 
#
# 1 34.4459 20.8741 36.2609 0.0000 0.0000 0.0000
# 2 20.8741 111.0751 39.2017 0.0000 0.0000 0.0000
# 3 36.2609 39.2017 133.1851 0.0000 0.0000 0.0000
# 4 0.0000 0.0000 0.0000 14.3232 0.0000 0.0000
# 5 0.0000 0.0000 0.0000 0.0000 18.8890 0.0000
# 6 0.0000 0.0000 0.0000 0.0000 0.0000 -189.3089
#
#
#
# Elastic Compliance Matrix: (Units=1/GPa)
#
#
# Indices 1 2 3 4 5 6 
#
# 1 0.042502 -0.004356 -0.010290 0.000000 0.000000 0.000000
# 2 -0.004356 0.010493 -0.001903 0.000000 0.000000 0.000000
# 3 -0.010290 -0.001903 0.010870 0.000000 0.000000 0.000000
# 4 0.000000 0.000000 0.000000 0.069817 0.000000 0.000000
# 5 0.000000 0.000000 0.000000 0.000000 0.052941 0.000000
# 6 0.000000 0.000000 0.000000 0.000000 0.000000 -0.005282
#
#
# Mechanical properties :
#
#
# Convention : Reuss Voigt Hill
#
# Bulk Modulus (GPa) = 32.50010 52.37552 42.43781
# Shear Modulus (GPa) = 22.25256 -19.06138 1.59559
#
# Velocity S-wave (km/s) = 3.39645 -3.14349 0.90949
# Velocity P-wave (km/s) = 5.67710 3.73851 4.80655
#
# Compressibility (1/GPa) = 0.03076913
#
# Stress axis : x y z
#
# Youngs Moduli (GPa) = 23.52803 95.30174 91.99809
#
# Poissons Ratio (x) = 0.41513 0.94662
# Poissons Ratio (y) = 0.10249 0.17503
# Poissons Ratio (z) = 0.24209 0.18132
#
# Static dielectric constant tensor:
#      x y z
#    x 1.653100 0.000000 0.000000 
#    y 0.000000 1.641380 0.000000 
#    z 0.000000 0.000000 1.675740 
# 
# From -- ./inp_files/21084.got.cif
#   From: 2010.05.17/outbox.cif.g08.bks.cpg/sg47_11_cif.got.tgz:21084.got - 2010.06.03 20:15:42.
