data_PCOD9386276
_publ_section_title
;
Structure prediction by ZEFSAII (Michael W. Deem and Ramdas Pophale) SiO2 
 PCOD9386276
Probable space group: P M M M
;
_chemical_formula_sum "Si O2"
_cell_formula_units_Z 64
_cell_length_a 15.396161
_cell_length_b 9.261406
_cell_length_c 24.232149
_cell_angle_alpha 90.000000
_cell_angle_beta 90.000000
_cell_angle_gamma 90.000000
_cell_volume 3455.264497
_symmetry_space_group_name_H-M "P M M M"
_symmetry_group_IT_number 47
_symmetry_cell_setting 'orthorhombic'
loop_
_space_group_symop_operation_xyz
x,y,z
-x,-y,z
x,-y,-z
-x,y,-z
-x,-y,-z
x,y,-z
-x,y,z
x,-y,z
loop_
_atom_site_type_symbol
_atom_site_label
_atom_site_fract_x
_atom_site_fract_y
_atom_site_fract_z
Si Si1 0.604723 0.666213 0.937928
Si Si2 0.100023 0.327616 0.060266
Si Si3 0.163286 0.840029 0.842308
Si Si4 0.638482 0.165430 0.823818
Si Si5 0.597374 0.672945 0.289287
Si Si6 0.100158 0.171867 0.565702
Si Si7 0.774157 0.672261 0.650227
Si Si8 0.097399 0.168566 0.272655
O O1 0.500000 0.662144 0.940124
O O2 0.635509 0.500000 0.930568
O O3 0.625014 0.760188 0.883655
O O4 0.633877 0.714783 0.000000
O O5 0.100284 0.500000 0.059796
O O6 0.158308 0.270578 0.108623
O O7 0.000000 0.281198 0.069335
O O8 0.127915 0.275935 0.000000
O O9 0.258078 0.839802 0.816076
O O10 0.098567 0.808413 0.792779
O O11 0.145011 0.000000 0.864531
O O12 0.603823 0.251425 0.770746
O O13 0.606115 0.000000 0.825016
O O14 0.500000 0.701750 0.311361
O O15 0.605796 0.500000 0.280851
O O16 0.676383 0.715771 0.330413
O O17 0.111015 0.190983 0.500000
O O18 0.176692 0.251553 0.598905
O O19 0.000000 0.218488 0.578754
O O20 0.104577 0.000000 0.577610
O O21 0.774743 0.500000 0.642490
O O22 0.836291 0.722490 0.699980
O O23 0.000000 0.187214 0.294033
O O24 0.122683 0.000000 0.281952
#
# Coordination Sequence:
#
# PCOD9386276 Si02
#       8
#     8   8   8   8   8   8   8   8
#     4   9  19  36  55  73  96 130 170 212 269 346
#     4   9  19  35  52  70  93 124 167 219 271 323
#     4  10  21  35  50  71 101 134 171 215 265 327
#     4  11  22  35  53  78 106 134 173 230 286 334
#     4  10  22  40  59  79 109 151 194 234 282 344
#     4   9  19  37  61  89 124 167 204 229 266 325
#     4  11  22  35  56  87 118 148 189 240 283 319
#     4  10  20  35  54  75 107 150 185 217 267 331
#
# _framework density 18.522462000000001
#
# number of rings (size 3 to 8) (size 9 to 14) (size 15 to 20)
#    0.000    2.125    1.250    3.000    0.000    8.000 
#    0.000    4.375    0.000    0.375    0.000    2.625 
#    0.000    0.000    0.000    0.000    0.000    0.000 
#
# Total GULP energy -356750.838584 kJ/mol
# GULP energy per Si atom -5574.231853 kJ/mol
# Density = 1.848030 g / cm^3
# Si number density = 18.522462 Si / 1000 Ang^3
#
#
#
# Elastic Constant Matrix: (Units=GPa)
#
#
# Indices 1 2 3 4 5 6 
#
# 1 111.1976 38.2420 50.1934 0.0000 0.0000 0.0000
# 2 38.2420 49.1701 41.5924 0.0000 0.0000 0.0000
# 3 50.1934 41.5924 95.6066 0.0000 0.0000 0.0000
# 4 0.0000 0.0000 0.0000 30.9039 0.0000 0.0000
# 5 0.0000 0.0000 0.0000 0.0000 15.4097 0.0000
# 6 0.0000 0.0000 0.0000 0.0000 0.0000 15.5532
#
#
#
# Elastic Compliance Matrix: (Units=1/GPa)
#
#
# Indices 1 2 3 4 5 6 
#
# 1 0.013126 -0.006930 -0.003876 0.000000 0.000000 0.000000
# 2 -0.006930 0.035838 -0.011953 0.000000 0.000000 0.000000
# 3 -0.003876 -0.011953 0.017695 0.000000 0.000000 0.000000
# 4 0.000000 0.000000 0.000000 0.032358 0.000000 0.000000
# 5 0.000000 0.000000 0.000000 0.000000 0.064894 0.000000
# 6 0.000000 0.000000 0.000000 0.000000 0.000000 0.064296
#
#
# Mechanical properties :
#
#
# Convention : Reuss Voigt Hill
#
# Bulk Modulus (GPa) = 47.30230 57.33666 52.31948
# Shear Modulus (GPa) = 17.80810 20.76978 19.28894
#
# Velocity S-wave (km/s) = 3.10406 3.35226 3.23054
# Velocity P-wave (km/s) = 6.20001 6.78277 6.49793
#
# Compressibility (1/GPa) = 0.02114062
#
# Stress axis : x y z
#
# Youngs Moduli (GPa) = 76.18477 27.90353 56.51461
#
# Poissons Ratio (x) = 0.19336 0.21908
# Poissons Ratio (y) = 0.52794 0.67550
# Poissons Ratio (z) = 0.29533 0.33352
#
# Static dielectric constant tensor:
#      x y z
#    x 1.716320 0.000000 0.000000 
#    y 0.000000 1.641570 0.000000 
#    z 0.000000 0.000000 1.638960 
# 
# From -- ./inp_files/32133.got.cif
#   From: 2010.05.17/outbox.cif.g08.bks.cpg/sg47_17_cif.got.tgz:32133.got - 2010.06.03 20:15:42.
