data_PCOD9386013
_publ_section_title
;
Structure prediction by ZEFSAII (Michael W. Deem and Ramdas Pophale) SiO2 
 PCOD9386013
Probable space group: P M M M
;
_chemical_formula_sum "Si O2"
_cell_formula_units_Z 48
_cell_length_a 31.813743
_cell_length_b 9.157576
_cell_length_c 8.954814
_cell_angle_alpha 90.000000
_cell_angle_beta 90.000000
_cell_angle_gamma 90.000000
_cell_volume 2608.866581
_symmetry_space_group_name_H-M "P M M M"
_symmetry_group_IT_number 47
_symmetry_cell_setting 'orthorhombic'
loop_
_space_group_symop_operation_xyz
x,y,z
-x,-y,z
x,-y,-z
-x,y,-z
-x,-y,-z
x,y,-z
-x,y,z
x,-y,z
loop_
_atom_site_type_symbol
_atom_site_label
_atom_site_fract_x
_atom_site_fract_y
_atom_site_fract_z
Si Si1 0.752143 0.828398 0.179711
Si Si2 0.585413 0.829710 0.680442
Si Si3 0.087386 0.174258 0.177654
Si Si4 0.500000 0.331704 0.681949
Si Si5 0.000000 0.822396 0.671987
Si Si6 0.665387 0.329484 0.820078
Si Si7 0.167630 0.328271 0.678463
O O1 0.708739 0.749750 0.223479
O O2 0.791748 0.753086 0.256568
O O3 0.750357 0.000000 0.215787
O O4 0.756626 0.814691 0.000000
O O5 0.587384 0.821639 0.500000
O O6 0.542282 0.751231 0.728920
O O7 0.625575 0.749163 0.747845
O O8 0.585008 0.000000 0.722685
O O9 0.042735 0.222586 0.245878
O O10 0.125927 0.258298 0.251464
O O11 0.092142 0.000000 0.206142
O O12 0.087324 0.195405 0.000000
O O13 0.500000 0.500000 0.730949
O O14 0.500000 0.331352 0.500000
O O15 0.000000 0.774954 0.500000
O O16 0.000000 0.000000 0.674063
O O17 0.666605 0.500000 0.778510
O O18 0.662003 0.320014 0.000000
O O19 0.166389 0.312074 0.500000
O O20 0.169943 0.500000 0.714740
#
# Coordination Sequence:
#
# PCOD9386013 Si02
#       7
#     8   8   8   4   4   8   8
#     4  10  21  38  60  83 106 137 178 221 267 322
#     4  10  20  34  54  80 109 142 181 224 270 322
#     4  10  20  35  57  84 112 144 184 227 271 323
#     4   9  17  31  52  77 106 141 180 224 274 325
#     4   9  17  31  54  83 114 147 182 224 274 323
#     4  10  21  37  57  81 110 144 180 220 269 323
#     4  11  24  39  55  79 111 145 181 223 271 321
#
# _framework density 18.398795
#
# number of rings (size 3 to 8) (size 9 to 14) (size 15 to 20)
#    0.000    2.000    0.000    3.500    0.000   10.000 
#    0.000    0.833    0.000    5.000    0.000    0.000 
#    0.000    0.000    0.000    0.000    0.000    0.000 
#
# Total GULP energy -268166.058361 kJ/mol
# GULP energy per Si atom -5586.792883 kJ/mol
# Density = 1.835692 g / cm^3
# Si number density = 18.398795 Si / 1000 Ang^3
#
#
#
# Elastic Constant Matrix: (Units=GPa)
#
#
# Indices 1 2 3 4 5 6 
#
# 1 234.1849 129.9192 66.7668 0.0000 0.0000 0.0000
# 2 129.9192 164.5126 67.1280 0.0000 0.0000 0.0000
# 3 66.7668 67.1280 38.5106 0.0000 0.0000 0.0000
# 4 0.0000 0.0000 0.0000 26.1836 0.0000 0.0000
# 5 0.0000 0.0000 0.0000 0.0000 39.6244 0.0000
# 6 0.0000 0.0000 0.0000 0.0000 0.000011901.9685
#
#
#
# Elastic Compliance Matrix: (Units=1/GPa)
#
#
# Indices 1 2 3 4 5 6 
#
# 1 0.008728 -0.002487 -0.010796 0.000000 0.000000 0.000000
# 2 -0.002487 0.021761 -0.033619 0.000000 0.000000 0.000000
# 3 -0.010796 -0.033619 0.103286 0.000000 0.000000 0.000000
# 4 0.000000 0.000000 0.000000 0.038192 0.000000 0.000000
# 5 0.000000 0.000000 0.000000 0.000000 0.025237 0.000000
# 6 0.000000 0.000000 0.000000 0.000000 0.000000 0.000084
#
#
# Mechanical properties :
#
#
# Convention : Reuss Voigt Hill
#
# Bulk Modulus (GPa) = 25.01889 107.20400 66.11145
# Shear Modulus (GPa) = 16.42482 2405.11491 1210.76986
#
# Velocity S-wave (km/s) = 2.99107 36.19463 25.68071
# Velocity P-wave (km/s) = 5.05532 42.48680 30.25462
#
# Compressibility (1/GPa) = 0.03996980
#
# Stress axis : x y z
#
# Youngs Moduli (GPa) = 114.57136 45.95390 9.68181
#
# Poissons Ratio (x) = 0.11431 0.10453
# Poissons Ratio (y) = 0.28499 0.32549
# Poissons Ratio (z) = 1.23696 1.54493
#
# Static dielectric constant tensor:
#      x y z
#    x 1.592280 0.000000 0.000000 
#    y 0.000000 1.616340 0.000000 
#    z 0.000000 0.000000 1.620040 
# 
# From -- ./inp_files/13849.got.cif
#   From: 2010.05.17/outbox.cif.g08.bks.cpg/sg47_7_cif.got.tgz:13849.got - 2010.06.03 20:15:42.
