data_PCOD9386669
_publ_section_title
;
Structure prediction by ZEFSAII (Michael W. Deem and Ramdas Pophale) SiO2 
 PCOD9386669
Probable space group: P M M M
;
_chemical_formula_sum "Si O2"
_cell_formula_units_Z 40
_cell_length_a 25.579662
_cell_length_b 7.501271
_cell_length_c 10.193256
_cell_angle_alpha 90.000000
_cell_angle_beta 90.000000
_cell_angle_gamma 90.000000
_cell_volume 1955.881724
_symmetry_space_group_name_H-M "P M M M"
_symmetry_group_IT_number 47
_symmetry_cell_setting 'orthorhombic'
loop_
_space_group_symop_operation_xyz
x,y,z
-x,-y,z
x,-y,-z
-x,y,-z
-x,-y,-z
x,y,-z
-x,y,z
x,-y,z
loop_
_atom_site_type_symbol
_atom_site_label
_atom_site_fract_x
_atom_site_fract_y
_atom_site_fract_z
Si Si1 0.439814 0.285267 0.000000
Si Si2 0.373470 0.206904 0.745729
Si Si3 0.056192 0.288437 0.658595
Si Si4 0.829616 0.714706 0.650715
Si Si5 0.736053 0.213192 0.850232
Si Si6 0.439579 0.780842 0.500000
O O1 0.409465 0.217754 0.873334
O O2 0.438231 0.500000 0.000000
O O3 0.500000 0.228306 0.000000
O O4 0.317161 0.285349 0.784042
O O5 0.407078 0.281478 0.626173
O O6 0.363941 0.000000 0.711286
O O7 0.056349 0.273278 0.500000
O O8 0.055506 0.500000 0.688921
O O9 0.113167 0.218024 0.697710
O O10 0.000000 0.214663 0.704940
O O11 0.819408 0.776503 0.500000
O O12 0.833381 0.500000 0.643358
O O13 0.784535 0.756352 0.753791
O O14 0.729447 0.000000 0.861136
O O15 0.742840 0.280278 0.000000
O O16 0.500000 0.723132 0.500000
O O17 0.441288 0.000000 0.500000
#
# Coordination Sequence:
#
# PCOD9386669 Si02
#       6
#     4   8   8   8   8   4
#     4  11  23  37  55  81 109 135 166 205 252 305
#     4  10  20  37  58  78 101 134 174 212 250 297
#     4   7  10  20  41  69 100 130 161 203 250 295
#     4   9  18  31  50  79 107 132 168 209 256 312
#     4  10  21  36  52  72  99 135 179 217 251 295
#     4   9  18  32  55  85 105 121 158 211 258 298
#
# _framework density 20.451136000000002
#
# number of rings (size 3 to 8) (size 9 to 14) (size 15 to 20)
#    0.000    2.800    1.000    2.700    1.400    3.200 
#    0.000    0.500    0.000    3.000    0.000    7.000 
#    0.000    0.000    0.000    0.000    0.000    0.000 
#
# Total GULP energy -222966.676090 kJ/mol
# GULP energy per Si atom -5574.166902 kJ/mol
# Density = 2.040459 g / cm^3
# Si number density = 20.451136 Si / 1000 Ang^3
#
#
#
# Elastic Constant Matrix: (Units=GPa)
#
#
# Indices 1 2 3 4 5 6 
#
# 1 251.3656 1.7643 110.0079 0.0000 0.0000 0.0000
# 2 1.7643 55.5875 -3.0118 0.0000 0.0000 0.0000
# 3 110.0079 -3.0118 145.1097 0.0000 0.0000 0.0000
# 4 0.0000 0.0000 0.0000 15.9766 0.0000 0.0000
# 5 0.0000 0.0000 0.0000 0.0000 15.4627 0.0000
# 6 0.0000 0.0000 0.0000 0.0000 0.0000 14.0694
#
#
#
# Elastic Compliance Matrix: (Units=1/GPa)
#
#
# Indices 1 2 3 4 5 6 
#
# 1 0.005964 -0.000435 -0.004530 0.000000 0.000000 0.000000
# 2 -0.000435 0.018042 0.000704 0.000000 0.000000 0.000000
# 3 -0.004530 0.000704 0.010340 0.000000 0.000000 0.000000
# 4 0.000000 0.000000 0.000000 0.062591 0.000000 0.000000
# 5 0.000000 0.000000 0.000000 0.000000 0.064672 0.000000
# 6 0.000000 0.000000 0.000000 0.000000 0.000000 0.071076
#
#
# Mechanical properties :
#
#
# Convention : Reuss Voigt Hill
#
# Bulk Modulus (GPa) = 38.72378 74.39817 56.56098
# Shear Modulus (GPa) = 20.01479 31.98858 26.00168
#
# Velocity S-wave (km/s) = 3.13175 3.95922 3.56955
# Velocity P-wave (km/s) = 5.66154 7.57351 6.68622
#
# Compressibility (1/GPa) = 0.02582393
#
# Stress axis : x y z
#
# Youngs Moduli (GPa) = 167.67339 55.42742 96.70807
#
# Poissons Ratio (x) = 0.02410 0.43812
# Poissons Ratio (y) = 0.07290 -0.06809
# Poissons Ratio (z) = 0.75961 -0.03902
#
# Static dielectric constant tensor:
#      x y z
#    x 1.758910 0.000000 0.000000 
#    y 0.000000 1.808440 0.000000 
#    z 0.000000 0.000000 1.970920 
# 
# From -- ./inp_files/12988.got.cif
#   From: 2010.05.17/outbox.cif.g08.bks.cpg/sg47_7_cif.got.tgz:12988.got - 2010.06.03 20:15:42.
