data_PCOD9386843
_publ_section_title
;
Structure prediction by ZEFSAII (Michael W. Deem and Ramdas Pophale) SiO2 
 PCOD9386843
Probable space group: P M M M
;
_chemical_formula_sum "Si O2"
_cell_formula_units_Z 36
_cell_length_a 10.824873
_cell_length_b 20.877246
_cell_length_c 7.676240
_cell_angle_alpha 90.000000
_cell_angle_beta 90.000000
_cell_angle_gamma 90.000000
_cell_volume 1734.780625
_symmetry_space_group_name_H-M "P M M M"
_symmetry_group_IT_number 47
_symmetry_cell_setting 'orthorhombic'
loop_
_space_group_symop_operation_xyz
x,y,z
-x,-y,z
x,-y,-z
-x,y,-z
-x,-y,-z
x,y,-z
-x,y,z
x,-y,z
loop_
_atom_site_type_symbol
_atom_site_label
_atom_site_fract_x
_atom_site_fract_y
_atom_site_fract_z
Si Si1 0.850784 0.431342 0.793775
Si Si2 0.725479 0.927446 0.298035
Si Si3 0.000000 0.922828 0.195114
Si Si4 0.142072 0.289635 0.214078
Si Si5 0.633139 0.205390 0.797197
O O1 0.806750 0.500000 0.720284
O O2 0.816537 0.361049 0.727559
O O3 0.000000 0.431784 0.780914
O O4 0.820922 0.431820 0.000000
O O5 0.691005 0.929171 0.500000
O O6 0.870254 0.908296 0.283397
O O7 0.650544 0.870949 0.210795
O O8 0.711551 0.000000 0.227135
O O9 0.000000 0.000000 0.183469
O O10 0.000000 0.894907 0.000000
O O11 0.244573 0.239384 0.275284
O O12 0.000000 0.276993 0.269118
O O13 0.138235 0.289645 0.000000
O O14 0.500000 0.222504 0.718445
O O15 0.629517 0.224023 0.000000
#
# Coordination Sequence:
#
# PCOD9386843 Si02
#       5
#     8   8   4   8   8
#     4   7   9  15  31  57  87 117 151 192 236 283
#     4  10  21  36  53  73  97 125 161 205 251 297
#     4   9  17  31  53  79 103 125 150 187 240 295
#     4   8  14  25  42  64  90 123 162 200 241 292
#     4  10  21  34  48  69  97 129 165 208 255 298
#
# _framework density 20.751904
#
# number of rings (size 3 to 8) (size 9 to 14) (size 15 to 20)
#    0.000    3.222    0.000    3.000    1.556    3.556 
#    0.000    2.222    0.000    0.667    0.000    4.667 
#    0.000    0.889    0.000    7.556    0.000    6.667 
#
# Total GULP energy -200450.040827 kJ/mol
# GULP energy per Si atom -5568.056690 kJ/mol
# Density = 2.070467 g / cm^3
# Si number density = 20.751904 Si / 1000 Ang^3
#
#
#
# Elastic Constant Matrix: (Units=GPa)
#
#
# Indices 1 2 3 4 5 6 
#
# 1 110.6208 72.3952 1.3827 0.0000 0.0000 0.0000
# 2 72.3952 133.9903 0.2475 0.0000 0.0000 0.0000
# 3 1.3827 0.2475 35.6153 0.0000 0.0000 0.0000
# 4 0.0000 0.0000 0.0000 -25.6937 0.0000 0.0000
# 5 0.0000 0.0000 0.0000 0.0000 -5.8437 0.0000
# 6 0.0000 0.0000 0.0000 0.0000 0.0000 0.5746
#
#
#
# Elastic Compliance Matrix: (Units=1/GPa)
#
#
# Indices 1 2 3 4 5 6 
#
# 1 0.013994 -0.007560 -0.000491 0.000000 0.000000 0.000000
# 2 -0.007560 0.011547 0.000213 0.000000 0.000000 0.000000
# 3 -0.000491 0.000213 0.028095 0.000000 0.000000 0.000000
# 4 0.000000 0.000000 0.000000 -0.038920 0.000000 0.000000
# 5 0.000000 0.000000 0.000000 0.000000 -0.171125 0.000000
# 6 0.000000 0.000000 0.000000 0.000000 0.000000 1.740279
#
#
# Mechanical properties :
#
#
# Convention : Reuss Voigt Hill
#
# Bulk Modulus (GPa) = 26.34233 47.58636 36.96435
# Shear Modulus (GPa) = 3.10135 7.55419 5.32777
#
# Velocity S-wave (km/s) = 1.22382 1.91001 1.60404
# Velocity P-wave (km/s) = 3.83647 5.27684 4.61322
#
# Compressibility (1/GPa) = 0.03796172
#
# Stress axis : x y z
#
# Youngs Moduli (GPa) = 71.46173 86.59943 35.59301
#
# Poissons Ratio (x) = 0.65468 0.01747
# Poissons Ratio (y) = 0.54024 -0.00759
# Poissons Ratio (z) = 0.03507 -0.01847
#
# Static dielectric constant tensor:
#      x y z
#    x 1.738250 0.000000 0.000000 
#    y 0.000000 1.875730 0.000000 
#    z 0.000000 0.000000 1.787250 
# 
# From -- ./inp_files/3881.got.cif
#   From: 2010.05.17/outbox.cif.g08.bks.cpg/sg47_2_cif.got.tgz:3881.got - 2010.06.03 20:15:42.
