data_PCOD9386588
_publ_section_title
;
Structure prediction by ZEFSAII (Michael W. Deem and Ramdas Pophale) SiO2 
 PCOD9386588
Probable space group: P M M M
;
_chemical_formula_sum "Si O2"
_cell_formula_units_Z 56
_cell_length_a 19.719071
_cell_length_b 9.217448
_cell_length_c 17.767539
_cell_angle_alpha 90.000000
_cell_angle_beta 90.000000
_cell_angle_gamma 90.000000
_cell_volume 3229.419210
_symmetry_space_group_name_H-M "P M M M"
_symmetry_group_IT_number 47
_symmetry_cell_setting 'orthorhombic'
loop_
_space_group_symop_operation_xyz
x,y,z
-x,-y,z
x,-y,-z
-x,y,-z
-x,-y,-z
x,y,-z
-x,y,z
x,-y,z
loop_
_atom_site_type_symbol
_atom_site_label
_atom_site_fract_x
_atom_site_fract_y
_atom_site_fract_z
Si Si1 0.180355 0.325839 0.795698
Si Si2 0.920577 0.154000 0.500000
Si Si3 0.702820 0.667031 0.586616
Si Si4 0.582352 0.167258 0.000000
Si Si5 0.681916 0.826139 0.260300
Si Si6 0.138769 0.661797 0.628835
Si Si7 0.078865 0.826413 0.089550
Si Si8 0.418373 0.669914 0.847330
O O1 0.190873 0.500000 0.804399
O O2 0.252224 0.246034 0.780713
O O3 0.141015 0.302892 0.716707
O O4 0.134393 0.259597 0.861824
O O5 0.901192 0.233350 0.575852
O O6 0.000000 0.139968 0.500000
O O7 0.884243 0.000000 0.500000
O O8 0.687770 0.707932 0.500000
O O9 0.679152 0.500000 0.598684
O O10 0.678604 0.771227 0.653297
O O11 0.784009 0.663318 0.598437
O O12 0.602673 0.255378 0.074099
O O13 0.500000 0.162879 0.000000
O O14 0.606185 0.000000 0.000000
O O15 0.617316 0.761022 0.217585
O O16 0.685778 0.000000 0.256306
O O17 0.111698 0.500000 0.619628
O O18 0.000000 0.788666 0.108332
O O19 0.086514 0.000000 0.101969
O O20 0.087616 0.800313 0.000000
O O21 0.500000 0.677363 0.842111
O O22 0.399040 0.500000 0.845038
#
# Coordination Sequence:
#
# PCOD9386588 Si02
#       8
#     8   4   8   4   8   8   8   8
#     4  10  21  37  56  79 108 139 180 228 273 324
#     4  11  23  33  43  67 101 133 168 211 258 313
#     4   9  17  33  56  78 103 135 174 219 267 321
#     4   9  17  31  53  81 111 143 180 221 266 317
#     4  11  22  35  54  83 115 145 182 227 277 327
#     4   9  18  34  52  70  94 130 170 210 259 312
#     4   9  19  37  59  81 107 140 177 220 275 335
#     4  10  20  36  58  82 112 151 191 228 269 322
#
# _framework density 17.340579999999999
#
# number of rings (size 3 to 8) (size 9 to 14) (size 15 to 20)
#    0.000    2.286    0.714    3.857    0.000    6.571 
#    1.286    3.571    0.000    0.429    0.000    3.000 
#    0.000    0.000    0.000    0.000    0.000    0.000 
#
# Total GULP energy -312144.893895 kJ/mol
# GULP energy per Si atom -5574.015962 kJ/mol
# Density = 1.730111 g / cm^3
# Si number density = 17.340580 Si / 1000 Ang^3
#
#
#
# Elastic Constant Matrix: (Units=GPa)
#
#
# Indices 1 2 3 4 5 6 
#
# 1 33.5860 44.3550 39.6742 0.0000 0.0000 0.0000
# 2 44.3550 117.9358 73.4377 0.0000 0.0000 0.0000
# 3 39.6742 73.4377 113.8000 0.0000 0.0000 0.0000
# 4 0.0000 0.0000 0.0000 48.6706 0.0000 0.0000
# 5 0.0000 0.0000 0.0000 0.0000 828.5710 0.0000
# 6 0.0000 0.0000 0.0000 0.0000 0.0000 24.1004
#
#
#
# Elastic Compliance Matrix: (Units=1/GPa)
#
#
# Indices 1 2 3 4 5 6 
#
# 1 0.067707 -0.017998 -0.011990 0.000000 0.000000 0.000000
# 2 -0.017998 0.018960 -0.005960 0.000000 0.000000 0.000000
# 3 -0.011990 -0.005960 0.016814 0.000000 0.000000 0.000000
# 4 0.000000 0.000000 0.000000 0.020546 0.000000 0.000000
# 5 0.000000 0.000000 0.000000 0.000000 0.001207 0.000000
# 6 0.000000 0.000000 0.000000 0.000000 0.000000 0.041493
#
#
# Mechanical properties :
#
#
# Convention : Reuss Voigt Hill
#
# Bulk Modulus (GPa) = 31.66247 64.47285 48.06766
# Shear Modulus (GPa) = 20.06813 187.45872 103.76342
#
# Velocity S-wave (km/s) = 3.40559 10.40859 7.74393
# Velocity P-wave (km/s) = 5.81058 13.48009 10.37968
#
# Compressibility (1/GPa) = 0.03158313
#
# Stress axis : x y z
#
# Youngs Moduli (GPa) = 14.76959 52.74368 59.47455
#
# Poissons Ratio (x) = 0.94927 0.71311
# Poissons Ratio (y) = 0.26582 0.35449
# Poissons Ratio (z) = 0.17709 0.31438
#
# Static dielectric constant tensor:
#      x y z
#    x 1.580010 0.000000 0.000000 
#    y 0.000000 1.614520 0.000000 
#    z 0.000000 0.000000 1.540040 
# 
# From -- ./inp_files/25167.got.cif
#   From: 2010.05.17/outbox.cif.g08.bks.cpg/sg47_13_cif.got.tgz:25167.got - 2010.06.03 20:15:42.
