data_PCOD9386886
_publ_section_title
;
Structure prediction by ZEFSAII (Michael W. Deem and Ramdas Pophale) SiO2 
 PCOD9386886
Probable space group: P M M M
;
_chemical_formula_sum "Si O2"
_cell_formula_units_Z 64
_cell_length_a 24.614414
_cell_length_b 15.398789
_cell_length_c 7.852758
_cell_angle_alpha 90.000000
_cell_angle_beta 90.000000
_cell_angle_gamma 90.000000
_cell_volume 2976.447886
_symmetry_space_group_name_H-M "P M M M"
_symmetry_group_IT_number 47
_symmetry_cell_setting 'orthorhombic'
loop_
_space_group_symop_operation_xyz
x,y,z
-x,-y,z
x,-y,-z
-x,y,-z
-x,-y,-z
x,y,-z
-x,y,z
x,-y,z
loop_
_atom_site_type_symbol
_atom_site_label
_atom_site_fract_x
_atom_site_fract_y
_atom_site_fract_z
Si Si1 0.822468 0.216209 0.201566
Si Si2 0.397688 0.096436 0.198686
Si Si3 0.939211 0.215781 0.209330
Si Si4 0.065050 0.408987 0.805089
Si Si5 0.440767 0.725048 0.205282
Si Si6 0.277033 0.098075 0.301122
Si Si7 0.656172 0.597552 0.295372
Si Si8 0.779654 0.599306 0.705942
O O1 0.880890 0.176589 0.259245
O O2 0.771165 0.165634 0.275553
O O3 0.815764 0.319558 0.236174
O O4 0.820323 0.204923 0.000000
O O5 0.429500 0.177918 0.273144
O O6 0.333412 0.117715 0.207547
O O7 0.405433 0.000000 0.273971
O O8 0.412930 0.090809 0.000000
O O9 0.930579 0.314523 0.274037
O O10 0.000000 0.185469 0.261394
O O11 0.940677 0.217941 0.000000
O O12 0.084233 0.500000 0.724197
O O13 0.000000 0.415853 0.819243
O O14 0.086323 0.405849 0.000000
O O15 0.500000 0.693451 0.263919
O O16 0.390507 0.663979 0.248613
O O17 0.442020 0.729621 0.000000
O O18 0.291078 0.097592 0.500000
O O19 0.259900 0.000000 0.251144
O O20 0.659087 0.595327 0.500000
O O21 0.643289 0.500000 0.234693
O O22 0.717499 0.618832 0.237705
O O23 0.781401 0.598474 0.500000
O O24 0.792254 0.500000 0.762752
#
# Coordination Sequence:
#
# PCOD9386886 Si02
#       8
#     8   8   8   8   8   8   8   8
#     4  11  21  31  51  82 109 133 166 214 265 310
#     4   9  18  34  56  80 106 135 167 206 251 300
#     4   8  15  27  41  62  96 134 167 200 245 301
#     4   7   9  15  29  48  73 110 152 187 219 260
#     4  10  21  34  49  75 109 141 172 206 250 305
#     4  10  21  37  57  79 103 133 169 210 260 318
#     4   9  19  36  55  72  93 130 180 225 262 300
#     4   9  19  36  55  75 104 142 179 216 262 314
#
# _framework density 21.502139
#
# number of rings (size 3 to 8) (size 9 to 14) (size 15 to 20)
#    0.000    2.875    0.000    3.375    0.000    5.500 
#    0.000    5.000    0.000    1.875    0.000    6.125 
#    0.000    0.000    0.000    0.000    0.000    0.000 
#
# Total GULP energy -356530.405935 kJ/mol
# GULP energy per Si atom -5570.787593 kJ/mol
# Density = 2.145320 g / cm^3
# Si number density = 21.502139 Si / 1000 Ang^3
#
#
#
# Elastic Constant Matrix: (Units=GPa)
#
#
# Indices 1 2 3 4 5 6 
#
# 1 114.6887 38.4668 -0.8193 0.0000 0.0000 0.0000
# 2 38.4668 45.6324 0.1354 0.0000 0.0000 0.0000
# 3 -0.8193 0.1354 27.8002 0.0000 0.0000 0.0000
# 4 0.0000 0.0000 0.0000 18.2501 0.0000 0.0000
# 5 0.0000 0.0000 0.0000 0.0000 65.1362 0.0000
# 6 0.0000 0.0000 0.0000 0.0000 0.0000 -1.7049
#
#
#
# Elastic Compliance Matrix: (Units=1/GPa)
#
#
# Indices 1 2 3 4 5 6 
#
# 1 0.012161 -0.010253 0.000408 0.000000 0.000000 0.000000
# 2 -0.010253 0.030558 -0.000451 0.000000 0.000000 0.000000
# 3 0.000408 -0.000451 0.035985 0.000000 0.000000 0.000000
# 4 0.000000 0.000000 0.000000 0.054794 0.000000 0.000000
# 5 0.000000 0.000000 0.000000 0.000000 0.015352 0.000000
# 6 0.000000 0.000000 0.000000 0.000000 0.000000 -0.586554
#
#
# Mechanical properties :
#
#
# Convention : Reuss Voigt Hill
#
# Bulk Modulus (GPa) = 17.20756 29.29857 23.25306
# Shear Modulus (GPa) = -12.57099 26.35884 6.89393
#
# Velocity S-wave (km/s) = -2.42055 3.50504 1.79252
# Velocity P-wave (km/s) = 0.45606 5.48050 3.88869
#
# Compressibility (1/GPa) = 0.05811398
#
# Stress axis : x y z
#
# Youngs Moduli (GPa) = 82.23083 32.72445 27.78922
#
# Poissons Ratio (x) = 0.33551 -0.01135
# Poissons Ratio (y) = 0.84307 0.01253
# Poissons Ratio (z) = -0.03358 0.01476
#
# Static dielectric constant tensor:
#      x y z
#    x 1.808630 0.000000 0.000000 
#    y 0.000000 1.899910 0.000000 
#    z 0.000000 0.000000 1.808150 
# 
# From -- ./inp_files/12685.got.cif
#   From: 2010.05.17/outbox.cif.g08.bks.cpg/sg47_7_cif.got.tgz:12685.got - 2010.06.03 20:15:42.
