data_PCOD9386104
_publ_section_title
;
Structure prediction by ZEFSAII (Michael W. Deem and Ramdas Pophale) SiO2 
 PCOD9386104
Probable space group: P M M M
;
_chemical_formula_sum "Si O2"
_cell_formula_units_Z 56
_cell_length_a 13.843606
_cell_length_b 21.530849
_cell_length_c 9.681707
_cell_angle_alpha 90.000000
_cell_angle_beta 90.000000
_cell_angle_gamma 90.000000
_cell_volume 2885.774031
_symmetry_space_group_name_H-M "P M M M"
_symmetry_group_IT_number 47
_symmetry_cell_setting 'orthorhombic'
loop_
_space_group_symop_operation_xyz
x,y,z
-x,-y,z
x,-y,-z
-x,y,-z
-x,-y,-z
x,y,-z
-x,y,z
x,-y,z
loop_
_atom_site_type_symbol
_atom_site_label
_atom_site_fract_x
_atom_site_fract_y
_atom_site_fract_z
Si Si1 0.111330 0.303940 0.338972
Si Si2 0.382076 0.882897 0.840749
Si Si3 0.117687 0.814921 0.157498
Si Si4 0.617968 0.000000 0.341462
Si Si5 0.882046 0.929403 0.342055
Si Si6 0.299401 0.630137 0.663554
Si Si7 0.383636 0.742213 0.159710
Si Si8 0.611879 0.500000 0.668063
O O1 0.117317 0.284154 0.500000
O O2 0.141921 0.246737 0.242807
O O3 0.184700 0.360432 0.320187
O O4 0.000000 0.319525 0.309996
O O5 0.500000 0.882989 0.839999
O O6 0.351771 0.937804 0.738976
O O7 0.352837 0.812582 0.801839
O O8 0.353568 0.895108 0.000000
O O9 0.149950 0.876963 0.235765
O O10 0.000000 0.816693 0.155735
O O11 0.150870 0.812430 0.000000
O O12 0.500000 0.000000 0.341805
O O13 0.649808 0.000000 0.500000
O O14 0.853423 0.915030 0.500000
O O15 0.000000 0.928879 0.340915
O O16 0.853144 0.000000 0.308393
O O17 0.321945 0.635446 0.500000
O O18 0.346411 0.687634 0.743483
O O19 0.337342 0.563657 0.713296
O O20 0.500000 0.741628 0.164424
O O21 0.355055 0.731629 0.000000
O O22 0.500000 0.500000 0.709649
O O23 0.615191 0.500000 0.500000
#
# Coordination Sequence:
#
# PCOD9386104 Si02
#       8
#     8   8   8   4   8   8   8   4
#     4   9  18  33  51  72 101 136 176 222 267 313
#     4   8  14  25  40  59  89 131 172 207 251 310
#     4   9  16  25  40  64  92 124 165 214 267 318
#     4   9  15  21  33  59  93 127 168 217 260 299
#     4   8  13  21  34  55  86 124 164 207 260 322
#     4  10  20  34  55  81 106 140 181 216 258 315
#     4   9  18  32  50  75 107 140 175 217 264 314
#     4   9  18  34  56  84 118 147 171 207 258 315
#
# _framework density 19.405539000000001
#
# number of rings (size 3 to 8) (size 9 to 14) (size 15 to 20)
#    0.000    3.143    0.000    2.357    0.000    4.857 
#    0.000    3.571    0.000    3.429    1.857    0.000 
#    0.000    3.429    0.000    0.000    0.000    0.000 
#
# Total GULP energy -312666.096681 kJ/mol
# GULP energy per Si atom -5583.323155 kJ/mol
# Density = 1.936137 g / cm^3
# Si number density = 19.405539 Si / 1000 Ang^3
#
#
#
# Elastic Constant Matrix: (Units=GPa)
#
#
# Indices 1 2 3 4 5 6 
#
# 1 77.8788 62.8521 43.2547 0.0000 0.0000 0.0000
# 2 62.8521 186.6175 97.1188 0.0000 0.0000 0.0000
# 3 43.2547 97.1188 86.7209 0.0000 0.0000 0.0000
# 4 0.0000 0.0000 0.0000 18.2453 0.0000 0.0000
# 5 0.0000 0.0000 0.0000 0.0000 12.0798 0.0000
# 6 0.0000 0.0000 0.0000 0.0000 0.0000 33.4655
#
#
#
# Elastic Compliance Matrix: (Units=1/GPa)
#
#
# Indices 1 2 3 4 5 6 
#
# 1 0.018644 -0.003451 -0.005434 0.000000 0.000000 0.000000
# 2 -0.003451 0.013483 -0.013379 0.000000 0.000000 0.000000
# 3 -0.005434 -0.013379 0.029225 0.000000 0.000000 0.000000
# 4 0.000000 0.000000 0.000000 0.054809 0.000000 0.000000
# 5 0.000000 0.000000 0.000000 0.000000 0.082783 0.000000
# 6 0.000000 0.000000 0.000000 0.000000 0.000000 0.029882
#
#
# Mechanical properties :
#
#
# Convention : Reuss Voigt Hill
#
# Bulk Modulus (GPa) = 59.44012 84.18537 71.81275
# Shear Modulus (GPa) = 17.92362 22.62421 20.27391
#
# Velocity S-wave (km/s) = 3.04243 3.41818 3.23576
# Velocity P-wave (km/s) = 6.56040 7.68472 7.14471
#
# Compressibility (1/GPa) = 0.01682365
#
# Stress axis : x y z
#
# Youngs Moduli (GPa) = 53.63663 74.16541 34.21770
#
# Poissons Ratio (x) = 0.25595 0.18595
# Poissons Ratio (y) = 0.18510 0.45779
# Poissons Ratio (z) = 0.29148 0.99224
#
# Static dielectric constant tensor:
#      x y z
#    x 1.749220 0.000000 0.000000 
#    y 0.000000 1.629950 0.000000 
#    z 0.000000 0.000000 1.649180 
# 
# From -- ./inp_files/7457.got.cif
#   From: 2010.05.17/outbox.cif.g08.bks.cpg/sg47_4_cif.got.tgz:7457.got - 2010.06.03 20:15:42.
