data_PCOD9386667
_publ_section_title
;
Structure prediction by ZEFSAII (Michael W. Deem and Ramdas Pophale) SiO2 
 PCOD9386667
Probable space group: P M M M
;
_chemical_formula_sum "Si O2"
_cell_formula_units_Z 52
_cell_length_a 13.076874
_cell_length_b 7.782262
_cell_length_c 28.789126
_cell_angle_alpha 90.000000
_cell_angle_beta 90.000000
_cell_angle_gamma 90.000000
_cell_volume 2929.801975
_symmetry_space_group_name_H-M "P M M M"
_symmetry_group_IT_number 47
_symmetry_cell_setting 'orthorhombic'
loop_
_space_group_symop_operation_xyz
x,y,z
-x,-y,z
x,-y,-z
-x,y,-z
-x,-y,-z
x,y,-z
-x,y,z
x,-y,z
loop_
_atom_site_type_symbol
_atom_site_label
_atom_site_fract_x
_atom_site_fract_y
_atom_site_fract_z
Si Si1 0.116546 0.706200 0.051614
Si Si2 0.384334 0.293514 0.317030
Si Si3 0.000000 0.295321 0.795528
Si Si4 0.123078 0.000000 0.554579
Si Si5 0.203755 0.203007 0.851833
Si Si6 0.000000 0.292570 0.309523
Si Si7 0.384451 0.793420 0.211503
Si Si8 0.810867 0.291321 0.376471
O O1 0.111064 0.500000 0.049704
O O2 0.188182 0.748060 0.094676
O O3 0.000000 0.768899 0.060736
O O4 0.147108 0.767363 0.000000
O O5 0.500000 0.227851 0.325467
O O6 0.388220 0.500000 0.318217
O O7 0.353792 0.243703 0.264654
O O8 0.298075 0.243823 0.353771
O O9 0.899002 0.246302 0.823748
O O10 0.000000 0.224095 0.743003
O O11 0.000000 0.500000 0.792430
O O12 0.166073 0.171045 0.579643
O O13 0.146654 0.000000 0.500000
O O14 0.000000 0.000000 0.560123
O O15 0.301527 0.276924 0.824636
O O16 0.214754 0.000000 0.850826
O O17 0.100877 0.248208 0.338760
O O18 0.000000 0.500000 0.306467
O O19 0.500000 0.726547 0.204827
O O20 0.388721 0.000000 0.206893
O O21 0.814487 0.500000 0.385023
#
# Coordination Sequence:
#
# PCOD9386667 Si02
#       8
#     8   8   4   4   8   4   8   8
#     4   9  18  33  52  71  93 127 169 212 263 319
#     4   9  18  33  55  82 109 141 183 222 261 318
#     4  11  21  33  48  70 106 141 167 203 260 322
#     4  11  24  40  59  87 113 145 194 233 275 332
#     4  11  21  32  47  74 104 132 170 211 258 315
#     4   9  18  32  50  74 104 143 178 209 260 318
#     4   9  19  34  50  73 107 144 177 212 256 308
#     4  10  20  37  57  82 115 145 181 230 279 324
#
# _framework density 17.748640000000002
#
# number of rings (size 3 to 8) (size 9 to 14) (size 15 to 20)
#    0.000    2.231    1.538    2.077    1.077    3.077 
#    2.769    1.538    0.000    1.385    0.000    5.385 
#    0.000    0.000    0.000    0.000    0.000    0.000 
#
# Total GULP energy -290013.681736 kJ/mol
# GULP energy per Si atom -5577.186187 kJ/mol
# Density = 1.770824 g / cm^3
# Si number density = 17.748640 Si / 1000 Ang^3
#
#
#
# Elastic Constant Matrix: (Units=GPa)
#
#
# Indices 1 2 3 4 5 6 
#
# 1 104.0958 24.1360 86.5581 0.0000 0.0000 0.0000
# 2 24.1360 45.5198 37.7165 0.0000 0.0000 0.0000
# 3 86.5581 37.7165 163.3698 0.0000 0.0000 0.0000
# 4 0.0000 0.0000 0.0000 29.1861 0.0000 0.0000
# 5 0.0000 0.0000 0.0000 0.0000 20.7393 0.0000
# 6 0.0000 0.0000 0.0000 0.0000 0.0000 -5.1110
#
#
#
# Elastic Compliance Matrix: (Units=1/GPa)
#
#
# Indices 1 2 3 4 5 6 
#
# 1 0.017311 -0.001953 -0.008721 0.000000 0.000000 0.000000
# 2 -0.001953 0.027385 -0.005288 0.000000 0.000000 0.000000
# 3 -0.008721 -0.005288 0.011962 0.000000 0.000000 0.000000
# 4 0.000000 0.000000 0.000000 0.034263 0.000000 0.000000
# 5 0.000000 0.000000 0.000000 0.000000 0.048218 0.000000
# 6 0.000000 0.000000 0.000000 0.000000 0.000000 -0.195657
#
#
# Mechanical properties :
#
#
# Convention : Reuss Voigt Hill
#
# Bulk Modulus (GPa) = 40.42752 67.75628 54.09190
# Shear Modulus (GPa) = -305.81827 19.93455 -142.94186
#
# Velocity S-wave (km/s) = -13.14075 3.35499 -8.98397
# Velocity P-wave (km/s) = 14.40180 7.29838 8.77911
#
# Compressibility (1/GPa) = 0.02473563
#
# Stress axis : x y z
#
# Youngs Moduli (GPa) = 57.76638 36.51627 83.59462
#
# Poissons Ratio (x) = 0.07131 0.72904
# Poissons Ratio (y) = 0.11281 0.44202
# Poissons Ratio (z) = 0.50379 0.19308
#
# Static dielectric constant tensor:
#      x y z
#    x 1.623550 0.000000 0.000000 
#    y 0.000000 1.634610 0.000000 
#    z 0.000000 0.000000 1.606450 
# 
# From -- ./inp_files/33644.got.cif
#   From: 2010.05.17/outbox.cif.g08.bks.cpg/sg47_17_cif.got.tgz:33644.got - 2010.06.03 20:15:42.
