data_PCOD9386208
_publ_section_title
;
Structure prediction by ZEFSAII (Michael W. Deem and Ramdas Pophale) SiO2 
 PCOD9386208
Probable space group: P M M M
;
_chemical_formula_sum "Si O2"
_cell_formula_units_Z 64
_cell_length_a 24.304997
_cell_length_b 8.966108
_cell_length_c 15.799737
_cell_angle_alpha 90.000000
_cell_angle_beta 90.000000
_cell_angle_gamma 90.000000
_cell_volume 3443.098090
_symmetry_space_group_name_H-M "P M M M"
_symmetry_group_IT_number 47
_symmetry_cell_setting 'orthorhombic'
loop_
_space_group_symop_operation_xyz
x,y,z
-x,-y,z
x,-y,-z
-x,y,-z
-x,-y,-z
x,y,-z
-x,y,z
x,-y,z
loop_
_atom_site_type_symbol
_atom_site_label
_atom_site_fract_x
_atom_site_fract_y
_atom_site_fract_z
Si Si1 0.437941 0.322132 0.852073
Si Si2 0.935300 0.179125 0.096993
Si Si3 0.677728 0.178972 0.594500
Si Si4 0.739994 0.678367 0.751990
Si Si5 0.326764 0.177286 0.905361
Si Si6 0.438990 0.823238 0.668099
Si Si7 0.064465 0.820620 0.402680
Si Si8 0.868702 0.321723 0.750077
O O1 0.500000 0.284651 0.881315
O O2 0.430964 0.500000 0.858545
O O3 0.388708 0.239380 0.898615
O O4 0.434234 0.270807 0.754129
O O5 0.898989 0.257878 0.167328
O O6 0.000000 0.213528 0.109917
O O7 0.929512 0.000000 0.104631
O O8 0.921049 0.220014 0.000000
O O9 0.694069 0.224939 0.500000
O O10 0.711401 0.258270 0.667968
O O11 0.612878 0.209386 0.609358
O O12 0.685043 0.000000 0.601672
O O13 0.734694 0.500000 0.753879
O O14 0.709204 0.746244 0.832996
O O15 0.804329 0.718460 0.752222
O O16 0.327515 0.000000 0.891429
O O17 0.305422 0.207328 0.000000
O O18 0.500000 0.797149 0.631336
O O19 0.435822 0.000000 0.690151
O O20 0.077972 0.779837 0.500000
O O21 0.102154 0.744152 0.333096
O O22 0.000000 0.783952 0.388165
O O23 0.069443 0.000000 0.395609
O O24 0.873284 0.500000 0.749020
#
# Coordination Sequence:
#
# PCOD9386208 Si02
#       8
#     8   8   8   8   8   8   8   8
#     4  10  20  34  56  86 118 150 183 224 280 346
#     4   9  19  37  61  89 120 153 189 229 276 334
#     4  10  21  37  59  86 114 148 192 238 286 343
#     4  11  25  43  59  79 113 155 196 240 289 340
#     4  11  24  41  62  86 111 144 190 242 293 345
#     4   9  17  31  54  83 115 148 182 227 282 339
#     4   9  19  37  61  89 120 154 193 236 282 334
#     4  11  24  38  56  85 118 153 194 238 286 341
#
# _framework density 18.587910000000001
#
# number of rings (size 3 to 8) (size 9 to 14) (size 15 to 20)
#    0.000    2.000    1.250    2.625    0.000    8.000 
#    0.000    8.750    0.000    0.000    0.000    2.625 
#    0.000    0.000    0.000    0.000    0.000    0.000 
#
# Total GULP energy -357429.227197 kJ/mol
# GULP energy per Si atom -5584.831675 kJ/mol
# Density = 1.854560 g / cm^3
# Si number density = 18.587910 Si / 1000 Ang^3
#
#
#
# Elastic Constant Matrix: (Units=GPa)
#
#
# Indices 1 2 3 4 5 6 
#
# 1 136.3116 61.8989 109.0016 0.0000 0.0000 0.0000
# 2 61.8989 45.9433 64.4469 0.0000 0.0000 0.0000
# 3 109.0016 64.4469 159.5453 0.0000 0.0000 0.0000
# 4 0.0000 0.0000 0.0000 -90.6945 0.0000 0.0000
# 5 0.0000 0.0000 0.0000 0.0000 -9.3244 0.0000
# 6 0.0000 0.0000 0.0000 0.0000 0.0000 98.7696
#
#
#
# Elastic Compliance Matrix: (Units=1/GPa)
#
#
# Indices 1 2 3 4 5 6 
#
# 1 0.021832 -0.019593 -0.007001 0.000000 0.000000 0.000000
# 2 -0.019593 0.067808 -0.014005 0.000000 0.000000 0.000000
# 3 -0.007001 -0.014005 0.016708 0.000000 0.000000 0.000000
# 4 0.000000 0.000000 0.000000 -0.011026 0.000000 0.000000
# 5 0.000000 0.000000 0.000000 0.000000 -0.107245 0.000000
# 6 0.000000 0.000000 0.000000 0.000000 0.000000 0.010125
#
#
# Mechanical properties :
#
#
# Convention : Reuss Voigt Hill
#
# Bulk Modulus (GPa) = 39.76025 90.27723 65.01874
# Shear Modulus (GPa) = 56.95949 6.84698 31.90324
#
# Velocity S-wave (km/s) = 5.54164 1.92134 4.14737
# Velocity P-wave (km/s) = 7.89831 7.32088 7.61507
#
# Compressibility (1/GPa) = 0.02515075
#
# Stress axis : x y z
#
# Youngs Moduli (GPa) = 45.80525 14.74749 59.85144
#
# Poissons Ratio (x) = 0.28894 0.41902
# Poissons Ratio (y) = 0.89745 0.83820
# Poissons Ratio (z) = 0.32069 0.20653
#
# Static dielectric constant tensor:
#      x y z
#    x 1.632310 0.000000 0.000000 
#    y 0.000000 1.617600 0.000000 
#    z 0.000000 0.000000 1.630020 
# 
# From -- ./inp_files/21913.got.cif
#   From: 2010.05.17/outbox.cif.g08.bks.cpg/sg47_11_cif.got.tgz:21913.got - 2010.06.03 20:15:42.
