data_PCOD9386838
_publ_section_title
;
Structure prediction by ZEFSAII (Michael W. Deem and Ramdas Pophale) SiO2 
 PCOD9386838
Probable space group: P M M M
;
_chemical_formula_sum "Si O2"
_cell_formula_units_Z 36
_cell_length_a 14.277322
_cell_length_b 7.270857
_cell_length_c 13.416830
_cell_angle_alpha 90.000000
_cell_angle_beta 90.000000
_cell_angle_gamma 90.000000
_cell_volume 1392.779207
_symmetry_space_group_name_H-M "P M M M"
_symmetry_group_IT_number 47
_symmetry_cell_setting 'orthorhombic'
loop_
_space_group_symop_operation_xyz
x,y,z
-x,-y,z
x,-y,-z
-x,y,-z
-x,-y,-z
x,y,-z
-x,y,z
x,-y,z
loop_
_atom_site_type_symbol
_atom_site_label
_atom_site_fract_x
_atom_site_fract_y
_atom_site_fract_z
Si Si1 0.600875 0.279002 0.380384
Si Si2 0.192830 0.722398 0.385810
Si Si3 0.701571 0.220627 0.881677
Si Si4 0.500000 0.777278 0.118930
Si Si5 0.101026 0.211490 0.809341
O O1 0.601351 0.243396 0.500000
O O2 0.500000 0.207930 0.342763
O O3 0.599962 0.500000 0.370375
O O4 0.703868 0.214036 0.347964
O O5 0.179999 0.780224 0.500000
O O6 0.193585 0.500000 0.385373
O O7 0.114516 0.786297 0.309700
O O8 0.600829 0.289242 0.841151
O O9 0.801251 0.295513 0.846019
O O10 0.701888 0.000000 0.865581
O O11 0.698910 0.250356 0.000000
O O12 0.500000 0.000000 0.124211
O O13 0.500000 0.733986 0.000000
O O14 0.000000 0.291422 0.836731
O O15 0.100311 0.000000 0.844611
#
# Coordination Sequence:
#
# PCOD9386838 Si02
#       5
#     8   8   8   4   8
#     4   7  10  20  41  66  88 111 144 188 234 278
#     4   9  18  33  52  71  92 125 169 209 242 283
#     4   8  14  27  48  72  97 126 159 194 236 289
#     4   7  10  20  42  70  96 121 152 192 235 281
#     4  10  21  34  47  69 101 131 161 202 249 290
#
# _framework density 25.8476
#
# number of rings (size 3 to 8) (size 9 to 14) (size 15 to 20)
#    0.000    3.667    0.000    3.333    0.000    1.778 
#    2.000    4.444    0.000    0.667    0.000    4.667 
#    0.000    2.667    0.000    0.000    0.000    0.000 
#
# Total GULP energy -201052.623700 kJ/mol
# GULP energy per Si atom -5584.795103 kJ/mol
# Density = 2.578877 g / cm^3
# Si number density = 25.847600 Si / 1000 Ang^3
#
#
#
# Elastic Constant Matrix: (Units=GPa)
#
#
# Indices 1 2 3 4 5 6 
#
# 1 281.8714 16.9567 47.0229 0.0000 0.0000 0.0000
# 2 16.9567 115.3183 3.1983 0.0000 0.0000 0.0000
# 3 47.0229 3.1983 56.5181 0.0000 0.0000 0.0000
# 4 0.0000 0.0000 0.0000 9.3971 0.0000 0.0000
# 5 0.0000 0.0000 0.0000 0.0000 21.9498 0.0000
# 6 0.0000 0.0000 0.0000 0.0000 0.0000 -1.6783
#
#
#
# Elastic Compliance Matrix: (Units=1/GPa)
#
#
# Indices 1 2 3 4 5 6 
#
# 1 0.004150 -0.000515 -0.003423 0.000000 0.000000 0.000000
# 2 -0.000515 0.008749 -0.000066 0.000000 0.000000 0.000000
# 3 -0.003423 -0.000066 0.020546 0.000000 0.000000 0.000000
# 4 0.000000 0.000000 0.000000 0.106415 0.000000 0.000000
# 5 0.000000 0.000000 0.000000 0.000000 0.045558 0.000000
# 6 0.000000 0.000000 0.000000 0.000000 0.000000 -0.595837
#
#
# Mechanical properties :
#
#
# Convention : Reuss Voigt Hill
#
# Bulk Modulus (GPa) = 39.31700 65.34041 52.32871
# Shear Modulus (GPa) = -12.69261 31.70239 9.50489
#
# Velocity S-wave (km/s) = -2.21838 3.50596 1.91970
# Velocity P-wave (km/s) = 2.94660 6.45933 5.02023
#
# Compressibility (1/GPa) = 0.02543429
#
# Stress axis : x y z
#
# Youngs Moduli (GPa) = 240.97357 114.29544 48.67235
#
# Poissons Ratio (x) = 0.05889 0.16663
# Poissons Ratio (y) = 0.12416 0.00323
# Poissons Ratio (z) = 0.82497 0.00759
#
# Static dielectric constant tensor:
#      x y z
#    x 2.050620 0.000000 0.000000 
#    y 0.000000 1.996420 0.000000 
#    z 0.000000 0.000000 2.054400 
# 
# From -- ./inp_files/23265.got.cif
#   From: 2010.05.17/outbox.cif.g08.bks.cpg/sg47_12_cif.got.tgz:23265.got - 2010.06.03 20:15:42.
