data_PCOD9386703
_publ_section_title
;
Structure prediction by ZEFSAII (Michael W. Deem and Ramdas Pophale) SiO2 
 PCOD9386703
Probable space group: P M M M
;
_chemical_formula_sum "Si O2"
_cell_formula_units_Z 64
_cell_length_a 7.527425
_cell_length_b 24.987891
_cell_length_c 15.388230
_cell_angle_alpha 90.000000
_cell_angle_beta 90.000000
_cell_angle_gamma 90.000000
_cell_volume 2894.441049
_symmetry_space_group_name_H-M "P M M M"
_symmetry_group_IT_number 47
_symmetry_cell_setting 'orthorhombic'
loop_
_space_group_symop_operation_xyz
x,y,z
-x,-y,z
x,-y,-z
-x,y,-z
-x,-y,-z
x,y,-z
-x,y,z
x,-y,z
loop_
_atom_site_type_symbol
_atom_site_label
_atom_site_fract_x
_atom_site_fract_y
_atom_site_fract_z
Si Si1 0.287902 0.435156 0.593000
Si Si2 0.207181 0.343574 0.902467
Si Si3 0.715245 0.561539 0.781439
Si Si4 0.784614 0.880201 0.595561
Si Si5 0.705952 0.754807 0.406032
Si Si6 0.704482 0.751145 0.780773
Si Si7 0.785606 0.060799 0.770904
Si Si8 0.288659 0.845703 0.901055
O O1 0.215827 0.415718 0.500000
O O2 0.500000 0.424873 0.591828
O O3 0.267489 0.500000 0.594075
O O4 0.221356 0.416925 0.687015
O O5 0.225476 0.401324 0.859247
O O6 0.296451 0.300629 0.840469
O O7 0.000000 0.329310 0.905191
O O8 0.278536 0.342235 0.000000
O O9 0.500000 0.561821 0.779194
O O10 0.771833 0.500000 0.791174
O O11 0.736921 0.902752 0.500000
O O12 0.714855 0.819544 0.598400
O O13 0.724100 0.912784 0.679917
O O14 0.000000 0.877274 0.598909
O O15 0.784863 0.739338 0.500000
O O16 0.500000 0.736885 0.408534
O O17 0.785627 0.738233 0.313446
O O18 0.500000 0.767056 0.762198
O O19 0.785270 0.799677 0.836816
O O20 0.736928 0.098395 0.851680
O O21 0.000000 0.059612 0.766983
O O22 0.722137 0.000000 0.779727
O O23 0.500000 0.835897 0.907638
O O24 0.218654 0.844403 0.000000
#
# Coordination Sequence:
#
# PCOD9386703 Si02
#       8
#     8   8   8   8   8   8   8   8
#     4   7  10  20  43  76 109 137 169 211 254 297
#     4  11  25  41  56  78 108 143 183 227 275 322
#     4   9  18  34  58  86 113 145 185 224 265 316
#     4   9  17  30  50  76 106 141 178 215 259 313
#     4   9  17  31  55  85 112 137 168 210 263 321
#     4  10  20  37  61  84 107 136 173 220 269 320
#     4  10  21  35  51  75 108 144 182 223 265 316
#     4  10  21  37  57  80 103 132 175 226 280 330
#
# _framework density 22.111350999999999
#
# number of rings (size 3 to 8) (size 9 to 14) (size 15 to 20)
#    0.000    2.625    1.250    1.875    0.000    4.000 
#    0.000    4.375    0.000    4.125    0.000    4.375 
#    0.000    0.000    0.000    0.000    0.000    0.000 
#
# Total GULP energy -357070.742179 kJ/mol
# GULP energy per Si atom -5579.230347 kJ/mol
# Density = 2.206102 g / cm^3
# Si number density = 22.111351 Si / 1000 Ang^3
#
#
#
# Elastic Constant Matrix: (Units=GPa)
#
#
# Indices 1 2 3 4 5 6 
#
# 1 58.8887 -8.6054 7.5383 0.0000 0.0000 0.0000
# 2 -8.6054 52.4033 54.4558 0.0000 0.0000 0.0000
# 3 7.5383 54.4558 236.8638 0.0000 0.0000 0.0000
# 4 0.0000 0.0000 0.0000 142.1284 0.0000 0.0000
# 5 0.0000 0.0000 0.0000 0.0000 17.9664 0.0000
# 6 0.0000 0.0000 0.0000 0.0000 0.0000 18.0550
#
#
#
# Elastic Compliance Matrix: (Units=1/GPa)
#
#
# Indices 1 2 3 4 5 6 
#
# 1 0.017867 0.004631 -0.001633 0.000000 0.000000 0.000000
# 2 0.004631 0.026273 -0.006188 0.000000 0.000000 0.000000
# 3 -0.001633 -0.006188 0.005696 0.000000 0.000000 0.000000
# 4 0.000000 0.000000 0.000000 0.007036 0.000000 0.000000
# 5 0.000000 0.000000 0.000000 0.000000 0.055659 0.000000
# 6 0.000000 0.000000 0.000000 0.000000 0.000000 0.055386
#
#
# Mechanical properties :
#
#
# Convention : Reuss Voigt Hill
#
# Bulk Modulus (GPa) = 23.01102 50.54813 36.77957
# Shear Modulus (GPa) = 26.48533 55.28110 40.88322
#
# Velocity S-wave (km/s) = 3.46470 5.00555 4.30463
# Velocity P-wave (km/s) = 5.14150 7.50451 6.43245
#
# Compressibility (1/GPa) = 0.04345745
#
# Stress axis : x y z
#
# Youngs Moduli (GPa) = 55.96885 38.06129 175.54944
#
# Poissons Ratio (x) = -0.17628 0.28674
# Poissons Ratio (y) = -0.25922 1.08625
# Poissons Ratio (z) = 0.09142 0.23551
#
# Static dielectric constant tensor:
#      x y z
#    x 1.901800 0.000000 0.000000 
#    y 0.000000 1.779630 0.000000 
#    z 0.000000 0.000000 1.851340 
# 
# From -- ./inp_files/21921.got.cif
#   From: 2010.05.17/outbox.cif.g08.bks.cpg/sg47_11_cif.got.tgz:21921.got - 2010.06.03 20:15:42.
