data_PCOD9386839
_publ_section_title
;
Structure prediction by ZEFSAII (Michael W. Deem and Ramdas Pophale) SiO2 
 PCOD9386839
Probable space group: P M M M
;
_chemical_formula_sum "Si O2"
_cell_formula_units_Z 56
_cell_length_a 15.667346
_cell_length_b 8.079010
_cell_length_c 21.145817
_cell_angle_alpha 90.000000
_cell_angle_beta 90.000000
_cell_angle_gamma 90.000000
_cell_volume 2676.566572
_symmetry_space_group_name_H-M "P M M M"
_symmetry_group_IT_number 47
_symmetry_cell_setting 'orthorhombic'
loop_
_space_group_symop_operation_xyz
x,y,z
-x,-y,z
x,-y,-z
-x,y,-z
-x,-y,-z
x,y,-z
-x,y,z
x,-y,z
loop_
_atom_site_type_symbol
_atom_site_label
_atom_site_fract_x
_atom_site_fract_y
_atom_site_fract_z
Si Si1 0.175304 0.308693 0.567859
Si Si2 0.098202 0.200019 0.834075
Si Si3 0.601497 0.188105 0.295669
Si Si4 0.246977 0.697806 0.928122
Si Si5 0.401714 0.799648 0.159307
Si Si6 0.102120 0.812052 0.696468
Si Si7 0.362260 0.191581 0.568368
O O1 0.129809 0.278580 0.500000
O O2 0.203004 0.500000 0.567640
O O3 0.125489 0.278333 0.632127
O O4 0.259972 0.198925 0.568128
O O5 0.165231 0.246692 0.887507
O O6 0.128932 0.260045 0.764468
O O7 0.000000 0.255505 0.845809
O O8 0.095750 0.000000 0.829426
O O9 0.500000 0.174364 0.287962
O O10 0.629586 0.262862 0.228713
O O11 0.614641 0.269727 0.364039
O O12 0.637765 0.000000 0.299886
O O13 0.246230 0.500000 0.930085
O O14 0.333826 0.751805 0.893367
O O15 0.243374 0.762004 0.000000
O O16 0.500000 0.745321 0.147294
O O17 0.403425 0.000000 0.163789
O O18 0.000000 0.819448 0.700857
O O19 0.135512 0.000000 0.691026
O O20 0.390385 0.262233 0.500000
O O21 0.392196 0.000000 0.569602
#
# Coordination Sequence:
#
# PCOD9386839 Si02
#       7
#     8   8   8   8   8   8   8
#     4  10  21  34  47  69 105 145 182 222 268 319
#     4   9  20  40  64  89 116 147 187 235 283 335
#     4   8  15  29  50  77 105 133 172 224 276 320
#     4  11  25  41  58  86 121 154 187 226 280 343
#     4   9  19  37  60  85 114 150 194 243 288 331
#     4   9  19  36  57  80 104 133 174 224 275 323
#     4   9  17  29  47  72 102 138 179 222 269 319
#
# _framework density 20.922326999999999
#
# number of rings (size 3 to 8) (size 9 to 14) (size 15 to 20)
#    0.000    2.714    0.000    2.571    2.000    4.571 
#    0.000    7.143    0.000    1.286    0.000    2.000 
#    0.000    0.000    0.000    0.000    0.000    0.000 
#
# Total GULP energy -311991.442035 kJ/mol
# GULP energy per Si atom -5571.275751 kJ/mol
# Density = 2.087471 g / cm^3
# Si number density = 20.922327 Si / 1000 Ang^3
#
#
#
# Elastic Constant Matrix: (Units=GPa)
#
#
# Indices 1 2 3 4 5 6 
#
# 1 77.9422 9.4975 80.1065 0.0000 0.0000 0.0000
# 2 9.4975 27.5412 21.3443 0.0000 0.0000 0.0000
# 3 80.1065 21.3443 237.3826 0.0000 0.0000 0.0000
# 4 0.0000 0.0000 0.0000 25.1210 0.0000 0.0000
# 5 0.0000 0.0000 0.0000 0.0000 48.1575 0.0000
# 6 0.0000 0.0000 0.0000 0.0000 0.0000 118.2357
#
#
#
# Elastic Compliance Matrix: (Units=1/GPa)
#
#
# Indices 1 2 3 4 5 6 
#
# 1 0.019722 -0.001766 -0.006497 0.000000 0.000000 0.000000
# 2 -0.001766 0.039187 -0.002927 0.000000 0.000000 0.000000
# 3 -0.006497 -0.002927 0.006668 0.000000 0.000000 0.000000
# 4 0.000000 0.000000 0.000000 0.039807 0.000000 0.000000
# 5 0.000000 0.000000 0.000000 0.000000 0.020765 0.000000
# 6 0.000000 0.000000 0.000000 0.000000 0.000000 0.008458
#
#
# Mechanical properties :
#
#
# Convention : Reuss Voigt Hill
#
# Bulk Modulus (GPa) = 23.14991 62.75140 42.95065
# Shear Modulus (GPa) = 29.17369 53.76403 41.46886
#
# Velocity S-wave (km/s) = 3.73819 5.07472 4.45684
# Velocity P-wave (km/s) = 5.45168 8.02463 6.85986
#
# Compressibility (1/GPa) = 0.04319672
#
# Stress axis : x y z
#
# Youngs Moduli (GPa) = 50.70412 25.51862 149.96650
#
# Poissons Ratio (x) = 0.04507 0.97427
# Poissons Ratio (y) = 0.08956 0.43902
# Poissons Ratio (z) = 0.32940 0.07470
#
# Static dielectric constant tensor:
#      x y z
#    x 1.730490 0.000000 0.000000 
#    y 0.000000 1.773180 0.000000 
#    z 0.000000 0.000000 1.821120 
# 
# From -- ./inp_files/30961.got.cif
#   From: 2010.05.17/outbox.cif.g08.bks.cpg/sg47_16_cif.got.tgz:30961.got - 2010.06.03 20:15:42.
