data_PCOD9386722
_publ_section_title
;
Structure prediction by ZEFSAII (Michael W. Deem and Ramdas Pophale) SiO2 
 PCOD9386722
Probable space group: P M M M
;
_chemical_formula_sum "Si O2"
_cell_formula_units_Z 33
_cell_length_a 22.883576
_cell_length_b 9.803775
_cell_length_c 7.509373
_cell_angle_alpha 90.000000
_cell_angle_beta 90.000000
_cell_angle_gamma 90.000000
_cell_volume 1684.693517
_symmetry_space_group_name_H-M "P M M M"
_symmetry_group_IT_number 47
_symmetry_cell_setting 'orthorhombic'
loop_
_space_group_symop_operation_xyz
x,y,z
-x,-y,z
x,-y,-z
-x,y,-z
-x,-y,-z
x,y,-z
-x,y,z
x,-y,z
loop_
_atom_site_type_symbol
_atom_site_label
_atom_site_fract_x
_atom_site_fract_y
_atom_site_fract_z
Si Si1 0.500000 0.500000 0.500000
Si Si2 0.500000 0.732391 0.196444
Si Si3 0.160878 0.161271 0.711794
Si Si4 0.272114 0.343632 0.282855
Si Si5 0.376313 0.848484 0.715689
Si Si6 0.933897 0.834969 0.000000
O O1 0.500000 0.618363 0.346226
O O2 0.558650 0.820262 0.218937
O O3 0.500000 0.671819 0.000000
O O4 0.151084 0.177569 0.500000
O O5 0.215910 0.253546 0.765741
O O6 0.173230 0.000000 0.743212
O O7 0.104464 0.201035 0.827072
O O8 0.273393 0.345709 0.500000
O O9 0.269055 0.500000 0.222664
O O10 0.330789 0.266506 0.224147
O O11 0.377676 0.843636 0.500000
O O12 0.356385 0.000000 0.767447
O O13 0.000000 0.781446 0.000000
O O14 0.937616 0.000000 0.000000
#
# Coordination Sequence:
#
# PCOD9386722 Si02
#       6
#     1   4   8   8   8   4
#     4  12  26  48  66  86 128 160 192 256 306 366
#     4  12  26  42  66  91 118 161 203 248 301 365
#     4   9  17  32  54  80 111 146 187 235 285 337
#     4   9  18  32  56  84 114 153 196 240 292 352
#     4  10  20  37  62  89 121 159 199 247 305 357
#     4   9  18  32  53  83 115 146 185 232 281 337
#
# _framework density 19.588132000000002
#
# number of rings (size 3 to 8) (size 9 to 14) (size 15 to 20)
#    0.000    2.303    1.212    1.273    1.697    5.333 
#    2.182    3.030    0.000    1.455    0.000    3.394 
#    0.000    0.000    0.000    0.000    0.000    0.000 
#
# Total GULP energy -183995.059415 kJ/mol
# GULP energy per Si atom -5575.607861 kJ/mol
# Density = 1.954355 g / cm^3
# Si number density = 19.588132 Si / 1000 Ang^3
#
#
#
# Elastic Constant Matrix: (Units=GPa)
#
#
# Indices 1 2 3 4 5 6 
#
# 1 182.2790 78.5965 34.7130 0.0000 0.0000 0.0000
# 2 78.5965 121.4219 38.6996 0.0000 0.0000 0.0000
# 3 34.7130 38.6996 88.0592 0.0000 0.0000 0.0000
# 4 0.0000 0.0000 0.0000 146.4622 0.0000 0.0000
# 5 0.0000 0.0000 0.0000 0.0000 1.6034 0.0000
# 6 0.0000 0.0000 0.0000 0.0000 0.0000 0.8438
#
#
#
# Elastic Compliance Matrix: (Units=1/GPa)
#
#
# Indices 1 2 3 4 5 6 
#
# 1 0.007682 -0.004660 -0.000980 0.000000 0.000000 0.000000
# 2 -0.004660 0.012404 -0.003614 0.000000 0.000000 0.000000
# 3 -0.000980 -0.003614 0.013331 0.000000 0.000000 0.000000
# 4 0.000000 0.000000 0.000000 0.006828 0.000000 0.000000
# 5 0.000000 0.000000 0.000000 0.000000 0.623686 0.000000
# 6 0.000000 0.000000 0.000000 0.000000 0.000000 1.185125
#
#
# Mechanical properties :
#
#
# Convention : Reuss Voigt Hill
#
# Bulk Modulus (GPa) = 67.07953 77.30871 72.19412
# Shear Modulus (GPa) = 2.67018 45.76526 24.21772
#
# Velocity S-wave (km/s) = 1.16881 4.83885 3.51999
# Velocity P-wave (km/s) = 6.01172 8.41262 7.31139
#
# Compressibility (1/GPa) = 0.01490768
#
# Stress axis : x y z
#
# Youngs Moduli (GPa) = 130.17034 80.61728 75.01434
#
# Poissons Ratio (x) = 0.37570 0.07354
# Poissons Ratio (y) = 0.60663 0.27112
# Poissons Ratio (z) = 0.12760 0.29137
#
# Static dielectric constant tensor:
#      x y z
#    x 1.659520 0.000000 0.000000 
#    y 0.000000 1.664270 0.000000 
#    z 0.000000 0.000000 1.711160 
# 
# From -- ./inp_files/10413.got.cif
#   From: 2010.05.17/outbox.cif.g08.bks.cpg/sg47_6_cif.got.tgz:10413.got - 2010.06.03 20:15:42.
