data_PCOD9386545
_publ_section_title
;
Structure prediction by ZEFSAII (Michael W. Deem and Ramdas Pophale) SiO2 
 PCOD9386545
Probable space group: P M M M
;
_chemical_formula_sum "Si O2"
_cell_formula_units_Z 48
_cell_length_a 12.893384
_cell_length_b 15.094373
_cell_length_c 13.789022
_cell_angle_alpha 90.000000
_cell_angle_beta 90.000000
_cell_angle_gamma 90.000000
_cell_volume 2683.585642
_symmetry_space_group_name_H-M "P M M M"
_symmetry_group_IT_number 47
_symmetry_cell_setting 'orthorhombic'
loop_
_space_group_symop_operation_xyz
x,y,z
-x,-y,z
x,-y,-z
-x,y,-z
-x,-y,-z
x,y,-z
-x,y,z
x,-y,z
loop_
_atom_site_type_symbol
_atom_site_label
_atom_site_fract_x
_atom_site_fract_y
_atom_site_fract_z
Si Si1 0.767046 0.843979 0.611856
Si Si2 0.000000 0.899058 0.617382
Si Si3 0.325878 0.102202 0.200682
Si Si4 0.880222 0.500000 0.617465
Si Si5 0.500000 0.397241 0.258002
Si Si6 0.294755 0.638684 0.386553
Si Si7 0.890141 0.892896 0.886899
Si Si8 0.500000 0.769385 0.883126
O O1 0.757784 0.873242 0.500000
O O2 0.689158 0.894040 0.683758
O O3 0.735326 0.741489 0.618111
O O4 0.888014 0.857406 0.641146
O O5 0.000000 0.901301 0.500000
O O6 0.000000 0.000000 0.654831
O O7 0.214075 0.134140 0.163485
O O8 0.405033 0.171027 0.155567
O O9 0.346460 0.000000 0.170838
O O10 0.887426 0.500000 0.500000
O O11 0.807234 0.583200 0.644335
O O12 0.000000 0.500000 0.653037
O O13 0.500000 0.500000 0.226045
O O14 0.603635 0.381505 0.322917
O O15 0.500000 0.325246 0.171388
O O16 0.316297 0.616536 0.500000
O O17 0.000000 0.860846 0.846011
O O18 0.891049 0.000000 0.882272
O O19 0.885982 0.869137 0.000000
O O20 0.500000 0.761860 0.000000
#
# Coordination Sequence:
#
# PCOD9386545 Si02
#       8
#     8   4   8   4   4   8   8   4
#     4  10  21  35  53  82 123 164 205 243 286 345
#     4   9  18  32  50  75 116 172 215 241 274 330
#     4  11  22  37  59  84 114 156 200 240 295 354
#     4   9  18  31  53  89 127 157 188 230 290 352
#     4  12  23  42  67  90 116 145 196 245 296 364
#     4  10  20  35  58  88 121 159 195 242 294 342
#     4   8  15  29  50  77 106 137 182 242 298 343
#     4  12  27  46  63  85 115 146 193 252 309 362
#
# _framework density 17.886516
#
# number of rings (size 3 to 8) (size 9 to 14) (size 15 to 20)
#    0.000    2.000    2.500    2.000    2.333    2.833 
#    0.000    0.417    0.000    1.000    0.000    0.000 
#    0.000    0.667    0.000    0.000    0.000    0.000 
#
# Total GULP energy -267562.335658 kJ/mol
# GULP energy per Si atom -5574.215326 kJ/mol
# Density = 1.784581 g / cm^3
# Si number density = 17.886516 Si / 1000 Ang^3
#
#
#
# Elastic Constant Matrix: (Units=GPa)
#
#
# Indices 1 2 3 4 5 6 
#
# 1 144.8717 58.1657 66.7884 0.0000 0.0000 0.0000
# 2 58.1657 96.4536 38.9346 0.0000 0.0000 0.0000
# 3 66.7884 38.9346 96.1044 0.0000 0.0000 0.0000
# 4 0.0000 0.0000 0.0000 12.9754 0.0000 0.0000
# 5 0.0000 0.0000 0.0000 0.0000 17.0754 0.0000
# 6 0.0000 0.0000 0.0000 0.0000 0.0000 24.4410
#
#
#
# Elastic Compliance Matrix: (Units=1/GPa)
#
#
# Indices 1 2 3 4 5 6 
#
# 1 0.011566 -0.004459 -0.006231 0.000000 0.000000 0.000000
# 2 -0.004459 0.014114 -0.002619 0.000000 0.000000 0.000000
# 3 -0.006231 -0.002619 0.015797 0.000000 0.000000 0.000000
# 4 0.000000 0.000000 0.000000 0.077069 0.000000 0.000000
# 5 0.000000 0.000000 0.000000 0.000000 0.058564 0.000000
# 6 0.000000 0.000000 0.000000 0.000000 0.000000 0.040915
#
#
# Mechanical properties :
#
#
# Convention : Reuss Voigt Hill
#
# Bulk Modulus (GPa) = 67.30513 73.91189 70.60851
# Shear Modulus (GPa) = 20.03247 22.46779 21.25013
#
# Velocity S-wave (km/s) = 3.35024 3.54804 3.45055
# Velocity P-wave (km/s) = 7.25783 7.62871 7.44558
#
# Compressibility (1/GPa) = 0.01485771
#
# Stress axis : x y z
#
# Youngs Moduli (GPa) = 86.46249 70.85149 63.30457
#
# Poissons Ratio (x) = 0.31595 0.39445
# Poissons Ratio (y) = 0.38557 0.16579
# Poissons Ratio (z) = 0.53875 0.18555
#
# Static dielectric constant tensor:
#      x y z
#    x 1.596880 0.000000 0.000000 
#    y 0.000000 1.609200 0.000000 
#    z 0.000000 0.000000 1.652580 
# 
# From -- ./inp_files/22772.got.cif
#   From: 2010.05.17/outbox.cif.g08.bks.cpg/sg47_12_cif.got.tgz:22772.got - 2010.06.03 20:15:42.
