data_PCOD9386879
_publ_section_title
;
Structure prediction by ZEFSAII (Michael W. Deem and Ramdas Pophale) SiO2 
 PCOD9386879
Probable space group: P M M M
;
_chemical_formula_sum "Si O2"
_cell_formula_units_Z 48
_cell_length_a 35.508884
_cell_length_b 7.874184
_cell_length_c 9.373085
_cell_angle_alpha 90.000000
_cell_angle_beta 90.000000
_cell_angle_gamma 90.000000
_cell_volume 2620.747243
_symmetry_space_group_name_H-M "P M M M"
_symmetry_group_IT_number 47
_symmetry_cell_setting 'orthorhombic'
loop_
_space_group_symop_operation_xyz
x,y,z
-x,-y,z
x,-y,-z
-x,y,-z
-x,-y,-z
x,y,-z
-x,y,z
x,-y,z
loop_
_atom_site_type_symbol
_atom_site_label
_atom_site_fract_x
_atom_site_fract_y
_atom_site_fract_z
Si Si1 0.545029 0.196850 0.668805
Si Si2 0.114591 0.701401 0.660628
Si Si3 0.958764 0.795635 0.163571
Si Si4 0.413354 0.500000 0.827894
Si Si5 0.803786 0.203026 0.662742
Si Si6 0.270938 0.800788 0.828317
Si Si7 0.325994 0.500000 0.827090
O O1 0.552539 0.224690 0.500000
O O2 0.500000 0.216311 0.688835
O O3 0.566700 0.333657 0.762962
O O4 0.554594 0.000000 0.701983
O O5 0.112314 0.774952 0.500000
O O6 0.115859 0.500000 0.650685
O O7 0.077471 0.746790 0.746941
O O8 0.154889 0.756216 0.723147
O O9 0.000000 0.737225 0.217904
O O10 0.959792 0.000000 0.160819
O O11 0.955008 0.736239 0.000000
O O12 0.369444 0.500000 0.784070
O O13 0.415964 0.500000 0.000000
O O14 0.801851 0.271463 0.500000
O O15 0.768208 0.256555 0.756189
O O16 0.801409 0.000000 0.654697
O O17 0.303486 0.669832 0.782961
O O18 0.278326 0.000000 0.791830
O O19 0.267261 0.792731 0.000000
O O20 0.325761 0.500000 0.000000
#
# Coordination Sequence:
#
# PCOD9386879 Si02
#       7
#     8   8   8   4   8   8   4
#     4   9  19  37  59  81 110 152 197 239 286 341
#     4  10  21  34  49  74 105 133 161 195 242 302
#     4   9  19  36  55  73  95 126 165 206 244 286
#     4  11  22  34  53  84 118 150 188 237 291 342
#     4   9  18  33  52  74 100 127 158 203 255 300
#     4   9  18  34  55  75  97 132 177 218 257 311
#     4   9  20  36  52  75 108 144 179 217 268 328
#
# _framework density 18.315387000000001
#
# number of rings (size 3 to 8) (size 9 to 14) (size 15 to 20)
#    0.000    2.667    0.000    2.000    1.167    5.000 
#    0.000    8.333    0.000    2.000    0.000    0.000 
#    0.000    0.000    0.000    0.000    0.000    0.000 
#
# Total GULP energy -267561.847491 kJ/mol
# GULP energy per Si atom -5574.205156 kJ/mol
# Density = 1.827370 g / cm^3
# Si number density = 18.315387 Si / 1000 Ang^3
#
#
#
# Elastic Constant Matrix: (Units=GPa)
#
#
# Indices 1 2 3 4 5 6 
#
# 1 159.2222 78.2017 64.5659 0.0000 0.0000 0.0000
# 2 78.2017 86.3420 43.6663 0.0000 0.0000 0.0000
# 3 64.5659 43.6663 47.2887 0.0000 0.0000 0.0000
# 4 0.0000 0.0000 0.0000 47.2211 0.0000 0.0000
# 5 0.0000 0.0000 0.0000 0.0000 55.4720 0.0000
# 6 0.0000 0.0000 0.0000 0.0000 0.0000 12.3936
#
#
#
# Elastic Compliance Matrix: (Units=1/GPa)
#
#
# Indices 1 2 3 4 5 6 
#
# 1 0.015732 -0.006352 -0.015614 0.000000 0.000000 0.000000
# 2 -0.006352 0.024294 -0.013760 0.000000 0.000000 0.000000
# 3 -0.015614 -0.013760 0.055172 0.000000 0.000000 0.000000
# 4 0.000000 0.000000 0.000000 0.021177 0.000000 0.000000
# 5 0.000000 0.000000 0.000000 0.000000 0.018027 0.000000
# 6 0.000000 0.000000 0.000000 0.000000 0.000000 0.080687
#
#
# Mechanical properties :
#
#
# Convention : Reuss Voigt Hill
#
# Bulk Modulus (GPa) = 42.11453 73.96899 58.04176
# Shear Modulus (GPa) = 16.98038 30.11194 23.54616
#
# Velocity S-wave (km/s) = 3.04815 4.05912 3.58941
# Velocity P-wave (km/s) = 5.95250 7.90206 6.99553
#
# Compressibility (1/GPa) = 0.02374478
#
# Stress axis : x y z
#
# Youngs Moduli (GPa) = 63.56419 41.16215 18.12511
#
# Poissons Ratio (x) = 0.26147 0.28301
# Poissons Ratio (y) = 0.40377 0.24941
# Poissons Ratio (z) = 0.99252 0.56640
#
# Static dielectric constant tensor:
#      x y z
#    x 1.626370 0.000000 0.000000 
#    y 0.000000 1.639870 0.000000 
#    z 0.000000 0.000000 1.634130 
# 
# From -- ./inp_files/13995.got.cif
#   From: 2010.05.17/outbox.cif.g08.bks.cpg/sg47_7_cif.got.tgz:13995.got - 2010.06.03 20:15:42.
