data_PCOD9386495
_publ_section_title
;
Structure prediction by ZEFSAII (Michael W. Deem and Ramdas Pophale) SiO2 
 PCOD9386495
Probable space group: P M M M
;
_chemical_formula_sum "Si O2"
_cell_formula_units_Z 56
_cell_length_a 8.792496
_cell_length_b 22.975836
_cell_length_c 14.816446
_cell_angle_alpha 90.000000
_cell_angle_beta 90.000000
_cell_angle_gamma 90.000000
_cell_volume 2993.143540
_symmetry_space_group_name_H-M "P M M M"
_symmetry_group_IT_number 47
_symmetry_cell_setting 'orthorhombic'
loop_
_space_group_symop_operation_xyz
x,y,z
-x,-y,z
x,-y,-z
-x,y,-z
-x,-y,-z
x,y,-z
-x,y,z
x,-y,z
loop_
_atom_site_type_symbol
_atom_site_label
_atom_site_fract_x
_atom_site_fract_y
_atom_site_fract_z
Si Si1 0.319138 0.607578 0.292281
Si Si2 0.681445 0.932661 0.690517
Si Si3 0.819406 0.612149 0.100514
Si Si4 0.818719 0.816771 0.253907
Si Si5 0.828998 0.930199 0.500000
Si Si6 0.175327 0.500000 0.392452
Si Si7 0.816821 0.719301 0.605438
Si Si8 0.676216 0.261715 0.898992
O O1 0.500000 0.611279 0.291981
O O2 0.261637 0.591314 0.191505
O O3 0.259217 0.556922 0.356750
O O4 0.252822 0.668175 0.332195
O O5 0.500000 0.928821 0.697577
O O6 0.761820 0.882849 0.747587
O O7 0.735985 0.917408 0.589472
O O8 0.725599 0.000000 0.709245
O O9 0.778692 0.680648 0.101802
O O10 0.000000 0.603238 0.108196
O O11 0.771417 0.590442 0.000000
O O12 0.782250 0.780990 0.346208
O O13 0.736158 0.782004 0.174924
O O14 0.000000 0.814657 0.243076
O O15 0.000000 0.904373 0.500000
O O16 0.845619 0.000000 0.500000
O O17 0.174777 0.500000 0.500000
O O18 0.000000 0.500000 0.360623
O O19 0.767920 0.716542 0.500000
O O20 0.000000 0.712047 0.606583
O O21 0.500000 0.278416 0.881543
O O22 0.683506 0.236725 0.000000
#
# Coordination Sequence:
#
# PCOD9386495 Si02
#       8
#     8   8   8   8   4   4   8   8
#     4  12  24  39  62  91 123 156 196 246 296 346
#     4  10  21  36  53  75 108 149 192 239 291 347
#     4  10  20  36  60  88 119 156 196 238 289 349
#     4  11  22  35  57  85 114 150 193 240 290 348
#     4   9  17  31  51  73  99 137 187 234 277 332
#     4  11  25  45  68  89 116 161 209 248 288 341
#     4  10  22  39  57  81 117 157 196 239 289 344
#     4  10  20  35  57  86 118 150 187 235 292 351
#
# _framework density 18.709425
#
# number of rings (size 3 to 8) (size 9 to 14) (size 15 to 20)
#    0.000    1.571    1.429    3.857    1.000    6.571 
#    0.000    0.357    0.000    2.571    0.000    3.000 
#    0.000    0.000    0.000    0.000    0.000    0.000 
#
# Total GULP energy -312578.388056 kJ/mol
# GULP energy per Si atom -5581.756930 kJ/mol
# Density = 1.866684 g / cm^3
# Si number density = 18.709425 Si / 1000 Ang^3
#
#
#
# Elastic Constant Matrix: (Units=GPa)
#
#
# Indices 1 2 3 4 5 6 
#
# 1 66.6811 17.7096 31.7549 0.0000 0.0000 0.0000
# 2 17.7096 61.8895 13.0998 0.0000 0.0000 0.0000
# 3 31.7549 13.0998 89.8910 0.0000 0.0000 0.0000
# 4 0.0000 0.0000 0.0000 65.0538 0.0000 0.0000
# 5 0.0000 0.0000 0.0000 0.0000 23.4081 0.0000
# 6 0.0000 0.0000 0.0000 0.0000 0.0000 30.1981
#
#
#
# Elastic Compliance Matrix: (Units=1/GPa)
#
#
# Indices 1 2 3 4 5 6 
#
# 1 0.019008 -0.004146 -0.006111 0.000000 0.000000 0.000000
# 2 -0.004146 0.017576 -0.001097 0.000000 0.000000 0.000000
# 3 -0.006111 -0.001097 0.013443 0.000000 0.000000 0.000000
# 4 0.000000 0.000000 0.000000 0.015372 0.000000 0.000000
# 5 0.000000 0.000000 0.000000 0.000000 0.042720 0.000000
# 6 0.000000 0.000000 0.000000 0.000000 0.000000 0.033115
#
#
# Mechanical properties :
#
#
# Convention : Reuss Voigt Hill
#
# Bulk Modulus (GPa) = 36.60205 38.17672 37.38939
# Shear Modulus (GPa) = 28.89387 34.12513 31.50950
#
# Velocity S-wave (km/s) = 3.93408 4.27541 4.10829
# Velocity P-wave (km/s) = 6.34365 6.69489 6.52164
#
# Compressibility (1/GPa) = 0.02732088
#
# Stress axis : x y z
#
# Youngs Moduli (GPa) = 52.61014 56.89481 74.38793
#
# Poissons Ratio (x) = 0.23587 0.45455
# Poissons Ratio (y) = 0.21810 0.08160
# Poissons Ratio (z) = 0.32148 0.06241
#
# Static dielectric constant tensor:
#      x y z
#    x 1.629830 0.000000 0.000000 
#    y 0.000000 1.660900 0.000000 
#    z 0.000000 0.000000 1.641480 
# 
# From -- ./inp_files/21695.got.cif
#   From: 2010.05.17/outbox.cif.g08.bks.cpg/sg47_11_cif.got.tgz:21695.got - 2010.06.03 20:15:42.
