data_PCOD9386580
_publ_section_title
;
Structure prediction by ZEFSAII (Michael W. Deem and Ramdas Pophale) SiO2 
 PCOD9386580
Probable space group: P M M M
;
_chemical_formula_sum "Si O2"
_cell_formula_units_Z 48
_cell_length_a 18.711718
_cell_length_b 14.775315
_cell_length_c 9.865295
_cell_angle_alpha 90.000000
_cell_angle_beta 90.000000
_cell_angle_gamma 90.000000
_cell_volume 2727.473179
_symmetry_space_group_name_H-M "P M M M"
_symmetry_group_IT_number 47
_symmetry_cell_setting 'orthorhombic'
loop_
_space_group_symop_operation_xyz
x,y,z
-x,-y,z
x,-y,-z
-x,y,-z
-x,-y,-z
x,y,-z
-x,y,z
x,-y,z
loop_
_atom_site_type_symbol
_atom_site_label
_atom_site_fract_x
_atom_site_fract_y
_atom_site_fract_z
Si Si1 0.915729 0.397329 0.000000
Si Si2 0.085371 0.391002 0.500000
Si Si3 0.677265 0.324196 0.164105
Si Si4 0.817662 0.897254 0.342146
Si Si5 0.582246 0.500000 0.837023
Si Si6 0.158068 0.299852 0.757671
Si Si7 0.649973 0.151072 0.341390
Si Si8 0.415807 0.000000 0.154127
O O1 0.890619 0.339615 0.873940
O O2 0.885070 0.500000 0.000000
O O3 0.000000 0.405775 0.000000
O O4 0.090824 0.500000 0.500000
O O5 0.127175 0.347806 0.625369
O O6 0.000000 0.369258 0.500000
O O7 0.629922 0.412277 0.195607
O O8 0.760884 0.329410 0.205084
O O9 0.648683 0.245244 0.261436
O O10 0.673072 0.306334 0.000000
O O11 0.840571 0.889554 0.500000
O O12 0.844872 0.809147 0.261410
O O13 0.731739 0.885163 0.341497
O O14 0.834916 0.000000 0.295274
O O15 0.500000 0.500000 0.784134
O O16 0.576203 0.500000 0.000000
O O17 0.627765 0.155676 0.500000
O O18 0.606516 0.084293 0.245846
O O19 0.500000 0.000000 0.139673
O O20 0.384504 0.000000 0.000000
#
# Coordination Sequence:
#
# PCOD9386580 Si02
#       8
#     4   4   8   8   4   8   8   4
#     4  11  24  40  61  87 125 165 195 244 313 369
#     4  11  24  40  59  87 125 161 199 250 311 375
#     4  10  21  36  59  88 119 155 201 254 299 357
#     4   9  17  34  59  85 116 149 193 246 299 348
#     4   9  20  38  59  83 114 159 203 245 303 363
#     4  11  21  37  60  92 118 158 208 251 301 362
#     4  10  20  36  57  85 114 151 196 249 303 356
#     4  11  23  37  55  81 117 159 196 243 306 373
#
# _framework density 17.598706
#
# number of rings (size 3 to 8) (size 9 to 14) (size 15 to 20)
#    0.000    1.833    2.500    1.750    3.500    2.667 
#    0.000    2.500    0.000    3.500    0.000    0.000 
#    0.000    0.000    0.000    0.000    0.000    0.000 
#
# Total GULP energy -267412.336675 kJ/mol
# GULP energy per Si atom -5571.090347 kJ/mol
# Density = 1.755865 g / cm^3
# Si number density = 17.598706 Si / 1000 Ang^3
#
#
#
# Elastic Constant Matrix: (Units=GPa)
#
#
# Indices 1 2 3 4 5 6 
#
# 1 67.7153 66.9591 48.5814 0.0000 0.0000 0.0000
# 2 66.9591 167.6285 77.0850 0.0000 0.0000 0.0000
# 3 48.5814 77.0850 158.0885 0.0000 0.0000 0.0000
# 4 0.0000 0.0000 0.0000 24.0706 0.0000 0.0000
# 5 0.0000 0.0000 0.0000 0.0000 64.5799 0.0000
# 6 0.0000 0.0000 0.0000 0.0000 0.0000 32.4091
#
#
#
# Elastic Compliance Matrix: (Units=1/GPa)
#
#
# Indices 1 2 3 4 5 6 
#
# 1 0.026050 -0.008668 -0.003779 0.000000 0.000000 0.000000
# 2 -0.008668 0.010574 -0.002492 0.000000 0.000000 0.000000
# 3 -0.003779 -0.002492 0.008702 0.000000 0.000000 0.000000
# 4 0.000000 0.000000 0.000000 0.041544 0.000000 0.000000
# 5 0.000000 0.000000 0.000000 0.000000 0.015485 0.000000
# 6 0.000000 0.000000 0.000000 0.000000 0.000000 0.030856
#
#
# Mechanical properties :
#
#
# Convention : Reuss Voigt Hill
#
# Bulk Modulus (GPa) = 64.73289 86.52036 75.62662
# Shear Modulus (GPa) = 29.71985 37.59905 33.65945
#
# Velocity S-wave (km/s) = 4.11390 4.62721 4.37808
# Velocity P-wave (km/s) = 7.70897 8.82143 8.28390
#
# Compressibility (1/GPa) = 0.01544810
#
# Stress axis : x y z
#
# Youngs Moduli (GPa) = 38.38797 94.57104 114.91549
#
# Poissons Ratio (x) = 0.81973 0.43423
# Poissons Ratio (y) = 0.33274 0.28640
# Poissons Ratio (z) = 0.14506 0.23570
#
# Static dielectric constant tensor:
#      x y z
#    x 1.592450 0.000000 0.000000 
#    y 0.000000 1.639440 0.000000 
#    z 0.000000 0.000000 -5.370740 
# 
# From -- ./inp_files/9275.got.cif
#   From: 2010.05.17/outbox.cif.g08.bks.cpg/sg47_5_cif.got.tgz:9275.got - 2010.06.03 20:15:42.
