data_PCOD9386411
_publ_section_title
;
Structure prediction by ZEFSAII (Michael W. Deem and Ramdas Pophale) SiO2 
 PCOD9386411
Probable space group: P M M M
;
_chemical_formula_sum "Si O2"
_cell_formula_units_Z 48
_cell_length_a 35.223437
_cell_length_b 7.725065
_cell_length_c 9.321501
_cell_angle_alpha 90.000000
_cell_angle_beta 90.000000
_cell_angle_gamma 90.000000
_cell_volume 2536.411559
_symmetry_space_group_name_H-M "P M M M"
_symmetry_group_IT_number 47
_symmetry_cell_setting 'orthorhombic'
loop_
_space_group_symop_operation_xyz
x,y,z
-x,-y,z
x,-y,-z
-x,y,-z
-x,-y,-z
x,y,-z
-x,y,z
x,-y,z
loop_
_atom_site_type_symbol
_atom_site_label
_atom_site_fract_x
_atom_site_fract_y
_atom_site_fract_z
Si Si1 0.350732 0.288761 0.835299
Si Si2 0.866029 0.000000 0.172464
Si Si3 0.000000 0.791597 0.333866
Si Si4 0.273857 0.296778 0.671057
Si Si5 0.424327 0.707486 0.662759
Si Si6 0.785836 0.000000 0.328376
Si Si7 0.500000 0.206439 0.162887
Si Si8 0.923554 0.303018 0.830459
O O1 0.352033 0.500000 0.836592
O O2 0.311603 0.243560 0.756512
O O3 0.387378 0.226711 0.747303
O O4 0.351681 0.230476 0.000000
O O5 0.825622 0.000000 0.247989
O O6 0.891390 0.833372 0.212227
O O7 0.861095 0.000000 0.000000
O O8 0.037751 0.726487 0.255479
O O9 0.000000 0.738685 0.500000
O O10 0.000000 0.000000 0.326847
O O11 0.281171 0.281893 0.500000
O O12 0.265802 0.500000 0.701129
O O13 0.239352 0.169322 0.706982
O O14 0.426772 0.774993 0.500000
O O15 0.420137 0.500000 0.653333
O O16 0.462449 0.740941 0.751226
O O17 0.792055 0.000000 0.500000
O O18 0.500000 0.000000 0.154574
O O19 0.500000 0.276453 0.000000
O O20 0.910585 0.500000 0.810900
O O21 0.931517 0.275806 0.000000
#
# Coordination Sequence:
#
# PCOD9386411 Si02
#       8
#     8   4   4   8   8   4   4   8
#     4   9  17  31  54  83 110 136 171 217 267 318
#     4  10  22  39  57  80 113 148 187 239 286 332
#     4  11  22  35  56  87 121 154 191 240 293 341
#     4   9  18  35  57  80 109 143 179 223 275 333
#     4  10  20  35  57  82 106 138 180 220 263 322
#     4  10  22  38  57  83 112 145 188 230 278 342
#     4  11  24  39  52  72 106 143 180 223 268 314
#     4  10  21  38  60  84 112 153 200 240 286 344
#
# _framework density 18.924374
#
# number of rings (size 3 to 8) (size 9 to 14) (size 15 to 20)
#    0.000    2.167    0.833    2.000    0.000    8.333 
#    1.500    0.000    0.000    0.000    0.000    0.000 
#    0.000    0.000    0.000    0.000    0.000    0.000 
#
# Total GULP energy -268094.007696 kJ/mol
# GULP energy per Si atom -5585.291827 kJ/mol
# Density = 1.888130 g / cm^3
# Si number density = 18.924374 Si / 1000 Ang^3
#
#
#
# Elastic Constant Matrix: (Units=GPa)
#
#
# Indices 1 2 3 4 5 6 
#
# 1 205.4852 67.7445 105.4051 0.0000 0.0000 0.0000
# 2 67.7445 82.3009 51.7984 0.0000 0.0000 0.0000
# 3 105.4051 51.7984 116.6344 0.0000 0.0000 0.0000
# 4 0.0000 0.0000 0.0000 14.6379 0.0000 0.0000
# 5 0.0000 0.0000 0.0000 0.0000 43.7487 0.0000
# 6 0.0000 0.0000 0.0000 0.0000 0.0000 -9.6609
#
#
#
# Elastic Compliance Matrix: (Units=1/GPa)
#
#
# Indices 1 2 3 4 5 6 
#
# 1 0.009724 -0.003433 -0.007263 0.000000 0.000000 0.000000
# 2 -0.003433 0.018076 -0.004925 0.000000 0.000000 0.000000
# 3 -0.007263 -0.004925 0.017325 0.000000 0.000000 0.000000
# 4 0.000000 0.000000 0.000000 0.068316 0.000000 0.000000
# 5 0.000000 0.000000 0.000000 0.000000 0.022858 0.000000
# 6 0.000000 0.000000 0.000000 0.000000 0.000000 -0.103510
#
#
# Mechanical properties :
#
#
# Convention : Reuss Voigt Hill
#
# Bulk Modulus (GPa) = 72.03421 94.92407 83.47914
# Shear Modulus (GPa) = 72.82304 21.70997 47.26650
#
# Velocity S-wave (km/s) = 6.21004 3.39070 5.00307
# Velocity P-wave (km/s) = 9.46395 8.09924 8.80807
#
# Compressibility (1/GPa) = 0.01388229
#
# Stress axis : x y z
#
# Youngs Moduli (GPa) = 102.83843 55.32142 57.71935
#
# Poissons Ratio (x) = 0.18991 0.41923
# Poissons Ratio (y) = 0.35302 0.28430
# Poissons Ratio (z) = 0.74694 0.27249
#
# Static dielectric constant tensor:
#      x y z
#    x 1.599420 0.000000 0.000000 
#    y 0.000000 1.682470 0.000000 
#    z 0.000000 0.000000 1.648460 
# 
# From -- ./inp_files/14037.got.cif
#   From: 2010.05.17/outbox.cif.g08.bks.cpg/sg47_8_cif.got.tgz:14037.got - 2010.06.03 20:15:42.
