data_PCOD9386561
_publ_section_title
;
Structure prediction by ZEFSAII (Michael W. Deem and Ramdas Pophale) SiO2 
 PCOD9386561
Probable space group: P M M M
;
_chemical_formula_sum "Si O2"
_cell_formula_units_Z 64
_cell_length_a 25.114780
_cell_length_b 8.563052
_cell_length_c 15.255504
_cell_angle_alpha 90.000000
_cell_angle_beta 90.000000
_cell_angle_gamma 90.000000
_cell_volume 3280.835984
_symmetry_space_group_name_H-M "P M M M"
_symmetry_group_IT_number 47
_symmetry_cell_setting 'orthorhombic'
loop_
_space_group_symop_operation_xyz
x,y,z
-x,-y,z
x,-y,-z
-x,y,-z
-x,-y,-z
x,y,-z
-x,y,z
x,-y,z
loop_
_atom_site_type_symbol
_atom_site_label
_atom_site_fract_x
_atom_site_fract_y
_atom_site_fract_z
Si Si1 0.340626 0.312982 0.898812
Si Si2 0.936343 0.180525 0.899302
Si Si3 0.866618 0.319890 0.245405
Si Si4 0.938978 0.811609 0.602050
Si Si5 0.581462 0.813196 0.404718
Si Si6 0.441371 0.189059 0.209741
Si Si7 0.708809 0.187219 0.594058
Si Si8 0.752188 0.186491 0.778308
O O1 0.341582 0.500000 0.897814
O O2 0.391841 0.252329 0.845090
O O3 0.286869 0.256561 0.851064
O O4 0.342534 0.259423 0.000000
O O5 0.908762 0.294464 0.832086
O O6 0.000000 0.193904 0.894741
O O7 0.923065 0.000000 0.876274
O O8 0.920243 0.207346 0.000000
O O9 0.852912 0.500000 0.256834
O O10 0.895128 0.256527 0.332983
O O11 0.813930 0.228056 0.216250
O O12 0.930388 0.769025 0.500000
O O13 0.000000 0.764905 0.625891
O O14 0.936989 0.000000 0.607675
O O15 0.563183 0.751220 0.500000
O O16 0.560953 0.755059 0.311287
O O17 0.645248 0.793123 0.401854
O O18 0.570569 0.000000 0.406064
O O19 0.500000 0.229457 0.173815
O O20 0.436907 0.000000 0.211412
O O21 0.727943 0.250164 0.500000
O O22 0.734021 0.248814 0.682671
O O23 0.718392 0.000000 0.593140
O O24 0.744948 0.000000 0.780350
#
# Coordination Sequence:
#
# PCOD9386561 Si02
#       8
#     8   8   8   8   8   8   8   8
#     4  11  25  44  63  82 110 149 191 239 301 365
#     4   9  19  38  63  87 111 144 190 241 289 341
#     4  12  25  37  54  86 126 160 192 236 294 360
#     4   9  19  38  63  88 117 160 214 263 301 342
#     4   8  13  25  49  83 119 148 178 221 271 321
#     4  10  20  35  59  91 121 150 191 239 281 333
#     4   8  14  27  52  83 109 136 175 223 272 322
#     4  11  22  39  63  86 111 148 194 241 287 339
#
# _framework density 19.507221000000001
#
# number of rings (size 3 to 8) (size 9 to 14) (size 15 to 20)
#    0.000    2.250    1.250    3.750    0.000    5.250 
#    0.000    5.000    0.000    2.250    0.000    0.875 
#    0.000    0.000    0.000    0.000    0.000    0.000 
#
# Total GULP energy -357051.443991 kJ/mol
# GULP energy per Si atom -5578.928812 kJ/mol
# Density = 1.946282 g / cm^3
# Si number density = 19.507221 Si / 1000 Ang^3
#
#
#
# Elastic Constant Matrix: (Units=GPa)
#
#
# Indices 1 2 3 4 5 6 
#
# 1 81.2472 17.8449 59.2521 0.0000 0.0000 0.0000
# 2 17.8449 24.8163 28.6168 0.0000 0.0000 0.0000
# 3 59.2521 28.6168 121.8124 0.0000 0.0000 0.0000
# 4 0.0000 0.0000 0.0000 -70.1352 0.0000 0.0000
# 5 0.0000 0.0000 0.0000 0.0000 -24.3832 0.0000
# 6 0.0000 0.0000 0.0000 0.0000 0.0000 7.4217
#
#
#
# Elastic Compliance Matrix: (Units=1/GPa)
#
#
# Indices 1 2 3 4 5 6 
#
# 1 0.019390 -0.004206 -0.008443 0.000000 0.000000 0.000000
# 2 -0.004206 0.056181 -0.011152 0.000000 0.000000 0.000000
# 3 -0.008443 -0.011152 0.014936 0.000000 0.000000 0.000000
# 4 0.000000 0.000000 0.000000 -0.014258 0.000000 0.000000
# 5 0.000000 0.000000 0.000000 0.000000 -0.041012 0.000000
# 6 0.000000 0.000000 0.000000 0.000000 0.000000 0.134739
#
#
# Mechanical properties :
#
#
# Convention : Reuss Voigt Hill
#
# Bulk Modulus (GPa) = 23.30833 48.81147 36.05990
# Shear Modulus (GPa) = 21.56279 -9.27520 6.14379
#
# Velocity S-wave (km/s) = 3.32832 -2.18291 1.77661
# Velocity P-wave (km/s) = 5.17154 4.32702 4.76802
#
# Compressibility (1/GPa) = 0.04290311
#
# Stress axis : x y z
#
# Youngs Moduli (GPa) = 51.57424 17.79959 66.95097
#
# Poissons Ratio (x) = 0.07487 0.56529
# Poissons Ratio (y) = 0.21694 0.74666
# Poissons Ratio (z) = 0.43546 0.19851
#
# Static dielectric constant tensor:
#      x y z
#    x 1.682220 0.000000 0.000000 
#    y 0.000000 1.679120 0.000000 
#    z 0.000000 0.000000 1.698410 
# 
# From -- ./inp_files/25554.got.cif
#   From: 2010.05.17/outbox.cif.g08.bks.cpg/sg47_13_cif.got.tgz:25554.got - 2010.06.03 20:15:42.
