data_PCOD9386547
_publ_section_title
;
Structure prediction by ZEFSAII (Michael W. Deem and Ramdas Pophale) SiO2 
 PCOD9386547
Probable space group: P M M M
;
_chemical_formula_sum "Si O2"
_cell_formula_units_Z 45
_cell_length_a 14.851889
_cell_length_b 7.477731
_cell_length_c 22.201882
_cell_angle_alpha 90.000000
_cell_angle_beta 90.000000
_cell_angle_gamma 90.000000
_cell_volume 2465.706175
_symmetry_space_group_name_H-M "P M M M"
_symmetry_group_IT_number 47
_symmetry_cell_setting 'orthorhombic'
loop_
_space_group_symop_operation_xyz
x,y,z
-x,-y,z
x,-y,-z
-x,y,-z
-x,-y,-z
x,y,-z
-x,y,z
x,-y,z
loop_
_atom_site_type_symbol
_atom_site_label
_atom_site_fract_x
_atom_site_fract_y
_atom_site_fract_z
Si Si1 0.500000 0.000000 0.000000
Si Si2 0.900817 0.211506 0.616992
Si Si3 0.399719 0.000000 0.875461
Si Si4 0.099801 0.284503 0.241329
Si Si5 0.290882 0.283067 0.196364
Si Si6 0.713792 0.215263 0.566320
Si Si7 0.600933 0.712634 0.315269
O O1 0.577125 0.000000 0.054011
O O2 0.887009 0.232102 0.688793
O O3 0.813577 0.284282 0.583227
O O4 0.000000 0.286182 0.602380
O O5 0.904240 0.000000 0.603995
O O6 0.344474 0.826418 0.853963
O O7 0.500000 0.000000 0.845692
O O8 0.099020 0.500000 0.240493
O O9 0.185900 0.230709 0.202297
O O10 0.000000 0.221250 0.222864
O O11 0.297428 0.500000 0.189133
O O12 0.336687 0.228169 0.259986
O O13 0.686076 0.278222 0.500000
O O14 0.646882 0.256918 0.620541
O O15 0.719126 0.000000 0.564365
O O16 0.500000 0.786994 0.312654
O O17 0.594772 0.500000 0.307618
#
# Coordination Sequence:
#
# PCOD9386547 Si02
#       7
#     1   8   4   8   8   8   8
#     4   8  24  48  58 100 134 154 202 228 270 312
#     4   9  17  29  46  67  94 131 175 223 286 353
#     4  10  22  40  63  87 126 159 185 234 269 320
#     4   9  17  29  48  78 115 145 177 234 294 343
#     4  10  20  35  58  89 118 153 196 233 285 342
#     4  10  21  34  47  65  92 130 180 233 291 354
#     4  10  21  35  50  71  99 129 175 234 281 337
#
# _framework density 18.250349
#
# number of rings (size 3 to 8) (size 9 to 14) (size 15 to 20)
#    0.267    2.133    1.778    0.533    2.489    2.489 
#    0.000    4.444    0.000    0.000    0.000    4.978 
#    0.000    2.844    0.000    0.000    0.000    0.000 
#
# Total GULP energy -250619.780894 kJ/mol
# GULP energy per Si atom -5569.328464 kJ/mol
# Density = 1.820881 g / cm^3
# Si number density = 18.250349 Si / 1000 Ang^3
#
#
#
# Elastic Constant Matrix: (Units=GPa)
#
#
# Indices 1 2 3 4 5 6 
#
# 1 134.9189 24.2083 60.5312 0.0000 0.0000 0.0000
# 2 24.2083 60.7547 16.8539 0.0000 0.0000 0.0000
# 3 60.5312 16.8539 107.2706 0.0000 0.0000 0.0000
# 4 0.0000 0.0000 0.0000 6.1730 0.0000 0.0000
# 5 0.0000 0.0000 0.0000 0.0000 26.4550 0.0000
# 6 0.0000 0.0000 0.0000 0.0000 0.0000 14.8335
#
#
#
# Elastic Compliance Matrix: (Units=1/GPa)
#
#
# Indices 1 2 3 4 5 6 
#
# 1 0.010305 -0.002607 -0.005405 0.000000 0.000000 0.000000
# 2 -0.002607 0.017869 -0.001337 0.000000 0.000000 0.000000
# 3 -0.005405 -0.001337 0.012582 0.000000 0.000000 0.000000
# 4 0.000000 0.000000 0.000000 0.161995 0.000000 0.000000
# 5 0.000000 0.000000 0.000000 0.000000 0.037800 0.000000
# 6 0.000000 0.000000 0.000000 0.000000 0.000000 0.067415
#
#
# Mechanical properties :
#
#
# Convention : Reuss Voigt Hill
#
# Bulk Modulus (GPa) = 45.33272 56.23678 50.78475
# Shear Modulus (GPa) = 14.96936 22.91570 18.94253
#
# Velocity S-wave (km/s) = 2.86706 3.54733 3.22518
# Velocity P-wave (km/s) = 5.98777 6.90355 6.46190
#
# Compressibility (1/GPa) = 0.02205912
#
# Stress axis : x y z
#
# Youngs Moduli (GPa) = 97.04417 55.96275 79.47663
#
# Poissons Ratio (x) = 0.14587 0.42959
# Poissons Ratio (y) = 0.25295 0.10624
# Poissons Ratio (z) = 0.52454 0.07480
#
# Static dielectric constant tensor:
#      x y z
#    x 1.671740 0.000000 0.000000 
#    y 0.000000 1.664240 0.000000 
#    z 0.000000 0.000000 1.580600 
# 
# From -- ./inp_files/6850.got.cif
#   From: 2010.05.17/outbox.cif.g08.bks.cpg/sg47_4_cif.got.tgz:6850.got - 2010.06.03 20:15:42.
