data_PCOD9386414
_publ_section_title
;
Structure prediction by ZEFSAII (Michael W. Deem and Ramdas Pophale) SiO2 
 PCOD9386414
Probable space group: P M M M
;
_chemical_formula_sum "Si O2"
_cell_formula_units_Z 48
_cell_length_a 7.710872
_cell_length_b 9.455367
_cell_length_c 34.523205
_cell_angle_alpha 90.000000
_cell_angle_beta 90.000000
_cell_angle_gamma 90.000000
_cell_volume 2517.056657
_symmetry_space_group_name_H-M "P M M M"
_symmetry_group_IT_number 47
_symmetry_cell_setting 'orthorhombic'
loop_
_space_group_symop_operation_xyz
x,y,z
-x,-y,z
x,-y,-z
-x,y,-z
-x,-y,-z
x,y,-z
-x,y,z
x,-y,z
loop_
_atom_site_type_symbol
_atom_site_label
_atom_site_fract_x
_atom_site_fract_y
_atom_site_fract_z
Si Si1 0.792968 0.340889 0.381736
Si Si2 0.000000 0.830529 0.090471
Si Si3 0.290879 0.838572 0.543444
Si Si4 0.698323 0.664603 0.231902
Si Si5 0.000000 0.331848 0.828968
Si Si6 0.789339 0.162520 0.308210
Si Si7 0.703378 0.664624 0.046390
O O1 0.722177 0.500000 0.381255
O O2 0.762832 0.264821 0.422521
O O3 0.726640 0.247083 0.346035
O O4 0.000000 0.349767 0.376516
O O5 0.000000 0.763807 0.133250
O O6 0.832027 0.768281 0.068380
O O7 0.000000 0.000000 0.090919
O O8 0.232242 0.798500 0.500000
O O9 0.500000 0.840865 0.542801
O O10 0.231857 0.000000 0.551119
O O11 0.500000 0.679081 0.218773
O O12 0.727654 0.500000 0.243119
O O13 0.832985 0.696956 0.197884
O O14 0.729691 0.760656 0.269254
O O15 0.000000 0.500000 0.838900
O O16 0.000000 0.163703 0.308197
O O17 0.732641 0.000000 0.309524
O O18 0.500000 0.689635 0.055113
O O19 0.742346 0.500000 0.056229
O O20 0.725424 0.678797 0.000000
#
# Coordination Sequence:
#
# PCOD9386414 Si02
#       7
#     8   4   8   8   4   8   8
#     4  10  21  35  53  79 109 140 175 217 264 314
#     4  12  25  37  56  89 128 166 204 249 311 374
#     4   9  19  36  55  74 100 136 176 218 265 318
#     4  10  21  38  62  88 111 143 189 238 291 345
#     4  10  22  41  61  82 116 159 203 251 292 342
#     4  10  20  35  57  82 110 143 178 220 276 338
#     4   9  19  38  64  91 120 160 212 264 309 360
#
# _framework density 19.069890999999998
#
# number of rings (size 3 to 8) (size 9 to 14) (size 15 to 20)
#    0.000    2.167    0.833    3.000    0.000    6.667 
#    0.000    5.000    0.000    0.000    0.000    0.000 
#    0.000    0.000    0.000    0.000    0.000    0.000 
#
# Total GULP energy -268103.155181 kJ/mol
# GULP energy per Si atom -5585.482400 kJ/mol
# Density = 1.902649 g / cm^3
# Si number density = 19.069891 Si / 1000 Ang^3
#
#
#
# Elastic Constant Matrix: (Units=GPa)
#
#
# Indices 1 2 3 4 5 6 
#
# 1 76.5784 69.4651 58.5208 0.0000 0.0000 0.0000
# 2 69.4651 162.9170 113.3977 0.0000 0.0000 0.0000
# 3 58.5208 113.3977 129.7935 0.0000 0.0000 0.0000
# 4 0.0000 0.0000 0.0000 40.0858 0.0000 0.0000
# 5 0.0000 0.0000 0.0000 0.0000 -149.3864 0.0000
# 6 0.0000 0.0000 0.0000 0.0000 0.0000 18.0524
#
#
#
# Elastic Compliance Matrix: (Units=1/GPa)
#
#
# Indices 1 2 3 4 5 6 
#
# 1 0.022259 -0.006393 -0.004451 0.000000 0.000000 0.000000
# 2 -0.006393 0.017499 -0.012406 0.000000 0.000000 0.000000
# 3 -0.004451 -0.012406 0.020550 0.000000 0.000000 0.000000
# 4 0.000000 0.000000 0.000000 0.024946 0.000000 0.000000
# 5 0.000000 0.000000 0.000000 0.000000 -0.006694 0.000000
# 6 0.000000 0.000000 0.000000 0.000000 0.000000 0.055394
#
#
# Mechanical properties :
#
#
# Convention : Reuss Voigt Hill
#
# Bulk Modulus (GPa) = 72.41809 94.67291 83.54550
# Shear Modulus (GPa) = 27.01857 -9.72264 8.64797
#
# Velocity S-wave (km/s) = 3.76815 -2.26042 2.13184
# Velocity P-wave (km/s) = 7.54914 6.55289 7.06859
#
# Compressibility (1/GPa) = 0.01380870
#
# Stress axis : x y z
#
# Youngs Moduli (GPa) = 44.92617 57.14498 48.66102
#
# Poissons Ratio (x) = 0.36533 0.21657
# Poissons Ratio (y) = 0.28721 0.60371
# Poissons Ratio (z) = 0.19994 0.70896
#
# Static dielectric constant tensor:
#      x y z
#    x 1.686910 0.000000 0.000000 
#    y 0.000000 1.647900 0.000000 
#    z 0.000000 0.000000 1.624070 
# 
# From -- ./inp_files/2589.got.cif
#   From: 2010.05.17/outbox.cif.g08.bks.cpg/sg47_2_cif.got.tgz:2589.got - 2010.06.03 20:15:42.
