data_PCOD9386663
_publ_section_title
;
Structure prediction by ZEFSAII (Michael W. Deem and Ramdas Pophale) SiO2 
 PCOD9386663
Probable space group: P M M M
;
_chemical_formula_sum "Si O2"
_cell_formula_units_Z 44
_cell_length_a 16.680572
_cell_length_b 10.058199
_cell_length_c 13.984251
_cell_angle_alpha 90.000000
_cell_angle_beta 90.000000
_cell_angle_gamma 90.000000
_cell_volume 2346.228864
_symmetry_space_group_name_H-M "P M M M"
_symmetry_group_IT_number 47
_symmetry_cell_setting 'orthorhombic'
loop_
_space_group_symop_operation_xyz
x,y,z
-x,-y,z
x,-y,-z
-x,y,-z
-x,-y,-z
x,y,-z
-x,y,z
x,-y,z
loop_
_atom_site_type_symbol
_atom_site_label
_atom_site_fract_x
_atom_site_fract_y
_atom_site_fract_z
Si Si1 0.596480 0.653358 0.712672
Si Si2 0.904778 0.649477 0.000000
Si Si3 0.828646 0.853845 0.137447
Si Si4 0.094322 0.851668 0.661555
Si Si5 0.638565 0.154321 0.109816
Si Si6 0.097240 0.351759 0.500000
Si Si7 0.406950 0.661546 0.500000
O O1 0.500000 0.648051 0.703967
O O2 0.624098 0.500000 0.729621
O O3 0.613793 0.748828 0.803168
O O4 0.626693 0.698763 0.605977
O O5 0.874189 0.733602 0.910971
O O6 0.872848 0.500000 0.000000
O O7 0.000000 0.644950 0.000000
O O8 0.847831 0.848029 0.248629
O O9 0.735326 0.845816 0.113201
O O10 0.858182 0.000000 0.105690
O O11 0.118398 0.735286 0.591097
O O12 0.000000 0.834101 0.689536
O O13 0.098827 0.000000 0.618064
O O14 0.612572 0.000000 0.125424
O O15 0.614283 0.191881 0.000000
O O16 0.130038 0.500000 0.500000
O O17 0.000000 0.358892 0.500000
O O18 0.406673 0.500000 0.500000
O O19 0.500000 0.706392 0.500000
#
# Coordination Sequence:
#
# PCOD9386663 Si02
#       7
#     8   4   8   8   8   4   4
#     4   9  18  34  58  85 110 141 182 223 265 321
#     4  11  23  35  51  79 108 131 164 217 273 318
#     4  10  20  37  56  73  98 138 181 215 257 316
#     4   9  17  30  51  75  95 123 170 220 257 301
#     4  10  21  37  54  75 108 147 183 223 271 319
#     4   9  17  29  46  69 100 134 162 201 264 323
#     4   7  12  28  54  81 108 136 170 217 268 315
#
# _framework density 18.753499000000001
#
# number of rings (size 3 to 8) (size 9 to 14) (size 15 to 20)
#    0.000    2.636    0.909    2.182    0.000    5.091 
#    0.000    5.000    0.000    4.909    0.000    0.000 
#    0.000    0.000    0.000    0.000    0.000    0.000 
#
# Total GULP energy -244952.385451 kJ/mol
# GULP energy per Si atom -5567.099669 kJ/mol
# Density = 1.871082 g / cm^3
# Si number density = 18.753499 Si / 1000 Ang^3
#
#
#
# Elastic Constant Matrix: (Units=GPa)
#
#
# Indices 1 2 3 4 5 6 
#
# 1 14.8056 15.1012 12.6465 0.0000 0.0000 0.0000
# 2 15.1012 136.4218 80.9707 0.0000 0.0000 0.0000
# 3 12.6465 80.9707 169.8119 0.0000 0.0000 0.0000
# 4 0.0000 0.0000 0.0000 56.6277 0.0000 0.0000
# 5 0.0000 0.0000 0.0000 0.0000 26.7172 0.0000
# 6 0.0000 0.0000 0.0000 0.0000 0.0000 22.7321
#
#
#
# Elastic Compliance Matrix: (Units=1/GPa)
#
#
# Indices 1 2 3 4 5 6 
#
# 1 0.076790 -0.007121 -0.002323 0.000000 0.000000 0.000000
# 2 -0.007121 0.010884 -0.004659 0.000000 0.000000 0.000000
# 3 -0.002323 -0.004659 0.008284 0.000000 0.000000 0.000000
# 4 0.000000 0.000000 0.000000 0.017659 0.000000 0.000000
# 5 0.000000 0.000000 0.000000 0.000000 0.037429 0.000000
# 6 0.000000 0.000000 0.000000 0.000000 0.000000 0.043991
#
#
# Mechanical properties :
#
#
# Convention : Reuss Voigt Hill
#
# Bulk Modulus (GPa) = 14.76019 59.83069 37.29544
# Shear Modulus (GPa) = 20.33942 35.37013 27.85477
#
# Velocity S-wave (km/s) = 3.29685 4.34758 3.85815
# Velocity P-wave (km/s) = 4.73075 7.56142 6.30694
#
# Compressibility (1/GPa) = 0.06774980
#
# Stress axis : x y z
#
# Youngs Moduli (GPa) = 13.02250 91.87777 120.72012
#
# Poissons Ratio (x) = 0.65430 0.28046
# Poissons Ratio (y) = 0.09274 0.56249
# Poissons Ratio (z) = 0.03025 0.42810
#
# Static dielectric constant tensor:
#      x y z
#    x 1.651380 0.000000 0.000000 
#    y 0.000000 1.648660 0.000000 
#    z 0.000000 0.000000 1.679740 
# 
# From -- ./inp_files/24345.got.cif
#   From: 2010.05.17/outbox.cif.g08.bks.cpg/sg47_13_cif.got.tgz:24345.got - 2010.06.03 20:15:42.
