data_PCOD9386846
_publ_section_title
;
Structure prediction by ZEFSAII (Michael W. Deem and Ramdas Pophale) SiO2 
 PCOD9386846
Probable space group: P M M M
;
_chemical_formula_sum "Si O2"
_cell_formula_units_Z 64
_cell_length_a 8.081559
_cell_length_b 30.026835
_cell_length_c 14.985732
_cell_angle_alpha 90.000000
_cell_angle_beta 90.000000
_cell_angle_gamma 90.000000
_cell_volume 3636.492255
_symmetry_space_group_name_H-M "P M M M"
_symmetry_group_IT_number 47
_symmetry_cell_setting 'orthorhombic'
loop_
_space_group_symop_operation_xyz
x,y,z
-x,-y,z
x,-y,-z
-x,y,-z
-x,-y,-z
x,y,-z
-x,y,z
x,-y,z
loop_
_atom_site_type_symbol
_atom_site_label
_atom_site_fract_x
_atom_site_fract_y
_atom_site_fract_z
Si Si1 0.195529 0.726884 0.275756
Si Si2 0.700119 0.089851 0.601434
Si Si3 0.196532 0.547841 0.392146
Si Si4 0.203209 0.354384 0.396150
Si Si5 0.696499 0.230076 0.100747
Si Si6 0.800419 0.868870 0.102600
Si Si7 0.300284 0.191705 0.397847
Si Si8 0.802113 0.951244 0.780968
O O1 0.262540 0.684845 0.331596
O O2 0.254845 0.734344 0.175100
O O3 0.235370 0.771480 0.331033
O O4 0.000000 0.721526 0.272407
O O5 0.751092 0.079243 0.500000
O O6 0.500000 0.088745 0.603705
O O7 0.752615 0.140933 0.621530
O O8 0.767373 0.058063 0.677437
O O9 0.209495 0.548081 0.500000
O O10 0.266484 0.500000 0.360938
O O11 0.260631 0.596432 0.365010
O O12 0.000000 0.547330 0.371682
O O13 0.251374 0.347039 0.500000
O O14 0.000000 0.354880 0.396096
O O15 0.500000 0.229690 0.095199
O O16 0.750079 0.180625 0.131618
O O17 0.764152 0.237111 0.000000
O O18 0.736081 0.909193 0.163130
O O19 0.000000 0.870172 0.103629
O O20 0.744979 0.874337 0.000000
O O21 0.250302 0.201999 0.500000
O O22 0.500000 0.192188 0.394536
O O23 0.000000 0.951928 0.794264
O O24 0.736948 0.000000 0.807111
#
# Coordination Sequence:
#
# PCOD9386846 Si02
#       8
#     8   8   8   8   8   8   8   8
#     4  11  20  28  43  67  95 123 148 180 224 270
#     4   9  19  35  51  65  83 112 150 186 216 246
#     4   7   9  15  29  48  74 114 158 190 215 248
#     4   8  14  23  34  55  90 125 154 184 218 257
#     4  10  21  36  52  68  87 113 146 184 223 263
#     4   9  18  34  55  75  93 113 138 169 208 258
#     4   9  18  32  48  66  90 120 153 186 217 254
#     4  10  21  34  48  70  96 117 138 167 207 254
#
# _framework density 17.599377
#
# number of rings (size 3 to 8) (size 9 to 14) (size 15 to 20)
#    0.000    2.875    0.000    3.750    0.000    5.500 
#    0.000    3.750    0.000    0.000    0.000    2.625 
#    0.000    2.500    0.000   20.375    0.000   12.750 
#
# Total GULP energy -356680.710242 kJ/mol
# GULP energy per Si atom -5573.136098 kJ/mol
# Density = 1.755932 g / cm^3
# Si number density = 17.599377 Si / 1000 Ang^3
#
#
#
# Elastic Constant Matrix: (Units=GPa)
#
#
# Indices 1 2 3 4 5 6 
#
# 1 10.1838 10.1121 6.1885 0.0000 0.0000 0.0000
# 2 10.1121 107.4569 67.9892 0.0000 0.0000 0.0000
# 3 6.1885 67.9892 73.3603 0.0000 0.0000 0.0000
# 4 0.0000 0.0000 0.0000 12.5125 0.0000 0.0000
# 5 0.0000 0.0000 0.0000 0.0000 18.6535 0.0000
# 6 0.0000 0.0000 0.0000 0.0000 0.0000 -57.0996
#
#
#
# Elastic Compliance Matrix: (Units=1/GPa)
#
#
# Indices 1 2 3 4 5 6 
#
# 1 0.108334 -0.010668 0.000748 0.000000 0.000000 0.000000
# 2 -0.010668 0.023550 -0.020926 0.000000 0.000000 0.000000
# 3 0.000748 -0.020926 0.032962 0.000000 0.000000 0.000000
# 4 0.000000 0.000000 0.000000 0.079920 0.000000 0.000000
# 5 0.000000 0.000000 0.000000 0.000000 0.053609 0.000000
# 6 0.000000 0.000000 0.000000 0.000000 0.000000 -0.017513
#
#
# Mechanical properties :
#
#
# Convention : Reuss Voigt Hill
#
# Bulk Modulus (GPa) = 9.69421 39.95340 24.82381
# Shear Modulus (GPa) = 13.26479 1.92736 7.59607
#
# Velocity S-wave (km/s) = 2.74835 1.04762 2.07978
# Velocity P-wave (km/s) = 3.94860 4.92080 4.46126
#
# Compressibility (1/GPa) = 0.10315437
#
# Stress axis : x y z
#
# Youngs Moduli (GPa) = 9.23072 42.46295 30.33800
#
# Poissons Ratio (x) = 0.45299 -0.02269
# Poissons Ratio (y) = 0.09847 0.63485
# Poissons Ratio (z) = -0.00690 0.88857
#
# Static dielectric constant tensor:
#      x y z
#    x 1.621840 0.000000 0.000000 
#    y 0.000000 1.635290 0.000000 
#    z 0.000000 0.000000 1.607180 
# 
# From -- ./inp_files/14365.got.cif
#   From: 2010.05.17/outbox.cif.g08.bks.cpg/sg47_8_cif.got.tgz:14365.got - 2010.06.03 20:15:42.
