data_PCOD9386958
_publ_section_title
;
Structure prediction by ZEFSAII (Michael W. Deem and Ramdas Pophale) SiO2 
 PCOD9386958
Probable space group: P M M M
;
_chemical_formula_sum "Si O2"
_cell_formula_units_Z 40
_cell_length_a 7.583654
_cell_length_b 9.710779
_cell_length_c 26.698941
_cell_angle_alpha 90.000000
_cell_angle_beta 90.000000
_cell_angle_gamma 90.000000
_cell_volume 1966.195132
_symmetry_space_group_name_H-M "P M M M"
_symmetry_group_IT_number 47
_symmetry_cell_setting 'orthorhombic'
loop_
_space_group_symop_operation_xyz
x,y,z
-x,-y,z
x,-y,-z
-x,y,-z
-x,-y,-z
x,y,-z
-x,y,z
x,-y,z
loop_
_atom_site_type_symbol
_atom_site_label
_atom_site_fract_x
_atom_site_fract_y
_atom_site_fract_z
Si Si1 0.287171 0.657362 0.608936
Si Si2 0.288479 0.656888 0.092340
Si Si3 0.211455 0.656661 0.794264
Si Si4 0.211052 0.155554 0.295880
Si Si5 0.716258 0.841866 0.000000
Si Si6 0.703276 0.332482 0.500000
O O1 0.500000 0.651382 0.605063
O O2 0.226298 0.500000 0.618839
O O3 0.242848 0.758581 0.653759
O O4 0.219309 0.704699 0.554128
O O5 0.500000 0.650591 0.087610
O O6 0.221107 0.500000 0.086036
O O7 0.248551 0.701880 0.148963
O O8 0.225067 0.759077 0.049309
O O9 0.279712 0.500000 0.788292
O O10 0.280401 0.758309 0.751633
O O11 0.000000 0.650077 0.788893
O O12 0.000000 0.146381 0.289777
O O13 0.280626 0.000000 0.298545
O O14 0.500000 0.842345 0.000000
O O15 0.773214 0.000000 0.000000
O O16 0.700387 0.500000 0.500000
O O17 0.500000 0.283804 0.500000
#
# Coordination Sequence:
#
# PCOD9386958 Si02
#       6
#     8   8   8   8   4   4
#     4   9  17  31  53  77  98 123 159 202 244 287
#     4   9  17  30  49  71  93 118 151 191 232 275
#     4   9  18  33  51  69  91 122 159 198 240 283
#     4  10  21  35  49  68  98 134 166 197 239 290
#     4   9  17  29  46  69  96 124 152 183 224 274
#     4   7  12  26  48  73  98 122 152 195 244 287
#
# _framework density 20.343862000000001
#
# number of rings (size 3 to 8) (size 9 to 14) (size 15 to 20)
#    0.000    3.000    0.000    2.100    0.000    4.400 
#    0.000    3.500    0.000    7.800    0.000    0.000 
#    0.000    0.000    0.000    0.000    0.000    0.000 
#
# Total GULP energy -223095.772248 kJ/mol
# GULP energy per Si atom -5577.394306 kJ/mol
# Density = 2.029756 g / cm^3
# Si number density = 20.343862 Si / 1000 Ang^3
#
#
#
# Elastic Constant Matrix: (Units=GPa)
#
#
# Indices 1 2 3 4 5 6 
#
# 1 45.0158 6.2979 0.1249 0.0000 0.0000 0.0000
# 2 6.2979 136.4614 142.5539 0.0000 0.0000 0.0000
# 3 0.1249 142.5539 233.5958 0.0000 0.0000 0.0000
# 4 0.0000 0.0000 0.0000 -20.2016 0.0000 0.0000
# 5 0.0000 0.0000 0.0000 0.0000 28.3908 0.0000
# 6 0.0000 0.0000 0.0000 0.0000 0.0000 10.3764
#
#
#
# Elastic Compliance Matrix: (Units=1/GPa)
#
#
# Indices 1 2 3 4 5 6 
#
# 1 0.022607 -0.002843 0.001723 0.000000 0.000000 0.000000
# 2 -0.002843 0.020573 -0.012553 0.000000 0.000000 0.000000
# 3 0.001723 -0.012553 0.011941 0.000000 0.000000 0.000000
# 4 0.000000 0.000000 0.000000 -0.049501 0.000000 0.000000
# 5 0.000000 0.000000 0.000000 0.000000 0.035223 0.000000
# 6 0.000000 0.000000 0.000000 0.000000 0.000000 0.096372
#
#
# Mechanical properties :
#
#
# Convention : Reuss Voigt Hill
#
# Bulk Modulus (GPa) = 36.00493 79.22517 57.61505
# Shear Modulus (GPa) = 28.76519 21.45287 25.10903
#
# Velocity S-wave (km/s) = 3.76433 3.25085 3.51697
# Velocity P-wave (km/s) = 6.05229 7.28823 6.69882
#
# Compressibility (1/GPa) = 0.02777398
#
# Stress axis : x y z
#
# Youngs Moduli (GPa) = 44.23324 48.60678 83.74610
#
# Poissons Ratio (x) = 0.13821 -0.14431
# Poissons Ratio (y) = 0.12577 1.05131
# Poissons Ratio (z) = -0.07622 0.61018
#
# Static dielectric constant tensor:
#      x y z
#    x 1.769820 0.000000 0.000000 
#    y 0.000000 1.698600 0.000000 
#    z 0.000000 0.000000 1.717270 
# 
# From -- ./inp_files/1799.got.cif
#   From: 2010.05.17/outbox.cif.g08.bks.cpg/sg47_1_cif.got.tgz:1799.got - 2010.06.03 20:15:42.
