data_PCOD9386278
_publ_section_title
;
Structure prediction by ZEFSAII (Michael W. Deem and Ramdas Pophale) SiO2 
 PCOD9386278
Probable space group: P M M M
;
_chemical_formula_sum "Si O2"
_cell_formula_units_Z 46
_cell_length_a 29.039932
_cell_length_b 7.742327
_cell_length_c 11.765077
_cell_angle_alpha 90.000000
_cell_angle_beta 90.000000
_cell_angle_gamma 90.000000
_cell_volume 2645.220495
_symmetry_space_group_name_H-M "P M M M"
_symmetry_group_IT_number 47
_symmetry_cell_setting 'orthorhombic'
loop_
_space_group_symop_operation_xyz
x,y,z
-x,-y,z
x,-y,-z
-x,y,-z
-x,-y,-z
x,y,-z
-x,y,z
x,-y,z
loop_
_atom_site_type_symbol
_atom_site_label
_atom_site_fract_x
_atom_site_fract_y
_atom_site_fract_z
Si Si1 0.198391 0.293195 0.870134
Si Si2 0.592996 0.500000 0.500000
Si Si3 0.329401 0.790021 0.500000
Si Si4 0.445852 0.500000 0.750468
Si Si5 0.000000 0.796618 0.128776
Si Si6 0.098296 0.706888 0.868426
Si Si7 0.291324 0.794089 0.256523
Si Si8 0.614691 0.205165 0.135791
O O1 0.195341 0.500000 0.878061
O O2 0.148262 0.231678 0.825186
O O3 0.242314 0.256653 0.793575
O O4 0.205060 0.227802 0.000000
O O5 0.625174 0.328383 0.500000
O O6 0.564178 0.500000 0.615839
O O7 0.301474 0.743490 0.386148
O O8 0.338323 0.000000 0.500000
O O9 0.500000 0.500000 0.773180
O O10 0.421832 0.330707 0.804863
O O11 0.048975 0.752060 0.184685
O O12 0.000000 0.000000 0.116741
O O13 0.000000 0.716396 0.000000
O O14 0.099487 0.500000 0.870063
O O15 0.096608 0.768751 0.000000
O O16 0.334795 0.737705 0.180184
O O17 0.292343 0.000000 0.253678
O O18 0.608333 0.000000 0.163532
O O19 0.612356 0.222365 0.000000
#
# Coordination Sequence:
#
# PCOD9386278 Si02
#       8
#     8   2   4   4   4   8   8   8
#     4   9  18  29  44  70 103 133 167 211 258 313
#     4  12  23  42  68  84 110 152 180 225 284 310
#     4  10  22  39  59  83 108 139 183 223 264 324
#     4  12  26  42  63  91 116 144 188 231 269 318
#     4   9  15  21  33  53  77 114 167 214 247 291
#     4   8  14  25  37  53  83 125 164 202 250 302
#     4  10  20  35  54  76 104 136 172 215 262 315
#     4  10  22  40  61  86 117 151 184 220 270 330
#
# _framework density 17.389855000000001
#
# number of rings (size 3 to 8) (size 9 to 14) (size 15 to 20)
#    0.000    2.348    1.739    2.217    2.435    3.826 
#    0.000    2.609    0.000    1.565    0.000    0.000 
#    0.000    0.696    0.000    7.826    0.000    5.913 
#
# Total GULP energy -256194.724006 kJ/mol
# GULP energy per Si atom -5569.450522 kJ/mol
# Density = 1.735027 g / cm^3
# Si number density = 17.389855 Si / 1000 Ang^3
#
#
#
# Elastic Constant Matrix: (Units=GPa)
#
#
# Indices 1 2 3 4 5 6 
#
# 1 191.4387 42.7764 55.6740 0.0000 0.0000 0.0000
# 2 42.7764 51.3073 31.1436 0.0000 0.0000 0.0000
# 3 55.6740 31.1436 75.9354 0.0000 0.0000 0.0000
# 4 0.0000 0.0000 0.0000 15.3846 0.0000 0.0000
# 5 0.0000 0.0000 0.0000 0.0000 3.0493 0.0000
# 6 0.0000 0.0000 0.0000 0.0000 0.0000 473.2845
#
#
#
# Elastic Compliance Matrix: (Units=1/GPa)
#
#
# Indices 1 2 3 4 5 6 
#
# 1 0.007128 -0.003689 -0.003713 0.000000 0.000000 0.000000
# 2 -0.003689 0.027860 -0.008722 0.000000 0.000000 0.000000
# 3 -0.003713 -0.008722 0.019468 0.000000 0.000000 0.000000
# 4 0.000000 0.000000 0.000000 0.065000 0.000000 0.000000
# 5 0.000000 0.000000 0.000000 0.000000 0.327949 0.000000
# 6 0.000000 0.000000 0.000000 0.000000 0.000000 0.002113
#
#
# Mechanical properties :
#
#
# Convention : Reuss Voigt Hill
#
# Bulk Modulus (GPa) = 45.02663 64.20770 54.61717
# Shear Modulus (GPa) = 10.22145 110.94950 60.58547
#
# Velocity S-wave (km/s) = 2.42705 7.99624 5.90891
# Velocity P-wave (km/s) = 5.81402 11.05693 8.83342
#
# Compressibility (1/GPa) = 0.02220908
#
# Stress axis : x y z
#
# Youngs Moduli (GPa) = 140.29890 35.89385 51.36534
#
# Poissons Ratio (x) = 0.13240 0.19072
# Poissons Ratio (y) = 0.51753 0.44799
# Poissons Ratio (z) = 0.52092 0.31306
#
# Static dielectric constant tensor:
#      x y z
#    x 1.639330 0.000000 0.000000 
#    y 0.000000 1.626950 0.000000 
#    z 0.000000 0.000000 1.578480 
# 
# From -- ./inp_files/19513.got.cif
#   From: 2010.05.17/outbox.cif.g08.bks.cpg/sg47_10_cif.got.tgz:19513.got - 2010.06.03 20:15:42.
