data_PCOD9386102
_publ_section_title
;
Structure prediction by ZEFSAII (Michael W. Deem and Ramdas Pophale) SiO2 
 PCOD9386102
Probable space group: P M M M
;
_chemical_formula_sum "Si O2"
_cell_formula_units_Z 52
_cell_length_a 13.415241
_cell_length_b 7.454478
_cell_length_c 22.544799
_cell_angle_alpha 90.000000
_cell_angle_beta 90.000000
_cell_angle_gamma 90.000000
_cell_volume 2254.561487
_symmetry_space_group_name_H-M "P M M M"
_symmetry_group_IT_number 47
_symmetry_cell_setting 'orthorhombic'
loop_
_space_group_symop_operation_xyz
x,y,z
-x,-y,z
x,-y,-z
-x,y,-z
-x,-y,-z
x,y,-z
-x,y,z
x,-y,z
loop_
_atom_site_type_symbol
_atom_site_label
_atom_site_fract_x
_atom_site_fract_y
_atom_site_fract_z
Si Si1 0.175161 0.282140 0.565090
Si Si2 0.895122 0.207852 0.692300
Si Si3 0.305424 0.790142 0.141717
Si Si4 0.321258 0.218214 0.727408
Si Si5 0.393397 0.291691 0.599646
Si Si6 0.500000 0.715034 0.066954
Si Si7 0.113730 0.218852 0.930961
O O1 0.139584 0.229559 0.500000
O O2 0.174407 0.500000 0.568148
O O3 0.114019 0.215926 0.621197
O O4 0.289628 0.218481 0.574455
O O5 0.792050 0.282037 0.716027
O O6 0.000000 0.289558 0.711148
O O7 0.895770 0.000000 0.710719
O O8 0.341957 0.721166 0.205842
O O9 0.398888 0.774732 0.098488
O O10 0.203853 0.717731 0.111470
O O11 0.283724 0.000000 0.152206
O O12 0.383543 0.283720 0.671185
O O13 0.327221 0.000000 0.723656
O O14 0.500000 0.212066 0.582021
O O15 0.394581 0.500000 0.581633
O O16 0.500000 0.500000 0.067230
O O17 0.500000 0.780858 0.000000
O O18 0.000000 0.272384 0.914616
O O19 0.115169 0.000000 0.930160
O O20 0.131067 0.271166 0.000000
#
# Coordination Sequence:
#
# PCOD9386102 Si02
#       7
#     8   8   8   8   8   4   8
#     4   9  18  32  49  71  98 126 163 212 257 298
#     4   9  18  33  51  71 100 137 169 200 246 302
#     4  10  20  34  55  81 106 136 175 217 260 308
#     4   9  19  33  49  73 101 128 162 204 247 292
#     4   9  18  32  50  70  93 126 164 201 249 303
#     4  11  25  41  55  75 107 145 180 217 262 311
#     4   8  14  26  47  76 105 129 158 203 256 303
#
# _framework density 23.064350999999998
#
# number of rings (size 3 to 8) (size 9 to 14) (size 15 to 20)
#    0.000    2.846    0.000    1.154    1.077    4.000 
#    0.000    6.154    0.000    0.462    0.000    8.615 
#    0.000    0.000    0.000    0.000    0.000    0.000 
#
# Total GULP energy -290163.822741 kJ/mol
# GULP energy per Si atom -5580.073514 kJ/mol
# Density = 2.301186 g / cm^3
# Si number density = 23.064351 Si / 1000 Ang^3
#
#
#
# Elastic Constant Matrix: (Units=GPa)
#
#
# Indices 1 2 3 4 5 6 
#
# 1 85.9492 -9.8222 -11.0233 0.0000 0.0000 0.0000
# 2 -9.8222 70.1845 -14.5110 0.0000 0.0000 0.0000
# 3 -11.0233 -14.5110 77.1727 0.0000 0.0000 0.0000
# 4 0.0000 0.0000 0.0000 7.3599 0.0000 0.0000
# 5 0.0000 0.0000 0.0000 0.0000 -22.2875 0.0000
# 6 0.0000 0.0000 0.0000 0.0000 0.0000 -2.3583
#
#
#
# Elastic Compliance Matrix: (Units=1/GPa)
#
#
# Indices 1 2 3 4 5 6 
#
# 1 0.012154 0.002143 0.002139 0.000000 0.000000 0.000000
# 2 0.002143 0.015202 0.003165 0.000000 0.000000 0.000000
# 3 0.002139 0.003165 0.013859 0.000000 0.000000 0.000000
# 4 0.000000 0.000000 0.000000 0.135872 0.000000 0.000000
# 5 0.000000 0.000000 0.000000 0.000000 -0.044868 0.000000
# 6 0.000000 0.000000 0.000000 0.000000 0.000000 -0.424029
#
#
# Mechanical properties :
#
#
# Convention : Reuss Voigt Hill
#
# Bulk Modulus (GPa) = 17.82248 18.06594 17.94421
# Shear Modulus (GPa) = -17.36104 14.45366 -1.45369
#
# Velocity S-wave (km/s) = -2.74655 2.50605 -0.79476
# Velocity P-wave (km/s) = 1.52119 4.02785 2.63719
#
# Compressibility (1/GPa) = 0.05610890
#
# Stress axis : x y z
#
# Youngs Moduli (GPa) = 82.27711 65.77909 72.15756
#
# Poissons Ratio (x) = -0.14098 -0.15435
# Poissons Ratio (y) = -0.17634 -0.22836
# Poissons Ratio (z) = -0.17600 -0.20817
#
# Static dielectric constant tensor:
#      x y z
#    x 1.856050 0.000000 0.000000 
#    y 0.000000 1.910200 0.000000 
#    z 0.000000 0.000000 1.845280 
# 
# From -- ./inp_files/30858.got.cif
#   From: 2010.05.17/outbox.cif.g08.bks.cpg/sg47_16_cif.got.tgz:30858.got - 2010.06.03 20:15:42.
