data_PCOD9386230
_publ_section_title
;
Structure prediction by ZEFSAII (Michael W. Deem and Ramdas Pophale) SiO2 
 PCOD9386230
Probable space group: P M M M
;
_chemical_formula_sum "Si O2"
_cell_formula_units_Z 33
_cell_length_a 9.906299
_cell_length_b 20.347367
_cell_length_c 7.931147
_cell_angle_alpha 90.000000
_cell_angle_beta 90.000000
_cell_angle_gamma 90.000000
_cell_volume 1598.658311
_symmetry_space_group_name_H-M "P M M M"
_symmetry_group_IT_number 47
_symmetry_cell_setting 'orthorhombic'
loop_
_space_group_symop_operation_xyz
x,y,z
-x,-y,z
x,-y,-z
-x,y,-z
-x,-y,-z
x,y,-z
-x,y,z
x,-y,z
loop_
_atom_site_type_symbol
_atom_site_label
_atom_site_fract_x
_atom_site_fract_y
_atom_site_fract_z
Si Si1 0.846318 0.424675 0.205652
Si Si2 0.500000 0.901228 0.182030
Si Si3 0.248204 0.829961 0.696747
Si Si4 0.000000 0.077314 0.202836
Si Si5 0.657471 0.306922 0.203940
Si Si6 0.500000 0.000000 0.500000
O O1 0.821833 0.500000 0.258553
O O2 0.731244 0.373867 0.260330
O O3 0.000000 0.406271 0.256832
O O4 0.845628 0.424188 0.000000
O O5 0.629809 0.856214 0.193312
O O6 0.500000 0.944796 0.348919
O O7 0.500000 0.934148 0.000000
O O8 0.278711 0.836218 0.500000
O O9 0.245765 0.752912 0.738275
O O10 0.125978 0.879354 0.735761
O O11 0.000000 0.000000 0.259842
O O12 0.000000 0.075664 0.000000
O O13 0.500000 0.300240 0.261396
O O14 0.654015 0.306345 0.000000
#
# Coordination Sequence:
#
# PCOD9386230 Si02
#       6
#     8   4   8   4   8   1
#     4   8  15  29  51  83 123 164 210 266 324 385
#     4  12  25  45  71  98 134 172 221 273 330 397
#     4  12  25  44  64  94 131 173 218 271 331 396
#     4  11  27  47  69  95 124 163 212 269 340 405
#     4  10  20  34  57  88 122 165 216 269 324 384
#     4  12  26  44  68 108 128 176 220 270 336 398
#
# _framework density 20.642309000000001
#
# number of rings (size 3 to 8) (size 9 to 14) (size 15 to 20)
#    0.000    1.576    2.424    3.455    3.394    1.455 
#    0.000    2.424    0.000    0.727    0.000    3.394 
#    0.000    0.000    0.000    0.000    0.000    0.000 
#
# Total GULP energy -183800.831122 kJ/mol
# GULP energy per Si atom -5569.722155 kJ/mol
# Density = 2.059533 g / cm^3
# Si number density = 20.642309 Si / 1000 Ang^3
#
#
#
# Elastic Constant Matrix: (Units=GPa)
#
#
# Indices 1 2 3 4 5 6 
#
# 1 118.4456 75.8312 7.9254 0.0000 0.0000 0.0000
# 2 75.8312 163.5083 21.8761 0.0000 0.0000 0.0000
# 3 7.9254 21.8761 96.2738 0.0000 0.0000 0.0000
# 4 0.0000 0.0000 0.0000 6.7412 0.0000 0.0000
# 5 0.0000 0.0000 0.0000 0.0000 9.9139 0.0000
# 6 0.0000 0.0000 0.0000 0.0000 0.0000 52.8855
#
#
#
# Elastic Compliance Matrix: (Units=1/GPa)
#
#
# Indices 1 2 3 4 5 6 
#
# 1 0.012016 -0.005611 0.000286 0.000000 0.000000 0.000000
# 2 -0.005611 0.008928 -0.001567 0.000000 0.000000 0.000000
# 3 0.000286 -0.001567 0.010720 0.000000 0.000000 0.000000
# 4 0.000000 0.000000 0.000000 0.148342 0.000000 0.000000
# 5 0.000000 0.000000 0.000000 0.000000 0.100869 0.000000
# 6 0.000000 0.000000 0.000000 0.000000 0.000000 0.018909
#
#
# Mechanical properties :
#
#
# Convention : Reuss Voigt Hill
#
# Bulk Modulus (GPa) = 55.93037 65.49923 60.71480
# Shear Modulus (GPa) = 15.64816 32.08111 23.86464
#
# Velocity S-wave (km/s) = 2.75628 3.94654 3.40384
# Velocity P-wave (km/s) = 6.10600 7.25027 6.70260
#
# Compressibility (1/GPa) = 0.01787937
#
# Stress axis : x y z
#
# Youngs Moduli (GPa) = 83.22415 112.01108 93.28780
#
# Poissons Ratio (x) = 0.62848 -0.02666
# Poissons Ratio (y) = 0.46696 0.14616
# Poissons Ratio (z) = -0.02378 0.17549
#
# Static dielectric constant tensor:
#      x y z
#    x 1.734760 0.000000 0.000000 
#    y 0.000000 1.772390 0.000000 
#    z 0.000000 0.000000 1.731980 
# 
# From -- ./inp_files/1167.got.cif
#   From: 2010.05.17/outbox.cif.g08.bks.cpg/sg47_1_cif.got.tgz:1167.got - 2010.06.03 20:15:42.
