data_PCOD9386860
_publ_section_title
;
Structure prediction by ZEFSAII (Michael W. Deem and Ramdas Pophale) SiO2 
 PCOD9386860
Probable space group: P M M M
;
_chemical_formula_sum "Si O2"
_cell_formula_units_Z 56
_cell_length_a 21.064416
_cell_length_b 15.779794
_cell_length_c 8.102833
_cell_angle_alpha 90.000000
_cell_angle_beta 90.000000
_cell_angle_gamma 90.000000
_cell_volume 2693.318043
_symmetry_space_group_name_H-M "P M M M"
_symmetry_group_IT_number 47
_symmetry_cell_setting 'orthorhombic'
loop_
_space_group_symop_operation_xyz
x,y,z
-x,-y,z
x,-y,-z
-x,y,-z
-x,-y,-z
x,y,-z
-x,y,z
x,-y,z
loop_
_atom_site_type_symbol
_atom_site_label
_atom_site_fract_x
_atom_site_fract_y
_atom_site_fract_z
Si Si1 0.931893 0.172929 0.309239
Si Si2 0.342466 0.596946 0.696644
Si Si3 0.802756 0.101342 0.187283
Si Si4 0.572690 0.247832 0.699634
Si Si5 0.664529 0.097776 0.800263
Si Si6 0.795088 0.398922 0.813020
Si Si7 0.931367 0.358404 0.808789
O O1 0.932012 0.200454 0.500000
O O2 0.867314 0.123724 0.278366
O O3 0.931822 0.256896 0.199467
O O4 0.000000 0.127635 0.279636
O O5 0.351060 0.591802 0.500000
O O6 0.350494 0.500000 0.761674
O O7 0.390833 0.667809 0.761171
O O8 0.270284 0.627467 0.728755
O O9 0.734540 0.128296 0.258951
O O10 0.797887 0.000000 0.179341
O O11 0.808556 0.134542 0.000000
O O12 0.572173 0.251532 0.500000
O O13 0.500000 0.245151 0.757294
O O14 0.611322 0.164010 0.748691
O O15 0.653162 0.000000 0.746155
O O16 0.668197 0.096095 0.000000
O O17 0.791185 0.500000 0.822974
O O18 0.863503 0.381641 0.732154
O O19 0.795629 0.363465 0.000000
O O20 0.000000 0.386876 0.738942
O O21 0.929732 0.387722 0.000000
#
# Coordination Sequence:
#
# PCOD9386860 Si02
#       7
#     8   8   8   8   8   8   8
#     4  10  21  34  48  71 104 139 175 218 266 314
#     4   9  19  36  56  79 110 147 184 223 268 321
#     4   9  19  36  56  77 101 133 175 219 264 316
#     4  10  22  38  57  85 115 144 182 223 268 323
#     4   9  20  39  60  83 112 145 182 224 271 326
#     4   9  18  32  51  76 103 133 173 221 269 314
#     4   9  18  32  49  70  99 137 178 218 263 314
#
# _framework density 20.792197000000002
#
# number of rings (size 3 to 8) (size 9 to 14) (size 15 to 20)
#    0.000    2.714    0.000    1.286    2.000    4.571 
#    0.000    7.143    0.000    0.000    0.000    7.000 
#    0.000    0.000    0.000    0.000    0.000    0.000 
#
# Total GULP energy -311994.826649 kJ/mol
# GULP energy per Si atom -5571.336190 kJ/mol
# Density = 2.074487 g / cm^3
# Si number density = 20.792197 Si / 1000 Ang^3
#
#
#
# Elastic Constant Matrix: (Units=GPa)
#
#
# Indices 1 2 3 4 5 6 
#
# 1 228.2285 82.5610 17.6171 0.0000 0.0000 0.0000
# 2 82.5610 75.8772 8.2060 0.0000 0.0000 0.0000
# 3 17.6171 8.2060 19.4736 0.0000 0.0000 0.0000
# 4 0.0000 0.0000 0.0000 14.7134 0.0000 0.0000
# 5 0.0000 0.0000 0.0000 0.0000 24.7745 0.0000
# 6 0.0000 0.0000 0.0000 0.0000 0.0000 53.8217
#
#
#
# Elastic Compliance Matrix: (Units=1/GPa)
#
#
# Indices 1 2 3 4 5 6 
#
# 1 0.007444 -0.007724 -0.003480 0.000000 0.000000 0.000000
# 2 -0.007724 0.021822 -0.002208 0.000000 0.000000 0.000000
# 3 -0.003480 -0.002208 0.055430 0.000000 0.000000 0.000000
# 4 0.000000 0.000000 0.000000 0.067965 0.000000 0.000000
# 5 0.000000 0.000000 0.000000 0.000000 0.040364 0.000000
# 6 0.000000 0.000000 0.000000 0.000000 0.000000 0.018580
#
#
# Mechanical properties :
#
#
# Convention : Reuss Voigt Hill
#
# Bulk Modulus (GPa) = 17.27923 60.03859 38.65891
# Shear Modulus (GPa) = 19.40089 33.00825 26.20457
#
# Velocity S-wave (km/s) = 3.05796 3.98871 3.55393
# Velocity P-wave (km/s) = 4.56033 7.08176 5.95600
#
# Compressibility (1/GPa) = 0.05787295
#
# Stress axis : x y z
#
# Youngs Moduli (GPa) = 134.33356 45.82550 18.04066
#
# Poissons Ratio (x) = 0.35394 0.06278
# Poissons Ratio (y) = 1.03753 0.03984
# Poissons Ratio (z) = 0.46746 0.10120
#
# Static dielectric constant tensor:
#      x y z
#    x 1.786380 0.000000 0.000000 
#    y 0.000000 1.734800 0.000000 
#    z 0.000000 0.000000 1.769450 
# 
# From -- ./inp_files/7234.got.cif
#   From: 2010.05.17/outbox.cif.g08.bks.cpg/sg47_4_cif.got.tgz:7234.got - 2010.06.03 20:15:42.
