data_PCOD9386524
_publ_section_title
;
Structure prediction by ZEFSAII (Michael W. Deem and Ramdas Pophale) SiO2 
 PCOD9386524
Probable space group: P M M M
;
_chemical_formula_sum "Si O2"
_cell_formula_units_Z 49
_cell_length_a 8.027953
_cell_length_b 32.747026
_cell_length_c 8.658682
_cell_angle_alpha 90.000000
_cell_angle_beta 90.000000
_cell_angle_gamma 90.000000
_cell_volume 2276.294640
_symmetry_space_group_name_H-M "P M M M"
_symmetry_group_IT_number 47
_symmetry_cell_setting 'orthorhombic'
loop_
_space_group_symop_operation_xyz
x,y,z
-x,-y,z
x,-y,-z
-x,y,-z
-x,-y,-z
x,y,-z
-x,y,z
x,-y,z
loop_
_atom_site_type_symbol
_atom_site_label
_atom_site_fract_x
_atom_site_fract_y
_atom_site_fract_z
Si Si1 0.307666 0.416273 0.833369
Si Si2 0.200522 0.048362 0.000000
Si Si3 0.803656 0.085625 0.326340
Si Si4 0.187962 0.662205 0.683729
Si Si5 0.301818 0.834622 0.175883
Si Si6 0.500000 0.500000 0.500000
Si Si7 0.202209 0.249746 0.679537
Si Si8 0.184316 0.500000 0.269259
O O1 0.500000 0.428777 0.825499
O O2 0.278063 0.380209 0.714024
O O3 0.200287 0.456899 0.817293
O O4 0.275320 0.397109 0.000000
O O5 0.264952 0.065751 0.165738
O O6 0.000000 0.056418 0.000000
O O7 0.226635 0.000000 0.000000
O O8 0.736910 0.075639 0.500000
O O9 0.781889 0.133781 0.293553
O O10 0.000000 0.075293 0.330794
O O11 0.177764 0.667609 0.500000
O O12 0.260273 0.705593 0.738715
O O13 0.000000 0.657498 0.745346
O O14 0.500000 0.841132 0.181579
O O15 0.263149 0.788359 0.222588
O O16 0.243680 0.842637 0.000000
O O17 0.349813 0.500000 0.371759
O O18 0.253442 0.244117 0.500000
O O19 0.000000 0.250915 0.682435
O O20 0.000000 0.500000 0.339836
#
# Coordination Sequence:
#
# PCOD9386524 Si02
#       8
#     8   4   8   8   8   1   8   4
#     4  11  24  42  62  88 126 165 203 253 307 365
#     4   9  18  34  57  87 123 155 191 245 301 354
#     4  10  20  35  58  86 115 153 198 241 296 361
#     4   9  20  38  60  86 116 152 199 250 303 367
#     4  11  23  36  53  80 115 153 196 247 300 360
#     4  12  26  48  66 102 136 152 200 264 308 378
#     4   9  19  37  58  82 113 150 195 248 305 365
#     4  12  26  44  70  97 126 165 205 252 311 373
#
# _framework density 21.526212000000001
#
# number of rings (size 3 to 8) (size 9 to 14) (size 15 to 20)
#    0.000    1.878    1.633    2.816    1.143    7.837 
#    0.000    6.531    0.000    0.980    0.000    1.143 
#    0.000    0.000    0.000    0.000    0.000    0.000 
#
# Total GULP energy -272904.418853 kJ/mol
# GULP energy per Si atom -5569.477936 kJ/mol
# Density = 2.147722 g / cm^3
# Si number density = 21.526212 Si / 1000 Ang^3
#
#
#
# Elastic Constant Matrix: (Units=GPa)
#
#
# Indices 1 2 3 4 5 6 
#
# 1 58.4604 -0.2063 16.0188 0.0000 0.0000 0.0000
# 2 -0.2063 92.2317 41.9214 0.0000 0.0000 0.0000
# 3 16.0188 41.9214 116.3024 0.0000 0.0000 0.0000
# 4 0.0000 0.0000 0.0000 32.3573 0.0000 0.0000
# 5 0.0000 0.0000 0.0000 0.0000 -51.6140 0.0000
# 6 0.0000 0.0000 0.0000 0.0000 0.0000 109.4321
#
#
#
# Elastic Compliance Matrix: (Units=1/GPa)
#
#
# Indices 1 2 3 4 5 6 
#
# 1 0.017924 0.001390 -0.002970 0.000000 0.000000 0.000000
# 2 0.001390 0.013074 -0.004904 0.000000 0.000000 0.000000
# 3 -0.002970 -0.004904 0.010775 0.000000 0.000000 0.000000
# 4 0.000000 0.000000 0.000000 0.030905 0.000000 0.000000
# 5 0.000000 0.000000 0.000000 0.000000 -0.019375 0.000000
# 6 0.000000 0.000000 0.000000 0.000000 0.000000 0.009138
#
#
# Mechanical properties :
#
#
# Convention : Reuss Voigt Hill
#
# Bulk Modulus (GPa) = 34.71531 42.49578 38.60555
# Shear Modulus (GPa) = 58.81521 31.98577 45.40049
#
# Velocity S-wave (km/s) = 5.23277 3.85892 4.59745
# Velocity P-wave (km/s) = 7.25749 6.29597 6.79377
#
# Compressibility (1/GPa) = 0.02880573
#
# Stress axis : x y z
#
# Youngs Moduli (GPa) = 55.79028 76.48532 92.80725
#
# Poissons Ratio (x) = -0.10631 0.27562
# Poissons Ratio (y) = -0.07754 0.45514
# Poissons Ratio (z) = 0.16568 0.37509
#
# Static dielectric constant tensor:
#      x y z
#    x 1.778200 0.000000 0.000000 
#    y 0.000000 1.785050 0.000000 
#    z 0.000000 0.000000 1.818670 
# 
# From -- ./inp_files/2862.got.cif
#   From: 2010.05.17/outbox.cif.g08.bks.cpg/sg47_2_cif.got.tgz:2862.got - 2010.06.03 20:15:42.
