data_PCOD9386154
_publ_section_title
;
Structure prediction by ZEFSAII (Michael W. Deem and Ramdas Pophale) SiO2 
 PCOD9386154
Probable space group: P M M M
;
_chemical_formula_sum "Si O2"
_cell_formula_units_Z 56
_cell_length_a 8.508587
_cell_length_b 14.730620
_cell_length_c 23.323602
_cell_angle_alpha 90.000000
_cell_angle_beta 90.000000
_cell_angle_gamma 90.000000
_cell_volume 2923.304749
_symmetry_space_group_name_H-M "P M M M"
_symmetry_group_IT_number 47
_symmetry_cell_setting 'orthorhombic'
loop_
_space_group_symop_operation_xyz
x,y,z
-x,-y,z
x,-y,-z
-x,y,-z
-x,-y,-z
x,y,-z
-x,y,z
x,-y,z
loop_
_atom_site_type_symbol
_atom_site_label
_atom_site_fract_x
_atom_site_fract_y
_atom_site_fract_z
Si Si1 0.813121 0.203167 0.062314
Si Si2 0.688193 0.767422 0.719166
Si Si3 0.311273 0.393893 0.500000
Si Si4 0.816814 0.601908 0.789117
Si Si5 0.811436 0.250044 0.590976
Si Si6 0.310270 0.104487 0.823513
Si Si7 0.191105 0.897882 0.500000
Si Si8 0.314406 0.399061 0.915357
O O1 0.741922 0.156881 0.118895
O O2 0.771292 0.309996 0.062318
O O3 0.000000 0.192641 0.065519
O O4 0.758847 0.165901 0.000000
O O5 0.500000 0.771493 0.716476
O O6 0.745574 0.673819 0.746644
O O7 0.754841 0.766823 0.655269
O O8 0.741608 0.844082 0.765235
O O9 0.260217 0.500000 0.500000
O O10 0.500000 0.392565 0.500000
O O11 0.252895 0.337417 0.444083
O O12 0.810571 0.500000 0.765559
O O13 0.718029 0.603849 0.847440
O O14 0.000000 0.622491 0.802449
O O15 0.762085 0.161826 0.554443
O O16 0.000000 0.257063 0.590139
O O17 0.500000 0.105127 0.823138
O O18 0.256297 0.000000 0.824724
O O19 0.000000 0.901520 0.500000
O O20 0.251223 0.000000 0.500000
O O21 0.500000 0.391786 0.927165
O O22 0.261224 0.500000 0.934375
#
# Coordination Sequence:
#
# PCOD9386154 Si02
#       8
#     8   8   4   8   8   8   4   8
#     4  11  24  40  60  87 118 153 196 247 301 359
#     4  11  22  37  59  86 119 156 195 242 292 348
#     4  10  21  39  62  87 120 163 207 250 294 342
#     4  10  20  34  55  83 115 150 187 230 281 339
#     4  10  21  36  58  88 120 156 196 240 290 345
#     4  10  23  43  64  86 114 152 198 249 307 367
#     4   8  16  34  58  83 112 145 185 232 280 334
#     4  10  20  35  57  85 116 151 190 231 281 345
#
# _framework density 19.156403000000001
#
# number of rings (size 3 to 8) (size 9 to 14) (size 15 to 20)
#    0.000    1.857    1.429    2.786    0.000    6.000 
#    0.000    2.857    0.000    7.286    0.000    0.000 
#    0.000    0.000    0.000    0.000    0.000    0.000 
#
# Total GULP energy -312496.707922 kJ/mol
# GULP energy per Si atom -5580.298356 kJ/mol
# Density = 1.911280 g / cm^3
# Si number density = 19.156403 Si / 1000 Ang^3
#
#
#
# Elastic Constant Matrix: (Units=GPa)
#
#
# Indices 1 2 3 4 5 6 
#
# 1 38.7571 27.9983 26.9935 0.0000 0.0000 0.0000
# 2 27.9983 144.1879 96.0151 0.0000 0.0000 0.0000
# 3 26.9935 96.0151 178.4432 0.0000 0.0000 0.0000
# 4 0.0000 0.0000 0.0000 -5.8452 0.0000 0.0000
# 5 0.0000 0.0000 0.0000 0.0000 28.5009 0.0000
# 6 0.0000 0.0000 0.0000 0.0000 0.0000 13.0212
#
#
#
# Elastic Compliance Matrix: (Units=1/GPa)
#
#
# Indices 1 2 3 4 5 6 
#
# 1 0.030570 -0.004452 -0.002229 0.000000 0.000000 0.000000
# 2 -0.004452 0.011456 -0.005491 0.000000 0.000000 0.000000
# 3 -0.002229 -0.005491 0.008896 0.000000 0.000000 0.000000
# 4 0.000000 0.000000 0.000000 -0.171082 0.000000 0.000000
# 5 0.000000 0.000000 0.000000 0.000000 0.035087 0.000000
# 6 0.000000 0.000000 0.000000 0.000000 0.000000 0.076798
#
#
# Mechanical properties :
#
#
# Convention : Reuss Voigt Hill
#
# Bulk Modulus (GPa) = 37.62404 73.71133 55.66768
# Shear Modulus (GPa) = 200.57959 21.16080 110.87020
#
# Velocity S-wave (km/s) = 10.24371 3.32721 7.61590
# Velocity P-wave (km/s) = 12.63307 7.30224 10.31788
#
# Compressibility (1/GPa) = 0.02657875
#
# Stress axis : x y z
#
# Youngs Moduli (GPa) = 32.71166 87.28920 112.41442
#
# Poissons Ratio (x) = 0.38859 0.25058
# Poissons Ratio (y) = 0.14562 0.61725
# Poissons Ratio (z) = 0.07292 0.47929
#
# Static dielectric constant tensor:
#      x y z
#    x 1.653520 0.000000 0.000000 
#    y 0.000000 1.639460 0.000000 
#    z 0.000000 0.000000 1.669730 
# 
# From -- ./inp_files/29805.got.cif
#   From: 2010.05.17/outbox.cif.g08.bks.cpg/sg47_15_cif.got.tgz:29805.got - 2010.06.03 20:15:42.
