data_PCOD9386938
_publ_section_title
;
Structure prediction by ZEFSAII (Michael W. Deem and Ramdas Pophale) SiO2 
 PCOD9386938
Probable space group: P M M M
;
_chemical_formula_sum "Si O2"
_cell_formula_units_Z 56
_cell_length_a 19.628699
_cell_length_b 7.468967
_cell_length_c 19.564485
_cell_angle_alpha 90.000000
_cell_angle_beta 90.000000
_cell_angle_gamma 90.000000
_cell_volume 2868.272944
_symmetry_space_group_name_H-M "P M M M"
_symmetry_group_IT_number 47
_symmetry_cell_setting 'orthorhombic'
loop_
_space_group_symop_operation_xyz
x,y,z
-x,-y,z
x,-y,-z
-x,y,-z
-x,-y,-z
x,y,-z
-x,y,z
x,-y,z
loop_
_atom_site_type_symbol
_atom_site_label
_atom_site_fract_x
_atom_site_fract_y
_atom_site_fract_z
Si Si1 0.777270 0.780583 0.578011
Si Si2 0.651248 0.783895 0.076249
Si Si3 0.787482 0.780804 0.847037
Si Si4 0.072704 0.787952 0.417406
Si Si5 0.923430 0.781811 0.079307
Si Si6 0.713546 0.791504 0.712916
Si Si7 0.424608 0.709519 0.786403
O O1 0.764810 0.720501 0.500000
O O2 0.852886 0.721039 0.602350
O O3 0.725653 0.720605 0.636851
O O4 0.778135 0.000000 0.574278
O O5 0.726762 0.728892 0.101106
O O6 0.598550 0.730135 0.134913
O O7 0.651210 0.000000 0.075213
O O8 0.636202 0.719674 0.000000
O O9 0.861092 0.721662 0.873455
O O10 0.762419 0.716794 0.772636
O O11 0.788210 0.000000 0.846014
O O12 0.072346 0.772471 0.500000
O O13 0.000000 0.713245 0.392544
O O14 0.072036 0.000000 0.401535
O O15 0.000000 0.725077 0.099190
O O16 0.923147 0.000000 0.080498
O O17 0.912077 0.730284 0.000000
O O18 0.636825 0.782663 0.740664
O O19 0.732022 0.000000 0.708743
O O20 0.500000 0.786147 0.775765
O O21 0.427168 0.500000 0.771267
#
# Coordination Sequence:
#
# PCOD9386938 Si02
#       7
#     8   8   8   8   8   8   8
#     4   8  13  22  38  61  88 116 146 181 220 261
#     4   9  17  29  47  70  93 118 147 178 212 251
#     4   8  13  22  35  53  81 113 143 174 208 247
#     4   7   9  14  26  47  79 117 147 168 200 251
#     4   8  12  17  27  45  72 109 147 178 211 248
#     4   9  17  29  46  66  86 111 143 178 217 262
#     4  10  21  35  49  65  87 115 143 173 213 260
#
# _framework density 19.523944
#
# number of rings (size 3 to 8) (size 9 to 14) (size 15 to 20)
#    0.000    3.571    0.000    3.429    0.000    3.429 
#    0.000    2.143    0.000    5.143    0.000    3.000 
#    0.000   14.286    0.000   35.000    0.000   31.429 
#
# Total GULP energy -311814.859681 kJ/mol
# GULP energy per Si atom -5568.122494 kJ/mol
# Density = 1.947951 g / cm^3
# Si number density = 19.523944 Si / 1000 Ang^3
#
#
#
# Elastic Constant Matrix: (Units=GPa)
#
#
# Indices 1 2 3 4 5 6 
#
# 1 142.6587 -6.8144 79.4707 0.0000 0.0000 0.0000
# 2 -6.8144 49.5544 -0.9013 0.0000 0.0000 0.0000
# 3 79.4707 -0.9013 119.8873 0.0000 0.0000 0.0000
# 4 0.0000 0.0000 0.0000 -51.9534 0.0000 0.0000
# 5 0.0000 0.0000 0.0000 0.0000 12.4884 0.0000
# 6 0.0000 0.0000 0.0000 0.0000 0.0000 41.3819
#
#
#
# Elastic Compliance Matrix: (Units=1/GPa)
#
#
# Indices 1 2 3 4 5 6 
#
# 1 0.011211 0.001407 -0.007421 0.000000 0.000000 0.000000
# 2 0.001407 0.020359 -0.000779 0.000000 0.000000 0.000000
# 3 -0.007421 -0.000779 0.013254 0.000000 0.000000 0.000000
# 4 0.000000 0.000000 0.000000 -0.019248 0.000000 0.000000
# 5 0.000000 0.000000 0.000000 0.000000 0.080074 0.000000
# 6 0.000000 0.000000 0.000000 0.000000 0.000000 0.024165
#
#
# Mechanical properties :
#
#
# Convention : Reuss Voigt Hill
#
# Bulk Modulus (GPa) = 32.01308 50.62337 41.31823
# Shear Modulus (GPa) = 32.50653 16.40641 24.45647
#
# Velocity S-wave (km/s) = 4.08482 2.90198 3.54310
# Velocity P-wave (km/s) = 6.21933 6.10031 6.16011
#
# Compressibility (1/GPa) = 0.03123723
#
# Stress axis : x y z
#
# Youngs Moduli (GPa) = 89.19921 49.11811 75.44647
#
# Poissons Ratio (x) = -0.06909 0.55988
# Poissons Ratio (y) = -0.12547 0.05880
# Poissons Ratio (z) = 0.66193 0.03828
#
# Static dielectric constant tensor:
#      x y z
#    x 1.699030 0.000000 0.000000 
#    y 0.000000 1.769770 0.000000 
#    z 0.000000 0.000000 1.677290 
# 
# From -- ./inp_files/31288.got.cif
#   From: 2010.05.17/outbox.cif.g08.bks.cpg/sg47_16_cif.got.tgz:31288.got - 2010.06.03 20:15:42.
