data_PCOD9386740
_publ_section_title
;
Structure prediction by ZEFSAII (Michael W. Deem and Ramdas Pophale) SiO2 
 PCOD9386740
Probable space group: P M M M
;
_chemical_formula_sum "Si O2"
_cell_formula_units_Z 38
_cell_length_a 20.415913
_cell_length_b 11.534709
_cell_length_c 9.127572
_cell_angle_alpha 90.000000
_cell_angle_beta 90.000000
_cell_angle_gamma 90.000000
_cell_volume 2149.466675
_symmetry_space_group_name_H-M "P M M M"
_symmetry_group_IT_number 47
_symmetry_cell_setting 'orthorhombic'
loop_
_space_group_symop_operation_xyz
x,y,z
-x,-y,z
x,-y,-z
-x,y,-z
-x,-y,-z
x,y,-z
-x,y,z
x,-y,z
loop_
_atom_site_type_symbol
_atom_site_label
_atom_site_fract_x
_atom_site_fract_y
_atom_site_fract_z
Si Si1 0.621314 0.738450 0.323263
Si Si2 0.000000 0.500000 0.000000
Si Si3 0.000000 0.694151 0.250325
Si Si4 0.500000 0.138303 0.830067
Si Si5 0.882941 0.864321 0.324454
Si Si6 0.000000 0.500000 0.500000
Si Si7 0.742420 0.862598 0.173341
Si Si8 0.420887 0.500000 0.174578
O O1 0.619545 0.736816 0.500000
O O2 0.563296 0.816663 0.255815
O O3 0.688993 0.789902 0.262131
O O4 0.608007 0.612333 0.254642
O O5 0.000000 0.395486 0.879735
O O6 0.062759 0.778458 0.261416
O O7 0.000000 0.603396 0.379848
O O8 0.500000 0.000000 0.834494
O O9 0.500000 0.181499 0.000000
O O10 0.876459 0.846132 0.500000
O O11 0.813828 0.844931 0.243748
O O12 0.901081 0.000000 0.303042
O O13 0.726946 0.000000 0.186350
O O14 0.741654 0.833803 0.000000
O O15 0.500000 0.500000 0.190734
O O16 0.406702 0.500000 0.000000
#
# Coordination Sequence:
#
# PCOD9386740 Si02
#       8
#     8   1   4   4   8   1   8   4
#     4  12  24  39  62  89 121 157 201 254 302 361
#     4  10  28  38  58  86 132 174 212 254 304 346
#     4  11  21  41  62  93 126 169 211 255 302 370
#     4  11  23  38  59  88 119 157 201 247 304 365
#     4  10  20  37  66  98 126 158 203 263 318 370
#     4  10  20  38  62  86 124 178 208 246 308 350
#     4  10  22  40  62  90 127 165 199 246 309 367
#     4  11  23  41  65  87 116 159 201 247 302 359
#
# _framework density 17.678805000000001
#
# number of rings (size 3 to 8) (size 9 to 14) (size 15 to 20)
#    0.000    1.263    2.105    4.105    1.474    5.895 
#    0.000    2.632    2.316    0.000    0.000    0.000 
#    0.000    0.000    0.000    0.000    0.000    0.000 
#
# Total GULP energy -211636.671211 kJ/mol
# GULP energy per Si atom -5569.386084 kJ/mol
# Density = 1.763857 g / cm^3
# Si number density = 17.678805 Si / 1000 Ang^3
#
#
#
# Elastic Constant Matrix: (Units=GPa)
#
#
# Indices 1 2 3 4 5 6 
#
# 1 123.9512 94.9969 82.9933 0.0000 0.0000 0.0000
# 2 94.9969 140.8141 95.6302 0.0000 0.0000 0.0000
# 3 82.9933 95.6302 211.0807 0.0000 0.0000 0.0000
# 4 0.0000 0.0000 0.0000 37.7145 0.0000 0.0000
# 5 0.0000 0.0000 0.0000 0.0000 36.8521 0.0000
# 6 0.0000 0.0000 0.0000 0.0000 0.0000 1234.9273
#
#
#
# Elastic Compliance Matrix: (Units=1/GPa)
#
#
# Indices 1 2 3 4 5 6 
#
# 1 0.017383 -0.010234 -0.002198 0.000000 0.000000 0.000000
# 2 -0.010234 0.016283 -0.003353 0.000000 0.000000 0.000000
# 3 -0.002198 -0.003353 0.007121 0.000000 0.000000 0.000000
# 4 0.000000 0.000000 0.000000 0.026515 0.000000 0.000000
# 5 0.000000 0.000000 0.000000 0.000000 0.027135 0.000000
# 6 0.000000 0.000000 0.000000 0.000000 0.000000 0.000810
#
#
# Mechanical properties :
#
#
# Convention : Reuss Voigt Hill
#
# Bulk Modulus (GPa) = 108.50606 113.67632 111.09119
# Shear Modulus (GPa) = 38.49402 275.38050 156.93726
#
# Velocity S-wave (km/s) = 4.67134 12.49427 9.43208
# Velocity P-wave (km/s) = 9.51865 16.51009 13.47568
#
# Compressibility (1/GPa) = 0.00921607
#
# Stress axis : x y z
#
# Youngs Moduli (GPa) = 57.52710 61.41345 140.43200
#
# Poissons Ratio (x) = 0.62853 0.30868
# Poissons Ratio (y) = 0.58875 0.47088
# Poissons Ratio (z) = 0.12645 0.20592
#
# Static dielectric constant tensor:
#      x y z
#    x 1.584050 0.000000 0.000000 
#    y 0.000000 1.608050 0.000000 
#    z 0.000000 0.000000 1.589320 
# 
# From -- ./inp_files/8755.got.cif
#   From: 2010.05.17/outbox.cif.g08.bks.cpg/sg47_5_cif.got.tgz:8755.got - 2010.06.03 20:15:42.
