data_PCOD9386533
_publ_section_title
;
Structure prediction by ZEFSAII (Michael W. Deem and Ramdas Pophale) SiO2 
 PCOD9386533
Probable space group: P M M M
;
_chemical_formula_sum "Si O2"
_cell_formula_units_Z 29
_cell_length_a 22.437628
_cell_length_b 9.321975
_cell_length_c 7.276420
_cell_angle_alpha 90.000000
_cell_angle_beta 90.000000
_cell_angle_gamma 90.000000
_cell_volume 1521.957889
_symmetry_space_group_name_H-M "P M M M"
_symmetry_group_IT_number 47
_symmetry_cell_setting 'orthorhombic'
loop_
_space_group_symop_operation_xyz
x,y,z
-x,-y,z
x,-y,-z
-x,y,-z
-x,-y,-z
x,y,-z
-x,y,z
x,-y,z
loop_
_atom_site_type_symbol
_atom_site_label
_atom_site_fract_x
_atom_site_fract_y
_atom_site_fract_z
Si Si1 0.000000 0.000000 0.000000
Si Si2 0.317208 0.835616 0.723713
Si Si3 0.876725 0.158818 0.000000
Si Si4 0.433360 0.666066 0.276432
Si Si5 0.802347 0.331474 0.280118
O O1 0.053464 0.877121 0.000000
O O2 0.318188 0.835640 0.500000
O O3 0.379103 0.764640 0.784960
O O4 0.260402 0.740209 0.775784
O O5 0.311283 0.000000 0.782702
O O6 0.854065 0.247084 0.824910
O O7 0.847222 0.000000 0.000000
O O8 0.433090 0.668178 0.500000
O O9 0.500000 0.710315 0.219057
O O10 0.424169 0.500000 0.222936
O O11 0.808483 0.316477 0.500000
O O12 0.802601 0.500000 0.235956
#
# Coordination Sequence:
#
# PCOD9386533 Si02
#       5
#     1   8   4   8   8
#     4   8  24  44  64  92 120 154 184 220 274 328
#     4   9  16  25  40  67 101 138 183 235 286 334
#     4  10  21  41  63  87 116 151 187 223 274 333
#     4   8  13  21  33  52  86 134 183 231 284 338
#     4  10  20  35  58  87 118 152 191 237 284 332
#
# _framework density 19.054403000000001
#
# number of rings (size 3 to 8) (size 9 to 14) (size 15 to 20)
#    0.414    2.483    0.000    2.897    0.000    5.517 
#    0.000    5.517    0.000    1.655    0.000    0.966 
#    0.000    7.724    0.000    0.828    0.000    0.552 
#
# Total GULP energy -161531.999220 kJ/mol
# GULP energy per Si atom -5570.068939 kJ/mol
# Density = 1.901103 g / cm^3
# Si number density = 19.054403 Si / 1000 Ang^3
#
#
#
# Elastic Constant Matrix: (Units=GPa)
#
#
# Indices 1 2 3 4 5 6 
#
# 1 187.7684 111.0411 35.6061 0.0000 0.0000 0.0000
# 2 111.0411 167.3540 39.6903 0.0000 0.0000 0.0000
# 3 35.6061 39.6903 84.3085 0.0000 0.0000 0.0000
# 4 0.0000 0.0000 0.0000 4.2466 0.0000 0.0000
# 5 0.0000 0.0000 0.0000 0.0000 8.1354 0.0000
# 6 0.0000 0.0000 0.0000 0.0000 0.0000 31.1103
#
#
#
# Elastic Compliance Matrix: (Units=1/GPa)
#
#
# Indices 1 2 3 4 5 6 
#
# 1 0.008854 -0.005615 -0.001096 0.000000 0.000000 0.000000
# 2 -0.005615 0.010287 -0.002472 0.000000 0.000000 0.000000
# 3 -0.001096 -0.002472 0.013488 0.000000 0.000000 0.000000
# 4 0.000000 0.000000 0.000000 0.235481 0.000000 0.000000
# 5 0.000000 0.000000 0.000000 0.000000 0.122920 0.000000
# 6 0.000000 0.000000 0.000000 0.000000 0.000000 0.032144
#
#
# Mechanical properties :
#
#
# Convention : Reuss Voigt Hill
#
# Bulk Modulus (GPa) = 70.10709 90.23399 80.17054
# Shear Modulus (GPa) = 11.20341 25.57135 18.38738
#
# Velocity S-wave (km/s) = 2.42744 3.66733 3.10980
# Velocity P-wave (km/s) = 6.68802 8.08648 7.42027
#
# Compressibility (1/GPa) = 0.01426389
#
# Stress axis : x y z
#
# Youngs Moduli (GPa) = 112.94386 97.21040 74.14204
#
# Poissons Ratio (x) = 0.54581 0.08126
# Poissons Ratio (y) = 0.63415 0.18325
# Poissons Ratio (z) = 0.12379 0.24026
#
# Static dielectric constant tensor:
#      x y z
#    x 1.619970 0.000000 0.000000 
#    y 0.000000 1.633390 0.000000 
#    z 0.000000 0.000000 1.767730 
# 
# From -- ./inp_files/1016.got.cif
#   From: 2010.05.17/outbox.cif.g08.bks.cpg/sg47_1_cif.got.tgz:1016.got - 2010.06.03 20:15:42.
