data_PCOD9386548
_publ_section_title
;
Structure prediction by ZEFSAII (Michael W. Deem and Ramdas Pophale) SiO2 
 PCOD9386548
Probable space group: P M M M
;
_chemical_formula_sum "Si O2"
_cell_formula_units_Z 56
_cell_length_a 8.819840
_cell_length_b 22.986305
_cell_length_c 14.828767
_cell_angle_alpha 90.000000
_cell_angle_beta 90.000000
_cell_angle_gamma 90.000000
_cell_volume 3006.317971
_symmetry_space_group_name_H-M "P M M M"
_symmetry_group_IT_number 47
_symmetry_cell_setting 'orthorhombic'
loop_
_space_group_symop_operation_xyz
x,y,z
-x,-y,z
x,-y,-z
-x,y,-z
-x,-y,-z
x,y,-z
-x,y,z
x,-y,z
loop_
_atom_site_type_symbol
_atom_site_label
_atom_site_fract_x
_atom_site_fract_y
_atom_site_fract_z
Si Si1 0.318780 0.606517 0.291296
Si Si2 0.680835 0.932487 0.690047
Si Si3 0.818822 0.614213 0.099663
Si Si4 0.819487 0.816887 0.259177
Si Si5 0.828931 0.930194 0.500000
Si Si6 0.174403 0.500000 0.392665
Si Si7 0.683158 0.726157 0.606218
Si Si8 0.677105 0.258063 0.898693
O O1 0.500000 0.606342 0.287496
O O2 0.255260 0.591962 0.191761
O O3 0.257964 0.556949 0.356814
O O4 0.272729 0.669496 0.333350
O O5 0.500000 0.927777 0.697216
O O6 0.762655 0.883140 0.747072
O O7 0.735203 0.917147 0.589073
O O8 0.722810 0.000000 0.708341
O O9 0.766932 0.681437 0.100153
O O10 0.000000 0.609314 0.105926
O O11 0.772914 0.590512 0.000000
O O12 0.755652 0.782651 0.346893
O O13 0.750599 0.782920 0.174605
O O14 0.000000 0.814574 0.260473
O O15 0.000000 0.905291 0.500000
O O16 0.844427 0.000000 0.500000
O O17 0.175158 0.500000 0.500000
O O18 0.000000 0.500000 0.360766
O O19 0.724182 0.719755 0.500000
O O20 0.500000 0.730999 0.610476
O O21 0.500000 0.269644 0.876717
O O22 0.683437 0.233519 0.000000
#
# Coordination Sequence:
#
# PCOD9386548 Si02
#       8
#     8   8   8   8   4   4   8   8
#     4  11  22  39  64  90 119 157 202 247 292 345
#     4  10  21  37  56  76 105 149 196 239 286 345
#     4  10  20  35  58  89 123 156 191 236 294 353
#     4  12  24  36  56  85 118 152 190 239 295 352
#     4   9  17  31  51  75 103 137 183 234 281 332
#     4  11  25  43  64  89 120 161 205 248 294 347
#     4  10  22  39  58  82 116 156 196 241 291 344
#     4  10  20  36  59  86 116 151 193 238 286 347
#
# _framework density 18.627437
#
# number of rings (size 3 to 8) (size 9 to 14) (size 15 to 20)
#    0.000    1.571    1.429    3.857    1.000    5.429 
#    0.000    0.357    0.000    2.571    0.000    3.000 
#    0.000    0.000    0.000    0.000    0.000    0.000 
#
# Total GULP energy -312601.843644 kJ/mol
# GULP energy per Si atom -5582.175779 kJ/mol
# Density = 1.858504 g / cm^3
# Si number density = 18.627437 Si / 1000 Ang^3
#
#
#
# Elastic Constant Matrix: (Units=GPa)
#
#
# Indices 1 2 3 4 5 6 
#
# 1 58.0801 13.2008 29.8590 0.0000 0.0000 0.0000
# 2 13.2008 59.5557 16.0064 0.0000 0.0000 0.0000
# 3 29.8590 16.0064 87.8485 0.0000 0.0000 0.0000
# 4 0.0000 0.0000 0.0000 17.2151 0.0000 0.0000
# 5 0.0000 0.0000 0.0000 0.0000 24.4704 0.0000
# 6 0.0000 0.0000 0.0000 0.0000 0.0000 23.6749
#
#
#
# Elastic Compliance Matrix: (Units=1/GPa)
#
#
# Indices 1 2 3 4 5 6 
#
# 1 0.021337 -0.002923 -0.006719 0.000000 0.000000 0.000000
# 2 -0.002923 0.018056 -0.002296 0.000000 0.000000 0.000000
# 3 -0.006719 -0.002296 0.014086 0.000000 0.000000 0.000000
# 4 0.000000 0.000000 0.000000 0.058089 0.000000 0.000000
# 5 0.000000 0.000000 0.000000 0.000000 0.040866 0.000000
# 6 0.000000 0.000000 0.000000 0.000000 0.000000 0.042239
#
#
# Mechanical properties :
#
#
# Convention : Reuss Voigt Hill
#
# Bulk Modulus (GPa) = 33.78388 35.95743 34.87065
# Shear Modulus (GPa) = 21.88987 22.83329 22.36158
#
# Velocity S-wave (km/s) = 3.43175 3.50492 3.46853
# Velocity P-wave (km/s) = 5.82053 5.97701 5.89929
#
# Compressibility (1/GPa) = 0.02959992
#
# Stress axis : x y z
#
# Youngs Moduli (GPa) = 46.86803 55.38286 70.99486
#
# Poissons Ratio (x) = 0.16190 0.47705
# Poissons Ratio (y) = 0.13701 0.16302
# Poissons Ratio (z) = 0.31493 0.12718
#
# Static dielectric constant tensor:
#      x y z
#    x 1.624230 0.000000 0.000000 
#    y 0.000000 1.279190 0.000000 
#    z 0.000000 0.000000 1.656030 
# 
# From -- ./inp_files/21696.got.cif
#   From: 2010.05.17/outbox.cif.g08.bks.cpg/sg47_11_cif.got.tgz:21696.got - 2010.06.03 20:15:42.
