data_PCOD9386693
_publ_section_title
;
Structure prediction by ZEFSAII (Michael W. Deem and Ramdas Pophale) SiO2 
 PCOD9386693
Probable space group: P M M M
;
_chemical_formula_sum "Si O2"
_cell_formula_units_Z 48
_cell_length_a 7.766761
_cell_length_b 9.988519
_cell_length_c 30.808965
_cell_angle_alpha 90.000000
_cell_angle_beta 90.000000
_cell_angle_gamma 90.000000
_cell_volume 2390.111437
_symmetry_space_group_name_H-M "P M M M"
_symmetry_group_IT_number 47
_symmetry_cell_setting 'orthorhombic'
loop_
_space_group_symop_operation_xyz
x,y,z
-x,-y,z
x,-y,-z
-x,y,-z
-x,-y,-z
x,y,-z
-x,y,z
x,-y,z
loop_
_atom_site_type_symbol
_atom_site_label
_atom_site_fract_x
_atom_site_fract_y
_atom_site_fract_z
Si Si1 0.291685 0.155791 0.798955
Si Si2 0.711366 0.000000 0.950913
Si Si3 0.292699 0.842639 0.546696
Si Si4 0.795454 0.154101 0.357853
Si Si5 0.706282 0.243592 0.106487
Si Si6 0.206596 0.654041 0.718151
Si Si7 0.795478 0.500000 0.950073
O O1 0.500000 0.150805 0.799661
O O2 0.229702 0.219159 0.844638
O O3 0.241029 0.255038 0.760311
O O4 0.233245 0.000000 0.794089
O O5 0.771253 0.873382 0.924291
O O6 0.500000 0.000000 0.951506
O O7 0.770111 0.000000 0.000000
O O8 0.233751 0.785477 0.500000
O O9 0.500000 0.836226 0.547071
O O10 0.230760 0.792579 0.593177
O O11 0.243482 0.000000 0.546439
O O12 0.725597 0.258486 0.322575
O O13 0.000000 0.143674 0.350682
O O14 0.726158 0.000000 0.354350
O O15 0.500000 0.231726 0.109744
O O16 0.743463 0.375808 0.079703
O O17 0.271596 0.500000 0.720910
O O18 0.000000 0.644330 0.713402
O O19 0.000000 0.500000 0.954063
O O20 0.725226 0.500000 0.000000
#
# Coordination Sequence:
#
# PCOD9386693 Si02
#       7
#     8   4   8   8   8   8   4
#     4  10  21  38  59  84 111 136 171 223 275 321
#     4   9  16  30  57  87 109 133 173 221 264 309
#     4   8  14  25  43  70 103 135 168 211 264 318
#     4   9  17  30  49  73 101 134 175 222 265 309
#     4  10  20  37  60  85 110 140 179 221 265 315
#     4  10  22  38  55  77 107 144 183 221 266 323
#     4  11  25  41  55  79 117 153 183 217 258 309
#
# _framework density 20.082743000000001
#
# number of rings (size 3 to 8) (size 9 to 14) (size 15 to 20)
#    0.000    2.500    0.833    1.750    1.167    4.333 
#    0.000    3.750    0.000    2.000    0.000    3.500 
#    0.000    0.000    0.000    0.000    0.000    0.000 
#
# Total GULP energy -267505.478142 kJ/mol
# GULP energy per Si atom -5573.030795 kJ/mol
# Density = 2.003703 g / cm^3
# Si number density = 20.082743 Si / 1000 Ang^3
#
#
#
# Elastic Constant Matrix: (Units=GPa)
#
#
# Indices 1 2 3 4 5 6 
#
# 1 23.5721 2.1666 3.2037 0.0000 0.0000 0.0000
# 2 2.1666 165.4017 114.1381 0.0000 0.0000 0.0000
# 3 3.2037 114.1381 233.0805 0.0000 0.0000 0.0000
# 4 0.0000 0.0000 0.0000 23.8929 0.0000 0.0000
# 5 0.0000 0.0000 0.0000 0.0000 23.7292 0.0000
# 6 0.0000 0.0000 0.0000 0.0000 0.0000 -1.2433
#
#
#
# Elastic Compliance Matrix: (Units=1/GPa)
#
#
# Indices 1 2 3 4 5 6 
#
# 1 0.042508 -0.000232 -0.000471 0.000000 0.000000 0.000000
# 2 -0.000232 0.009133 -0.004469 0.000000 0.000000 0.000000
# 3 -0.000471 -0.004469 0.006485 0.000000 0.000000 0.000000
# 4 0.000000 0.000000 0.000000 0.041853 0.000000 0.000000
# 5 0.000000 0.000000 0.000000 0.000000 0.042142 0.000000
# 6 0.000000 0.000000 0.000000 0.000000 0.000000 -0.804290
#
#
# Mechanical properties :
#
#
# Convention : Reuss Voigt Hill
#
# Bulk Modulus (GPa) = 20.92797 73.45235 47.19016
# Shear Modulus (GPa) = -7.86292 29.44547 10.79127
#
# Velocity S-wave (km/s) = -1.98085 3.83326 2.32058
# Velocity P-wave (km/s) = 2.28294 7.49974 5.54337
#
# Compressibility (1/GPa) = 0.04778294
#
# Stress axis : x y z
#
# Youngs Moduli (GPa) = 23.52479 109.49382 154.19368
#
# Poissons Ratio (x) = 0.02541 0.07257
# Poissons Ratio (y) = 0.00546 0.68912
# Poissons Ratio (z) = 0.01107 0.48934
#
# Static dielectric constant tensor:
#      x y z
#    x 1.743120 0.000000 0.000000 
#    y 0.000000 1.760700 0.000000 
#    z 0.000000 0.000000 1.733680 
# 
# From -- ./inp_files/34087.got.cif
#   From: 2010.05.17/outbox.cif.g08.bks.cpg/sg47_18_cif.got.tgz:34087.got - 2010.06.03 20:15:42.
