data_PCOD9386874
_publ_section_title
;
Structure prediction by ZEFSAII (Michael W. Deem and Ramdas Pophale) SiO2 
 PCOD9386874
Probable space group: P M M M
;
_chemical_formula_sum "Si O2"
_cell_formula_units_Z 48
_cell_length_a 7.980291
_cell_length_b 9.363583
_cell_length_c 35.925741
_cell_angle_alpha 90.000000
_cell_angle_beta 90.000000
_cell_angle_gamma 90.000000
_cell_volume 2684.519279
_symmetry_space_group_name_H-M "P M M M"
_symmetry_group_IT_number 47
_symmetry_cell_setting 'orthorhombic'
loop_
_space_group_symop_operation_xyz
x,y,z
-x,-y,z
x,-y,-z
-x,y,-z
-x,-y,-z
x,y,-z
-x,y,z
x,-y,z
loop_
_atom_site_type_symbol
_atom_site_label
_atom_site_fract_x
_atom_site_fract_y
_atom_site_fract_z
Si Si1 0.000000 0.325203 0.093313
Si Si2 0.303522 0.328078 0.767856
Si Si3 0.689950 0.673808 0.042833
Si Si4 0.198952 0.838840 0.386911
Si Si5 0.000000 0.326396 0.178790
Si Si6 0.700623 0.163100 0.306498
Si Si7 0.701781 0.335850 0.540791
O O1 0.834241 0.278944 0.070913
O O2 0.000000 0.500000 0.093291
O O3 0.000000 0.277909 0.136078
O O4 0.500000 0.290635 0.775659
O O5 0.297347 0.500000 0.764345
O O6 0.249479 0.256365 0.728936
O O7 0.169060 0.284232 0.799179
O O8 0.500000 0.718649 0.052435
O O9 0.690580 0.500000 0.043287
O O10 0.725089 0.715781 0.000000
O O11 0.253585 0.776726 0.347061
O O12 0.246838 0.752842 0.423470
O O13 0.000000 0.847743 0.385982
O O14 0.270496 0.000000 0.389054
O O15 0.000000 0.500000 0.178236
O O16 0.500000 0.155732 0.305181
O O17 0.767329 0.000000 0.304076
O O18 0.758965 0.281513 0.500000
O O19 0.500000 0.337334 0.540045
O O20 0.759017 0.500000 0.544308
#
# Coordination Sequence:
#
# PCOD9386874 Si02
#       7
#     4   8   8   8   4   8   8
#     4   9  15  22  33  49  71 103 142 185 233 276
#     4   9  18  32  48  66  90 120 153 191 235 282
#     4   8  13  20  30  46  69  99 139 187 233 274
#     4  10  21  34  49  74 103 126 151 187 232 280
#     4   9  18  29  41  60  85 115 153 195 236 282
#     4   9  18  33  52  72  93 118 151 191 231 273
#     4   9  19  36  55  73  95 126 163 197 227 267
#
# _framework density 17.880296000000001
#
# number of rings (size 3 to 8) (size 9 to 14) (size 15 to 20)
#    0.000    3.000    0.000    1.750    1.167    4.333 
#    0.000    7.500    0.000    0.000    0.000    0.000 
#    0.000    0.000    0.000    0.000    0.000    6.667 
#
# Total GULP energy -267323.104929 kJ/mol
# GULP energy per Si atom -5569.231353 kJ/mol
# Density = 1.783960 g / cm^3
# Si number density = 17.880296 Si / 1000 Ang^3
#
#
#
# Elastic Constant Matrix: (Units=GPa)
#
#
# Indices 1 2 3 4 5 6 
#
# 1 84.1868 20.9497 91.4318 0.0000 0.0000 0.0000
# 2 20.9497 12.7361 37.0289 0.0000 0.0000 0.0000
# 3 91.4318 37.0289 198.0280 0.0000 0.0000 0.0000
# 4 0.0000 0.0000 0.0000 -21.9268 0.0000 0.0000
# 5 0.0000 0.0000 0.0000 0.0000 23.3893 0.0000
# 6 0.0000 0.0000 0.0000 0.0000 0.0000 10.1464
#
#
#
# Elastic Compliance Matrix: (Units=1/GPa)
#
#
# Indices 1 2 3 4 5 6 
#
# 1 0.025370 -0.016818 -0.008569 0.000000 0.000000 0.000000
# 2 -0.016818 0.183204 -0.026492 0.000000 0.000000 0.000000
# 3 -0.008569 -0.026492 0.013960 0.000000 0.000000 0.000000
# 4 0.000000 0.000000 0.000000 -0.045606 0.000000 0.000000
# 5 0.000000 0.000000 0.000000 0.000000 0.042755 0.000000
# 6 0.000000 0.000000 0.000000 0.000000 0.000000 0.098557
#
#
# Mechanical properties :
#
#
# Convention : Reuss Voigt Hill
#
# Bulk Modulus (GPa) = 8.41923 65.97463 37.19693
# Shear Modulus (GPa) = 10.83220 12.02450 11.42835
#
# Velocity S-wave (km/s) = 2.46401 2.59607 2.53090
# Velocity P-wave (km/s) = 3.57966 6.77969 5.42117
#
# Compressibility (1/GPa) = 0.11877576
#
# Stress axis : x y z
#
# Youngs Moduli (GPa) = 39.41739 5.45840 71.63501
#
# Poissons Ratio (x) = 0.09180 0.61381
# Poissons Ratio (y) = 0.66293 1.89774
# Poissons Ratio (z) = 0.33775 0.14460
#
# Static dielectric constant tensor:
#      x y z
#    x 1.626560 0.000000 0.000000 
#    y 0.000000 1.609370 0.000000 
#    z 0.000000 0.000000 1.609960 
# 
# From -- ./inp_files/34049.got.cif
#   From: 2010.05.17/outbox.cif.g08.bks.cpg/sg47_18_cif.got.tgz:34049.got - 2010.06.03 20:15:42.
