data_PCOD9386304
_publ_section_title
;
Structure prediction by ZEFSAII (Michael W. Deem and Ramdas Pophale) SiO2 
 PCOD9386304
Probable space group: P M M M
;
_chemical_formula_sum "Si O2"
_cell_formula_units_Z 40
_cell_length_a 8.655364
_cell_length_b 15.358946
_cell_length_c 15.320230
_cell_angle_alpha 90.000000
_cell_angle_beta 90.000000
_cell_angle_gamma 90.000000
_cell_volume 2036.629526
_symmetry_space_group_name_H-M "P M M M"
_symmetry_group_IT_number 47
_symmetry_cell_setting 'orthorhombic'
loop_
_space_group_symop_operation_xyz
x,y,z
-x,-y,z
x,-y,-z
-x,y,-z
-x,-y,-z
x,y,-z
-x,y,z
x,-y,z
loop_
_atom_site_type_symbol
_atom_site_label
_atom_site_fract_x
_atom_site_fract_y
_atom_site_fract_z
Si Si1 0.313429 0.596904 0.708417
Si Si2 0.315064 0.101543 0.500000
Si Si3 0.680919 0.175846 0.830238
Si Si4 0.819088 0.773779 0.648009
Si Si5 0.824840 0.000000 0.896590
Si Si6 0.316064 0.361125 0.095073
O O1 0.500000 0.606273 0.710135
O O2 0.274955 0.500000 0.677084
O O3 0.247548 0.675411 0.650708
O O4 0.259727 0.604604 0.810537
O O5 0.500000 0.099120 0.500000
O O6 0.258679 0.157997 0.582445
O O7 0.260613 0.000000 0.500000
O O8 0.500000 0.175545 0.805263
O O9 0.782480 0.193640 0.745299
O O10 0.701656 0.256892 0.895603
O O11 0.732696 0.085221 0.869005
O O12 0.000000 0.771073 0.629899
O O13 0.000000 0.000000 0.859997
O O14 0.836474 0.000000 0.000000
O O15 0.500000 0.380979 0.093770
O O16 0.253415 0.389536 0.000000
#
# Coordination Sequence:
#
# PCOD9386304 Si02
#       6
#     8   4   8   8   4   8
#     4   9  18  34  57  85 119 160 204 248 295 351
#     4  11  25  45  70  95 120 149 187 232 287 358
#     4  10  20  35  55  77 108 152 201 243 288 349
#     4  11  23  40  62  89 122 154 189 239 297 354
#     4  11  23  35  49  76 113 150 193 247 303 353
#     4   8  14  26  47  77 110 145 192 248 295 332
#
# _framework density 19.640294000000001
#
# number of rings (size 3 to 8) (size 9 to 14) (size 15 to 20)
#    0.000    2.200    0.000    4.800    1.400    3.200 
#    0.000    2.500    0.000    8.400    0.000    5.600 
#    0.000    0.000    0.000    0.000    0.000    0.000 
#
# Total GULP energy -223090.625537 kJ/mol
# GULP energy per Si atom -5577.265638 kJ/mol
# Density = 1.959559 g / cm^3
# Si number density = 19.640294 Si / 1000 Ang^3
#
#
#
# Elastic Constant Matrix: (Units=GPa)
#
#
# Indices 1 2 3 4 5 6 
#
# 1 51.7319 43.3374 15.3613 0.0000 0.0000 0.0000
# 2 43.3374 170.0624 38.7598 0.0000 0.0000 0.0000
# 3 15.3613 38.7598 67.5825 0.0000 0.0000 0.0000
# 4 0.0000 0.0000 0.0000 24.6066 0.0000 0.0000
# 5 0.0000 0.0000 0.0000 0.0000 14.0016 0.0000
# 6 0.0000 0.0000 0.0000 0.0000 0.0000 11.0410
#
#
#
# Elastic Compliance Matrix: (Units=1/GPa)
#
#
# Indices 1 2 3 4 5 6 
#
# 1 0.024890 -0.005813 -0.002323 0.000000 0.000000 0.000000
# 2 -0.005813 0.008122 -0.003337 0.000000 0.000000 0.000000
# 3 -0.002323 -0.003337 0.017239 0.000000 0.000000 0.000000
# 4 0.000000 0.000000 0.000000 0.040640 0.000000 0.000000
# 5 0.000000 0.000000 0.000000 0.000000 0.071421 0.000000
# 6 0.000000 0.000000 0.000000 0.000000 0.000000 0.090572
#
#
# Mechanical properties :
#
#
# Convention : Reuss Voigt Hill
#
# Bulk Modulus (GPa) = 36.62486 53.81043 45.21765
# Shear Modulus (GPa) = 17.54808 22.72438 20.13623
#
# Velocity S-wave (km/s) = 2.99235 3.40520 3.20543
# Velocity P-wave (km/s) = 5.53418 6.55118 6.06404
#
# Compressibility (1/GPa) = 0.02730386
#
# Stress axis : x y z
#
# Youngs Moduli (GPa) = 40.17616 123.12031 58.00945
#
# Poissons Ratio (x) = 0.71574 0.13478
# Poissons Ratio (y) = 0.23356 0.19357
# Poissons Ratio (z) = 0.09335 0.41083
#
# Static dielectric constant tensor:
#      x y z
#    x 1.676120 0.000000 0.000000 
#    y 0.000000 1.694050 0.000000 
#    z 0.000000 0.000000 1.700370 
# 
# From -- ./inp_files/20705.got.cif
#   From: 2010.05.17/outbox.cif.g08.bks.cpg/sg47_11_cif.got.tgz:20705.got - 2010.06.03 20:15:42.
