data_PCOD9386443
_publ_section_title
;
Structure prediction by ZEFSAII (Michael W. Deem and Ramdas Pophale) SiO2 
 PCOD9386443
Probable space group: P M M M
;
_chemical_formula_sum "Si O2"
_cell_formula_units_Z 48
_cell_length_a 29.722132
_cell_length_b 10.281476
_cell_length_c 8.626397
_cell_angle_alpha 90.000000
_cell_angle_beta 90.000000
_cell_angle_gamma 90.000000
_cell_volume 2636.118117
_symmetry_space_group_name_H-M "P M M M"
_symmetry_group_IT_number 47
_symmetry_cell_setting 'orthorhombic'
loop_
_space_group_symop_operation_xyz
x,y,z
-x,-y,z
x,-y,-z
-x,y,-z
-x,-y,-z
x,y,-z
-x,y,z
x,-y,z
loop_
_atom_site_type_symbol
_atom_site_label
_atom_site_fract_x
_atom_site_fract_y
_atom_site_fract_z
Si Si1 0.552479 0.000000 0.313896
Si Si2 0.602308 0.252555 0.815785
Si Si3 0.948742 0.350838 0.813066
Si Si4 0.226076 0.148281 0.311230
Si Si5 0.697174 0.348179 0.312224
Si Si6 0.122929 0.851648 0.686953
Si Si7 0.446383 0.500000 0.679014
O O1 0.578981 0.874564 0.253842
O O2 0.500000 0.000000 0.262776
O O3 0.552573 0.000000 0.500000
O O4 0.651698 0.282628 0.749218
O O5 0.572118 0.374152 0.764487
O O6 0.604583 0.241906 0.000000
O O7 0.939390 0.500000 0.764739
O O8 0.912384 0.251047 0.750155
O O9 0.000000 0.318698 0.764238
O O10 0.947877 0.347962 0.000000
O O11 0.226553 0.147937 0.500000
O O12 0.260849 0.258961 0.260759
O O13 0.174542 0.174789 0.263722
O O14 0.238070 0.000000 0.263005
O O15 0.696083 0.347433 0.500000
O O16 0.699900 0.500000 0.263370
O O17 0.122222 0.847440 0.500000
O O18 0.111920 0.000000 0.734202
O O19 0.500000 0.500000 0.677880
O O20 0.430178 0.500000 0.500000
#
# Coordination Sequence:
#
# PCOD9386443 Si02
#       7
#     4   8   8   8   8   8   4
#     4  11  25  45  67  89 115 151 195 237 278 337
#     4  12  25  40  60  89 124 154 185 234 292 341
#     4   9  19  35  52  72 103 144 189 233 278 333
#     4   8  16  32  54  80 108 143 186 231 277 327
#     4  10  20  35  57  83 112 148 192 232 271 330
#     4   9  18  33  53  80 113 142 178 230 283 334
#     4  11  23  41  65  89 115 153 199 237 274 333
#
# _framework density 18.208593
#
# number of rings (size 3 to 8) (size 9 to 14) (size 15 to 20)
#    0.000    2.167    0.833    4.000    1.167    5.333 
#    0.000    5.000    0.000    1.000    0.000    0.000 
#    0.000    0.000    0.000    0.000    0.000    0.000 
#
# Total GULP energy -267917.454967 kJ/mol
# GULP energy per Si atom -5581.613645 kJ/mol
# Density = 1.816715 g / cm^3
# Si number density = 18.208593 Si / 1000 Ang^3
#
#
#
# Elastic Constant Matrix: (Units=GPa)
#
#
# Indices 1 2 3 4 5 6 
#
# 1 162.1726 130.1300 33.4544 0.0000 0.0000 0.0000
# 2 130.1300 188.8317 37.8051 0.0000 0.0000 0.0000
# 3 33.4544 37.8051 31.4566 0.0000 0.0000 0.0000
# 4 0.0000 0.0000 0.0000 24.1950 0.0000 0.0000
# 5 0.0000 0.0000 0.0000 0.0000 -283.6947 0.0000
# 6 0.0000 0.0000 0.0000 0.0000 0.0000 44.6424
#
#
#
# Elastic Compliance Matrix: (Units=1/GPa)
#
#
# Indices 1 2 3 4 5 6 
#
# 1 0.014245 -0.008933 -0.004414 0.000000 0.000000 0.000000
# 2 -0.008933 0.012575 -0.005613 0.000000 0.000000 0.000000
# 3 -0.004414 -0.005613 0.043230 0.000000 0.000000 0.000000
# 4 0.000000 0.000000 0.000000 0.041331 0.000000 0.000000
# 5 0.000000 0.000000 0.000000 0.000000 -0.003525 0.000000
# 6 0.000000 0.000000 0.000000 0.000000 0.000000 0.022400
#
#
# Mechanical properties :
#
#
# Convention : Reuss Voigt Hill
#
# Bulk Modulus (GPa) = 31.12312 87.24888 59.18600
# Shear Modulus (GPa) = 27.95086 -30.90004 -1.47459
#
# Velocity S-wave (km/s) = 3.92221 -4.12394 -0.90088
# Velocity P-wave (km/s) = 6.13525 5.03433 5.61185
#
# Compressibility (1/GPa) = 0.03213046
#
# Stress axis : x y z
#
# Youngs Moduli (GPa) = 70.20244 79.52069 23.13216
#
# Poissons Ratio (x) = 0.71034 0.10210
# Poissons Ratio (y) = 0.62710 0.12985
# Poissons Ratio (z) = 0.30985 0.44637
#
# Static dielectric constant tensor:
#      x y z
#    x 1.610900 0.000000 0.000000 
#    y 0.000000 1.603690 0.000000 
#    z 0.000000 0.000000 1.617890 
# 
# From -- ./inp_files/13828.got.cif
#   From: 2010.05.17/outbox.cif.g08.bks.cpg/sg47_7_cif.got.tgz:13828.got - 2010.06.03 20:15:42.
