data_PCOD9386601
_publ_section_title
;
Structure prediction by ZEFSAII (Michael W. Deem and Ramdas Pophale) SiO2 
 PCOD9386601
Probable space group: P M M M
;
_chemical_formula_sum "Si O2"
_cell_formula_units_Z 48
_cell_length_a 8.877494
_cell_length_b 30.203916
_cell_length_c 10.304160
_cell_angle_alpha 90.000000
_cell_angle_beta 90.000000
_cell_angle_gamma 90.000000
_cell_volume 2762.906798
_symmetry_space_group_name_H-M "P M M M"
_symmetry_group_IT_number 47
_symmetry_cell_setting 'orthorhombic'
loop_
_space_group_symop_operation_xyz
x,y,z
-x,-y,z
x,-y,-z
-x,y,-z
-x,-y,-z
x,y,-z
-x,y,z
x,-y,z
loop_
_atom_site_type_symbol
_atom_site_label
_atom_site_fract_x
_atom_site_fract_y
_atom_site_fract_z
Si Si1 0.819387 0.447633 0.500000
Si Si2 0.318725 0.140637 0.349535
Si Si3 0.823608 0.553071 0.000000
Si Si4 0.821247 0.687031 0.846009
Si Si5 0.823208 0.951588 0.657159
Si Si6 0.318377 0.782809 0.849363
Si Si7 0.679858 0.598898 0.249651
O O1 0.784924 0.500000 0.500000
O O2 0.749596 0.424324 0.625137
O O3 0.000000 0.442812 0.500000
O O4 0.268801 0.147572 0.500000
O O5 0.500000 0.140005 0.350586
O O6 0.261465 0.092738 0.302284
O O7 0.270456 0.179435 0.251977
O O8 0.743111 0.572637 0.874355
O O9 0.816258 0.500000 0.000000
O O10 0.000000 0.566325 0.000000
O O11 0.757967 0.735870 0.818882
O O12 0.737326 0.649145 0.766174
O O13 0.000000 0.685093 0.823311
O O14 0.794861 0.678522 0.000000
O O15 0.812531 0.952270 0.500000
O O16 0.000000 0.948217 0.689596
O O17 0.767465 0.000000 0.702893
O O18 0.500000 0.777982 0.840989
O O19 0.282574 0.794085 0.000000
O O20 0.500000 0.597588 0.252891
#
# Coordination Sequence:
#
# PCOD9386601 Si02
#       7
#     4   8   4   8   8   8   8
#     4  11  25  45  65  85 117 157 189 223 274 333
#     4   9  17  29  46  71 100 128 162 211 262 306
#     4  11  23  39  61  89 119 151 187 229 276 323
#     4  10  20  36  59  83 109 141 182 228 271 320
#     4   8  14  25  42  65  94 128 164 204 251 303
#     4   9  18  33  52  72  99 135 173 211 259 318
#     4  12  24  39  62  89 117 149 187 231 277 327
#
# _framework density 17.373007999999999
#
# number of rings (size 3 to 8) (size 9 to 14) (size 15 to 20)
#    0.000    2.167    0.833    3.500    0.000    5.000 
#    1.500    1.667    0.000    0.500    0.000    3.500 
#    0.000    0.000    0.000    0.000    0.000    0.000 
#
# Total GULP energy -267814.439509 kJ/mol
# GULP energy per Si atom -5579.467490 kJ/mol
# Density = 1.733347 g / cm^3
# Si number density = 17.373008 Si / 1000 Ang^3
#
#
#
# Elastic Constant Matrix: (Units=GPa)
#
#
# Indices 1 2 3 4 5 6 
#
# 1 73.3041 73.7007 51.5414 0.0000 0.0000 0.0000
# 2 73.7007 175.1756 90.0789 0.0000 0.0000 0.0000
# 3 51.5414 90.0789 110.1111 0.0000 0.0000 0.0000
# 4 0.0000 0.0000 0.0000 32.0222 0.0000 0.0000
# 5 0.0000 0.0000 0.0000 0.0000 21.8910 0.0000
# 6 0.0000 0.0000 0.0000 0.0000 0.0000 35.8434
#
#
#
# Elastic Compliance Matrix: (Units=1/GPa)
#
#
# Indices 1 2 3 4 5 6 
#
# 1 0.025394 -0.007891 -0.005431 0.000000 0.000000 0.000000
# 2 -0.007891 0.012306 -0.006373 0.000000 0.000000 0.000000
# 3 -0.005431 -0.006373 0.016838 0.000000 0.000000 0.000000
# 4 0.000000 0.000000 0.000000 0.031228 0.000000 0.000000
# 5 0.000000 0.000000 0.000000 0.000000 0.045681 0.000000
# 6 0.000000 0.000000 0.000000 0.000000 0.000000 0.027899
#
#
# Mechanical properties :
#
#
# Convention : Reuss Voigt Hill
#
# Bulk Modulus (GPa) = 66.02097 87.69254 76.85676
# Shear Modulus (GPa) = 24.53543 27.50266 26.01904
#
# Velocity S-wave (km/s) = 3.76210 3.98310 3.87417
# Velocity P-wave (km/s) = 7.54690 8.46991 8.02169
#
# Compressibility (1/GPa) = 0.01514670
#
# Stress axis : x y z
#
# Youngs Moduli (GPa) = 39.37863 81.26166 59.39004
#
# Poissons Ratio (x) = 0.64126 0.32256
# Poissons Ratio (y) = 0.31075 0.37851
# Poissons Ratio (z) = 0.21387 0.51791
#
# Static dielectric constant tensor:
#      x y z
#    x 1.576710 0.000000 0.000000 
#    y 0.000000 1.590140 0.000000 
#    z 0.000000 0.000000 1.560410 
# 
# From -- ./inp_files/2723.got.cif
#   From: 2010.05.17/outbox.cif.g08.bks.cpg/sg47_2_cif.got.tgz:2723.got - 2010.06.03 20:15:42.
