data_PCOD9386435
_publ_section_title
;
Structure prediction by ZEFSAII (Michael W. Deem and Ramdas Pophale) SiO2 
 PCOD9386435
Probable space group: P M M M
;
_chemical_formula_sum "Si O2"
_cell_formula_units_Z 48
_cell_length_a 33.163643
_cell_length_b 9.298528
_cell_length_c 7.833595
_cell_angle_alpha 90.000000
_cell_angle_beta 90.000000
_cell_angle_gamma 90.000000
_cell_volume 2415.669685
_symmetry_space_group_name_H-M "P M M M"
_symmetry_group_IT_number 47
_symmetry_cell_setting 'orthorhombic'
loop_
_space_group_symop_operation_xyz
x,y,z
-x,-y,z
x,-y,-z
-x,y,-z
-x,-y,-z
x,y,-z
-x,y,z
x,-y,z
loop_
_atom_site_type_symbol
_atom_site_label
_atom_site_fract_x
_atom_site_fract_y
_atom_site_fract_z
Si Si1 0.951720 0.669430 0.500000
Si Si2 0.422246 0.338949 0.702503
Si Si3 0.096068 0.828019 0.203377
Si Si4 0.344785 0.838560 0.200204
Si Si5 0.267444 0.335839 0.298328
Si Si6 0.500000 0.164923 0.709732
Si Si7 0.822521 0.664696 0.794868
O O1 0.940541 0.500000 0.500000
O O2 0.934067 0.747299 0.668478
O O3 0.000000 0.679801 0.500000
O O4 0.429085 0.351013 0.500000
O O5 0.421070 0.500000 0.774900
O O6 0.379874 0.259717 0.724647
O O7 0.459781 0.246439 0.768999
O O8 0.140491 0.767622 0.249729
O O9 0.093963 0.000000 0.225753
O O10 0.089095 0.797441 0.000000
O O11 0.301242 0.766560 0.222900
O O12 0.345458 0.000000 0.272898
O O13 0.353130 0.847103 0.000000
O O14 0.274524 0.340869 0.500000
O O15 0.270889 0.500000 0.230461
O O16 0.221469 0.288382 0.267549
O O17 0.500000 0.163985 0.500000
O O18 0.500000 0.000000 0.764828
O O19 0.829601 0.500000 0.733875
O O20 0.820742 0.660646 0.000000
#
# Coordination Sequence:
#
# PCOD9386435 Si02
#       7
#     4   8   8   8   8   4   8
#     4  11  25  43  65  93 125 165 215 267 315 370
#     4  10  20  35  57  83 109 138 176 222 271 328
#     4  10  22  40  63  93 129 167 207 256 316 378
#     4  11  24  39  54  75 106 145 187 231 280 333
#     4  10  21  36  56  84 114 146 188 235 282 336
#     4   9  17  31  54  83 112 141 172 212 266 325
#     4   9  18  34  57  85 118 157 198 241 291 349
#
# _framework density 19.870266999999998
#
# number of rings (size 3 to 8) (size 9 to 14) (size 15 to 20)
#    0.000    2.000    0.000    3.000    1.167    9.000 
#    0.000    3.750    0.000    2.500    0.000    0.000 
#    0.000    0.000    0.000    0.000    0.000    0.000 
#
# Total GULP energy -268058.792340 kJ/mol
# GULP energy per Si atom -5584.558174 kJ/mol
# Density = 1.982504 g / cm^3
# Si number density = 19.870267 Si / 1000 Ang^3
#
#
#
# Elastic Constant Matrix: (Units=GPa)
#
#
# Indices 1 2 3 4 5 6 
#
# 1 119.7345 90.0589 25.6229 0.0000 0.0000 0.0000
# 2 90.0589 158.1443 38.8323 0.0000 0.0000 0.0000
# 3 25.6229 38.8323 46.1232 0.0000 0.0000 0.0000
# 4 0.0000 0.0000 0.0000 15.8777 0.0000 0.0000
# 5 0.0000 0.0000 0.0000 0.0000 53.8440 0.0000
# 6 0.0000 0.0000 0.0000 0.0000 0.0000 139.8306
#
#
#
# Elastic Compliance Matrix: (Units=1/GPa)
#
#
# Indices 1 2 3 4 5 6 
#
# 1 0.014682 -0.008015 -0.001408 0.000000 0.000000 0.000000
# 2 -0.008015 0.012347 -0.005943 0.000000 0.000000 0.000000
# 3 -0.001408 -0.005943 0.027466 0.000000 0.000000 0.000000
# 4 0.000000 0.000000 0.000000 0.062981 0.000000 0.000000
# 5 0.000000 0.000000 0.000000 0.000000 0.018572 0.000000
# 6 0.000000 0.000000 0.000000 0.000000 0.000000 0.007152
#
#
# Mechanical properties :
#
#
# Convention : Reuss Voigt Hill
#
# Bulk Modulus (GPa) = 42.08096 70.33669 56.20883
# Shear Modulus (GPa) = 27.49480 53.20966 40.35223
#
# Velocity S-wave (km/s) = 3.72387 5.18041 4.51131
# Velocity P-wave (km/s) = 6.30186 8.44139 7.44884
#
# Compressibility (1/GPa) = 0.02376371
#
# Stress axis : x y z
#
# Youngs Moduli (GPa) = 68.11195 80.99196 36.40807
#
# Poissons Ratio (x) = 0.64916 0.05126
# Poissons Ratio (y) = 0.54592 0.21636
# Poissons Ratio (z) = 0.09590 0.48130
#
# Static dielectric constant tensor:
#      x y z
#    x 1.659160 0.000000 0.000000 
#    y 0.000000 1.706600 0.000000 
#    z 0.000000 0.000000 1.722420 
# 
# From -- ./inp_files/13948.got.cif
#   From: 2010.05.17/outbox.cif.g08.bks.cpg/sg47_7_cif.got.tgz:13948.got - 2010.06.03 20:15:42.
