data_PCOD9386138
_publ_section_title
;
Structure prediction by ZEFSAII (Michael W. Deem and Ramdas Pophale) SiO2 
 PCOD9386138
Probable space group: P M M M
;
_chemical_formula_sum "Si O2"
_cell_formula_units_Z 44
_cell_length_a 7.482102
_cell_length_b 30.856547
_cell_length_c 8.468024
_cell_angle_alpha 90.000000
_cell_angle_beta 90.000000
_cell_angle_gamma 90.000000
_cell_volume 1955.028214
_symmetry_space_group_name_H-M "P M M M"
_symmetry_group_IT_number 47
_symmetry_cell_setting 'orthorhombic'
loop_
_space_group_symop_operation_xyz
x,y,z
-x,-y,z
x,-y,-z
-x,y,-z
-x,-y,-z
x,y,-z
-x,y,z
x,-y,z
loop_
_atom_site_type_symbol
_atom_site_label
_atom_site_fract_x
_atom_site_fract_y
_atom_site_fract_z
Si Si1 0.282874 0.550829 0.500000
Si Si2 0.285337 0.860247 0.680091
Si Si3 0.286669 0.046655 0.308453
Si Si4 0.709060 0.407867 0.173309
Si Si5 0.216457 0.320481 0.675374
Si Si6 0.213637 0.232668 0.175490
O O1 0.243928 0.500000 0.500000
O O2 0.500000 0.556331 0.500000
O O3 0.215809 0.571487 0.335130
O O4 0.219440 0.855784 0.500000
O O5 0.500000 0.864168 0.673415
O O6 0.218841 0.906465 0.748004
O O7 0.246968 0.816058 0.769000
O O8 0.266318 0.047675 0.500000
O O9 0.500000 0.045533 0.277326
O O10 0.213872 0.000000 0.253358
O O11 0.500000 0.420033 0.169106
O O12 0.722809 0.356272 0.200558
O O13 0.784687 0.419184 0.000000
O O14 0.277931 0.332982 0.500000
O O15 0.277791 0.271825 0.714848
O O16 0.000000 0.320975 0.675571
O O17 0.000000 0.237364 0.170262
O O18 0.285484 0.238791 0.000000
#
# Coordination Sequence:
#
# PCOD9386138 Si02
#       6
#     4   8   8   8   8   8
#     4   9  18  34  55  81 115 149 181 221 264 307
#     4   9  17  29  47  72  97 121 154 198 248 298
#     4   7  10  19  38  64  91 116 145 187 239 292
#     4  10  20  34  55  83 112 143 179 219 264 310
#     4  10  20  35  56  78 100 132 173 215 262 313
#     4  10  21  35  49  67  94 130 169 205 245 298
#
# _framework density 22.506067999999999
#
# number of rings (size 3 to 8) (size 9 to 14) (size 15 to 20)
#    0.000    2.818    0.909    2.727    0.000    3.636 
#    0.000    1.818    0.000    2.182    0.000    7.636 
#    0.000    0.000    0.000    0.000    0.000    0.000 
#
# Total GULP energy -245359.820755 kJ/mol
# GULP energy per Si atom -5576.359563 kJ/mol
# Density = 2.245484 g / cm^3
# Si number density = 22.506068 Si / 1000 Ang^3
#
#
#
# Elastic Constant Matrix: (Units=GPa)
#
#
# Indices 1 2 3 4 5 6 
#
# 1 62.4410 -4.3615 7.6006 0.0000 0.0000 0.0000
# 2 -4.3615 129.7417 57.6348 0.0000 0.0000 0.0000
# 3 7.6006 57.6348 129.9375 0.0000 0.0000 0.0000
# 4 0.0000 0.0000 0.0000 0.2630 0.0000 0.0000
# 5 0.0000 0.0000 0.0000 0.0000 6.3500 0.0000
# 6 0.0000 0.0000 0.0000 0.0000 0.0000 26.3096
#
#
#
# Elastic Compliance Matrix: (Units=1/GPa)
#
#
# Indices 1 2 3 4 5 6 
#
# 1 0.016281 0.001208 -0.001488 0.000000 0.000000 0.000000
# 2 0.001208 0.009689 -0.004368 0.000000 0.000000 0.000000
# 3 -0.001488 -0.004368 0.009721 0.000000 0.000000 0.000000
# 4 0.000000 0.000000 0.000000 3.801664 0.000000 0.000000
# 5 0.000000 0.000000 0.000000 0.000000 0.157481 0.000000
# 6 0.000000 0.000000 0.000000 0.000000 0.000000 0.038009
#
#
# Mechanical properties :
#
#
# Convention : Reuss Voigt Hill
#
# Bulk Modulus (GPa) = 37.88760 49.31869 43.60314
# Shear Modulus (GPa) = 1.23428 24.00094 12.61761
#
# Velocity S-wave (km/s) = 0.74136 3.26915 2.37033
# Velocity P-wave (km/s) = 4.19568 6.01755 5.18723
#
# Compressibility (1/GPa) = 0.02639386
#
# Stress axis : x y z
#
# Youngs Moduli (GPa) = 61.42246 103.21280 102.87412
#
# Poissons Ratio (x) = -0.12473 0.15311
# Poissons Ratio (y) = -0.07423 0.44937
# Poissons Ratio (z) = 0.09142 0.45085
#
# Static dielectric constant tensor:
#      x y z
#    x 1.862750 0.000000 0.000000 
#    y 0.000000 1.842540 0.000000 
#    z 0.000000 0.000000 1.834940 
# 
# From -- ./inp_files/2279.got.cif
#   From: 2010.05.17/outbox.cif.g08.bks.cpg/sg47_2_cif.got.tgz:2279.got - 2010.06.03 20:15:42.
