data_PCOD9386261
_publ_section_title
;
Structure prediction by ZEFSAII (Michael W. Deem and Ramdas Pophale) SiO2 
 PCOD9386261
Probable space group: P M M M
;
_chemical_formula_sum "Si O2"
_cell_formula_units_Z 48
_cell_length_a 15.450849
_cell_length_b 8.446826
_cell_length_c 20.535715
_cell_angle_alpha 90.000000
_cell_angle_beta 90.000000
_cell_angle_gamma 90.000000
_cell_volume 2680.129165
_symmetry_space_group_name_H-M "P M M M"
_symmetry_group_IT_number 47
_symmetry_cell_setting 'orthorhombic'
loop_
_space_group_symop_operation_xyz
x,y,z
-x,-y,z
x,-y,-z
-x,y,-z
-x,-y,-z
x,y,-z
-x,y,z
x,-y,z
loop_
_atom_site_type_symbol
_atom_site_label
_atom_site_fract_x
_atom_site_fract_y
_atom_site_fract_z
Si Si1 0.095780 0.310585 0.729201
Si Si2 0.897719 0.179199 0.000000
Si Si3 0.649211 0.184006 0.168130
Si Si4 0.500000 0.311961 0.924820
Si Si5 0.599278 0.806998 0.426041
Si Si6 0.284090 0.808405 0.693474
Si Si7 0.170435 0.685579 0.132112
O O1 0.096776 0.500000 0.719625
O O2 0.183828 0.243605 0.697654
O O3 0.108552 0.281088 0.806488
O O4 0.000000 0.251719 0.708768
O O5 0.870918 0.273076 0.936052
O O6 0.000000 0.166108 0.000000
O O7 0.860917 0.000000 0.000000
O O8 0.582078 0.262252 0.118837
O O9 0.662337 0.246682 0.242263
O O10 0.744598 0.208740 0.139673
O O11 0.625545 0.000000 0.172781
O O12 0.500000 0.500000 0.930037
O O13 0.500000 0.248660 0.000000
O O14 0.619945 0.756969 0.500000
O O15 0.500000 0.759951 0.411370
O O16 0.666581 0.753909 0.371344
O O17 0.600353 0.000000 0.425628
O O18 0.284800 0.000000 0.695414
O O19 0.194500 0.500000 0.135728
#
# Coordination Sequence:
#
# PCOD9386261 Si02
#       7
#     8   4   8   4   8   8   8
#     4   9  18  33  52  73  99 133 172 211 254 305
#     4  11  23  35  49  72  99 126 159 205 261 313
#     4  10  21  36  54  77 103 131 166 212 264 308
#     4  11  25  41  55  71  96 133 180 220 256 304
#     4   8  14  26  48  78 110 141 170 204 250 305
#     4   9  18  31  52  81 108 134 169 213 257 304
#     4  10  20  35  54  72  96 127 165 209 255 311
#
# _framework density 17.909586000000001
#
# number of rings (size 3 to 8) (size 9 to 14) (size 15 to 20)
#    0.000    2.500    0.000    2.500    2.333    3.667 
#    0.000    0.000    0.000    1.000    0.000    4.667 
#    0.000    0.000    0.000    0.000    0.000    0.000 
#
# Total GULP energy -267469.182921 kJ/mol
# GULP energy per Si atom -5572.274644 kJ/mol
# Density = 1.786882 g / cm^3
# Si number density = 17.909586 Si / 1000 Ang^3
#
#
#
# Elastic Constant Matrix: (Units=GPa)
#
#
# Indices 1 2 3 4 5 6 
#
# 1 112.4086 14.6451 87.9909 0.0000 0.0000 0.0000
# 2 14.6451 17.7952 15.6197 0.0000 0.0000 0.0000
# 3 87.9909 15.6197 138.4297 0.0000 0.0000 0.0000
# 4 0.0000 0.0000 0.0000 11.5882 0.0000 0.0000
# 5 0.0000 0.0000 0.0000 0.0000 13.5924 0.0000
# 6 0.0000 0.0000 0.0000 0.0000 0.0000 19.0065
#
#
#
# Elastic Compliance Matrix: (Units=1/GPa)
#
#
# Indices 1 2 3 4 5 6 
#
# 1 0.018152 -0.005340 -0.010935 0.000000 0.000000 0.000000
# 2 -0.005340 0.063943 -0.003821 0.000000 0.000000 0.000000
# 3 -0.010935 -0.003821 0.014606 0.000000 0.000000 0.000000
# 4 0.000000 0.000000 0.000000 0.086294 0.000000 0.000000
# 5 0.000000 0.000000 0.000000 0.000000 0.073570 0.000000
# 6 0.000000 0.000000 0.000000 0.000000 0.000000 0.052614
#
#
# Mechanical properties :
#
#
# Convention : Reuss Voigt Hill
#
# Bulk Modulus (GPa) = 17.69642 56.12721 36.91182
# Shear Modulus (GPa) = 13.57929 18.86263 16.22096
#
# Velocity S-wave (km/s) = 2.75656 3.24885 3.01277
# Velocity P-wave (km/s) = 4.47592 6.74393 5.72339
#
# Compressibility (1/GPa) = 0.05650860
#
# Stress axis : x y z
#
# Youngs Moduli (GPa) = 55.09097 15.63890 68.46539
#
# Poissons Ratio (x) = 0.08351 0.74870
# Poissons Ratio (y) = 0.29419 0.26159
# Poissons Ratio (z) = 0.60244 0.05975
#
# Static dielectric constant tensor:
#      x y z
#    x 1.608710 0.000000 0.000000 
#    y 0.000000 1.633480 0.000000 
#    z 0.000000 0.000000 1.615660 
# 
# From -- ./inp_files/28000.got.cif
#   From: 2010.05.17/outbox.cif.g08.bks.cpg/sg47_14_cif.got.tgz:28000.got - 2010.06.03 20:15:42.
