data_PCOD9386903
_publ_section_title
;
Structure prediction by ZEFSAII (Michael W. Deem and Ramdas Pophale) SiO2 
 PCOD9386903
Probable space group: P M M M
;
_chemical_formula_sum "Si O2"
_cell_formula_units_Z 48
_cell_length_a 7.916942
_cell_length_b 30.808836
_cell_length_c 9.980034
_cell_angle_alpha 90.000000
_cell_angle_beta 90.000000
_cell_angle_gamma 90.000000
_cell_volume 2434.247735
_symmetry_space_group_name_H-M "P M M M"
_symmetry_group_IT_number 47
_symmetry_cell_setting 'orthorhombic'
loop_
_space_group_symop_operation_xyz
x,y,z
-x,-y,z
x,-y,-z
-x,y,-z
-x,-y,-z
x,y,-z
-x,y,z
x,-y,z
loop_
_atom_site_type_symbol
_atom_site_label
_atom_site_fract_x
_atom_site_fract_y
_atom_site_fract_z
Si Si1 0.292876 0.857943 0.156069
Si Si2 0.703634 0.779338 0.345305
Si Si3 0.795656 0.699399 0.845505
Si Si4 0.302293 0.451140 0.500000
Si Si5 0.196260 0.393687 0.748906
Si Si6 0.703622 0.449643 0.000000
Si Si7 0.300017 0.046598 0.837864
O O1 0.500000 0.858639 0.155301
O O2 0.237128 0.820952 0.258973
O O3 0.233476 0.906027 0.200922
O O4 0.242967 0.849952 0.000000
O O5 0.764944 0.777710 0.500000
O O6 0.500000 0.781941 0.351392
O O7 0.748277 0.737438 0.256520
O O8 0.730486 0.653429 0.787240
O O9 0.000000 0.697424 0.851972
O O10 0.736708 0.706059 0.000000
O O11 0.223459 0.500000 0.500000
O O12 0.500000 0.457692 0.500000
O O13 0.262495 0.421264 0.626019
O O14 0.000000 0.386153 0.722622
O O15 0.223496 0.424762 0.874082
O O16 0.749862 0.500000 0.000000
O O17 0.500000 0.446688 0.000000
O O18 0.500000 0.046206 0.804543
O O19 0.228105 0.000000 0.791380
O O20 0.289524 0.046638 0.000000
#
# Coordination Sequence:
#
# PCOD9386903 Si02
#       7
#     8   8   8   4   8   4   8
#     4   8  13  23  40  62  92 130 171 216 262 308
#     4  10  21  34  50  76 106 138 176 216 262 318
#     4  10  22  41  60  80 106 135 172 221 271 315
#     4  11  25  43  61  87 123 155 185 225 270 317
#     4  11  23  41  63  87 114 149 190 228 270 324
#     4  11  23  39  61  91 123 151 181 223 274 321
#     4   7   9  14  28  53  84 120 164 211 257 304
#
# _framework density 19.718616999999998
#
# number of rings (size 3 to 8) (size 9 to 14) (size 15 to 20)
#    0.000    2.500    0.833    3.500    1.167    6.000 
#    0.000    0.000    0.000    0.500    0.000    3.500 
#    0.000    0.667    0.000    7.667    0.000    8.833 
#
# Total GULP energy -267506.612439 kJ/mol
# GULP energy per Si atom -5573.054426 kJ/mol
# Density = 1.967374 g / cm^3
# Si number density = 19.718617 Si / 1000 Ang^3
#
#
#
# Elastic Constant Matrix: (Units=GPa)
#
#
# Indices 1 2 3 4 5 6 
#
# 1 17.4809 6.9305 7.7503 0.0000 0.0000 0.0000
# 2 6.9305 219.5040 105.2901 0.0000 0.0000 0.0000
# 3 7.7503 105.2901 164.1876 0.0000 0.0000 0.0000
# 4 0.0000 0.0000 0.0000 36.0081 0.0000 0.0000
# 5 0.0000 0.0000 0.0000 0.0000 23.5428 0.0000
# 6 0.0000 0.0000 0.0000 0.0000 0.0000 14.6359
#
#
#
# Elastic Compliance Matrix: (Units=1/GPa)
#
#
# Indices 1 2 3 4 5 6 
#
# 1 0.058515 -0.000755 -0.002278 0.000000 0.000000 0.000000
# 2 -0.000755 0.006589 -0.004190 0.000000 0.000000 0.000000
# 3 -0.002278 -0.004190 0.008885 0.000000 0.000000 0.000000
# 4 0.000000 0.000000 0.000000 0.027772 0.000000 0.000000
# 5 0.000000 0.000000 0.000000 0.000000 0.042476 0.000000
# 6 0.000000 0.000000 0.000000 0.000000 0.000000 0.068325
#
#
# Mechanical properties :
#
#
# Convention : Reuss Voigt Hill
#
# Bulk Modulus (GPa) = 16.79448 71.23494 44.01471
# Shear Modulus (GPa) = 20.25480 33.58414 26.91947
#
# Velocity S-wave (km/s) = 3.20846 4.13142 3.69884
# Velocity P-wave (km/s) = 4.71818 7.67870 6.37274
#
# Compressibility (1/GPa) = 0.05954336
#
# Stress axis : x y z
#
# Youngs Moduli (GPa) = 17.08973 151.75914 112.54805
#
# Poissons Ratio (x) = 0.11454 0.25640
# Poissons Ratio (y) = 0.01290 0.47158
# Poissons Ratio (z) = 0.03893 0.63587
#
# Static dielectric constant tensor:
#      x y z
#    x 1.723430 0.000000 0.000000 
#    y 0.000000 1.739320 0.000000 
#    z 0.000000 0.000000 1.649420 
# 
# From -- ./inp_files/2561.got.cif
#   From: 2010.05.17/outbox.cif.g08.bks.cpg/sg47_2_cif.got.tgz:2561.got - 2010.06.03 20:15:42.
