data_PCOD9386327
_publ_section_title
;
Structure prediction by ZEFSAII (Michael W. Deem and Ramdas Pophale) SiO2 
 PCOD9386327
Probable space group: P M M M
;
_chemical_formula_sum "Si O2"
_cell_formula_units_Z 33
_cell_length_a 21.006266
_cell_length_b 9.043648
_cell_length_c 10.051329
_cell_angle_alpha 90.000000
_cell_angle_beta 90.000000
_cell_angle_gamma 90.000000
_cell_volume 1909.483893
_symmetry_space_group_name_H-M "P M M M"
_symmetry_group_IT_number 47
_symmetry_cell_setting 'orthorhombic'
loop_
_space_group_symop_operation_xyz
x,y,z
-x,-y,z
x,-y,-z
-x,y,-z
-x,-y,-z
x,y,-z
-x,y,z
x,-y,z
loop_
_atom_site_type_symbol
_atom_site_label
_atom_site_fract_x
_atom_site_fract_y
_atom_site_fract_z
Si Si1 0.870970 0.332121 0.659607
Si Si2 0.632640 0.322888 0.842177
Si Si3 0.739631 0.176838 0.341895
Si Si4 0.500000 0.169509 0.161057
Si Si5 0.000000 0.000000 0.000000
Si Si6 0.000000 0.836723 0.271855
O O1 0.868648 0.339744 0.500000
O O2 0.868560 0.500000 0.711920
O O3 0.808659 0.239828 0.699729
O O4 0.936513 0.252131 0.694453
O O5 0.631748 0.500000 0.828286
O O6 0.686479 0.252075 0.749619
O O7 0.564347 0.254778 0.801890
O O8 0.643047 0.289508 0.000000
O O9 0.730053 0.209681 0.500000
O O10 0.738195 0.000000 0.326536
O O11 0.500000 0.000000 0.209264
O O12 0.500000 0.165326 0.000000
O O13 0.000000 0.125678 0.883130
O O14 0.000000 0.000000 0.339128
#
# Coordination Sequence:
#
# PCOD9386327 Si02
#       6
#     8   8   8   4   1   4
#     4  10  20  35  58  85 107 133 175 226 274 320
#     4  10  20  35  55  82 110 143 183 225 272 326
#     4  10  21  37  56  81 112 145 181 225 275 325
#     4   9  17  31  54  79 108 141 182 228 272 317
#     4   8  24  40  52  76 112 148 182 216 264 316
#     4  10  20  38  56  76 109 141 179 216 261 312
#
# _framework density 17.282157000000002
#
# number of rings (size 3 to 8) (size 9 to 14) (size 15 to 20)
#    0.364    1.818    0.000    3.273    0.000    7.273 
#    2.182    1.818    0.000    3.636    0.000    0.000 
#    0.000    0.000    0.000    0.000    0.000    0.000 
#
# Total GULP energy -183724.477924 kJ/mol
# GULP energy per Si atom -5567.408422 kJ/mol
# Density = 1.724282 g / cm^3
# Si number density = 17.282157 Si / 1000 Ang^3
#
#
#
# Elastic Constant Matrix: (Units=GPa)
#
#
# Indices 1 2 3 4 5 6 
#
# 1 199.6131 98.0121 60.6248 0.0000 0.0000 0.0000
# 2 98.0121 137.9645 52.1036 0.0000 0.0000 0.0000
# 3 60.6248 52.1036 47.4247 0.0000 0.0000 0.0000
# 4 0.0000 0.0000 0.0000 29.4294 0.0000 0.0000
# 5 0.0000 0.0000 0.0000 0.0000 -28.2882 0.0000
# 6 0.0000 0.0000 0.0000 0.0000 0.0000 37.7883
#
#
#
# Elastic Compliance Matrix: (Units=1/GPa)
#
#
# Indices 1 2 3 4 5 6 
#
# 1 0.009100 -0.003540 -0.007743 0.000000 0.000000 0.000000
# 2 -0.003540 0.013766 -0.010598 0.000000 0.000000 0.000000
# 3 -0.007743 -0.010598 0.042628 0.000000 0.000000 0.000000
# 4 0.000000 0.000000 0.000000 0.033980 0.000000 0.000000
# 5 0.000000 0.000000 0.000000 0.000000 -0.035350 0.000000
# 6 0.000000 0.000000 0.000000 0.000000 0.000000 0.026463
#
#
# Mechanical properties :
#
#
# Convention : Reuss Voigt Hill
#
# Bulk Modulus (GPa) = 46.01816 89.60926 67.81371
# Shear Modulus (GPa) = 35.31281 19.40335 27.35808
#
# Velocity S-wave (km/s) = 4.52520 3.35436 3.98304
# Velocity P-wave (km/s) = 7.34770 8.18325 7.77671
#
# Compressibility (1/GPa) = 0.02173055
#
# Stress axis : x y z
#
# Youngs Moduli (GPa) = 109.89497 72.64311 23.45898
#
# Poissons Ratio (x) = 0.25719 0.18163
# Poissons Ratio (y) = 0.38907 0.24862
# Poissons Ratio (z) = 0.85088 0.76989
#
# Static dielectric constant tensor:
#      x y z
#    x 1.571510 0.000000 0.000000 
#    y 0.000000 1.605240 0.000000 
#    z 0.000000 0.000000 1.566790 
# 
# From -- ./inp_files/10416.got.cif
#   From: 2010.05.17/outbox.cif.g08.bks.cpg/sg47_6_cif.got.tgz:10416.got - 2010.06.03 20:15:42.
