data_PCOD9386472
_publ_section_title
;
Structure prediction by ZEFSAII (Michael W. Deem and Ramdas Pophale) SiO2 
 PCOD9386472
Probable space group: P M M M
;
_chemical_formula_sum "Si O2"
_cell_formula_units_Z 32
_cell_length_a 12.593220
_cell_length_b 15.731538
_cell_length_c 7.684697
_cell_angle_alpha 90.000000
_cell_angle_beta 90.000000
_cell_angle_gamma 90.000000
_cell_volume 1522.420848
_symmetry_space_group_name_H-M "P M M M"
_symmetry_group_IT_number 47
_symmetry_cell_setting 'orthorhombic'
loop_
_space_group_symop_operation_xyz
x,y,z
-x,-y,z
x,-y,-z
-x,y,-z
-x,-y,-z
x,y,-z
-x,y,z
x,-y,z
loop_
_atom_site_type_symbol
_atom_site_label
_atom_site_fract_x
_atom_site_fract_y
_atom_site_fract_z
Si Si1 0.500000 0.898395 0.796496
Si Si2 0.000000 0.598297 0.208858
Si Si3 0.624665 0.500000 0.287172
Si Si4 0.121089 0.000000 0.786438
Si Si5 0.274490 0.148612 0.796660
Si Si6 0.766709 0.339620 0.296501
O O1 0.609765 0.866970 0.716359
O O2 0.500000 0.000000 0.794725
O O3 0.500000 0.869785 0.000000
O O4 0.890024 0.636692 0.274822
O O5 0.000000 0.500000 0.259922
O O6 0.000000 0.604955 0.000000
O O7 0.500000 0.500000 0.235234
O O8 0.626614 0.500000 0.500000
O O9 0.690591 0.416022 0.229739
O O10 0.185407 0.083966 0.728225
O O11 0.000000 0.000000 0.725819
O O12 0.116665 0.000000 0.000000
O O13 0.249116 0.247567 0.785735
O O14 0.283159 0.124509 0.000000
O O15 0.742432 0.330771 0.500000
#
# Coordination Sequence:
#
# PCOD9386472 Si02
#       6
#     4   4   4   4   8   8
#     4   9  16  32  57  82 111 152 202 250 292 344
#     4  11  23  41  65  88 115 148 193 247 294 346
#     4   9  20  39  59  80 114 161 200 229 276 347
#     4   9  18  33  54  80 111 149 193 237 288 348
#     4  10  20  35  57  84 114 151 197 245 292 344
#     4  11  23  39  61  87 119 156 195 239 292 351
#
# _framework density 21.019155000000001
#
# number of rings (size 3 to 8) (size 9 to 14) (size 15 to 20)
#    0.000    2.000    2.500    1.125    3.500    0.500 
#    0.000    0.625    0.000    4.500    0.000    0.000 
#    0.000    0.000    0.000    0.000    0.000    0.000 
#
# Total GULP energy -178629.477023 kJ/mol
# GULP energy per Si atom -5582.171157 kJ/mol
# Density = 2.097131 g / cm^3
# Si number density = 21.019155 Si / 1000 Ang^3
#
#
#
# Elastic Constant Matrix: (Units=GPa)
#
#
# Indices 1 2 3 4 5 6 
#
# 1 209.1172 94.7446 4.4568 0.0000 0.0000 0.0000
# 2 94.7446 131.2913 -4.8023 0.0000 0.0000 0.0000
# 3 4.4568 -4.8023 32.6338 0.0000 0.0000 0.0000
# 4 0.0000 0.0000 0.0000 -2.6200 0.0000 0.0000
# 5 0.0000 0.0000 0.0000 0.0000 -9.7535 0.0000
# 6 0.0000 0.0000 0.0000 0.0000 0.0000 18.4092
#
#
#
# Elastic Compliance Matrix: (Units=1/GPa)
#
#
# Indices 1 2 3 4 5 6 
#
# 1 0.007204 -0.005263 -0.001758 0.000000 0.000000 0.000000
# 2 -0.005263 0.011503 0.002411 0.000000 0.000000 0.000000
# 3 -0.001758 0.002411 0.031238 0.000000 0.000000 0.000000
# 4 0.000000 0.000000 0.000000 -0.381680 0.000000 0.000000
# 5 0.000000 0.000000 0.000000 0.000000 -0.102527 0.000000
# 6 0.000000 0.000000 0.000000 0.000000 0.000000 0.054321
#
#
# Mechanical properties :
#
#
# Convention : Reuss Voigt Hill
#
# Bulk Modulus (GPa) = 24.55481 62.42672 43.49077
# Shear Modulus (GPa) = -13.99981 19.78337 2.89178
#
# Velocity S-wave (km/s) = -2.58359 3.07124 1.17421
# Velocity P-wave (km/s) = 1.67557 6.50700 4.75124
#
# Compressibility (1/GPa) = 0.04072522
#
# Stress axis : x y z
#
# Youngs Moduli (GPa) = 138.81244 86.93534 32.01223
#
# Poissons Ratio (x) = 0.45754 0.05629
# Poissons Ratio (y) = 0.73056 -0.07720
# Poissons Ratio (z) = 0.24408 -0.20964
#
# Static dielectric constant tensor:
#      x y z
#    x 1.724870 0.000000 0.000000 
#    y 0.000000 1.727260 0.000000 
#    z 0.000000 0.000000 1.788620 
# 
# From -- ./inp_files/3467.got.cif
#   From: 2010.05.17/outbox.cif.g08.bks.cpg/sg47_2_cif.got.tgz:3467.got - 2010.06.03 20:15:42.
