data_PCOD9386758
_publ_section_title
;
Structure prediction by ZEFSAII (Michael W. Deem and Ramdas Pophale) SiO2 
 PCOD9386758
Probable space group: P M M M
;
_chemical_formula_sum "Si O2"
_cell_formula_units_Z 25
_cell_length_a 7.957656
_cell_length_b 7.399790
_cell_length_c 19.921633
_cell_angle_alpha 90.000000
_cell_angle_beta 90.000000
_cell_angle_gamma 90.000000
_cell_volume 1173.085026
_symmetry_space_group_name_H-M "P M M M"
_symmetry_group_IT_number 47
_symmetry_cell_setting 'orthorhombic'
loop_
_space_group_symop_operation_xyz
x,y,z
-x,-y,z
x,-y,-z
-x,y,-z
-x,-y,-z
x,y,-z
-x,y,z
x,-y,z
loop_
_atom_site_type_symbol
_atom_site_label
_atom_site_fract_x
_atom_site_fract_y
_atom_site_fract_z
Si Si1 0.500000 0.500000 0.000000
Si Si2 0.700107 0.207744 0.500000
Si Si3 0.698146 0.210372 0.788126
Si Si4 0.199862 0.790504 0.356729
Si Si5 0.188960 0.500000 0.892135
O O1 0.347987 0.500000 0.057876
O O2 0.500000 0.201504 0.500000
O O3 0.755221 0.290037 0.429092
O O4 0.769085 0.000000 0.500000
O O5 0.500000 0.217298 0.802513
O O6 0.726572 0.282481 0.712524
O O7 0.791882 0.327570 0.843183
O O8 0.752444 0.000000 0.789422
O O9 0.000000 0.788684 0.350119
O O10 0.260964 0.000000 0.359540
O O11 0.000000 0.500000 0.921420
#
# Coordination Sequence:
#
# PCOD9386758 Si02
#       5
#     1   4   8   8   4
#     4  12  26  52  70 102 136 160 206 248 306 386
#     4   9  15  23  37  64 105 154 204 255 312 362
#     4  10  20  38  64  94 129 168 212 261 310 367
#     4   9  16  26  44  74 112 155 206 259 308 361
#     4  12  25  45  73  99 130 168 204 252 311 373
#
# _framework density 21.311330000000002
#
# number of rings (size 3 to 8) (size 9 to 14) (size 15 to 20)
#    0.000    2.080    1.600    2.640    0.000    7.680 
#    0.000    1.600    0.000    2.880    0.000    6.720 
#    0.000    0.000    0.000    0.000    0.000    0.000 
#
# Total GULP energy -139282.742113 kJ/mol
# GULP energy per Si atom -5571.309685 kJ/mol
# Density = 2.126282 g / cm^3
# Si number density = 21.311330 Si / 1000 Ang^3
#
#
#
# Elastic Constant Matrix: (Units=GPa)
#
#
# Indices 1 2 3 4 5 6 
#
# 1 114.6155 20.3942 53.6610 0.0000 0.0000 0.0000
# 2 20.3942 89.3922 41.9741 0.0000 0.0000 0.0000
# 3 53.6610 41.9741 166.0184 0.0000 0.0000 0.0000
# 4 0.0000 0.0000 0.0000 30.4009 0.0000 0.0000
# 5 0.0000 0.0000 0.0000 0.0000 -2.6366 0.0000
# 6 0.0000 0.0000 0.0000 0.0000 0.0000 9.2460
#
#
#
# Elastic Compliance Matrix: (Units=1/GPa)
#
#
# Indices 1 2 3 4 5 6 
#
# 1 0.010343 -0.000896 -0.003117 0.000000 0.000000 0.000000
# 2 -0.000896 0.012771 -0.002939 0.000000 0.000000 0.000000
# 3 -0.003117 -0.002939 0.007774 0.000000 0.000000 0.000000
# 4 0.000000 0.000000 0.000000 0.032894 0.000000 0.000000
# 5 0.000000 0.000000 0.000000 0.000000 -0.379274 0.000000
# 6 0.000000 0.000000 0.000000 0.000000 0.000000 0.108155
#
#
# Mechanical properties :
#
#
# Convention : Reuss Voigt Hill
#
# Bulk Modulus (GPa) = 58.87814 66.89830 62.88822
# Shear Modulus (GPa) = -26.62818 24.33517 -1.14650
#
# Velocity S-wave (km/s) = -3.53864 3.38285 -0.73427
# Velocity P-wave (km/s) = 3.31536 6.83501 5.37164
#
# Compressibility (1/GPa) = 0.01698423
#
# Stress axis : x y z
#
# Youngs Moduli (GPa) = 96.67939 78.30081 128.63546
#
# Poissons Ratio (x) = 0.07019 0.40091
# Poissons Ratio (y) = 0.08666 0.37809
# Poissons Ratio (z) = 0.30131 0.23014
#
# Static dielectric constant tensor:
#      x y z
#    x 1.734760 0.000000 0.000000 
#    y 0.000000 1.884070 0.000000 
#    z 0.000000 0.000000 1.769480 
# 
# From -- ./inp_files/689.got.cif
#   From: 2010.05.17/outbox.cif.g08.bks.cpg/sg47_1_cif.got.tgz:689.got - 2010.06.03 20:15:42.
