data_PCOD9386707
_publ_section_title
;
Structure prediction by ZEFSAII (Michael W. Deem and Ramdas Pophale) SiO2 
 PCOD9386707
Probable space group: P M M M
;
_chemical_formula_sum "Si O2"
_cell_formula_units_Z 56
_cell_length_a 22.770466
_cell_length_b 7.613048
_cell_length_c 15.228302
_cell_angle_alpha 90.000000
_cell_angle_beta 90.000000
_cell_angle_gamma 90.000000
_cell_volume 2639.866516
_symmetry_space_group_name_H-M "P M M M"
_symmetry_group_IT_number 47
_symmetry_cell_setting 'orthorhombic'
loop_
_space_group_symop_operation_xyz
x,y,z
-x,-y,z
x,-y,-z
-x,y,-z
-x,-y,-z
x,y,-z
-x,y,z
x,-y,z
loop_
_atom_site_type_symbol
_atom_site_label
_atom_site_fract_x
_atom_site_fract_y
_atom_site_fract_z
Si Si1 0.743341 0.713044 0.904353
Si Si2 0.000000 0.710777 0.400030
Si Si3 0.881401 0.793645 0.094713
Si Si4 0.682558 0.292584 0.273176
Si Si5 0.566604 0.211651 0.190925
Si Si6 0.571783 0.203465 0.000000
Si Si7 0.887661 0.207812 0.285162
Si Si8 0.218603 0.793181 0.598761
O O1 0.743610 0.500000 0.902487
O O2 0.810612 0.776088 0.901593
O O3 0.710698 0.779107 0.817705
O O4 0.718453 0.766657 0.000000
O O5 0.057608 0.771125 0.348956
O O6 0.000000 0.500000 0.401344
O O7 0.000000 0.775171 0.500000
O O8 0.901221 0.717900 0.188275
O O9 0.897402 0.000000 0.092222
O O10 0.900036 0.717326 0.000000
O O11 0.691786 0.500000 0.273820
O O12 0.613650 0.257469 0.264428
O O13 0.718072 0.222379 0.356027
O O14 0.500000 0.272098 0.207165
O O15 0.587453 0.282145 0.094859
O O16 0.564645 0.000000 0.183306
O O17 0.500000 0.203008 0.000000
O O18 0.590699 0.000000 0.000000
O O19 0.829967 0.282118 0.333869
O O20 0.876780 0.000000 0.271054
O O21 0.215936 0.719388 0.500000
O O22 0.205185 0.000000 0.591543
#
# Coordination Sequence:
#
# PCOD9386707 Si02
#       8
#     8   4   8   8   8   4   8   8
#     4   9  18  31  46  70 108 149 182 213 257 315
#     4  11  25  41  58  83 112 144 185 231 276 325
#     4   9  17  31  54  83 112 142 179 222 264 308
#     4  11  22  33  51  79 111 145 180 221 271 328
#     4   9  18  33  52  73 102 142 185 227 269 317
#     4   7  12  26  47  71  99 135 181 226 265 308
#     4  10  20  37  61  86 113 145 181 221 268 320
#     4  10  21  38  60  84 109 138 177 227 277 325
#
# _framework density 21.213194000000001
#
# number of rings (size 3 to 8) (size 9 to 14) (size 15 to 20)
#    0.000    2.429    1.429    1.929    1.000    3.429 
#    0.000    0.357    0.000    3.857    0.000    3.000 
#    0.000    0.000    0.000    0.000    0.000    0.000 
#
# Total GULP energy -312488.385254 kJ/mol
# GULP energy per Si atom -5580.149737 kJ/mol
# Density = 2.116491 g / cm^3
# Si number density = 21.213194 Si / 1000 Ang^3
#
#
#
# Elastic Constant Matrix: (Units=GPa)
#
#
# Indices 1 2 3 4 5 6 
#
# 1 64.8894 -15.2799 51.8066 0.0000 0.0000 0.0000
# 2 -15.2799 48.3667 7.1281 0.0000 0.0000 0.0000
# 3 51.8066 7.1281 183.2405 0.0000 0.0000 0.0000
# 4 0.0000 0.0000 0.0000 6.6945 0.0000 0.0000
# 5 0.0000 0.0000 0.0000 0.0000 22.1900 0.0000
# 6 0.0000 0.0000 0.0000 0.0000 0.0000 29.4290
#
#
#
# Elastic Compliance Matrix: (Units=1/GPa)
#
#
# Indices 1 2 3 4 5 6 
#
# 1 0.022716 0.008170 -0.006740 0.000000 0.000000 0.000000
# 2 0.008170 0.023733 -0.003233 0.000000 0.000000 0.000000
# 3 -0.006740 -0.003233 0.007489 0.000000 0.000000 0.000000
# 4 0.000000 0.000000 0.000000 0.149377 0.000000 0.000000
# 5 0.000000 0.000000 0.000000 0.000000 0.045065 0.000000
# 6 0.000000 0.000000 0.000000 0.000000 0.000000 0.033980
#
#
# Mechanical properties :
#
#
# Convention : Reuss Voigt Hill
#
# Bulk Modulus (GPa) = 19.86873 42.64513 31.25693
# Shear Modulus (GPa) = 16.51563 28.51881 22.51722
#
# Velocity S-wave (km/s) = 2.79329 3.67057 3.26156
# Velocity P-wave (km/s) = 4.44857 6.17340 5.38055
#
# Compressibility (1/GPa) = 0.05033033
#
# Stress axis : x y z
#
# Youngs Moduli (GPa) = 44.02229 42.13583 133.53510
#
# Poissons Ratio (x) = -0.34423 0.90004
# Poissons Ratio (y) = -0.35965 0.43172
# Poissons Ratio (z) = 0.29671 0.13622
#
# Static dielectric constant tensor:
#      x y z
#    x 1.752360 0.000000 0.000000 
#    y 0.000000 1.806500 0.000000 
#    z 0.000000 0.000000 1.807560 
# 
# From -- ./inp_files/25221.got.cif
#   From: 2010.05.17/outbox.cif.g08.bks.cpg/sg47_13_cif.got.tgz:25221.got - 2010.06.03 20:15:42.
