data_PCOD9386978
_publ_section_title
;
Structure prediction by ZEFSAII (Michael W. Deem and Ramdas Pophale) SiO2 
 PCOD9386978
Probable space group: P M M M
;
_chemical_formula_sum "Si O2"
_cell_formula_units_Z 56
_cell_length_a 7.622585
_cell_length_b 19.519134
_cell_length_c 19.571508
_cell_angle_alpha 90.000000
_cell_angle_beta 90.000000
_cell_angle_gamma 90.000000
_cell_volume 2911.971440
_symmetry_space_group_name_H-M "P M M M"
_symmetry_group_IT_number 47
_symmetry_cell_setting 'orthorhombic'
loop_
_space_group_symop_operation_xyz
x,y,z
-x,-y,z
x,-y,-z
-x,y,-z
-x,-y,-z
x,y,-z
-x,y,z
x,-y,z
loop_
_atom_site_type_symbol
_atom_site_label
_atom_site_fract_x
_atom_site_fract_y
_atom_site_fract_z
Si Si1 0.787989 0.923492 0.849924
Si Si2 0.206547 0.287891 0.213953
Si Si3 0.213953 0.079512 0.576556
Si Si4 0.794428 0.577426 0.276136
Si Si5 0.706454 0.785358 0.924302
Si Si6 0.785313 0.847315 0.712855
Si Si7 0.710896 0.581088 0.426724
O O1 0.732131 0.864189 0.901699
O O2 0.734899 0.899273 0.773813
O O3 0.000000 0.924209 0.850669
O O4 0.725319 0.000000 0.865242
O O5 0.282249 0.362950 0.228656
O O6 0.221003 0.261086 0.136764
O O7 0.277484 0.227368 0.262671
O O8 0.000000 0.292254 0.229826
O O9 0.270162 0.099855 0.500000
O O10 0.273894 0.126420 0.639160
O O11 0.000000 0.080766 0.576889
O O12 0.264273 0.000000 0.587609
O O13 0.718033 0.500000 0.272768
O O14 0.780711 0.605006 0.354083
O O15 0.000000 0.570123 0.260143
O O16 0.500000 0.772008 0.926267
O O17 0.780318 0.773697 0.000000
O O18 0.000000 0.846217 0.712070
O O19 0.771616 0.610360 0.500000
O O20 0.500000 0.586784 0.424879
O O21 0.754363 0.500000 0.428122
#
# Coordination Sequence:
#
# PCOD9386978 Si02
#       7
#     8   8   8   8   8   8   8
#     4   9  17  29  47  70  94 123 157 189 222 263
#     4   9  18  32  49  68  89 116 150 185 225 278
#     4   8  12  17  28  49  77 109 143 179 220 258
#     4   9  17  29  46  69  95 120 149 190 238 283
#     4  10  21  35  50  69  93 120 148 181 225 274
#     4   8  13  23  38  56  82 114 148 184 218 255
#     4   8  14  25  41  62  89 121 156 190 223 265
#
# _framework density 19.230958000000001
#
# number of rings (size 3 to 8) (size 9 to 14) (size 15 to 20)
#    0.000    3.286    0.000    2.571    0.000    4.286 
#    0.000    3.571    0.000    3.000    0.000    3.000 
#    0.000    5.143    0.000   31.429    0.000   28.571 
#
# Total GULP energy -311887.239894 kJ/mol
# GULP energy per Si atom -5569.414998 kJ/mol
# Density = 1.918719 g / cm^3
# Si number density = 19.230958 Si / 1000 Ang^3
#
#
#
# Elastic Constant Matrix: (Units=GPa)
#
#
# Indices 1 2 3 4 5 6 
#
# 1 32.8620 1.7931 -5.9729 0.0000 0.0000 0.0000
# 2 1.7931 111.3749 74.9276 0.0000 0.0000 0.0000
# 3 -5.9729 74.9276 139.0653 0.0000 0.0000 0.0000
# 4 0.0000 0.0000 0.0000 12.0347 0.0000 0.0000
# 5 0.0000 0.0000 0.0000 0.0000 14.8057 0.0000
# 6 0.0000 0.0000 0.0000 0.0000 0.0000 -3.5558
#
#
#
# Elastic Compliance Matrix: (Units=1/GPa)
#
#
# Indices 1 2 3 4 5 6 
#
# 1 0.031006 -0.002188 0.002511 0.000000 0.000000 0.000000
# 2 -0.002188 0.014238 -0.007765 0.000000 0.000000 0.000000
# 3 0.002511 -0.007765 0.011483 0.000000 0.000000 0.000000
# 4 0.000000 0.000000 0.000000 0.083093 0.000000 0.000000
# 5 0.000000 0.000000 0.000000 0.000000 0.067541 0.000000
# 6 0.000000 0.000000 0.000000 0.000000 0.000000 -0.281230
#
#
# Mechanical properties :
#
#
# Convention : Reuss Voigt Hill
#
# Bulk Modulus (GPa) = 23.90007 47.19976 35.54991
# Shear Modulus (GPa) = -111.02169 18.82723 -46.09723
#
# Velocity S-wave (km/s) = -7.60632 3.13230 -4.90126
# Velocity P-wave (km/s) = 8.04279 6.13830 3.67477
#
# Compressibility (1/GPa) = 0.04184088
#
# Stress axis : x y z
#
# Youngs Moduli (GPa) = 32.25181 70.23418 87.08791
#
# Poissons Ratio (x) = 0.15369 -0.21866
# Poissons Ratio (y) = 0.07058 0.67627
# Poissons Ratio (z) = -0.08098 0.54540
#
# Static dielectric constant tensor:
#      x y z
#    x 1.722730 0.000000 0.000000 
#    y 0.000000 1.688390 0.000000 
#    z 0.000000 0.000000 1.680410 
# 
# From -- ./inp_files/9860.got.cif
#   From: 2010.05.17/outbox.cif.g08.bks.cpg/sg47_5_cif.got.tgz:9860.got - 2010.06.03 20:15:42.
