data_PCOD9386984
_publ_section_title
;
Structure prediction by ZEFSAII (Michael W. Deem and Ramdas Pophale) SiO2 
 PCOD9386984
Probable space group: P M M M
;
_chemical_formula_sum "Si O2"
_cell_formula_units_Z 58
_cell_length_a 7.790230
_cell_length_b 14.608116
_cell_length_c 25.551182
_cell_angle_alpha 90.000000
_cell_angle_beta 90.000000
_cell_angle_gamma 90.000000
_cell_volume 2907.739421
_symmetry_space_group_name_H-M "P M M M"
_symmetry_group_IT_number 47
_symmetry_cell_setting 'orthorhombic'
loop_
_space_group_symop_operation_xyz
x,y,z
-x,-y,z
x,-y,-z
-x,y,-z
-x,-y,-z
x,y,-z
-x,y,z
x,-y,z
loop_
_atom_site_type_symbol
_atom_site_label
_atom_site_fract_x
_atom_site_fract_y
_atom_site_fract_z
Si Si1 0.199213 0.602878 0.590205
Si Si2 0.799911 0.103444 0.777343
Si Si3 0.300466 0.705720 0.187683
Si Si4 0.701977 0.108142 0.658912
Si Si5 0.703271 0.606939 0.291047
Si Si6 0.805468 0.609337 0.916989
Si Si7 0.699944 0.795338 0.556311
Si Si8 0.500000 0.646659 0.000000
O O1 0.267265 0.500000 0.580896
O O2 0.212061 0.620350 0.652618
O O3 0.291146 0.686088 0.562081
O O4 0.000000 0.604453 0.574737
O O5 0.712943 0.184771 0.809131
O O6 0.783541 0.124476 0.715407
O O7 0.000000 0.102962 0.791137
O O8 0.730555 0.000000 0.784887
O O9 0.500000 0.678282 0.185019
O O10 0.231366 0.666635 0.242838
O O11 0.210116 0.661471 0.138106
O O12 0.500000 0.132343 0.665068
O O13 0.775591 0.161769 0.609190
O O14 0.714157 0.000000 0.648076
O O15 0.500000 0.626346 0.298548
O O16 0.721757 0.500000 0.277150
O O17 0.782964 0.500000 0.909562
O O18 0.652721 0.641408 0.954743
O O19 0.000000 0.623469 0.937294
O O20 0.775573 0.822141 0.500000
O O21 0.500000 0.823789 0.555964
#
# Coordination Sequence:
#
# PCOD9386984 Si02
#       8
#     8   8   8   8   8   8   8   2
#     4  10  21  35  50  69  95 130 171 214 263 321
#     4  10  21  36  54  79 112 147 184 229 282 343
#     4  11  21  34  55  84 118 152 189 238 289 340
#     4   9  18  34  55  77 102 133 169 211 267 338
#     4   9  18  32  51  75 106 142 175 213 269 334
#     4  11  23  38  60  90 124 166 211 252 295 340
#     4  10  21  35  51  72  96 125 166 216 268 322
#     4  12  23  42  64  86 127 172 215 258 290 334
#
# _framework density 19.946767999999999
#
# number of rings (size 3 to 8) (size 9 to 14) (size 15 to 20)
#    0.000    1.931    0.690    3.310    0.000    8.552 
#    0.000    4.138    0.000    0.000    0.000    3.862 
#    0.000    2.207    0.000    0.000    0.000    0.000 
#
# Total GULP energy -323347.701927 kJ/mol
# GULP energy per Si atom -5574.960378 kJ/mol
# Density = 1.990137 g / cm^3
# Si number density = 19.946768 Si / 1000 Ang^3
#
#
#
# Elastic Constant Matrix: (Units=GPa)
#
#
# Indices 1 2 3 4 5 6 
#
# 1 65.8725 3.5390 5.4785 0.0000 0.0000 0.0000
# 2 3.5390 31.2594 14.8122 0.0000 0.0000 0.0000
# 3 5.4785 14.8122 33.8775 0.0000 0.0000 0.0000
# 4 0.0000 0.0000 0.0000 63.2171 0.0000 0.0000
# 5 0.0000 0.0000 0.0000 0.0000 45.8443 0.0000
# 6 0.0000 0.0000 0.0000 0.0000 0.0000 14.8040
#
#
#
# Elastic Compliance Matrix: (Units=1/GPa)
#
#
# Indices 1 2 3 4 5 6 
#
# 1 0.015400 -0.000711 -0.002180 0.000000 0.000000 0.000000
# 2 -0.000711 0.040383 -0.017542 0.000000 0.000000 0.000000
# 3 -0.002180 -0.017542 0.037540 0.000000 0.000000 0.000000
# 4 0.000000 0.000000 0.000000 0.015819 0.000000 0.000000
# 5 0.000000 0.000000 0.000000 0.000000 0.021813 0.000000
# 6 0.000000 0.000000 0.000000 0.000000 0.000000 0.067549
#
#
# Mechanical properties :
#
#
# Convention : Reuss Voigt Hill
#
# Bulk Modulus (GPa) = 19.06236 19.85211 19.45723
# Shear Modulus (GPa) = 19.46626 31.91839 25.69233
#
# Velocity S-wave (km/s) = 3.12735 4.00456 3.59283
# Velocity P-wave (km/s) = 4.75581 5.59966 5.19490
#
# Compressibility (1/GPa) = 0.05245941
#
# Stress axis : x y z
#
# Youngs Moduli (GPa) = 64.93371 24.76298 26.63803
#
# Poissons Ratio (x) = 0.01760 0.05806
# Poissons Ratio (y) = 0.04615 0.46727
# Poissons Ratio (z) = 0.14154 0.43438
#
# Static dielectric constant tensor:
#      x y z
#    x 1.735050 0.000000 0.000000 
#    y 0.000000 1.709760 0.000000 
#    z 0.000000 0.000000 1.703650 
# 
# From -- ./inp_files/32058.got.cif
#   From: 2010.05.17/outbox.cif.g08.bks.cpg/sg47_17_cif.got.tgz:32058.got - 2010.06.03 20:15:42.
