data_PCOD9386049
_publ_section_title
;
Structure prediction by ZEFSAII (Michael W. Deem and Ramdas Pophale) SiO2 
 PCOD9386049
Probable space group: P M M M
;
_chemical_formula_sum "Si O2"
_cell_formula_units_Z 48
_cell_length_a 8.653743
_cell_length_b 31.807332
_cell_length_c 9.295082
_cell_angle_alpha 90.000000
_cell_angle_beta 90.000000
_cell_angle_gamma 90.000000
_cell_volume 2558.494341
_symmetry_space_group_name_H-M "P M M M"
_symmetry_group_IT_number 47
_symmetry_cell_setting 'orthorhombic'
loop_
_space_group_symop_operation_xyz
x,y,z
-x,-y,z
x,-y,-z
-x,y,-z
-x,-y,-z
x,y,-z
-x,y,z
x,-y,z
loop_
_atom_site_type_symbol
_atom_site_label
_atom_site_fract_x
_atom_site_fract_y
_atom_site_fract_z
Si Si1 0.184914 0.329335 0.667848
Si Si2 0.814635 0.000000 0.667375
Si Si3 0.312860 0.081017 0.167507
Si Si4 0.184983 0.500000 0.833055
Si Si5 0.315202 0.419632 0.331485
Si Si6 0.686884 0.249148 0.166832
Si Si7 0.688444 0.834698 0.334183
O O1 0.231426 0.323484 0.500000
O O2 0.249695 0.374511 0.715939
O O3 0.248908 0.291164 0.761086
O O4 0.000000 0.330145 0.674529
O O5 0.752182 0.041106 0.748160
O O6 0.765311 0.000000 0.500000
O O7 0.000000 0.000000 0.671810
O O8 0.500000 0.079250 0.171817
O O9 0.263731 0.124042 0.245967
O O10 0.266433 0.080650 0.000000
O O11 0.248971 0.541556 0.756658
O O12 0.000000 0.500000 0.823358
O O13 0.230460 0.500000 0.000000
O O14 0.272974 0.424876 0.500000
O O15 0.500000 0.419148 0.320862
O O16 0.500000 0.250496 0.172244
O O17 0.738040 0.208018 0.255429
O O18 0.732689 0.245807 0.000000
O O19 0.739444 0.836213 0.500000
O O20 0.500000 0.834559 0.334558
#
# Coordination Sequence:
#
# PCOD9386049 Si02
#       7
#     8   4   8   4   8   8   8
#     4  10  21  37  57  81 109 143 183 226 272 322
#     4  11  24  39  54  76 108 145 184 225 270 322
#     4  10  20  35  57  84 111 140 178 224 273 326
#     4  11  24  39  56  82 116 151 184 221 270 326
#     4  10  21  38  61  86 110 141 184 230 275 325
#     4  10  20  34  54  81 112 145 180 220 268 321
#     4   9  17  31  54  82 110 141 178 222 270 319
#
# _framework density 18.761033999999999
#
# number of rings (size 3 to 8) (size 9 to 14) (size 15 to 20)
#    0.000    2.000    0.000    3.500    0.000   10.000 
#    0.000    0.833    0.000    5.000    0.000    0.000 
#    0.000    0.000    0.000    0.000    0.000    0.000 
#
# Total GULP energy -268188.331012 kJ/mol
# GULP energy per Si atom -5587.256896 kJ/mol
# Density = 1.871833 g / cm^3
# Si number density = 18.761034 Si / 1000 Ang^3
#
#
#
# Elastic Constant Matrix: (Units=GPa)
#
#
# Indices 1 2 3 4 5 6 
#
# 1 17.6530 40.1874 39.3646 0.0000 0.0000 0.0000
# 2 40.1874 226.8818 134.8224 0.0000 0.0000 0.0000
# 3 39.3646 134.8224 172.9617 0.0000 0.0000 0.0000
# 4 0.0000 0.0000 0.0000 -441.6281 0.0000 0.0000
# 5 0.0000 0.0000 0.0000 0.0000 23.3603 0.0000
# 6 0.0000 0.0000 0.0000 0.0000 0.0000 -71.4945
#
#
#
# Elastic Compliance Matrix: (Units=1/GPa)
#
#
# Indices 1 2 3 4 5 6 
#
# 1 0.125748 -0.009812 -0.020971 0.000000 0.000000 0.000000
# 2 -0.009812 0.008977 -0.004764 0.000000 0.000000 0.000000
# 3 -0.020971 -0.004764 0.014268 0.000000 0.000000 0.000000
# 4 0.000000 0.000000 0.000000 -0.002264 0.000000 0.000000
# 5 0.000000 0.000000 0.000000 0.000000 0.042808 0.000000
# 6 0.000000 0.000000 0.000000 0.000000 0.000000 -0.013987
#
#
# Mechanical properties :
#
#
# Convention : Reuss Voigt Hill
#
# Bulk Modulus (GPa) = 12.83720 94.02725 53.43222
# Shear Modulus (GPa) = 18.34137 -84.41098 -33.03480
#
# Velocity S-wave (km/s) = 3.13010 -6.71494 -4.20076
# Velocity P-wave (km/s) = 4.46326 3.14537 2.23913
#
# Compressibility (1/GPa) = 0.07789863
#
# Stress axis : x y z
#
# Youngs Moduli (GPa) = 7.95244 111.40131 70.08744
#
# Poissons Ratio (x) = 1.09307 1.46978
# Poissons Ratio (y) = 0.07803 0.33390
# Poissons Ratio (z) = 0.16677 0.53072
#
# Static dielectric constant tensor:
#      x y z
#    x 1.632820 0.000000 0.000000 
#    y 0.000000 1.606880 0.000000 
#    z 0.000000 0.000000 1.635940 
# 
# From -- ./inp_files/2648.got.cif
#   From: 2010.05.17/outbox.cif.g08.bks.cpg/sg47_2_cif.got.tgz:2648.got - 2010.06.03 20:15:42.
