data_PCOD9386087
_publ_section_title
;
Structure prediction by ZEFSAII (Michael W. Deem and Ramdas Pophale) SiO2 
 PCOD9386087
Probable space group: P M M M
;
_chemical_formula_sum "Si O2"
_cell_formula_units_Z 56
_cell_length_a 21.172400
_cell_length_b 13.881241
_cell_length_c 10.514339
_cell_angle_alpha 90.000000
_cell_angle_beta 90.000000
_cell_angle_gamma 90.000000
_cell_volume 3090.155683
_symmetry_space_group_name_H-M "P M M M"
_symmetry_group_IT_number 47
_symmetry_cell_setting 'orthorhombic'
loop_
_space_group_symop_operation_xyz
x,y,z
-x,-y,z
x,-y,-z
-x,y,-z
-x,-y,-z
x,y,-z
-x,y,z
x,-y,z
loop_
_atom_site_type_symbol
_atom_site_label
_atom_site_fract_x
_atom_site_fract_y
_atom_site_fract_z
Si Si1 0.345309 0.110118 0.356052
Si Si2 0.075148 0.395960 0.143849
Si Si3 0.745131 0.608847 0.651051
Si Si4 0.500000 0.615443 0.150318
Si Si5 0.396381 0.313806 0.350589
Si Si6 0.853464 0.235676 0.279298
Si Si7 0.076827 0.883553 0.500000
Si Si8 0.241375 0.113158 0.139330
O O1 0.318107 0.117115 0.500000
O O2 0.394379 0.197208 0.345980
O O3 0.292078 0.127494 0.250859
O O4 0.369068 0.000000 0.340986
O O5 0.096766 0.500000 0.195465
O O6 0.094226 0.306684 0.226430
O O7 0.000000 0.399242 0.136295
O O8 0.100213 0.386406 0.000000
O O9 0.748605 0.599800 0.500000
O O10 0.754023 0.500000 0.705309
O O11 0.674361 0.647340 0.677074
O O12 0.797226 0.689646 0.682957
O O13 0.500000 0.500000 0.145655
O O14 0.558650 0.648496 0.239097
O O15 0.500000 0.648441 0.000000
O O16 0.411979 0.340430 0.500000
O O17 0.886176 0.166667 0.382580
O O18 0.821355 0.170336 0.172474
O O19 0.000000 0.865180 0.500000
O O20 0.084882 0.000000 0.500000
O O21 0.227633 0.000000 0.138532
O O22 0.266304 0.140957 0.000000
#
# Coordination Sequence:
#
# PCOD9386087 Si02
#       8
#     8   8   8   4   8   8   4   8
#     4   9  18  34  59  89 121 155 194 241 291 351
#     4   9  19  36  56  77 103 141 190 237 284 351
#     4  10  20  34  54  86 121 147 186 243 300 357
#     4  11  25  43  62  87 120 162 211 255 300 359
#     4  10  20  38  62  89 118 158 202 246 296 352
#     4  12  20  36  57  82 112 154 191 241 304 365
#     4  11  26  42  57  83 117 158 210 263 310 367
#     4  10  21  34  52  83 119 152 190 238 296 360
#
# _framework density 18.122064999999999
#
# number of rings (size 3 to 8) (size 9 to 14) (size 15 to 20)
#    0.000    1.857    2.143    2.786    1.000    1.714 
#    0.000    0.357    0.000    6.429    0.000    6.000 
#    0.000    0.000    0.000    0.000    0.000    0.000 
#
# Total GULP energy -311790.782196 kJ/mol
# GULP energy per Si atom -5567.692539 kJ/mol
# Density = 1.808082 g / cm^3
# Si number density = 18.122065 Si / 1000 Ang^3
#
#
#
# Elastic Constant Matrix: (Units=GPa)
#
#
# Indices 1 2 3 4 5 6 
#
# 1 75.3631 37.7885 46.0220 0.0000 0.0000 0.0000
# 2 37.7885 108.8255 61.4082 0.0000 0.0000 0.0000
# 3 46.0220 61.4082 109.6273 0.0000 0.0000 0.0000
# 4 0.0000 0.0000 0.0000 21.2489 0.0000 0.0000
# 5 0.0000 0.0000 0.0000 0.0000 44.7407 0.0000
# 6 0.0000 0.0000 0.0000 0.0000 0.0000 26.7350
#
#
#
# Elastic Compliance Matrix: (Units=1/GPa)
#
#
# Indices 1 2 3 4 5 6 
#
# 1 0.018483 -0.002982 -0.006089 0.000000 0.000000 0.000000
# 2 -0.002982 0.013917 -0.006544 0.000000 0.000000 0.000000
# 3 -0.006089 -0.006544 0.015343 0.000000 0.000000 0.000000
# 4 0.000000 0.000000 0.000000 0.047061 0.000000 0.000000
# 5 0.000000 0.000000 0.000000 0.000000 0.022351 0.000000
# 6 0.000000 0.000000 0.000000 0.000000 0.000000 0.037404
#
#
# Mechanical properties :
#
#
# Convention : Reuss Voigt Hill
#
# Bulk Modulus (GPa) = 60.55506 64.91703 62.73605
# Shear Modulus (GPa) = 26.13791 28.45140 27.29466
#
# Velocity S-wave (km/s) = 3.80192 3.96660 3.88513
# Velocity P-wave (km/s) = 7.26364 7.54178 7.40401
#
# Compressibility (1/GPa) = 0.01651390
#
# Stress axis : x y z
#
# Youngs Moduli (GPa) = 54.10509 71.85416 65.17486
#
# Poissons Ratio (x) = 0.21428 0.39682
# Poissons Ratio (y) = 0.16135 0.42649
# Poissons Ratio (z) = 0.32942 0.47020
#
# Static dielectric constant tensor:
#      x y z
#    x 1.625790 0.000000 0.000000 
#    y 0.000000 1.661390 0.000000 
#    z 0.000000 0.000000 1.635780 
# 
# From -- ./inp_files/11316.got.cif
#   From: 2010.05.17/outbox.cif.g08.bks.cpg/sg47_6_cif.got.tgz:11316.got - 2010.06.03 20:15:42.
