data_PCOD9386801
_publ_section_title
;
Structure prediction by ZEFSAII (Michael W. Deem and Ramdas Pophale) SiO2 
 PCOD9386801
Probable space group: P M M M
;
_chemical_formula_sum "Si O2"
_cell_formula_units_Z 32
_cell_length_a 11.221570
_cell_length_b 8.489544
_cell_length_c 15.251594
_cell_angle_alpha 90.000000
_cell_angle_beta 90.000000
_cell_angle_gamma 90.000000
_cell_volume 1452.958541
_symmetry_space_group_name_H-M "P M M M"
_symmetry_group_IT_number 47
_symmetry_cell_setting 'orthorhombic'
loop_
_space_group_symop_operation_xyz
x,y,z
-x,-y,z
x,-y,-z
-x,y,-z
-x,-y,-z
x,y,-z
-x,y,z
x,-y,z
loop_
_atom_site_type_symbol
_atom_site_label
_atom_site_fract_x
_atom_site_fract_y
_atom_site_fract_z
Si Si1 0.733109 0.327502 0.899497
Si Si2 0.000000 0.818652 0.673216
Si Si3 0.749598 0.812235 0.395543
Si Si4 0.500000 0.687023 0.397859
Si Si5 0.641725 0.000000 0.896348
Si Si6 0.000000 0.674557 0.850503
O O1 0.702246 0.500000 0.860313
O O2 0.876534 0.317077 0.901600
O O3 0.688045 0.165083 0.857492
O O4 0.687768 0.330029 0.000000
O O5 0.874036 0.748183 0.642445
O O6 0.000000 0.807049 0.777286
O O7 0.000000 0.000000 0.641491
O O8 0.753827 0.782713 0.500000
O O9 0.625536 0.744434 0.359608
O O10 0.745921 0.000000 0.381321
O O11 0.500000 0.500000 0.398455
O O12 0.500000 0.744461 0.500000
O O13 0.500000 0.000000 0.893183
O O14 0.679448 0.000000 0.000000
O O15 0.000000 0.500000 0.807214
#
# Coordination Sequence:
#
# PCOD9386801 Si02
#       6
#     8   4   8   4   4   4
#     4   9  18  33  54  79 106 137 175 219 263 311
#     4  10  21  33  51  77 104 135 170 214 264 312
#     4   9  17  32  53  76 102 133 170 211 257 310
#     4   9  17  29  49  77 103 129 166 211 256 303
#     4   9  18  31  51  81 109 136 173 216 265 314
#     4  10  21  35  52  74 103 135 169 210 263 316
#
# _framework density 22.024027
#
# number of rings (size 3 to 8) (size 9 to 14) (size 15 to 20)
#    0.000    2.750    0.000    1.125    1.750    6.000 
#    0.000    4.375    2.750    3.750    0.000    0.000 
#    0.000    0.000    0.000    0.000    0.000    0.000 
#
# Total GULP energy -178330.931564 kJ/mol
# GULP energy per Si atom -5572.841611 kJ/mol
# Density = 2.197390 g / cm^3
# Si number density = 22.024027 Si / 1000 Ang^3
#
#
#
# Elastic Constant Matrix: (Units=GPa)
#
#
# Indices 1 2 3 4 5 6 
#
# 1 139.7678 50.8071 23.7008 0.0000 0.0000 0.0000
# 2 50.8071 120.1564 12.8751 0.0000 0.0000 0.0000
# 3 23.7008 12.8751 22.1474 0.0000 0.0000 0.0000
# 4 0.0000 0.0000 0.0000 9.1326 0.0000 0.0000
# 5 0.0000 0.0000 0.0000 0.0000 -7.8608 0.0000
# 6 0.0000 0.0000 0.0000 0.0000 0.0000 -90.0457
#
#
#
# Elastic Compliance Matrix: (Units=1/GPa)
#
#
# Indices 1 2 3 4 5 6 
#
# 1 0.009781 -0.003215 -0.008599 0.000000 0.000000 0.000000
# 2 -0.003215 0.009932 -0.002334 0.000000 0.000000 0.000000
# 3 -0.008599 -0.002334 0.055710 0.000000 0.000000 0.000000
# 4 0.000000 0.000000 0.000000 0.109497 0.000000 0.000000
# 5 0.000000 0.000000 0.000000 0.000000 -0.127213 0.000000
# 6 0.000000 0.000000 0.000000 0.000000 0.000000 -0.011105
#
#
# Mechanical properties :
#
#
# Convention : Reuss Voigt Hill
#
# Bulk Modulus (GPa) = 21.21798 50.75972 35.98885
# Shear Modulus (GPa) = 55.18390 -4.77554 25.20418
#
# Velocity S-wave (km/s) = 5.01105 -1.47412 3.38656
# Velocity P-wave (km/s) = 6.56778 4.49445 5.62743
#
# Compressibility (1/GPa) = 0.04712984
#
# Stress axis : x y z
#
# Youngs Moduli (GPa) = 102.23524 100.68653 17.94994
#
# Poissons Ratio (x) = 0.32367 0.15435
# Poissons Ratio (y) = 0.32865 0.04189
# Poissons Ratio (z) = 0.87909 0.23497
#
# Static dielectric constant tensor:
#      x y z
#    x 1.806290 0.000000 0.000000 
#    y 0.000000 1.848670 0.000000 
#    z 0.000000 0.000000 1.813510 
# 
# From -- ./inp_files/22365.got.cif
#   From: 2010.05.17/outbox.cif.g08.bks.cpg/sg47_12_cif.got.tgz:22365.got - 2010.06.03 20:15:42.
