data_PCOD9386763
_publ_section_title
;
Structure prediction by ZEFSAII (Michael W. Deem and Ramdas Pophale) SiO2 
 PCOD9386763
Probable space group: P M M M
;
_chemical_formula_sum "Si O2"
_cell_formula_units_Z 34
_cell_length_a 9.104652
_cell_length_b 9.326591
_cell_length_c 20.350571
_cell_angle_alpha 90.000000
_cell_angle_beta 90.000000
_cell_angle_gamma 90.000000
_cell_volume 1728.076173
_symmetry_space_group_name_H-M "P M M M"
_symmetry_group_IT_number 47
_symmetry_cell_setting 'orthorhombic'
loop_
_space_group_symop_operation_xyz
x,y,z
-x,-y,z
x,-y,-z
-x,y,-z
-x,-y,-z
x,y,-z
-x,y,z
x,-y,z
loop_
_atom_site_type_symbol
_atom_site_label
_atom_site_fract_x
_atom_site_fract_y
_atom_site_fract_z
Si Si1 0.500000 0.000000 0.500000
Si Si2 0.676697 0.171330 0.000000
Si Si3 0.500000 0.500000 0.500000
Si Si4 0.739187 0.748752 0.500000
Si Si5 0.834120 0.329884 0.640265
Si Si6 0.675019 0.830111 0.754076
Si Si7 0.823728 0.328975 0.876133
O O1 0.630680 0.880514 0.500000
O O2 0.746973 0.248433 0.936860
O O3 0.500000 0.188389 0.000000
O O4 0.707527 0.000000 0.000000
O O5 0.627436 0.619370 0.500000
O O6 0.829400 0.732884 0.432942
O O7 0.797569 0.500000 0.639370
O O8 0.723315 0.241790 0.685736
O O9 0.000000 0.316468 0.666995
O O10 0.500000 0.815891 0.763540
O O11 0.760217 0.744735 0.810811
O O12 0.710247 0.000000 0.755136
O O13 0.792193 0.500000 0.876997
O O14 0.000000 0.311996 0.879667
#
# Coordination Sequence:
#
# PCOD9386763 Si02
#       7
#     1   4   1   4   8   8   8
#     4  10  28  38  62  94 132 154 206 260 320 366
#     4  11  24  41  66  98 134 169 212 259 310 368
#     4  10  20  38  66  94 116 166 206 252 324 366
#     4  11  23  41  64  91 127 162 207 261 314 377
#     4  11  24  42  65  93 124 162 209 261 314 376
#     4  11  26  43  64  92 128 166 210 259 314 375
#     4  11  24  43  66  96 130 167 213 261 310 370
#
# _framework density 19.675059000000001
#
# number of rings (size 3 to 8) (size 9 to 14) (size 15 to 20)
#    0.000    1.059    1.176    3.882    4.941   13.176 
#    0.000    0.588    0.000    0.000    0.000    0.000 
#    0.000    0.000    0.000    0.000    0.000    0.000 
#
# Total GULP energy -189479.330940 kJ/mol
# GULP energy per Si atom -5572.921498 kJ/mol
# Density = 1.963028 g / cm^3
# Si number density = 19.675059 Si / 1000 Ang^3
#
#
#
# Elastic Constant Matrix: (Units=GPa)
#
#
# Indices 1 2 3 4 5 6 
#
# 1 108.1546 83.1578 44.1868 0.0000 0.0000 0.0000
# 2 83.1578 198.4855 61.1272 0.0000 0.0000 0.0000
# 3 44.1868 61.1272 136.8576 0.0000 0.0000 0.0000
# 4 0.0000 0.0000 0.0000 48.8109 0.0000 0.0000
# 5 0.0000 0.0000 0.0000 0.0000 42.1498 0.0000
# 6 0.0000 0.0000 0.0000 0.0000 0.0000 36.3328
#
#
#
# Elastic Compliance Matrix: (Units=1/GPa)
#
#
# Indices 1 2 3 4 5 6 
#
# 1 0.014206 -0.005263 -0.002236 0.000000 0.000000 0.000000
# 2 -0.005263 0.007792 -0.001781 0.000000 0.000000 0.000000
# 3 -0.002236 -0.001781 0.008824 0.000000 0.000000 0.000000
# 4 0.000000 0.000000 0.000000 0.020487 0.000000 0.000000
# 5 0.000000 0.000000 0.000000 0.000000 0.023725 0.000000
# 6 0.000000 0.000000 0.000000 0.000000 0.000000 0.027523
#
#
# Mechanical properties :
#
#
# Convention : Reuss Voigt Hill
#
# Bulk Modulus (GPa) = 81.55168 91.16013 86.35591
# Shear Modulus (GPa) = 39.93442 42.46041 41.19742
#
# Velocity S-wave (km/s) = 4.51010 4.65056 4.58087
# Velocity P-wave (km/s) = 8.28617 8.67585 8.48325
#
# Compressibility (1/GPa) = 0.01226216
#
# Stress axis : x y z
#
# Youngs Moduli (GPa) = 70.39090 128.34134 113.32530
#
# Poissons Ratio (x) = 0.67550 0.25338
# Poissons Ratio (y) = 0.37049 0.20181
# Poissons Ratio (z) = 0.15739 0.22855
#
# Static dielectric constant tensor:
#      x y z
#    x 1.654950 0.000000 0.000000 
#    y 0.000000 1.648950 0.000000 
#    z 0.000000 0.000000 1.644550 
# 
# From -- ./inp_files/29213.got.cif
#   From: 2010.05.17/outbox.cif.g08.bks.cpg/sg47_15_cif.got.tgz:29213.got - 2010.06.03 20:15:42.
