data_PCOD9386822
_publ_section_title
;
Structure prediction by ZEFSAII (Michael W. Deem and Ramdas Pophale) SiO2 
 PCOD9386822
Probable space group: P M M M
;
_chemical_formula_sum "Si O2"
_cell_formula_units_Z 64
_cell_length_a 21.195790
_cell_length_b 7.459545
_cell_length_c 18.335087
_cell_angle_alpha 90.000000
_cell_angle_beta 90.000000
_cell_angle_gamma 90.000000
_cell_volume 2898.978011
_symmetry_space_group_name_H-M "P M M M"
_symmetry_group_IT_number 47
_symmetry_cell_setting 'orthorhombic'
loop_
_space_group_symop_operation_xyz
x,y,z
-x,-y,z
x,-y,-z
-x,y,-z
-x,-y,-z
x,y,-z
-x,y,z
x,-y,z
loop_
_atom_site_type_symbol
_atom_site_label
_atom_site_fract_x
_atom_site_fract_y
_atom_site_fract_z
Si Si1 0.928366 0.216095 0.209250
Si Si2 0.705833 0.290426 0.707837
Si Si3 0.567976 0.784941 0.720239
Si Si4 0.157499 0.212627 0.921277
Si Si5 0.296883 0.717030 0.125891
Si Si6 0.205106 0.280096 0.420249
Si Si7 0.930486 0.707449 0.378236
Si Si8 0.568174 0.707596 0.108195
O O1 0.878670 0.283562 0.149757
O O2 0.920203 0.287968 0.290827
O O3 0.000000 0.257754 0.185730
O O4 0.923085 0.000000 0.215385
O O5 0.721212 0.500000 0.715219
O O6 0.632860 0.274538 0.683867
O O7 0.709286 0.215884 0.790200
O O8 0.752946 0.215795 0.647454
O O9 0.500000 0.731072 0.688130
O O10 0.569087 0.713152 0.803272
O O11 0.569311 0.000000 0.724737
O O12 0.232256 0.237508 0.913335
O O13 0.144679 0.000000 0.921841
O O14 0.136941 0.285402 0.000000
O O15 0.302306 0.500000 0.127747
O O16 0.362636 0.783227 0.090512
O O17 0.229997 0.230240 0.500000
O O18 0.204475 0.500000 0.417214
O O19 0.132955 0.216781 0.412480
O O20 0.933513 0.500000 0.401332
O O21 0.000000 0.786915 0.392871
O O22 0.500000 0.787013 0.086392
O O23 0.567123 0.500000 0.085109
#
# Coordination Sequence:
#
# PCOD9386822 Si02
#       8
#     8   8   8   8   8   8   8   8
#     4   9  18  33  52  71  91 118 152 189 228 270
#     4   9  17  29  46  67  91 121 155 190 227 268
#     4   9  16  25  40  65  93 117 146 188 234 276
#     4  10  21  34  47  66  92 121 153 189 228 270
#     4   9  17  29  47  70  93 119 151 186 227 273
#     4   9  17  29  46  69  96 124 155 191 227 264
#     4   9  17  30  50  74  97 121 150 186 227 270
#     4   8  14  26  44  66  92 119 148 185 227 269
#
# _framework density 22.076744999999999
#
# number of rings (size 3 to 8) (size 9 to 14) (size 15 to 20)
#    0.000    3.000    0.000    1.875    0.000    5.000 
#    0.000    3.125    0.000    2.250    0.000    9.625 
#    0.000    0.000    0.000    0.000    0.000    0.000 
#
# Total GULP energy -356935.256000 kJ/mol
# GULP energy per Si atom -5577.113375 kJ/mol
# Density = 2.202650 g / cm^3
# Si number density = 22.076745 Si / 1000 Ang^3
#
#
#
# Elastic Constant Matrix: (Units=GPa)
#
#
# Indices 1 2 3 4 5 6 
#
# 1 99.4212 -7.4447 42.9880 0.0000 0.0000 0.0000
# 2 -7.4447 67.4537 3.5896 0.0000 0.0000 0.0000
# 3 42.9880 3.5896 75.6906 0.0000 0.0000 0.0000
# 4 0.0000 0.0000 0.0000 -0.6387 0.0000 0.0000
# 5 0.0000 0.0000 0.0000 0.0000 443.7565 0.0000
# 6 0.0000 0.0000 0.0000 0.0000 0.0000 21.7667
#
#
#
# Elastic Compliance Matrix: (Units=1/GPa)
#
#
# Indices 1 2 3 4 5 6 
#
# 1 0.013574 0.001913 -0.007800 0.000000 0.000000 0.000000
# 2 0.001913 0.015132 -0.001804 0.000000 0.000000 0.000000
# 3 -0.007800 -0.001804 0.017727 0.000000 0.000000 0.000000
# 4 0.000000 0.000000 0.000000 -1.565566 0.000000 0.000000
# 5 0.000000 0.000000 0.000000 0.000000 0.002253 0.000000
# 6 0.000000 0.000000 0.000000 0.000000 0.000000 0.045942
#
#
# Mechanical properties :
#
#
# Convention : Reuss Voigt Hill
#
# Bulk Modulus (GPa) = 32.20474 35.64793 33.92633
# Shear Modulus (GPa) = -3.45972 106.53905 51.53967
#
# Velocity S-wave (km/s) = -1.25321 6.95437 4.83698
# Velocity P-wave (km/s) = 3.53910 8.98146 6.82612
#
# Compressibility (1/GPa) = 0.03105133
#
# Stress axis : x y z
#
# Youngs Moduli (GPa) = 73.66978 66.08442 56.41039
#
# Poissons Ratio (x) = -0.12643 0.44000
# Poissons Ratio (y) = -0.14095 0.10178
# Poissons Ratio (z) = 0.57463 0.11923
#
# Static dielectric constant tensor:
#      x y z
#    x 1.843170 0.000000 0.000000 
#    y 0.000000 1.886520 0.000000 
#    z 0.000000 0.000000 1.787120 
# 
# From -- ./inp_files/28791.got.cif
#   From: 2010.05.17/outbox.cif.g08.bks.cpg/sg47_15_cif.got.tgz:28791.got - 2010.06.03 20:15:42.
