data_PCOD9386171
_publ_section_title
;
Structure prediction by ZEFSAII (Michael W. Deem and Ramdas Pophale) SiO2 
 PCOD9386171
Probable space group: P M M M
;
_chemical_formula_sum "Si O2"
_cell_formula_units_Z 48
_cell_length_a 9.688857
_cell_length_b 14.189500
_cell_length_c 18.166164
_cell_angle_alpha 90.000000
_cell_angle_beta 90.000000
_cell_angle_gamma 90.000000
_cell_volume 2497.484888
_symmetry_space_group_name_H-M "P M M M"
_symmetry_group_IT_number 47
_symmetry_cell_setting 'orthorhombic'
loop_
_space_group_symop_operation_xyz
x,y,z
-x,-y,z
x,-y,-z
-x,y,-z
-x,-y,-z
x,y,-z
-x,y,z
x,-y,z
loop_
_atom_site_type_symbol
_atom_site_label
_atom_site_fract_x
_atom_site_fract_y
_atom_site_fract_z
Si Si1 0.655348 0.189884 0.136478
Si Si2 0.166907 0.793956 0.418586
Si Si3 0.833821 0.113702 0.000000
Si Si4 0.834950 0.605901 0.662905
Si Si5 0.000000 0.612029 0.918260
Si Si6 0.160182 0.888115 0.267380
Si Si7 0.274279 0.390720 0.827358
O O1 0.500000 0.149880 0.129205
O O2 0.754712 0.157390 0.070171
O O3 0.735141 0.156931 0.209805
O O4 0.640311 0.302746 0.143870
O O5 0.220561 0.816954 0.500000
O O6 0.203784 0.688156 0.393113
O O7 0.202865 0.860834 0.350367
O O8 0.000000 0.797370 0.422726
O O9 0.000000 0.130546 0.000000
O O10 0.816645 0.000000 0.000000
O O11 0.811673 0.500000 0.634561
O O12 0.755553 0.615786 0.740177
O O13 0.000000 0.614431 0.678262
O O14 0.132387 0.630508 0.869786
O O15 0.000000 0.500000 0.927616
O O16 0.000000 0.654772 0.000000
O O17 0.000000 0.855088 0.255955
O O18 0.160404 0.000000 0.257993
O O19 0.316387 0.500000 0.842632
#
# Coordination Sequence:
#
# PCOD9386171 Si02
#       7
#     8   8   4   8   4   8   8
#     4  12  26  41  63  93 125 162 198 243 301 354
#     4   9  17  29  49  82 120 153 190 244 306 363
#     4  11  27  49  72  95 120 156 202 252 300 349
#     4   9  15  26  47  77 113 153 195 243 298 352
#     4   9  18  30  50  84 115 149 198 247 292 336
#     4  10  21  38  61  86 114 153 202 254 305 362
#     4  10  20  34  55  84 120 160 201 243 291 351
#
# _framework density 19.219335000000001
#
# number of rings (size 3 to 8) (size 9 to 14) (size 15 to 20)
#    0.000    2.000    2.500    1.250    3.500    4.000 
#    0.000    3.333    0.000    1.500    0.000    1.167 
#    0.000    2.667    0.000    0.000    0.000    0.000 
#
# Total GULP energy -267577.543683 kJ/mol
# GULP energy per Si atom -5574.532160 kJ/mol
# Density = 1.917559 g / cm^3
# Si number density = 19.219335 Si / 1000 Ang^3
#
#
#
# Elastic Constant Matrix: (Units=GPa)
#
#
# Indices 1 2 3 4 5 6 
#
# 1 99.6570 39.2045 51.8632 0.0000 0.0000 0.0000
# 2 39.2045 99.0895 32.5955 0.0000 0.0000 0.0000
# 3 51.8632 32.5955 128.1908 0.0000 0.0000 0.0000
# 4 0.0000 0.0000 0.0000 5.5443 0.0000 0.0000
# 5 0.0000 0.0000 0.0000 0.0000 27.2916 0.0000
# 6 0.0000 0.0000 0.0000 0.0000 0.0000 7.7510
#
#
#
# Elastic Compliance Matrix: (Units=1/GPa)
#
#
# Indices 1 2 3 4 5 6 
#
# 1 0.014041 -0.004023 -0.004658 0.000000 0.000000 0.000000
# 2 -0.004023 0.012166 -0.001466 0.000000 0.000000 0.000000
# 3 -0.004658 -0.001466 0.010058 0.000000 0.000000 0.000000
# 4 0.000000 0.000000 0.000000 0.180365 0.000000 0.000000
# 5 0.000000 0.000000 0.000000 0.000000 0.036641 0.000000
# 6 0.000000 0.000000 0.000000 0.000000 0.000000 0.129016
#
#
# Mechanical properties :
#
#
# Convention : Reuss Voigt Hill
#
# Bulk Modulus (GPa) = 62.61123 63.80708 63.20915
# Shear Modulus (GPa) = 12.25777 21.66898 16.96338
#
# Velocity S-wave (km/s) = 2.52818 3.36141 2.97412
# Velocity P-wave (km/s) = 6.41640 6.95247 6.68981
#
# Compressibility (1/GPa) = 0.01597158
#
# Stress axis : x y z
#
# Youngs Moduli (GPa) = 71.21971 82.19770 99.42347
#
# Poissons Ratio (x) = 0.33069 0.46309
# Poissons Ratio (y) = 0.28653 0.14573
# Poissons Ratio (z) = 0.33172 0.12048
#
# Static dielectric constant tensor:
#      x y z
#    x 1.585390 0.000000 0.000000 
#    y 0.000000 1.703940 0.000000 
#    z 0.000000 0.000000 1.667560 
# 
# From -- ./inp_files/26535.got.cif
#   From: 2010.05.17/outbox.cif.g08.bks.cpg/sg47_14_cif.got.tgz:26535.got - 2010.06.03 20:15:42.
