data_PCOD9386692
_publ_section_title
;
Structure prediction by ZEFSAII (Michael W. Deem and Ramdas Pophale) SiO2 
 PCOD9386692
Probable space group: P M M M
;
_chemical_formula_sum "Si O2"
_cell_formula_units_Z 44
_cell_length_a 8.612787
_cell_length_b 28.090825
_cell_length_c 10.199388
_cell_angle_alpha 90.000000
_cell_angle_beta 90.000000
_cell_angle_gamma 90.000000
_cell_volume 2467.642915
_symmetry_space_group_name_H-M "P M M M"
_symmetry_group_IT_number 47
_symmetry_cell_setting 'orthorhombic'
loop_
_space_group_symop_operation_xyz
x,y,z
-x,-y,z
x,-y,-z
-x,y,-z
-x,-y,-z
x,y,-z
-x,y,z
x,-y,z
loop_
_atom_site_type_symbol
_atom_site_label
_atom_site_fract_x
_atom_site_fract_y
_atom_site_fract_z
Si Si1 0.679461 0.603042 0.340793
Si Si2 0.311119 0.946416 0.000000
Si Si3 0.814331 0.055409 0.500000
Si Si4 0.310127 0.500000 0.652026
Si Si5 0.687563 0.216210 0.846835
Si Si6 0.312126 0.112841 0.253132
Si Si7 0.815544 0.704455 0.347983
O O1 0.679496 0.599551 0.500000
O O2 0.500000 0.609599 0.300328
O O3 0.736685 0.551342 0.291026
O O4 0.774102 0.650232 0.309238
O O5 0.264813 0.917794 0.127506
O O6 0.500000 0.947805 0.000000
O O7 0.252816 0.000000 0.000000
O O8 0.755744 0.085547 0.623472
O O9 0.000000 0.053944 0.500000
O O10 0.758316 0.000000 0.500000
O O11 0.500000 0.500000 0.651478
O O12 0.258998 0.500000 0.500000
O O13 0.500000 0.216019 0.850162
O O14 0.737124 0.166984 0.776344
O O15 0.742759 0.259451 0.756148
O O16 0.739388 0.218119 0.000000
O O17 0.500000 0.112864 0.263743
O O18 0.760107 0.711906 0.500000
O O19 0.000000 0.710538 0.348307
#
# Coordination Sequence:
#
# PCOD9386692 Si02
#       7
#     8   4   4   4   8   8   8
#     4   8  13  24  43  68  98 134 174 216 261 306
#     4   9  16  30  57  87 109 129 161 212 265 306
#     4  11  25  41  55  79 117 151 175 204 247 304
#     4   7  10  18  37  65  96 129 168 213 260 308
#     4  10  21  38  58  80 104 131 172 223 270 314
#     4  10  20  37  60  85 107 133 173 218 261 308
#     4  10  21  34  49  74 108 143 179 215 257 312
#
# _framework density 17.830781000000002
#
# number of rings (size 3 to 8) (size 9 to 14) (size 15 to 20)
#    0.000    2.636    0.909    2.455    1.273    3.636 
#    0.000    0.909    0.000    4.364    0.000    0.636 
#    0.000    5.091    0.000    0.000    0.000    0.000 
#
# Total GULP energy -245100.004587 kJ/mol
# GULP energy per Si atom -5570.454650 kJ/mol
# Density = 1.779020 g / cm^3
# Si number density = 17.830781 Si / 1000 Ang^3
#
#
#
# Elastic Constant Matrix: (Units=GPa)
#
#
# Indices 1 2 3 4 5 6 
#
# 1 15.2853 27.1475 22.7540 0.0000 0.0000 0.0000
# 2 27.1475 186.6790 81.6488 0.0000 0.0000 0.0000
# 3 22.7540 81.6488 117.0973 0.0000 0.0000 0.0000
# 4 0.0000 0.0000 0.0000 15.3313 0.0000 0.0000
# 5 0.0000 0.0000 0.0000 0.0000 10.9028 0.0000
# 6 0.0000 0.0000 0.0000 0.0000 0.0000 8.1459
#
#
#
# Elastic Compliance Matrix: (Units=1/GPa)
#
#
# Indices 1 2 3 4 5 6 
#
# 1 0.101185 -0.008798 -0.013527 0.000000 0.000000 0.000000
# 2 -0.008798 0.008472 -0.004198 0.000000 0.000000 0.000000
# 3 -0.013527 -0.004198 0.014096 0.000000 0.000000 0.000000
# 4 0.000000 0.000000 0.000000 0.065226 0.000000 0.000000
# 5 0.000000 0.000000 0.000000 0.000000 0.091719 0.000000
# 6 0.000000 0.000000 0.000000 0.000000 0.000000 0.122762
#
#
# Mechanical properties :
#
#
# Convention : Reuss Voigt Hill
#
# Bulk Modulus (GPa) = 14.14301 64.68471 39.41386
# Shear Modulus (GPa) = 10.41503 19.37675 14.89589
#
# Velocity S-wave (km/s) = 2.41945 3.30009 2.89347
# Velocity P-wave (km/s) = 3.96913 7.13278 5.77194
#
# Compressibility (1/GPa) = 0.07070630
#
# Stress axis : x y z
#
# Youngs Moduli (GPa) = 9.88287 118.03183 70.94445
#
# Poissons Ratio (x) = 1.03847 0.95969
# Poissons Ratio (y) = 0.08695 0.29781
# Poissons Ratio (z) = 0.13369 0.49548
#
# Static dielectric constant tensor:
#      x y z
#    x 1.606250 0.000000 0.000000 
#    y 0.000000 1.634970 0.000000 
#    z 0.000000 0.000000 1.558910 
# 
# From -- ./inp_files/2390.got.cif
#   From: 2010.05.17/outbox.cif.g08.bks.cpg/sg47_2_cif.got.tgz:2390.got - 2010.06.03 20:15:42.
