data_PCOD9386689
_publ_section_title
;
Structure prediction by ZEFSAII (Michael W. Deem and Ramdas Pophale) SiO2 
 PCOD9386689
Probable space group: P M M M
;
_chemical_formula_sum "Si O2"
_cell_formula_units_Z 40
_cell_length_a 10.068740
_cell_length_b 7.599853
_cell_length_c 24.895596
_cell_angle_alpha 90.000000
_cell_angle_beta 90.000000
_cell_angle_gamma 90.000000
_cell_volume 1905.034505
_symmetry_space_group_name_H-M "P M M M"
_symmetry_group_IT_number 47
_symmetry_cell_setting 'orthorhombic'
loop_
_space_group_symop_operation_xyz
x,y,z
-x,-y,z
x,-y,-z
-x,y,-z
-x,-y,-z
x,y,-z
-x,y,z
x,-y,z
loop_
_atom_site_type_symbol
_atom_site_label
_atom_site_fract_x
_atom_site_fract_y
_atom_site_fract_z
Si Si1 0.757470 0.289957 0.368728
Si Si2 0.149811 0.785244 0.061973
Si Si3 0.500000 0.791445 0.561699
Si Si4 0.000000 0.283982 0.439213
Si Si5 0.651891 0.789626 0.846981
Si Si6 0.154041 0.287641 0.747808
O O1 0.772351 0.500000 0.364378
O O2 0.624408 0.258226 0.401503
O O3 0.781186 0.223370 0.308320
O O4 0.873355 0.222566 0.406783
O O5 0.264931 0.722291 0.101629
O O6 0.000000 0.731449 0.078837
O O7 0.150572 0.000000 0.062952
O O8 0.169358 0.732630 0.000000
O O9 0.500000 0.718730 0.500000
O O10 0.500000 0.000000 0.556273
O O11 0.000000 0.500000 0.439831
O O12 0.000000 0.224730 0.500000
O O13 0.500000 0.722135 0.841742
O O14 0.746711 0.758589 0.795921
O O15 0.641399 0.000000 0.853262
O O16 0.147342 0.500000 0.746251
O O17 0.000000 0.225977 0.753683
#
# Coordination Sequence:
#
# PCOD9386689 Si02
#       6
#     8   8   4   4   8   8
#     4  10  20  37  60  84 106 137 182 225 268 319
#     4   8  14  27  49  76 106 142 184 228 270 313
#     4  11  25  41  55  79 117 151 176 211 264 325
#     4   9  16  30  57  87 107 125 166 229 276 310
#     4  10  21  34  51  80 114 147 183 221 268 326
#     4  10  21  38  58  80 107 139 180 229 277 323
#
# _framework density 20.996994999999998
#
# number of rings (size 3 to 8) (size 9 to 14) (size 15 to 20)
#    0.000    2.400    1.000    2.100    1.400    4.400 
#    0.000    2.500    0.000    2.400    0.000    4.200 
#    0.000    0.000    0.000    0.000    0.000    0.000 
#
# Total GULP energy -223181.481895 kJ/mol
# GULP energy per Si atom -5579.537047 kJ/mol
# Density = 2.094920 g / cm^3
# Si number density = 20.996995 Si / 1000 Ang^3
#
#
#
# Elastic Constant Matrix: (Units=GPa)
#
#
# Indices 1 2 3 4 5 6 
#
# 1 235.1509 0.4772 135.5994 0.0000 0.0000 0.0000
# 2 0.4772 43.8315 2.4135 0.0000 0.0000 0.0000
# 3 135.5994 2.4135 187.0549 0.0000 0.0000 0.0000
# 4 0.0000 0.0000 0.0000 22.7148 0.0000 0.0000
# 5 0.0000 0.0000 0.0000 0.0000 37.7410 0.0000
# 6 0.0000 0.0000 0.0000 0.0000 0.0000 -2.8053
#
#
#
# Elastic Compliance Matrix: (Units=1/GPa)
#
#
# Indices 1 2 3 4 5 6 
#
# 1 0.007309 0.000212 -0.005301 0.000000 0.000000 0.000000
# 2 0.000212 0.022837 -0.000449 0.000000 0.000000 0.000000
# 3 -0.005301 -0.000449 0.009195 0.000000 0.000000 0.000000
# 4 0.000000 0.000000 0.000000 0.044024 0.000000 0.000000
# 5 0.000000 0.000000 0.000000 0.000000 0.026496 0.000000
# 6 0.000000 0.000000 0.000000 0.000000 0.000000 -0.356472
#
#
# Mechanical properties :
#
#
# Convention : Reuss Voigt Hill
#
# Bulk Modulus (GPa) = 35.37827 82.55749 58.96788
# Shear Modulus (GPa) = -22.11273 33.36658 5.62692
#
# Velocity S-wave (km/s) = -3.24873 3.99069 1.63881
# Velocity P-wave (km/s) = 1.67734 7.78706 5.63257
#
# Compressibility (1/GPa) = 0.02826593
#
# Stress axis : x y z
#
# Youngs Moduli (GPa) = 136.81556 43.78853 108.75742
#
# Poissons Ratio (x) = -0.00930 0.57655
# Poissons Ratio (y) = -0.02905 0.04879
# Poissons Ratio (z) = 0.72529 0.01964
#
# Static dielectric constant tensor:
#      x y z
#    x 1.730220 0.000000 0.000000 
#    y 0.000000 1.810240 0.000000 
#    z 0.000000 0.000000 1.745210 
# 
# From -- ./inp_files/33026.got.cif
#   From: 2010.05.17/outbox.cif.g08.bks.cpg/sg47_17_cif.got.tgz:33026.got - 2010.06.03 20:15:42.
