data_PCOD9386486
_publ_section_title
;
Structure prediction by ZEFSAII (Michael W. Deem and Ramdas Pophale) SiO2 
 PCOD9386486
Probable space group: P M M M
;
_chemical_formula_sum "Si O2"
_cell_formula_units_Z 52
_cell_length_a 15.239161
_cell_length_b 8.333798
_cell_length_c 21.317280
_cell_angle_alpha 90.000000
_cell_angle_beta 90.000000
_cell_angle_gamma 90.000000
_cell_volume 2707.296467
_symmetry_space_group_name_H-M "P M M M"
_symmetry_group_IT_number 47
_symmetry_cell_setting 'orthorhombic'
loop_
_space_group_symop_operation_xyz
x,y,z
-x,-y,z
x,-y,-z
-x,y,-z
-x,-y,-z
x,y,-z
-x,y,z
x,-y,z
loop_
_atom_site_type_symbol
_atom_site_label
_atom_site_fract_x
_atom_site_fract_y
_atom_site_fract_z
Si Si1 0.810241 0.804753 0.071484
Si Si2 0.239765 0.692088 0.797456
Si Si3 0.597289 0.686327 0.588376
Si Si4 0.898344 0.693374 0.307853
Si Si5 0.404546 0.184886 0.276251
Si Si6 0.000000 0.179877 0.924558
Si Si7 0.792475 0.191016 0.568839
O O1 0.756772 0.745065 0.130289
O O2 0.907910 0.740543 0.088578
O O3 0.813828 0.000000 0.071128
O O4 0.787522 0.756537 0.000000
O O5 0.243284 0.500000 0.793749
O O6 0.155875 0.745160 0.754654
O O7 0.324105 0.769829 0.766029
O O8 0.500000 0.748966 0.568863
O O9 0.601921 0.500000 0.570608
O O10 0.597318 0.703188 0.663289
O O11 0.688304 0.769166 0.569698
O O12 0.901148 0.500000 0.306426
O O13 0.843482 0.740293 0.370536
O O14 0.000000 0.751263 0.309072
O O15 0.500000 0.201175 0.245157
O O16 0.396559 0.000000 0.298089
O O17 0.000000 0.000000 0.896804
O O18 0.000000 0.162025 0.000000
O O19 0.825954 0.247343 0.500000
O O20 0.802263 0.000000 0.571806
#
# Coordination Sequence:
#
# PCOD9386486 Si02
#       7
#     8   8   8   8   8   4   8
#     4   9  18  33  53  78 111 151 192 233 279 333
#     4  11  22  35  57  86 116 150 187 232 281 333
#     4  10  20  35  57  85 116 148 183 226 280 342
#     4  10  23  42  60  81 112 151 195 239 285 338
#     4  10  20  35  58  86 114 145 183 229 281 337
#     4   7  12  26  47  71 101 139 184 227 266 317
#     4  11  24  40  59  84 114 149 191 239 288 339
#
# _framework density 19.207353000000001
#
# number of rings (size 3 to 8) (size 9 to 14) (size 15 to 20)
#    0.000    2.077    1.538    2.769    1.077    4.923 
#    0.000    3.077    0.000    1.846    0.000    3.231 
#    0.000    0.000    0.000    0.000    0.000    0.000 
#
# Total GULP energy -289718.196432 kJ/mol
# GULP energy per Si atom -5571.503778 kJ/mol
# Density = 1.916364 g / cm^3
# Si number density = 19.207353 Si / 1000 Ang^3
#
#
#
# Elastic Constant Matrix: (Units=GPa)
#
#
# Indices 1 2 3 4 5 6 
#
# 1 107.0732 17.7269 51.8310 0.0000 0.0000 0.0000
# 2 17.7269 30.4458 18.9667 0.0000 0.0000 0.0000
# 3 51.8310 18.9667 110.9599 0.0000 0.0000 0.0000
# 4 0.0000 0.0000 0.0000 24.5307 0.0000 0.0000
# 5 0.0000 0.0000 0.0000 0.0000 -5.0194 0.0000
# 6 0.0000 0.0000 0.0000 0.0000 0.0000 -70.7230
#
#
#
# Elastic Compliance Matrix: (Units=1/GPa)
#
#
# Indices 1 2 3 4 5 6 
#
# 1 0.012504 -0.004076 -0.005144 0.000000 0.000000 0.000000
# 2 -0.004076 0.038088 -0.004607 0.000000 0.000000 0.000000
# 3 -0.005144 -0.004607 0.012203 0.000000 0.000000 0.000000
# 4 0.000000 0.000000 0.000000 0.040765 0.000000 0.000000
# 5 0.000000 0.000000 0.000000 0.000000 -0.199226 0.000000
# 6 0.000000 0.000000 0.000000 0.000000 0.000000 -0.014140
#
#
# Mechanical properties :
#
#
# Convention : Reuss Voigt Hill
#
# Bulk Modulus (GPa) = 28.45630 47.28094 37.86862
# Shear Modulus (GPa) = -70.98471 0.42127 -35.28172
#
# Velocity S-wave (km/s) = -6.08583 0.46883 -4.29054
# Velocity P-wave (km/s) = 5.87670 4.99626 2.18781
#
# Compressibility (1/GPa) = 0.03514160
#
# Stress axis : x y z
#
# Youngs Moduli (GPa) = 79.97176 26.25488 81.94935
#
# Poissons Ratio (x) = 0.10701 0.42157
# Poissons Ratio (y) = 0.32596 0.37751
# Poissons Ratio (z) = 0.41140 0.12095
#
# Static dielectric constant tensor:
#      x y z
#    x 1.744580 0.000000 0.000000 
#    y 0.000000 1.674990 0.000000 
#    z 0.000000 0.000000 1.678670 
# 
# From -- ./inp_files/21398.got.cif
#   From: 2010.05.17/outbox.cif.g08.bks.cpg/sg47_11_cif.got.tgz:21398.got - 2010.06.03 20:15:42.
