data_PCOD9386930
_publ_section_title
;
Structure prediction by ZEFSAII (Michael W. Deem and Ramdas Pophale) SiO2 
 PCOD9386930
Probable space group: P M M M
;
_chemical_formula_sum "Si O2"
_cell_formula_units_Z 52
_cell_length_a 7.513941
_cell_length_b 35.672390
_cell_length_c 9.513001
_cell_angle_alpha 90.000000
_cell_angle_beta 90.000000
_cell_angle_gamma 90.000000
_cell_volume 2549.867012
_symmetry_space_group_name_H-M "P M M M"
_symmetry_group_IT_number 47
_symmetry_cell_setting 'orthorhombic'
loop_
_space_group_symop_operation_xyz
x,y,z
-x,-y,z
x,-y,-z
-x,y,-z
-x,-y,-z
x,y,-z
-x,y,z
x,-y,z
loop_
_atom_site_type_symbol
_atom_site_label
_atom_site_fract_x
_atom_site_fract_y
_atom_site_fract_z
Si Si1 0.288701 0.264114 0.339923
Si Si2 0.212250 0.040319 0.330091
Si Si3 0.217150 0.427764 0.664029
Si Si4 0.287536 0.195040 0.841785
Si Si5 0.214536 0.121739 0.338767
Si Si6 0.213705 0.345911 0.337255
Si Si7 0.217925 0.500000 0.161837
O O1 0.215534 0.263485 0.500000
O O2 0.500000 0.258469 0.351729
O O3 0.215875 0.230412 0.246189
O O4 0.264265 0.305679 0.275991
O O5 0.231805 0.040788 0.500000
O O6 0.280422 0.081070 0.284126
O O7 0.000000 0.039652 0.301646
O O8 0.284715 0.000000 0.279990
O O9 0.269147 0.431683 0.500000
O O10 0.273493 0.386485 0.718109
O O11 0.276718 0.462701 0.756389
O O12 0.000000 0.428199 0.665116
O O13 0.500000 0.200267 0.851818
O O14 0.259320 0.156652 0.757891
O O15 0.216198 0.193198 0.000000
O O16 0.276779 0.127578 0.500000
O O17 0.000000 0.119224 0.344780
O O18 0.275512 0.344870 0.500000
O O19 0.000000 0.346796 0.338079
O O20 0.000000 0.500000 0.163811
O O21 0.273202 0.500000 0.000000
#
# Coordination Sequence:
#
# PCOD9386930 Si02
#       7
#     8   8   8   8   8   8   4
#     4   9  17  30  48  67  85 108 142 183 224 265
#     4   7  10  19  38  65  94 118 140 173 219 266
#     4   8  13  22  36  53  75 105 137 164 195 242
#     4  10  21  35  48  63  88 123 158 189 223 266
#     4   9  17  29  48  74  97 117 147 187 228 269
#     4   8  14  25  42  64  87 109 135 170 212 257
#     4   9  15  21  31  51  80 109 134 164 202 239
#
# _framework density 20.393218000000001
#
# number of rings (size 3 to 8) (size 9 to 14) (size 15 to 20)
#    0.000    3.462    0.000    3.000    0.000    2.769 
#    0.000    2.308    0.000    1.846    0.000    5.923 
#    0.000    4.308    0.000    0.000    0.000    0.000 
#
# Total GULP energy -289593.037104 kJ/mol
# GULP energy per Si atom -5569.096867 kJ/mol
# Density = 2.034680 g / cm^3
# Si number density = 20.393218 Si / 1000 Ang^3
#
#
#
# Elastic Constant Matrix: (Units=GPa)
#
#
# Indices 1 2 3 4 5 6 
#
# 1 50.6316 3.5412 4.7467 0.0000 0.0000 0.0000
# 2 3.5412 263.0378 100.1639 0.0000 0.0000 0.0000
# 3 4.7467 100.1639 85.0846 0.0000 0.0000 0.0000
# 4 0.0000 0.0000 0.0000 -6.3101 0.0000 0.0000
# 5 0.0000 0.0000 0.0000 0.0000 6.2351 0.0000
# 6 0.0000 0.0000 0.0000 0.0000 0.0000 33.8516
#
#
#
# Elastic Compliance Matrix: (Units=1/GPa)
#
#
# Indices 1 2 3 4 5 6 
#
# 1 0.019866 0.000280 -0.001438 0.000000 0.000000 0.000000
# 2 0.000280 0.006895 -0.008132 0.000000 0.000000 0.000000
# 3 -0.001438 -0.008132 0.021407 0.000000 0.000000 0.000000
# 4 0.000000 0.000000 0.000000 -0.158477 0.000000 0.000000
# 5 0.000000 0.000000 0.000000 0.000000 0.160382 0.000000
# 6 0.000000 0.000000 0.000000 0.000000 0.000000 0.029541
#
#
# Mechanical properties :
#
#
# Convention : Reuss Voigt Hill
#
# Bulk Modulus (GPa) = 33.79885 68.40640 51.10262
# Shear Modulus (GPa) = 46.27242 26.10882 36.19062
#
# Velocity S-wave (km/s) = 4.76858 3.58197 4.21722
# Velocity P-wave (km/s) = 6.85045 7.12207 6.98758
#
# Compressibility (1/GPa) = 0.02958681
#
# Stress axis : x y z
#
# Youngs Moduli (GPa) = 50.33792 145.03900 46.71425
#
# Poissons Ratio (x) = -0.04064 0.06718
# Poissons Ratio (y) = -0.01410 0.37989
# Poissons Ratio (z) = 0.07239 1.17949
#
# Static dielectric constant tensor:
#      x y z
#    x 1.776990 0.000000 0.000000 
#    y 0.000000 1.771000 0.000000 
#    z 0.000000 0.000000 1.682100 
# 
# From -- ./inp_files/4805.got.cif
#   From: 2010.05.17/outbox.cif.g08.bks.cpg/sg47_3_cif.got.tgz:4805.got - 2010.06.03 20:15:42.
