data_PCOD9386129
_publ_section_title
;
Structure prediction by ZEFSAII (Michael W. Deem and Ramdas Pophale) SiO2 
 PCOD9386129
Probable space group: P M M M
;
_chemical_formula_sum "Si O2"
_cell_formula_units_Z 56
_cell_length_a 8.697669
_cell_length_b 14.726199
_cell_length_c 23.206904
_cell_angle_alpha 90.000000
_cell_angle_beta 90.000000
_cell_angle_gamma 90.000000
_cell_volume 2972.423914
_symmetry_space_group_name_H-M "P M M M"
_symmetry_group_IT_number 47
_symmetry_cell_setting 'orthorhombic'
loop_
_space_group_symop_operation_xyz
x,y,z
-x,-y,z
x,-y,-z
-x,y,-z
-x,-y,-z
x,y,-z
-x,y,z
x,-y,z
loop_
_atom_site_type_symbol
_atom_site_label
_atom_site_fract_x
_atom_site_fract_y
_atom_site_fract_z
Si Si1 0.812980 0.602219 0.500000
Si Si2 0.815875 0.394352 0.822271
Si Si3 0.177530 0.103067 0.777188
Si Si4 0.315169 0.301019 0.937195
Si Si5 0.185568 0.252627 0.593966
Si Si6 0.812576 0.895064 0.500000
Si Si7 0.320950 0.271880 0.720819
Si Si8 0.683283 0.900472 0.903058
O O1 0.754898 0.500000 0.500000
O O2 0.768654 0.660966 0.555335
O O3 0.000000 0.599430 0.500000
O O4 0.768539 0.500000 0.821034
O O5 0.755622 0.347531 0.880931
O O6 0.755692 0.341474 0.765981
O O7 0.000000 0.389764 0.822361
O O8 0.289905 0.172669 0.747133
O O9 0.220202 0.102573 0.844388
O O10 0.000000 0.131594 0.769120
O O11 0.193526 0.000000 0.755709
O O12 0.500000 0.311489 0.933796
O O13 0.282517 0.192797 0.935429
O O14 0.264105 0.336844 0.000000
O O15 0.233288 0.163445 0.556732
O O16 0.250613 0.266547 0.657251
O O17 0.000000 0.249321 0.597442
O O18 0.000000 0.895737 0.500000
O O19 0.761071 0.000000 0.500000
O O20 0.500000 0.292431 0.717793
O O21 0.500000 0.897554 0.889619
O O22 0.711309 0.000000 0.930374
#
# Coordination Sequence:
#
# PCOD9386129 Si02
#       8
#     4   8   8   8   8   4   8   8
#     4   8  15  31  56  82 108 140 180 229 280 329
#     4  11  25  44  64  84 108 145 196 251 305 358
#     4  10  20  34  55  82 112 148 189 232 277 328
#     4  10  21  37  59  88 120 155 192 233 289 355
#     4   9  18  33  55  84 114 147 192 238 278 330
#     4   8  15  31  56  84 116 156 200 243 282 321
#     4  12  24  38  58  85 120 156 191 236 293 354
#     4   9  17  31  53  82 116 152 187 223 269 330
#
# _framework density 18.839841
#
# number of rings (size 3 to 8) (size 9 to 14) (size 15 to 20)
#    0.000    2.143    1.429    3.000    0.000    4.000 
#    0.000    7.143    0.000    0.857    0.000    3.000 
#    0.000    0.000    0.000    0.000    0.000    0.000 
#
# Total GULP energy -312322.885235 kJ/mol
# GULP energy per Si atom -5577.194379 kJ/mol
# Density = 1.879696 g / cm^3
# Si number density = 18.839841 Si / 1000 Ang^3
#
#
#
# Elastic Constant Matrix: (Units=GPa)
#
#
# Indices 1 2 3 4 5 6 
#
# 1 33.6275 33.8520 38.0322 0.0000 0.0000 0.0000
# 2 33.8520 133.8733 78.0231 0.0000 0.0000 0.0000
# 3 38.0322 78.0231 159.9048 0.0000 0.0000 0.0000
# 4 0.0000 0.0000 0.0000 -2.2911 0.0000 0.0000
# 5 0.0000 0.0000 0.0000 0.0000 23.4249 0.0000
# 6 0.0000 0.0000 0.0000 0.0000 0.0000 18.1019
#
#
#
# Elastic Compliance Matrix: (Units=1/GPa)
#
#
# Indices 1 2 3 4 5 6 
#
# 1 0.045167 -0.007211 -0.007224 0.000000 0.000000 0.000000
# 2 -0.007211 0.011589 -0.003940 0.000000 0.000000 0.000000
# 3 -0.007224 -0.003940 0.009894 0.000000 0.000000 0.000000
# 4 0.000000 0.000000 0.000000 -0.436464 0.000000 0.000000
# 5 0.000000 0.000000 0.000000 0.000000 0.042690 0.000000
# 6 0.000000 0.000000 0.000000 0.000000 0.000000 0.055243
#
#
# Mechanical properties :
#
#
# Convention : Reuss Voigt Hill
#
# Bulk Modulus (GPa) = 33.44377 69.69112 51.56744
# Shear Modulus (GPa) = -22.20605 19.68034 -1.26285
#
# Velocity S-wave (km/s) = -3.43691 3.23555 -0.81961
# Velocity P-wave (km/s) = 1.42842 7.14353 5.15123
#
# Compressibility (1/GPa) = 0.02990094
#
# Stress axis : x y z
#
# Youngs Moduli (GPa) = 22.14007 86.28679 101.06829
#
# Poissons Ratio (x) = 0.62220 0.73014
# Poissons Ratio (y) = 0.15965 0.39819
# Poissons Ratio (z) = 0.15994 0.33995
#
# Static dielectric constant tensor:
#      x y z
#    x 1.635830 0.000000 0.000000 
#    y 0.000000 1.672200 0.000000 
#    z 0.000000 0.000000 1.667280 
# 
# From -- ./inp_files/29767.got.cif
#   From: 2010.05.17/outbox.cif.g08.bks.cpg/sg47_15_cif.got.tgz:29767.got - 2010.06.03 20:15:42.
