data_PCOD9386543
_publ_section_title
;
Structure prediction by ZEFSAII (Michael W. Deem and Ramdas Pophale) SiO2 
 PCOD9386543
Probable space group: P M M M
;
_chemical_formula_sum "Si O2"
_cell_formula_units_Z 48
_cell_length_a 14.366005
_cell_length_b 11.681969
_cell_length_c 15.968409
_cell_angle_alpha 90.000000
_cell_angle_beta 90.000000
_cell_angle_gamma 90.000000
_cell_volume 2679.869898
_symmetry_space_group_name_H-M "P M M M"
_symmetry_group_IT_number 47
_symmetry_cell_setting 'orthorhombic'
loop_
_space_group_symop_operation_xyz
x,y,z
-x,-y,z
x,-y,-z
-x,y,-z
-x,-y,-z
x,y,-z
-x,y,z
x,-y,z
loop_
_atom_site_type_symbol
_atom_site_label
_atom_site_fract_x
_atom_site_fract_y
_atom_site_fract_z
Si Si1 0.802933 0.500000 0.099405
Si Si2 0.108190 0.261154 0.151792
Si Si3 0.607997 0.248528 0.245868
Si Si4 0.281362 0.136147 0.092366
Si Si5 0.298888 0.136077 0.594171
Si Si6 0.104261 0.133151 0.326937
Si Si7 0.394146 0.500000 0.818514
O O1 0.849424 0.612857 0.139020
O O2 0.692264 0.500000 0.117611
O O3 0.819361 0.500000 0.000000
O O4 0.174994 0.177087 0.100303
O O5 0.114409 0.216104 0.247350
O O6 0.000000 0.258754 0.127084
O O7 0.500000 0.215901 0.239982
O O8 0.663267 0.194255 0.167895
O O9 0.649613 0.203071 0.332410
O O10 0.615081 0.385151 0.235988
O O11 0.287496 0.000000 0.100344
O O12 0.316764 0.170229 0.000000
O O13 0.324526 0.170604 0.500000
O O14 0.188389 0.151743 0.609565
O O15 0.317802 0.000000 0.603141
O O16 0.000000 0.147116 0.361884
O O17 0.111973 0.000000 0.297638
O O18 0.500000 0.500000 0.854696
#
# Coordination Sequence:
#
# PCOD9386543 Si02
#       7
#     4   8   8   8   8   8   4
#     4  12  23  37  56  80 115 153 194 249 297 340
#     4  11  22  36  56  82 115 156 196 236 285 341
#     4  11  23  41  62  84 115 149 190 246 297 347
#     4  11  23  38  58  84 115 154 196 237 288 345
#     4  10  20  35  58  88 120 153 189 231 287 352
#     4   9  17  32  56  83 113 151 192 235 284 337
#     4  10  22  40  64  86 105 145 197 242 297 349
#
# _framework density 17.911318000000001
#
# number of rings (size 3 to 8) (size 9 to 14) (size 15 to 20)
#    0.000    1.500    3.333    1.750    0.000    5.167 
#    0.000    6.250    0.000    1.500    0.000    0.000 
#    0.000    6.667    0.000    0.000    0.000    0.000 
#
# Total GULP energy -267925.577636 kJ/mol
# GULP energy per Si atom -5581.782867 kJ/mol
# Density = 1.787055 g / cm^3
# Si number density = 17.911318 Si / 1000 Ang^3
#
#
#
# Elastic Constant Matrix: (Units=GPa)
#
#
# Indices 1 2 3 4 5 6 
#
# 1 119.6373 45.8739 58.1850 0.0000 0.0000 0.0000
# 2 45.8739 80.2146 54.6675 0.0000 0.0000 0.0000
# 3 58.1850 54.6675 115.7019 0.0000 0.0000 0.0000
# 4 0.0000 0.0000 0.0000 -33.7862 0.0000 0.0000
# 5 0.0000 0.0000 0.0000 0.0000 1.8162 0.0000
# 6 0.0000 0.0000 0.0000 0.0000 0.0000 26.9900
#
#
#
# Elastic Compliance Matrix: (Units=1/GPa)
#
#
# Indices 1 2 3 4 5 6 
#
# 1 0.011882 -0.004016 -0.004078 0.000000 0.000000 0.000000
# 2 -0.004016 0.019745 -0.007310 0.000000 0.000000 0.000000
# 3 -0.004078 -0.007310 0.014147 0.000000 0.000000 0.000000
# 4 0.000000 0.000000 0.000000 -0.029598 0.000000 0.000000
# 5 0.000000 0.000000 0.000000 0.000000 0.550595 0.000000
# 6 0.000000 0.000000 0.000000 0.000000 0.000000 0.037051
#
#
# Mechanical properties :
#
#
# Convention : Reuss Voigt Hill
#
# Bulk Modulus (GPa) = 66.81254 70.33407 68.57331
# Shear Modulus (GPa) = 7.81717 9.45917 8.63817
#
# Velocity S-wave (km/s) = 2.09138 2.30056 2.19846
# Velocity P-wave (km/s) = 6.57378 6.81249 6.69420
#
# Compressibility (1/GPa) = 0.01496725
#
# Stress axis : x y z
#
# Youngs Moduli (GPa) = 84.16354 50.64614 70.68574
#
# Poissons Ratio (x) = 0.20340 0.28823
# Poissons Ratio (y) = 0.33800 0.51668
# Poissons Ratio (z) = 0.34319 0.37020
#
# Static dielectric constant tensor:
#      x y z
#    x 1.632740 0.000000 0.000000 
#    y 0.000000 1.598000 0.000000 
#    z 0.000000 0.000000 1.596040 
# 
# From -- ./inp_files/23618.got.cif
#   From: 2010.05.17/outbox.cif.g08.bks.cpg/sg47_12_cif.got.tgz:23618.got - 2010.06.03 20:15:42.
