data_PCOD9386834
_publ_section_title
;
Structure prediction by ZEFSAII (Michael W. Deem and Ramdas Pophale) SiO2 
 PCOD9386834
Probable space group: P M M M
;
_chemical_formula_sum "Si O2"
_cell_formula_units_Z 64
_cell_length_a 18.109225
_cell_length_b 21.415048
_cell_length_c 7.829851
_cell_angle_alpha 90.000000
_cell_angle_beta 90.000000
_cell_angle_gamma 90.000000
_cell_volume 3036.493910
_symmetry_space_group_name_H-M "P M M M"
_symmetry_group_IT_number 47
_symmetry_cell_setting 'orthorhombic'
loop_
_space_group_symop_operation_xyz
x,y,z
-x,-y,z
x,-y,-z
-x,y,-z
-x,-y,-z
x,y,-z
-x,y,z
x,-y,z
loop_
_atom_site_type_symbol
_atom_site_label
_atom_site_fract_x
_atom_site_fract_y
_atom_site_fract_z
Si Si1 0.580152 0.201553 0.293878
Si Si2 0.294322 0.433464 0.202864
Si Si3 0.079541 0.840656 0.297969
Si Si4 0.294987 0.299162 0.205228
Si Si5 0.789774 0.930279 0.801276
Si Si6 0.875007 0.704010 0.207537
Si Si7 0.884834 0.432216 0.202376
Si Si8 0.375139 0.931301 0.302112
O O1 0.580476 0.198326 0.500000
O O2 0.500000 0.226269 0.238680
O O3 0.648408 0.244862 0.245862
O O4 0.590132 0.131044 0.226218
O O5 0.319053 0.500000 0.277062
O O6 0.320965 0.367122 0.272064
O O7 0.204774 0.431692 0.214610
O O8 0.311154 0.434854 0.000000
O O9 0.080877 0.850867 0.500000
O O10 0.148812 0.878139 0.225625
O O11 0.085874 0.766870 0.264286
O O12 0.000000 0.862565 0.229408
O O13 0.210752 0.289114 0.264055
O O14 0.290210 0.303769 0.000000
O O15 0.713369 0.921151 0.702353
O O16 0.818478 0.000000 0.758211
O O17 0.768858 0.929825 0.000000
O O18 0.906103 0.636627 0.268257
O O19 0.876558 0.702012 0.000000
O O20 0.909435 0.500000 0.273252
O O21 0.903234 0.433142 0.000000
O O22 0.398700 0.934217 0.500000
O O23 0.390033 0.000000 0.225800
#
# Coordination Sequence:
#
# PCOD9386834 Si02
#       8
#     8   8   8   8   8   8   8   8
#     4  10  21  34  47  67  97 132 167 201 237 278
#     4   7  10  19  38  65  94 119 146 188 240 287
#     4  11  24  38  51  70  99 135 171 204 238 281
#     4   9  17  29  48  74  98 122 157 199 243 291
#     4  10  21  37  58  82 104 125 153 194 243 294
#     4   9  17  30  51  77 101 127 162 205 250 295
#     4   7  10  19  39  69 100 124 150 192 246 296
#     4   9  18  34  56  78  99 126 160 197 237 282
#
# _framework density 21.07694
#
# number of rings (size 3 to 8) (size 9 to 14) (size 15 to 20)
#    0.000    3.000    0.000    3.750    0.000    5.500 
#    0.000    2.500    0.000    1.500    0.000   11.375 
#    0.000    0.000    0.000    0.000    0.000    0.000 
#
# Total GULP energy -356667.327785 kJ/mol
# GULP energy per Si atom -5572.926997 kJ/mol
# Density = 2.102897 g / cm^3
# Si number density = 21.076940 Si / 1000 Ang^3
#
#
#
# Elastic Constant Matrix: (Units=GPa)
#
#
# Indices 1 2 3 4 5 6 
#
# 1 59.1908 32.5054 0.3400 0.0000 0.0000 0.0000
# 2 32.5054 111.5713 -0.4320 0.0000 0.0000 0.0000
# 3 0.3400 -0.4320 28.2821 0.0000 0.0000 0.0000
# 4 0.0000 0.0000 0.0000 46.0533 0.0000 0.0000
# 5 0.0000 0.0000 0.0000 0.0000 9.2778 0.0000
# 6 0.0000 0.0000 0.0000 0.0000 0.0000 -42.0542
#
#
#
# Elastic Compliance Matrix: (Units=1/GPa)
#
#
# Indices 1 2 3 4 5 6 
#
# 1 0.020115 -0.005862 -0.000331 0.000000 0.000000 0.000000
# 2 -0.005862 0.010672 0.000233 0.000000 0.000000 0.000000
# 3 -0.000331 0.000233 0.035366 0.000000 0.000000 0.000000
# 4 0.000000 0.000000 0.000000 0.021714 0.000000 0.000000
# 5 0.000000 0.000000 0.000000 0.000000 0.107784 0.000000
# 6 0.000000 0.000000 0.000000 0.000000 0.000000 -0.023779
#
#
# Mechanical properties :
#
#
# Convention : Reuss Voigt Hill
#
# Bulk Modulus (GPa) = 18.43882 29.31897 23.87889
# Shear Modulus (GPa) = 24.76855 13.76410 19.26632
#
# Velocity S-wave (km/s) = 3.43176 2.55824 3.02668
# Velocity P-wave (km/s) = 4.94672 4.76096 4.85473
#
# Compressibility (1/GPa) = 0.05423342
#
# Stress axis : x y z
#
# Youngs Moduli (GPa) = 49.71292 93.70702 28.27603
#
# Poissons Ratio (x) = 0.54929 0.00937
# Poissons Ratio (y) = 0.29141 -0.00660
# Poissons Ratio (z) = 0.01647 -0.02188
#
# Static dielectric constant tensor:
#      x y z
#    x 1.743170 0.000000 0.000000 
#    y 0.000000 1.813500 0.000000 
#    z 0.000000 0.000000 1.786540 
# 
# From -- ./inp_files/10056.got.cif
#   From: 2010.05.17/outbox.cif.g08.bks.cpg/sg47_6_cif.got.tgz:10056.got - 2010.06.03 20:15:42.
