data_PCOD9386389
_publ_section_title
;
Structure prediction by ZEFSAII (Michael W. Deem and Ramdas Pophale) SiO2 
 PCOD9386389
Probable space group: P M M M
;
_chemical_formula_sum "Si O2"
_cell_formula_units_Z 56
_cell_length_a 9.354514
_cell_length_b 14.532279
_cell_length_c 21.249197
_cell_angle_alpha 90.000000
_cell_angle_beta 90.000000
_cell_angle_gamma 90.000000
_cell_volume 2888.666995
_symmetry_space_group_name_H-M "P M M M"
_symmetry_group_IT_number 47
_symmetry_cell_setting 'orthorhombic'
loop_
_space_group_symop_operation_xyz
x,y,z
-x,-y,z
x,-y,-z
-x,y,-z
-x,-y,-z
x,y,-z
-x,y,z
x,-y,z
loop_
_atom_site_type_symbol
_atom_site_label
_atom_site_fract_x
_atom_site_fract_y
_atom_site_fract_z
Si Si1 0.670743 0.389821 0.180090
Si Si2 0.656980 0.846509 0.627901
Si Si3 0.832558 0.000000 0.430821
Si Si4 0.841190 0.392727 0.695358
Si Si5 0.665153 0.890122 0.769798
Si Si6 0.171965 0.220734 0.124982
Si Si7 0.336472 0.354718 0.427181
Si Si8 0.826937 0.106655 0.000000
O O1 0.500000 0.375291 0.179524
O O2 0.695201 0.500000 0.168714
O O3 0.735100 0.363259 0.248794
O O4 0.750638 0.319706 0.133015
O O5 0.500000 0.889522 0.618462
O O6 0.674021 0.838676 0.702727
O O7 0.659518 0.753647 0.588237
O O8 0.780135 0.911234 0.604728
O O9 0.766236 0.000000 0.500000
O O10 0.000000 0.000000 0.435330
O O11 0.859173 0.500000 0.708553
O O12 0.770477 0.388309 0.626539
O O13 0.000000 0.348737 0.697330
O O14 0.500000 0.880720 0.791814
O O15 0.772248 0.843684 0.818376
O O16 0.691637 0.000000 0.760836
O O17 0.000000 0.232233 0.127170
O O18 0.212319 0.165399 0.061630
O O19 0.296944 0.372289 0.500000
O O20 0.500000 0.388890 0.417876
O O21 0.000000 0.101194 0.000000
O O22 0.774745 0.000000 0.000000
#
# Coordination Sequence:
#
# PCOD9386389 Si02
#       8
#     8   8   4   8   8   8   8   4
#     4  10  21  39  63  90 121 156 193 241 300 357
#     4  10  20  37  56  74 100 139 183 227 279 337
#     4  11  23  35  49  73 103 134 173 224 279 333
#     4  10  21  37  58  84 112 144 186 238 295 352
#     4  10  20  35  56  85 117 149 192 247 300 350
#     4  11  22  37  62  92 122 161 202 243 292 343
#     4  10  21  35  53  78 107 145 192 238 288 351
#     4   9  20  40  62  89 130 172 207 241 282 339
#
# _framework density 19.386105000000001
#
# number of rings (size 3 to 8) (size 9 to 14) (size 15 to 20)
#    0.000    1.857    0.714    3.214    0.000    6.571 
#    0.000    3.214    0.000    4.714    0.000    0.000 
#    0.000    0.000    0.000    0.000    0.000    0.000 
#
# Total GULP energy -312314.360964 kJ/mol
# GULP energy per Si atom -5577.042160 kJ/mol
# Density = 1.934198 g / cm^3
# Si number density = 19.386105 Si / 1000 Ang^3
#
#
#
# Elastic Constant Matrix: (Units=GPa)
#
#
# Indices 1 2 3 4 5 6 
#
# 1 99.4688 45.6348 55.1770 0.0000 0.0000 0.0000
# 2 45.6348 103.1255 39.2494 0.0000 0.0000 0.0000
# 3 55.1770 39.2494 107.9803 0.0000 0.0000 0.0000
# 4 0.0000 0.0000 0.0000 26.2415 0.0000 0.0000
# 5 0.0000 0.0000 0.0000 0.0000 30.1860 0.0000
# 6 0.0000 0.0000 0.0000 0.0000 0.0000 33.7568
#
#
#
# Elastic Compliance Matrix: (Units=1/GPa)
#
#
# Indices 1 2 3 4 5 6 
#
# 1 0.015647 -0.004504 -0.006358 0.000000 0.000000 0.000000
# 2 -0.004504 0.012550 -0.002260 0.000000 0.000000 0.000000
# 3 -0.006358 -0.002260 0.013332 0.000000 0.000000 0.000000
# 4 0.000000 0.000000 0.000000 0.038108 0.000000 0.000000
# 5 0.000000 0.000000 0.000000 0.000000 0.033128 0.000000
# 6 0.000000 0.000000 0.000000 0.000000 0.000000 0.029624
#
#
# Mechanical properties :
#
#
# Convention : Reuss Voigt Hill
#
# Bulk Modulus (GPa) = 65.43026 65.63300 65.53163
# Shear Modulus (GPa) = 28.78071 29.40443 29.09257
#
# Velocity S-wave (km/s) = 3.85724 3.89881 3.87808
# Velocity P-wave (km/s) = 7.32544 7.36185 7.34367
#
# Compressibility (1/GPa) = 0.01528345
#
# Stress axis : x y z
#
# Youngs Moduli (GPa) = 63.91086 79.67927 75.01008
#
# Poissons Ratio (x) = 0.35888 0.47693
# Poissons Ratio (y) = 0.28786 0.16955
# Poissons Ratio (z) = 0.40636 0.18010
#
# Static dielectric constant tensor:
#      x y z
#    x 1.688040 0.000000 0.000000 
#    y 0.000000 1.763160 0.000000 
#    z 0.000000 0.000000 1.661490 
# 
# From -- ./inp_files/29778.got.cif
#   From: 2010.05.17/outbox.cif.g08.bks.cpg/sg47_15_cif.got.tgz:29778.got - 2010.06.03 20:15:42.
