data_PCOD9386686
_publ_section_title
;
Structure prediction by ZEFSAII (Michael W. Deem and Ramdas Pophale) SiO2 
 PCOD9386686
Probable space group: P M M M
;
_chemical_formula_sum "Si O2"
_cell_formula_units_Z 45
_cell_length_a 15.233095
_cell_length_b 18.787117
_cell_length_c 7.529274
_cell_angle_alpha 90.000000
_cell_angle_beta 90.000000
_cell_angle_gamma 90.000000
_cell_volume 2154.772342
_symmetry_space_group_name_H-M "P M M M"
_symmetry_group_IT_number 47
_symmetry_cell_setting 'orthorhombic'
loop_
_space_group_symop_operation_xyz
x,y,z
-x,-y,z
x,-y,-z
-x,y,-z
-x,-y,-z
x,y,-z
-x,y,z
x,-y,z
loop_
_atom_site_type_symbol
_atom_site_label
_atom_site_fract_x
_atom_site_fract_y
_atom_site_fract_z
Si Si1 0.342738 0.000000 0.784270
Si Si2 0.294166 0.423257 0.709387
Si Si3 0.600384 0.714763 0.287299
Si Si4 0.273411 0.154227 0.212130
Si Si5 0.095085 0.221166 0.783623
Si Si6 0.500000 0.000000 0.500000
Si Si7 0.903790 0.387807 0.785985
O O1 0.293048 0.073285 0.740222
O O2 0.425501 0.000000 0.657211
O O3 0.360784 0.000000 0.000000
O O4 0.314017 0.424273 0.500000
O O5 0.322925 0.500000 0.784523
O O6 0.341722 0.352242 0.781626
O O7 0.188623 0.419063 0.725911
O O8 0.595675 0.707580 0.500000
O O9 0.500000 0.714765 0.219826
O O10 0.650361 0.789091 0.255554
O O11 0.180787 0.181912 0.284736
O O12 0.266607 0.155603 0.000000
O O13 0.100040 0.304426 0.737211
O O14 0.000000 0.193284 0.725674
O O15 0.095869 0.218777 0.000000
O O16 0.000000 0.414869 0.725096
O O17 0.904039 0.393706 0.000000
#
# Coordination Sequence:
#
# PCOD9386686 Si02
#       7
#     4   8   8   8   8   1   8
#     4  10  25  41  60  96 129 158 204 254 303 359
#     4  10  21  36  52  75 108 143 180 233 291 340
#     4  10  22  37  56  79 103 140 192 236 280 351
#     4  10  20  37  59  85 120 149 184 240 290 341
#     4   8  14  28  54  83 110 145 186 228 281 342
#     4  12  26  44  68  86 122 180 200 248 316 354
#     4   9  17  31  52  78 105 137 181 226 271 332
#
# _framework density 20.883877999999999
#
# number of rings (size 3 to 8) (size 9 to 14) (size 15 to 20)
#    0.000    2.489    1.778    1.200    2.489    1.778 
#    0.000    4.000    0.000    3.200    0.000    3.111 
#    0.000    0.000    0.000    0.000    0.000    0.356 
#
# Total GULP energy -250710.404451 kJ/mol
# GULP energy per Si atom -5571.342321 kJ/mol
# Density = 2.083634 g / cm^3
# Si number density = 20.883878 Si / 1000 Ang^3
#
#
#
# Elastic Constant Matrix: (Units=GPa)
#
#
# Indices 1 2 3 4 5 6 
#
# 1 163.3914 99.0546 2.9168 0.0000 0.0000 0.0000
# 2 99.0546 170.2376 14.1642 0.0000 0.0000 0.0000
# 3 2.9168 14.1642 48.1901 0.0000 0.0000 0.0000
# 4 0.0000 0.0000 0.0000 15.1997 0.0000 0.0000
# 5 0.0000 0.0000 0.0000 0.0000 20.6340 0.0000
# 6 0.0000 0.0000 0.0000 0.0000 0.0000 -80.5735
#
#
#
# Elastic Compliance Matrix: (Units=1/GPa)
#
#
# Indices 1 2 3 4 5 6 
#
# 1 0.009510 -0.005623 0.001077 0.000000 0.000000 0.000000
# 2 -0.005623 0.009346 -0.002407 0.000000 0.000000 0.000000
# 3 0.001077 -0.002407 0.021393 0.000000 0.000000 0.000000
# 4 0.000000 0.000000 0.000000 0.065791 0.000000 0.000000
# 5 0.000000 0.000000 0.000000 0.000000 0.048464 0.000000
# 6 0.000000 0.000000 0.000000 0.000000 0.000000 -0.012411
#
#
# Mechanical properties :
#
#
# Convention : Reuss Voigt Hill
#
# Bulk Modulus (GPa) = 37.95901 68.23227 53.09564
# Shear Modulus (GPa) = 30.34353 8.76427 19.55390
#
# Velocity S-wave (km/s) = 3.81591 2.05080 3.06325
# Velocity P-wave (km/s) = 6.13438 6.19281 6.16366
#
# Compressibility (1/GPa) = 0.02634421
#
# Stress axis : x y z
#
# Youngs Moduli (GPa) = 105.15233 106.99459 46.74349
#
# Poissons Ratio (x) = 0.60164 -0.05035
# Poissons Ratio (y) = 0.59128 0.11250
# Poissons Ratio (z) = -0.11327 0.25751
#
# Static dielectric constant tensor:
#      x y z
#    x 1.754610 0.000000 0.000000 
#    y 0.000000 1.789250 0.000000 
#    z 0.000000 0.000000 1.788700 
# 
# From -- ./inp_files/6255.got.cif
#   From: 2010.05.17/outbox.cif.g08.bks.cpg/sg47_4_cif.got.tgz:6255.got - 2010.06.03 20:15:42.
