data_PCOD9386555
_publ_section_title
;
Structure prediction by ZEFSAII (Michael W. Deem and Ramdas Pophale) SiO2 
 PCOD9386555
Probable space group: P M M M
;
_chemical_formula_sum "Si O2"
_cell_formula_units_Z 64
_cell_length_a 7.861650
_cell_length_b 15.339543
_cell_length_c 24.142372
_cell_angle_alpha 90.000000
_cell_angle_beta 90.000000
_cell_angle_gamma 90.000000
_cell_volume 2911.428063
_symmetry_space_group_name_H-M "P M M M"
_symmetry_group_IT_number 47
_symmetry_cell_setting 'orthorhombic'
loop_
_space_group_symop_operation_xyz
x,y,z
-x,-y,z
x,-y,-z
-x,y,-z
-x,-y,-z
x,y,-z
-x,y,z
x,-y,z
loop_
_atom_site_type_symbol
_atom_site_label
_atom_site_fract_x
_atom_site_fract_y
_atom_site_fract_z
Si Si1 0.802319 0.590304 0.323469
Si Si2 0.702747 0.095749 0.316915
Si Si3 0.300177 0.599126 0.162549
Si Si4 0.702841 0.362263 0.439958
Si Si5 0.206243 0.285987 0.064448
Si Si6 0.704525 0.845899 0.561333
Si Si7 0.203585 0.905487 0.066914
Si Si8 0.799488 0.259506 0.747337
O O1 0.723033 0.500000 0.303177
O O2 0.792923 0.594629 0.388825
O O3 0.722787 0.677570 0.300187
O O4 0.000000 0.590170 0.306338
O O5 0.500000 0.092271 0.323765
O O6 0.770024 0.120047 0.379068
O O7 0.731475 0.164694 0.267667
O O8 0.767732 0.000000 0.302168
O O9 0.500000 0.595692 0.174472
O O10 0.230902 0.500000 0.170355
O O11 0.271935 0.634225 0.100562
O O12 0.227115 0.678652 0.199516
O O13 0.758385 0.393377 0.500000
O O14 0.500000 0.377219 0.434848
O O15 0.730488 0.258290 0.437642
O O16 0.266533 0.189798 0.085881
O O17 0.000000 0.285470 0.067190
O O18 0.254144 0.293457 0.000000
O O19 0.767618 0.877008 0.500000
O O20 0.500000 0.861255 0.560496
O O21 0.000000 0.906328 0.077256
O O22 0.271615 0.000000 0.086736
O O23 0.224281 0.904675 0.000000
O O24 0.000000 0.247919 0.741164
#
# Coordination Sequence:
#
# PCOD9386555 Si02
#       8
#     8   8   8   8   8   8   8   8
#     4  10  21  35  52  76 103 135 178 229 287 343
#     4  10  20  35  59  89 119 152 191 239 294 349
#     4  11  25  43  63  87 115 151 195 243 297 356
#     4   9  17  30  49  73 103 140 182 227 273 328
#     4   9  18  34  59  92 127 162 199 239 286 342
#     4   8  14  27  49  78 112 148 187 232 282 339
#     4   7  10  20  43  77 115 152 189 226 261 302
#     4  11  23  41  63  83 109 146 188 240 292 346
#
# _framework density 21.982339
#
# number of rings (size 3 to 8) (size 9 to 14) (size 15 to 20)
#    0.000    2.625    1.250    3.000    0.000    3.750 
#    0.000    4.375    0.000    3.000    0.000    2.625 
#    0.000    0.000    0.000    0.000    0.000    0.000 
#
# Total GULP energy -356477.056735 kJ/mol
# GULP energy per Si atom -5569.954011 kJ/mol
# Density = 2.193231 g / cm^3
# Si number density = 21.982339 Si / 1000 Ang^3
#
#
#
# Elastic Constant Matrix: (Units=GPa)
#
#
# Indices 1 2 3 4 5 6 
#
# 1 23.3562 13.3198 -1.2965 0.0000 0.0000 0.0000
# 2 13.3198 148.0797 48.9800 0.0000 0.0000 0.0000
# 3 -1.2965 48.9800 66.7264 0.0000 0.0000 0.0000
# 4 0.0000 0.0000 0.0000 -25.1254 0.0000 0.0000
# 5 0.0000 0.0000 0.0000 0.0000 16.8668 0.0000
# 6 0.0000 0.0000 0.0000 0.0000 0.0000 12.8583
#
#
#
# Elastic Compliance Matrix: (Units=1/GPa)
#
#
# Indices 1 2 3 4 5 6 
#
# 1 0.046480 -0.005916 0.005246 0.000000 0.000000 0.000000
# 2 -0.005916 0.009672 -0.007214 0.000000 0.000000 0.000000
# 3 0.005246 -0.007214 0.020384 0.000000 0.000000 0.000000
# 4 0.000000 0.000000 0.000000 -0.039800 0.000000 0.000000
# 5 0.000000 0.000000 0.000000 0.000000 0.059288 0.000000
# 6 0.000000 0.000000 0.000000 0.000000 0.000000 0.077771
#
#
# Mechanical properties :
#
#
# Convention : Reuss Voigt Hill
#
# Bulk Modulus (GPa) = 16.45635 40.01876 28.23756
# Shear Modulus (GPa) = 23.83007 12.73054 18.28030
#
# Velocity S-wave (km/s) = 3.29607 2.40911 2.88686
# Velocity P-wave (km/s) = 4.68912 5.09734 4.89749
#
# Compressibility (1/GPa) = 0.06076680
#
# Stress axis : x y z
#
# Youngs Moduli (GPa) = 21.51449 103.39645 49.05793
#
# Poissons Ratio (x) = 0.61170 -0.25735
# Poissons Ratio (y) = 0.12728 0.35392
# Poissons Ratio (z) = -0.11286 0.74593
#
# Static dielectric constant tensor:
#      x y z
#    x 1.812220 0.000000 0.000000 
#    y 0.000000 1.889600 0.000000 
#    z 0.000000 0.000000 1.843760 
# 
# From -- ./inp_files/32157.got.cif
#   From: 2010.05.17/outbox.cif.g08.bks.cpg/sg47_17_cif.got.tgz:32157.got - 2010.06.03 20:15:42.
