data_PCOD9386302
_publ_section_title
;
Structure prediction by ZEFSAII (Michael W. Deem and Ramdas Pophale) SiO2 
 PCOD9386302
Probable space group: P M M M
;
_chemical_formula_sum "Si O2"
_cell_formula_units_Z 48
_cell_length_a 8.391423
_cell_length_b 18.210313
_cell_length_c 16.201291
_cell_angle_alpha 90.000000
_cell_angle_beta 90.000000
_cell_angle_gamma 90.000000
_cell_volume 2475.726396
_symmetry_space_group_name_H-M "P M M M"
_symmetry_group_IT_number 47
_symmetry_cell_setting 'orthorhombic'
loop_
_space_group_symop_operation_xyz
x,y,z
-x,-y,z
x,-y,-z
-x,y,-z
-x,-y,-z
x,y,-z
-x,y,z
x,-y,z
loop_
_atom_site_type_symbol
_atom_site_label
_atom_site_fract_x
_atom_site_fract_y
_atom_site_fract_z
Si Si1 0.314391 0.500000 0.597932
Si Si2 0.190687 0.084605 0.500000
Si Si3 0.690513 0.181456 0.347588
Si Si4 0.806715 0.913933 0.000000
Si Si5 0.186840 0.835944 0.165223
Si Si6 0.685084 0.412507 0.000000
Si Si7 0.816555 0.663023 0.838908
Si Si8 0.313896 0.347384 0.663305
O O1 0.500000 0.500000 0.628507
O O2 0.317298 0.500000 0.500000
O O3 0.242251 0.422239 0.626523
O O4 0.246330 0.128580 0.581147
O O5 0.000000 0.083020 0.500000
O O6 0.249018 0.000000 0.500000
O O7 0.500000 0.184170 0.353110
O O8 0.735360 0.155113 0.255233
O O9 0.752422 0.266084 0.358033
O O10 0.747318 0.879050 0.085896
O O11 0.000000 0.902103 0.000000
O O12 0.776022 0.000000 0.000000
O O13 0.197391 0.749719 0.144029
O O14 0.000000 0.855224 0.174866
O O15 0.769030 0.381421 0.080917
O O16 0.692260 0.500000 0.000000
O O17 0.500000 0.389566 0.000000
O O18 0.704803 0.645893 0.761582
O O19 0.000000 0.648266 0.815363
O O20 0.500000 0.345565 0.638505
#
# Coordination Sequence:
#
# PCOD9386302 Si02
#       8
#     4   4   8   4   8   4   8   8
#     4   9  18  32  55  82 109 144 185 223 264 323
#     4  11  25  43  63  86 113 150 194 239 291 353
#     4  10  21  37  60  88 117 149 190 239 288 339
#     4   9  17  30  53  83 110 141 184 228 268 323
#     4   9  18  35  57  82 114 151 188 226 275 335
#     4  11  24  37  51  73 104 141 186 236 288 341
#     4  10  20  35  55  77 106 144 186 230 278 329
#     4   9  19  35  57  84 114 149 188 227 273 329
#
# _framework density 19.388248999999998
#
# number of rings (size 3 to 8) (size 9 to 14) (size 15 to 20)
#    0.000    2.333    0.000    2.000    2.333    4.667 
#    0.000    2.083    0.000    1.000    0.000    0.000 
#    0.000    0.000    0.000    0.000    0.000    0.000 
#
# Total GULP energy -267699.278284 kJ/mol
# GULP energy per Si atom -5577.068298 kJ/mol
# Density = 1.934412 g / cm^3
# Si number density = 19.388249 Si / 1000 Ang^3
#
#
#
# Elastic Constant Matrix: (Units=GPa)
#
#
# Indices 1 2 3 4 5 6 
#
# 1 27.6975 22.3557 14.2552 0.0000 0.0000 0.0000
# 2 22.3557 114.2991 92.5365 0.0000 0.0000 0.0000
# 3 14.2552 92.5365 113.4773 0.0000 0.0000 0.0000
# 4 0.0000 0.0000 0.0000 -786.1156 0.0000 0.0000
# 5 0.0000 0.0000 0.0000 0.0000 -33.7716 0.0000
# 6 0.0000 0.0000 0.0000 0.0000 0.0000 11.4375
#
#
#
# Elastic Compliance Matrix: (Units=1/GPa)
#
#
# Indices 1 2 3 4 5 6 
#
# 1 0.043589 -0.012043 0.004345 0.000000 0.000000 0.000000
# 2 -0.012043 0.029075 -0.022197 0.000000 0.000000 0.000000
# 3 0.004345 -0.022197 0.026367 0.000000 0.000000 0.000000
# 4 0.000000 0.000000 0.000000 -0.001272 0.000000 0.000000
# 5 0.000000 0.000000 0.000000 0.000000 -0.029611 0.000000
# 6 0.000000 0.000000 0.000000 0.000000 0.000000 0.087432
#
#
# Mechanical properties :
#
#
# Convention : Reuss Voigt Hill
#
# Bulk Modulus (GPa) = 25.48354 57.08541 41.28448
# Shear Modulus (GPa) = 21.88671 -153.26817 -65.69073
#
# Velocity S-wave (km/s) = 3.36350 -8.90077 -5.82712
# Velocity P-wave (km/s) = 5.31569 8.72493 4.89223
#
# Compressibility (1/GPa) = 0.03924102
#
# Stress axis : x y z
#
# Youngs Moduli (GPa) = 22.94181 34.39404 37.92633
#
# Poissons Ratio (x) = 0.41422 -0.16480
# Poissons Ratio (y) = 0.27630 0.84183
# Poissons Ratio (z) = -0.09969 0.76343
#
# Static dielectric constant tensor:
#      x y z
#    x 1.698400 0.000000 0.000000 
#    y 0.000000 1.691220 0.000000 
#    z 0.000000 0.000000 1.644180 
# 
# From -- ./inp_files/21168.got.cif
#   From: 2010.05.17/outbox.cif.g08.bks.cpg/sg47_11_cif.got.tgz:21168.got - 2010.06.03 20:15:42.
