data_PCOD9386291
_publ_section_title
;
Structure prediction by ZEFSAII (Michael W. Deem and Ramdas Pophale) SiO2 
 PCOD9386291
Probable space group: P M M M
;
_chemical_formula_sum "Si O2"
_cell_formula_units_Z 52
_cell_length_a 9.098725
_cell_length_b 30.289711
_cell_length_c 11.009795
_cell_angle_alpha 90.000000
_cell_angle_beta 90.000000
_cell_angle_gamma 90.000000
_cell_volume 3034.274738
_symmetry_space_group_name_H-M "P M M M"
_symmetry_group_IT_number 47
_symmetry_cell_setting 'orthorhombic'
loop_
_space_group_symop_operation_xyz
x,y,z
-x,-y,z
x,-y,-z
-x,y,-z
-x,-y,-z
x,y,-z
-x,y,z
x,-y,z
loop_
_atom_site_type_symbol
_atom_site_label
_atom_site_fract_x
_atom_site_fract_y
_atom_site_fract_z
Si Si1 0.328105 0.389382 0.706261
Si Si2 0.829771 0.048591 0.853028
Si Si3 0.322651 0.793435 0.640960
Si Si4 0.323200 0.139821 0.141835
Si Si5 0.830181 0.300811 0.645032
Si Si6 0.164761 0.450584 0.856273
Si Si7 0.176130 0.447960 0.500000
O O1 0.500000 0.387141 0.680054
O O2 0.257983 0.341056 0.703203
O O3 0.287452 0.414834 0.828242
O O4 0.245150 0.421509 0.612085
O O5 0.736517 0.091521 0.821816
O O6 0.000000 0.053893 0.815507
O O7 0.777667 0.000000 0.810940
O O8 0.828842 0.047197 0.000000
O O9 0.285878 0.806950 0.500000
O O10 0.500000 0.788901 0.644950
O O11 0.278920 0.826197 0.751126
O O12 0.247117 0.746234 0.663543
O O13 0.500000 0.139033 0.139688
O O14 0.275956 0.149384 0.000000
O O15 0.828231 0.309181 0.500000
O O16 0.000000 0.299902 0.684550
O O17 0.197003 0.500000 0.807868
O O18 0.000000 0.438026 0.811339
O O19 0.154398 0.454164 0.000000
O O20 0.213222 0.500000 0.500000
O O21 0.000000 0.444105 0.500000
#
# Coordination Sequence:
#
# PCOD9386291 Si02
#       7
#     8   8   8   8   8   8   4
#     4  12  23  34  53  79 106 132 161 203 253 300
#     4   8  14  25  42  66  97 132 168 206 249 297
#     4   9  18  33  52  72  97 129 166 207 255 309
#     4   9  17  29  47  73 102 130 162 206 257 303
#     4  10  20  35  55  75  97 128 168 209 248 295
#     4   9  19  37  58  76  98 133 172 205 241 291
#     4  11  23  37  53  75 105 137 165 197 242 297
#
# _framework density 17.137537999999999
#
# number of rings (size 3 to 8) (size 9 to 14) (size 15 to 20)
#    0.000    2.385    0.769    3.462    0.000    4.615 
#    0.000    3.077    0.000    3.231    0.000    3.231 
#    0.000    0.000    0.000    0.000    0.000    0.000 
#
# Total GULP energy -289566.370877 kJ/mol
# GULP energy per Si atom -5568.584055 kJ/mol
# Density = 1.709853 g / cm^3
# Si number density = 17.137538 Si / 1000 Ang^3
#
#
#
# Elastic Constant Matrix: (Units=GPa)
#
#
# Indices 1 2 3 4 5 6 
#
# 1 58.1758 54.3152 27.5105 0.0000 0.0000 0.0000
# 2 54.3152 133.9864 54.6111 0.0000 0.0000 0.0000
# 3 27.5105 54.6111 64.1711 0.0000 0.0000 0.0000
# 4 0.0000 0.0000 0.0000 -76.0929 0.0000 0.0000
# 5 0.0000 0.0000 0.0000 0.0000 15.4558 0.0000
# 6 0.0000 0.0000 0.0000 0.0000 0.0000 31.7457
#
#
#
# Elastic Compliance Matrix: (Units=1/GPa)
#
#
# Indices 1 2 3 4 5 6 
#
# 1 0.028194 -0.009956 -0.003614 0.000000 0.000000 0.000000
# 2 -0.009956 0.014943 -0.008449 0.000000 0.000000 0.000000
# 3 -0.003614 -0.008449 0.024323 0.000000 0.000000 0.000000
# 4 0.000000 0.000000 0.000000 -0.013142 0.000000 0.000000
# 5 0.000000 0.000000 0.000000 0.000000 0.064701 0.000000
# 6 0.000000 0.000000 0.000000 0.000000 0.000000 0.031500
#
#
# Mechanical properties :
#
#
# Convention : Reuss Voigt Hill
#
# Bulk Modulus (GPa) = 42.69480 58.80076 50.74778
# Shear Modulus (GPa) = 24.70808 2.21481 13.46145
#
# Velocity S-wave (km/s) = 3.80116 1.13806 2.80571
# Velocity P-wave (km/s) = 6.65073 6.00937 6.33817
#
# Compressibility (1/GPa) = 0.02342205
#
# Stress axis : x y z
#
# Youngs Moduli (GPa) = 35.46901 66.92108 41.11405
#
# Poissons Ratio (x) = 0.66627 0.14858
# Poissons Ratio (y) = 0.35313 0.34736
# Poissons Ratio (z) = 0.12818 0.56539
#
# Static dielectric constant tensor:
#      x y z
#    x 1.581150 0.000000 0.000000 
#    y 0.000000 1.569530 0.000000 
#    z 0.000000 0.000000 1.690430 
# 
# From -- ./inp_files/13267.got.cif
#   From: 2010.05.17/outbox.cif.g08.bks.cpg/sg47_7_cif.got.tgz:13267.got - 2010.06.03 20:15:42.
