data_PCOD9386114
_publ_section_title
;
Structure prediction by ZEFSAII (Michael W. Deem and Ramdas Pophale) SiO2 
 PCOD9386114
Probable space group: P M M M
;
_chemical_formula_sum "Si O2"
_cell_formula_units_Z 48
_cell_length_a 7.815956
_cell_length_b 9.451296
_cell_length_c 31.712950
_cell_angle_alpha 90.000000
_cell_angle_beta 90.000000
_cell_angle_gamma 90.000000
_cell_volume 2342.664592
_symmetry_space_group_name_H-M "P M M M"
_symmetry_group_IT_number 47
_symmetry_cell_setting 'orthorhombic'
loop_
_space_group_symop_operation_xyz
x,y,z
-x,-y,z
x,-y,-z
-x,y,-z
-x,-y,-z
x,y,-z
-x,y,z
x,-y,z
loop_
_atom_site_type_symbol
_atom_site_label
_atom_site_fract_x
_atom_site_fract_y
_atom_site_fract_z
Si Si1 0.295936 0.839620 0.500000
Si Si2 0.294438 0.839180 0.082748
Si Si3 0.795656 0.338544 0.000000
Si Si4 0.206498 0.161873 0.756843
Si Si5 0.205705 0.340011 0.417769
Si Si6 0.704711 0.340025 0.838004
Si Si7 0.791102 0.163048 0.661858
O O1 0.500000 0.847589 0.500000
O O2 0.243054 0.754643 0.541592
O O3 0.226415 0.000000 0.500000
O O4 0.500000 0.848587 0.086693
O O5 0.258272 0.747354 0.041396
O O6 0.227562 0.757867 0.124097
O O7 0.228414 0.000000 0.079380
O O8 0.728131 0.500000 0.000000
O O9 0.000000 0.345836 0.000000
O O10 0.262912 0.266571 0.793310
O O11 0.263028 0.201269 0.709415
O O12 0.000000 0.160364 0.756510
O O13 0.263837 0.000000 0.765326
O O14 0.271138 0.500000 0.422623
O O15 0.270208 0.264541 0.375251
O O16 0.000000 0.347796 0.414144
O O17 0.500000 0.348327 0.843529
O O18 0.773063 0.500000 0.839758
O O19 0.000000 0.165735 0.661616
O O20 0.741080 0.000000 0.653830
#
# Coordination Sequence:
#
# PCOD9386114 Si02
#       7
#     4   8   4   8   8   8   8
#     4  11  24  39  54  74 102 137 176 215 258 310
#     4  10  21  38  60  82 104 137 181 222 262 311
#     4  11  24  39  56  82 114 143 172 211 262 316
#     4   9  18  33  54  80 108 139 176 217 262 311
#     4  10  20  34  55  82 107 133 170 214 260 312
#     4  10  21  36  54  78 108 142 180 220 262 310
#     4   8  15  30  52  77 105 137 174 215 257 304
#
# _framework density 20.489488999999999
#
# number of rings (size 3 to 8) (size 9 to 14) (size 15 to 20)
#    0.000    2.333    0.000    3.500    0.000    8.000 
#    0.000    2.500    0.000    1.000    0.000    0.000 
#    0.000    0.000    0.000    0.000    0.000    0.000 
#
# Total GULP energy -268070.312919 kJ/mol
# GULP energy per Si atom -5584.798186 kJ/mol
# Density = 2.044285 g / cm^3
# Si number density = 20.489489 Si / 1000 Ang^3
#
#
#
# Elastic Constant Matrix: (Units=GPa)
#
#
# Indices 1 2 3 4 5 6 
#
# 1 24.8789 10.3674 0.9398 0.0000 0.0000 0.0000
# 2 10.3674 214.7315 142.0174 0.0000 0.0000 0.0000
# 3 0.9398 142.0174 187.8088 0.0000 0.0000 0.0000
# 4 0.0000 0.0000 0.0000 -13.0624 0.0000 0.0000
# 5 0.0000 0.0000 0.0000 0.0000 25.6365 0.0000
# 6 0.0000 0.0000 0.0000 0.0000 0.0000 18.0478
#
#
#
# Elastic Compliance Matrix: (Units=1/GPa)
#
#
# Indices 1 2 3 4 5 6 
#
# 1 0.041657 -0.003748 0.002625 0.000000 0.000000 0.000000
# 2 -0.003748 0.009653 -0.007281 0.000000 0.000000 0.000000
# 3 0.002625 -0.007281 0.010817 0.000000 0.000000 0.000000
# 4 0.000000 0.000000 0.000000 -0.076555 0.000000 0.000000
# 5 0.000000 0.000000 0.000000 0.000000 0.039007 0.000000
# 6 0.000000 0.000000 0.000000 0.000000 0.000000 0.055408
#
#
# Mechanical properties :
#
#
# Convention : Reuss Voigt Hill
#
# Bulk Modulus (GPa) = 22.06459 81.56314 51.81387
# Shear Modulus (GPa) = 44.68249 24.39736 34.53993
#
# Velocity S-wave (km/s) = 4.67492 3.45443 4.11023
# Velocity P-wave (km/s) = 6.31917 7.47024 6.91869
#
# Compressibility (1/GPa) = 0.04532148
#
# Stress axis : x y z
#
# Youngs Moduli (GPa) = 24.00543 103.59175 92.44637
#
# Poissons Ratio (x) = 0.38822 -0.24271
# Poissons Ratio (y) = 0.08996 0.67309
# Poissons Ratio (z) = -0.06302 0.75424
#
# Static dielectric constant tensor:
#      x y z
#    x 1.759810 0.000000 0.000000 
#    y 0.000000 1.722760 0.000000 
#    z 0.000000 0.000000 1.692050 
# 
# From -- ./inp_files/34055.got.cif
#   From: 2010.05.17/outbox.cif.g08.bks.cpg/sg47_18_cif.got.tgz:34055.got - 2010.06.03 20:15:42.
