data_PCOD9386281
_publ_section_title
;
Structure prediction by ZEFSAII (Michael W. Deem and Ramdas Pophale) SiO2 
 PCOD9386281
Probable space group: P M M M
;
_chemical_formula_sum "Si O2"
_cell_formula_units_Z 41
_cell_length_a 16.104922
_cell_length_b 8.950970
_cell_length_c 16.249601
_cell_angle_alpha 90.000000
_cell_angle_beta 90.000000
_cell_angle_gamma 90.000000
_cell_volume 2342.455929
_symmetry_space_group_name_H-M "P M M M"
_symmetry_group_IT_number 47
_symmetry_cell_setting 'orthorhombic'
loop_
_space_group_symop_operation_xyz
x,y,z
-x,-y,z
x,-y,-z
-x,y,-z
-x,-y,-z
x,y,-z
-x,y,z
x,-y,z
loop_
_atom_site_type_symbol
_atom_site_label
_atom_site_fract_x
_atom_site_fract_y
_atom_site_fract_z
Si Si1 0.500000 0.000000 0.000000
Si Si2 0.841403 0.821485 0.407289
Si Si3 0.500000 0.325176 0.598384
Si Si4 0.326706 0.834575 0.000000
Si Si5 0.735610 0.320458 0.165031
Si Si6 0.335905 0.822089 0.671413
Si Si7 0.091710 0.679697 0.242981
O O1 0.574898 0.128199 0.000000
O O2 0.861184 0.771143 0.500000
O O3 0.744063 0.795310 0.386917
O O4 0.891058 0.743842 0.333910
O O5 0.855171 0.000000 0.403045
O O6 0.500000 0.500000 0.621048
O O7 0.500000 0.313689 0.500000
O O8 0.581653 0.246104 0.633191
O O9 0.298361 0.747372 0.080987
O O10 0.286473 0.000000 0.000000
O O11 0.730367 0.500000 0.163988
O O12 0.684152 0.254835 0.241699
O O13 0.831363 0.276357 0.184821
O O14 0.344246 0.000000 0.682467
O O15 0.093457 0.500000 0.248080
O O16 0.000000 0.726375 0.214710
#
# Coordination Sequence:
#
# PCOD9386281 Si02
#       7
#     1   8   4   4   8   8   8
#     4   8  24  40  62  84 110 140 168 212 256 312
#     4   9  18  32  50  73 104 144 189 236 284 331
#     4  11  23  36  51  76 109 143 185 238 284 328
#     4  10  21  41  62  86 114 145 182 218 267 334
#     4  10  20  37  61  85 112 146 184 227 278 329
#     4  10  20  35  54  77 105 145 188 231 282 340
#     4   9  19  35  54  79 111 146 186 230 278 333
#
# _framework density 17.502998999999999
#
# number of rings (size 3 to 8) (size 9 to 14) (size 15 to 20)
#    0.293    2.049    0.000    2.341    0.000    5.073 
#    0.000    4.390    0.000    2.927    0.000    0.000 
#    0.000    0.000    0.000    0.000    0.000    0.000 
#
# Total GULP energy -228401.245314 kJ/mol
# GULP energy per Si atom -5570.762081 kJ/mol
# Density = 1.746316 g / cm^3
# Si number density = 17.502999 Si / 1000 Ang^3
#
#
#
# Elastic Constant Matrix: (Units=GPa)
#
#
# Indices 1 2 3 4 5 6 
#
# 1 124.0698 44.0596 47.8771 0.0000 0.0000 0.0000
# 2 44.0596 62.5699 38.6055 0.0000 0.0000 0.0000
# 3 47.8771 38.6055 101.6558 0.0000 0.0000 0.0000
# 4 0.0000 0.0000 0.0000 29.0741 0.0000 0.0000
# 5 0.0000 0.0000 0.0000 0.0000 5.3840 0.0000
# 6 0.0000 0.0000 0.0000 0.0000 0.0000 25.9856
#
#
#
# Elastic Compliance Matrix: (Units=1/GPa)
#
#
# Indices 1 2 3 4 5 6 
#
# 1 0.011423 -0.006170 -0.003037 0.000000 0.000000 0.000000
# 2 -0.006170 0.024206 -0.006287 0.000000 0.000000 0.000000
# 3 -0.003037 -0.006287 0.013655 0.000000 0.000000 0.000000
# 4 0.000000 0.000000 0.000000 0.034395 0.000000 0.000000
# 5 0.000000 0.000000 0.000000 0.000000 0.185734 0.000000
# 6 0.000000 0.000000 0.000000 0.000000 0.000000 0.038483
#
#
# Mechanical properties :
#
#
# Convention : Reuss Voigt Hill
#
# Bulk Modulus (GPa) = 54.65466 61.04222 57.84844
# Shear Modulus (GPa) = 14.49356 22.60564 18.54960
#
# Velocity S-wave (km/s) = 2.88073 3.59768 3.25898
# Velocity P-wave (km/s) = 6.50834 7.22556 6.87631
#
# Compressibility (1/GPa) = 0.01829670
#
# Stress axis : x y z
#
# Youngs Moduli (GPa) = 87.54354 41.31267 73.23443
#
# Poissons Ratio (x) = 0.25490 0.22239
# Poissons Ratio (y) = 0.54014 0.46040
# Poissons Ratio (z) = 0.26584 0.25972
#
# Static dielectric constant tensor:
#      x y z
#    x 1.599050 0.000000 0.000000 
#    y 0.000000 1.585750 0.000000 
#    z 0.000000 0.000000 1.569300 
# 
# From -- ./inp_files/23413.got.cif
#   From: 2010.05.17/outbox.cif.g08.bks.cpg/sg47_12_cif.got.tgz:23413.got - 2010.06.03 20:15:42.
