data_PCOD9386047
_publ_section_title
;
Structure prediction by ZEFSAII (Michael W. Deem and Ramdas Pophale) SiO2 
 PCOD9386047
Probable space group: P M M M
;
_chemical_formula_sum "Si O2"
_cell_formula_units_Z 48
_cell_length_a 30.047184
_cell_length_b 10.318368
_cell_length_c 8.040238
_cell_angle_alpha 90.000000
_cell_angle_beta 90.000000
_cell_angle_gamma 90.000000
_cell_volume 2492.778520
_symmetry_space_group_name_H-M "P M M M"
_symmetry_group_IT_number 47
_symmetry_cell_setting 'orthorhombic'
loop_
_space_group_symop_operation_xyz
x,y,z
-x,-y,z
x,-y,-z
-x,y,-z
-x,-y,-z
x,y,-z
-x,y,z
x,-y,z
loop_
_atom_site_type_symbol
_atom_site_label
_atom_site_fract_x
_atom_site_fract_y
_atom_site_fract_z
Si Si1 0.551366 0.000000 0.301438
Si Si2 0.605997 0.252972 0.801153
Si Si3 0.949880 0.352998 0.799756
Si Si4 0.224846 0.148227 0.296727
Si Si5 0.701474 0.350602 0.300838
Si Si6 0.123184 0.854642 0.700103
Si Si7 0.449480 0.500000 0.796623
O O1 0.579755 0.875812 0.246920
O O2 0.500000 0.000000 0.236954
O O3 0.548791 0.000000 0.500000
O O4 0.655461 0.276218 0.734397
O O5 0.576536 0.373527 0.740827
O O6 0.608864 0.258036 0.000000
O O7 0.940180 0.500000 0.741843
O O8 0.912641 0.251352 0.749652
O O9 0.000000 0.318373 0.742227
O O10 0.951011 0.356169 0.000000
O O11 0.225778 0.149219 0.500000
O O12 0.258443 0.259450 0.237633
O O13 0.173842 0.173384 0.244442
O O14 0.236794 0.000000 0.247063
O O15 0.706418 0.359588 0.500000
O O16 0.700419 0.500000 0.236670
O O17 0.124498 0.858093 0.500000
O O18 0.111359 0.000000 0.758918
O O19 0.500000 0.500000 0.739647
O O20 0.449822 0.500000 0.000000
#
# Coordination Sequence:
#
# PCOD9386047 Si02
#       7
#     4   8   8   8   8   8   4
#     4  11  25  43  61  85 115 145 181 225 272 323
#     4  11  22  38  59  84 115 147 182 224 270 323
#     4   9  19  35  52  72 103 143 184 224 270 326
#     4   8  16  32  53  76 104 142 182 222 270 322
#     4  10  20  34  54  81 112 144 182 225 270 321
#     4   9  18  33  53  79 109 138 177 227 274 322
#     4   9  18  34  57  81 107 143 181 215 260 317
#
# _framework density 19.255621999999999
#
# number of rings (size 3 to 8) (size 9 to 14) (size 15 to 20)
#    0.000    2.500    0.833    2.750    1.167    3.333 
#    0.000    5.000    0.000    3.000    0.000    0.000 
#    0.000    0.000    0.000    0.000    0.000    0.000 
#
# Total GULP energy -267754.594689 kJ/mol
# GULP energy per Si atom -5578.220723 kJ/mol
# Density = 1.921180 g / cm^3
# Si number density = 19.255622 Si / 1000 Ang^3
#
#
#
# Elastic Constant Matrix: (Units=GPa)
#
#
# Indices 1 2 3 4 5 6 
#
# 1 177.2679 130.5315 8.6877 0.0000 0.0000 0.0000
# 2 130.5315 183.2836 8.8477 0.0000 0.0000 0.0000
# 3 8.6877 8.8477 13.5687 0.0000 0.0000 0.0000
# 4 0.0000 0.0000 0.0000 18.9990 0.0000 0.0000
# 5 0.0000 0.0000 0.0000 0.0000 66.0960 0.0000
# 6 0.0000 0.0000 0.0000 0.0000 0.0000 43.8228
#
#
#
# Elastic Compliance Matrix: (Units=1/GPa)
#
#
# Indices 1 2 3 4 5 6 
#
# 1 0.011923 -0.008387 -0.002165 0.000000 0.000000 0.000000
# 2 -0.008387 0.011533 -0.002150 0.000000 0.000000 0.000000
# 3 -0.002165 -0.002150 0.076488 0.000000 0.000000 0.000000
# 4 0.000000 0.000000 0.000000 0.052634 0.000000 0.000000
# 5 0.000000 0.000000 0.000000 0.000000 0.015130 0.000000
# 6 0.000000 0.000000 0.000000 0.000000 0.000000 0.022819
#
#
# Mechanical properties :
#
#
# Convention : Reuss Voigt Hill
#
# Bulk Modulus (GPa) = 13.41584 74.47267 43.94426
# Shear Modulus (GPa) = 20.76609 40.85378 30.80994
#
# Velocity S-wave (km/s) = 3.28753 4.61114 4.00440
# Velocity P-wave (km/s) = 4.62524 8.19206 6.65217
#
# Compressibility (1/GPa) = 0.07453875
#
# Stress axis : x y z
#
# Youngs Moduli (GPa) = 83.87215 86.70964 13.07401
#
# Poissons Ratio (x) = 0.72721 0.02831
# Poissons Ratio (y) = 0.70342 0.02811
# Poissons Ratio (z) = 0.18161 0.18645
#
# Static dielectric constant tensor:
#      x y z
#    x 1.657940 0.000000 0.000000 
#    y 0.000000 1.663480 0.000000 
#    z 0.000000 0.000000 1.689740 
# 
# From -- ./inp_files/13827.got.cif
#   From: 2010.05.17/outbox.cif.g08.bks.cpg/sg47_7_cif.got.tgz:13827.got - 2010.06.03 20:15:42.
