data_PCOD9386541
_publ_section_title
;
Structure prediction by ZEFSAII (Michael W. Deem and Ramdas Pophale) SiO2 
 PCOD9386541
Probable space group: P M M M
;
_chemical_formula_sum "Si O2"
_cell_formula_units_Z 64
_cell_length_a 8.426460
_cell_length_b 15.235973
_cell_length_c 24.587626
_cell_angle_alpha 90.000000
_cell_angle_beta 90.000000
_cell_angle_gamma 90.000000
_cell_volume 3156.690159
_symmetry_space_group_name_H-M "P M M M"
_symmetry_group_IT_number 47
_symmetry_cell_setting 'orthorhombic'
loop_
_space_group_symop_operation_xyz
x,y,z
-x,-y,z
x,-y,-z
-x,y,-z
-x,-y,-z
x,y,-z
-x,y,z
x,-y,z
loop_
_atom_site_type_symbol
_atom_site_label
_atom_site_fract_x
_atom_site_fract_y
_atom_site_fract_z
Si Si1 0.743028 0.598349 0.750000
Si Si2 0.310042 0.239272 0.438821
Si Si3 0.818791 0.404790 0.875584
Si Si4 0.181210 0.595210 0.624416
Si Si5 0.692381 0.102394 0.351270
Si Si6 0.692381 0.897606 0.148730
Si Si7 0.310042 0.760728 0.061179
Si Si8 0.811729 0.786712 0.750000
O O1 0.664647 0.500000 0.750000
O O2 0.821585 0.597992 0.809811
O O3 0.821585 0.597992 0.690189
O O4 0.695098 0.701448 0.750000
O O5 0.245243 0.246344 0.500000
O O6 0.500000 0.236093 0.442459
O O7 0.267644 0.322982 0.401994
O O8 0.260413 0.151956 0.406638
O O9 0.748388 0.500000 0.890648
O O10 0.732357 0.322981 0.901994
O O11 0.000000 0.401849 0.894408
O O12 0.251612 0.500000 0.609352
O O13 0.000000 0.598151 0.605592
O O14 0.500000 0.108812 0.345098
O O15 0.773785 0.154991 0.302447
O O16 0.733810 0.000000 0.350766
O O17 0.500000 0.891187 0.154903
O O18 0.739586 0.848044 0.093362
O O19 0.773786 0.845009 0.197553
O O20 0.733809 0.000000 0.149235
O O21 0.500000 0.763907 0.057541
O O22 0.245243 0.753656 0.000000
O O23 0.000000 0.760718 0.750000
#
# Coordination Sequence:
#
# PCOD9386541 Si02
#       8
#     8   8   8   8   8   8   8   8
#     4  10  20  35  58  88 119 149 181 221 274 332
#     4  10  22  39  58  81 110 146 190 238 282 324
#     4  10  20  36  59  85 114 149 187 225 272 336
#     4  10  20  36  59  85 114 149 187 225 272 336
#     4  10  22  40  60  82 112 149 187 230 281 336
#     4  10  22  40  60  82 112 149 187 230 281 336
#     4  10  22  39  58  81 110 146 190 238 282 324
#     4  12  22  35  61  91 118 147 181 226 277 334
#
# _framework density 20.2744
#
# number of rings (size 3 to 8) (size 9 to 14) (size 15 to 20)
#    0.000    1.750    2.500    1.875    0.000    6.750 
#    0.000    5.625    0.000    3.750    0.000    3.500 
#    0.000    0.000    0.000    0.000    0.000    0.000 
#
# Total GULP energy -356409.052414 kJ/mol
# GULP energy per Si atom -5568.891444 kJ/mol
# Density = 2.022825 g / cm^3
# Si number density = 20.274400 Si / 1000 Ang^3
#
#
#
# Elastic Constant Matrix: (Units=GPa)
#
#
# Indices 1 2 3 4 5 6 
#
# 1 23.0923 25.8941 24.0820 0.0000 0.0000 0.0000
# 2 25.8941 192.6072 69.8977 0.0000 0.0000 0.0000
# 3 24.0820 69.8977 129.6319 0.0000 0.0000 0.0000
# 4 0.0000 0.0000 0.0000 9.4967 0.0000 0.0000
# 5 0.0000 0.0000 0.0000 0.0000 -52.2169 0.0000
# 6 0.0000 0.0000 0.0000 0.0000 0.0000 13.0835
#
#
#
# Elastic Compliance Matrix: (Units=1/GPa)
#
#
# Indices 1 2 3 4 5 6 
#
# 1 0.057003 -0.004750 -0.008028 0.000000 0.000000 0.000000
# 2 -0.004750 0.006851 -0.002812 0.000000 0.000000 0.000000
# 3 -0.008028 -0.002812 0.010722 0.000000 0.000000 0.000000
# 4 0.000000 0.000000 0.000000 0.105300 0.000000 0.000000
# 5 0.000000 0.000000 0.000000 0.000000 -0.019151 0.000000
# 6 0.000000 0.000000 0.000000 0.000000 0.000000 0.076432
#
#
# Mechanical properties :
#
#
# Convention : Reuss Voigt Hill
#
# Bulk Modulus (GPa) = 23.04376 65.00879 44.02628
# Shear Modulus (GPa) = 17.68020 9.10315 13.39168
#
# Velocity S-wave (km/s) = 2.95625 2.12125 2.57285
# Velocity P-wave (km/s) = 4.80033 6.17525 5.53068
#
# Compressibility (1/GPa) = 0.04339569
#
# Stress axis : x y z
#
# Youngs Moduli (GPa) = 17.54290 145.96785 93.26971
#
# Poissons Ratio (x) = 0.69334 0.74881
# Poissons Ratio (y) = 0.08333 0.26223
# Poissons Ratio (z) = 0.14084 0.41040
#
# Static dielectric constant tensor:
#      x y z
#    x 1.722350 0.000000 0.000000 
#    y 0.000000 1.726320 0.000000 
#    z 0.000000 0.000000 1.707590 
# 
# From -- ./inp_files/32126.got.cif
#   From: 2010.05.17/outbox.cif.g08.bks.cpg/sg47_17_cif.got.tgz:32126.got - 2010.06.03 20:15:42.
