data_PCOD9386725
_publ_section_title
;
Structure prediction by ZEFSAII (Michael W. Deem and Ramdas Pophale) SiO2 
 PCOD9386725
Probable space group: P M M M
;
_chemical_formula_sum "Si O2"
_cell_formula_units_Z 25
_cell_length_a 21.445183
_cell_length_b 7.722311
_cell_length_c 7.682714
_cell_angle_alpha 90.000000
_cell_angle_beta 90.000000
_cell_angle_gamma 90.000000
_cell_volume 1272.306397
_symmetry_space_group_name_H-M "P M M M"
_symmetry_group_IT_number 47
_symmetry_cell_setting 'orthorhombic'
loop_
_space_group_symop_operation_xyz
x,y,z
-x,-y,z
x,-y,-z
-x,y,-z
-x,-y,-z
x,y,-z
-x,y,z
x,-y,z
loop_
_atom_site_type_symbol
_atom_site_label
_atom_site_fract_x
_atom_site_fract_y
_atom_site_fract_z
Si Si1 0.695969 0.300951 0.793377
Si Si2 0.928479 0.000000 0.286688
Si Si3 0.603757 0.000000 0.307854
Si Si4 0.162238 0.696754 0.710178
Si Si5 0.500000 0.000000 0.000000
O O1 0.688932 0.500000 0.731099
O O2 0.648387 0.167477 0.709990
O O3 0.767810 0.249681 0.761406
O O4 0.684929 0.299246 0.000000
O O5 0.889692 0.831571 0.230060
O O6 0.928805 0.000000 0.500000
O O7 0.000000 0.000000 0.229629
O O8 0.575341 0.000000 0.500000
O O9 0.554313 0.000000 0.153122
O O10 0.160393 0.694178 0.500000
O O11 0.152198 0.500000 0.772670
#
# Coordination Sequence:
#
# PCOD9386725 Si02
#       5
#     8   4   4   8   1
#     4  10  20  37  62  90 119 151 194 250 305 355
#     4   9  17  28  43  67 102 145 189 235 293 355
#     4  12  24  42  67  90 123 165 201 245 294 347
#     4   9  17  29  48  76 105 136 184 242 296 351
#     4  12  26  48  62  94 132 162 208 236 282 358
#
# _framework density 19.649356000000001
#
# number of rings (size 3 to 8) (size 9 to 14) (size 15 to 20)
#    0.000    2.080    1.600    2.160    0.000    3.840 
#    0.000    4.800    0.000    3.840    0.000    4.480 
#    0.000    0.000    0.000    0.000    0.000    0.000 
#
# Total GULP energy -139369.355409 kJ/mol
# GULP energy per Si atom -5574.774216 kJ/mol
# Density = 1.960463 g / cm^3
# Si number density = 19.649356 Si / 1000 Ang^3
#
#
#
# Elastic Constant Matrix: (Units=GPa)
#
#
# Indices 1 2 3 4 5 6 
#
# 1 168.9517 94.7599 43.3428 0.0000 0.0000 0.0000
# 2 94.7599 98.3746 30.0850 0.0000 0.0000 0.0000
# 3 43.3428 30.0850 95.3456 0.0000 0.0000 0.0000
# 4 0.0000 0.0000 0.0000 -124.0573 0.0000 0.0000
# 5 0.0000 0.0000 0.0000 0.0000 34.0845 0.0000
# 6 0.0000 0.0000 0.0000 0.0000 0.0000 -5.5371
#
#
#
# Elastic Compliance Matrix: (Units=1/GPa)
#
#
# Indices 1 2 3 4 5 6 
#
# 1 0.013284 -0.012118 -0.002215 0.000000 0.000000 0.000000
# 2 -0.012118 0.022306 -0.001530 0.000000 0.000000 0.000000
# 3 -0.002215 -0.001530 0.011978 0.000000 0.000000 0.000000
# 4 0.000000 0.000000 0.000000 -0.008061 0.000000 0.000000
# 5 0.000000 0.000000 0.000000 0.000000 0.029339 0.000000
# 6 0.000000 0.000000 0.000000 0.000000 0.000000 -0.180599
#
#
# Mechanical properties :
#
#
# Convention : Reuss Voigt Hill
#
# Bulk Modulus (GPa) = 63.12333 77.67194 70.39763
# Shear Modulus (GPa) = -66.89242 -6.13638 -36.51440
#
# Velocity S-wave (km/s) = -5.84097 -1.76910 -4.31548
# Velocity P-wave (km/s) = 3.64618 5.95331 3.32770
#
# Compressibility (1/GPa) = 0.01584200
#
# Stress axis : x y z
#
# Youngs Moduli (GPa) = 75.27881 44.83062 83.48898
#
# Poissons Ratio (x) = 0.54328 0.18492
# Poissons Ratio (y) = 0.91227 0.12770
# Poissons Ratio (z) = 0.16673 0.06857
#
# Static dielectric constant tensor:
#      x y z
#    x 1.632100 0.000000 0.000000 
#    y 0.000000 1.696570 0.000000 
#    z 0.000000 0.000000 1.712230 
# 
# From -- ./inp_files/705.got.cif
#   From: 2010.05.17/outbox.cif.g08.bks.cpg/sg47_1_cif.got.tgz:705.got - 2010.06.03 20:15:42.
