data_PCOD9386351
_publ_section_title
;
Structure prediction by ZEFSAII (Michael W. Deem and Ramdas Pophale) SiO2 
 PCOD9386351
Probable space group: P M M M
;
_chemical_formula_sum "Si O2"
_cell_formula_units_Z 52
_cell_length_a 19.397127
_cell_length_b 7.691262
_cell_length_c 17.087739
_cell_angle_alpha 90.000000
_cell_angle_beta 90.000000
_cell_angle_gamma 90.000000
_cell_volume 2549.292198
_symmetry_space_group_name_H-M "P M M M"
_symmetry_group_IT_number 47
_symmetry_cell_setting 'orthorhombic'
loop_
_space_group_symop_operation_xyz
x,y,z
-x,-y,z
x,-y,-z
-x,y,-z
-x,-y,-z
x,y,-z
-x,y,z
x,-y,z
loop_
_atom_site_type_symbol
_atom_site_label
_atom_site_fract_x
_atom_site_fract_y
_atom_site_fract_z
Si Si1 0.425460 0.708984 0.408536
Si Si2 0.000000 0.787345 0.409886
Si Si3 0.422092 0.500000 0.904628
Si Si4 0.724647 0.792350 0.589297
Si Si5 0.682037 0.797213 0.094672
Si Si6 0.138443 0.786670 0.321427
Si Si7 0.831060 0.207592 0.850710
Si Si8 0.077309 0.293158 0.000000
O O1 0.423896 0.766855 0.500000
O O2 0.500000 0.768795 0.375930
O O3 0.426715 0.500000 0.408394
O O4 0.351185 0.760024 0.374767
O O5 0.069716 0.730926 0.366461
O O6 0.000000 0.732339 0.500000
O O7 0.000000 0.000000 0.409296
O O8 0.500000 0.500000 0.875325
O O9 0.379816 0.671342 0.881492
O O10 0.424228 0.500000 0.000000
O O11 0.725819 0.722647 0.500000
O O12 0.790695 0.728887 0.637141
O O13 0.731932 0.000000 0.584466
O O14 0.753823 0.730886 0.130531
O O15 0.670635 0.000000 0.115147
O O16 0.689215 0.789636 0.000000
O O17 0.140033 0.727850 0.231588
O O18 0.137951 0.000000 0.322398
O O19 0.880725 0.242151 0.923089
O O20 0.824498 0.000000 0.844158
O O21 0.072895 0.500000 0.000000
O O22 0.000000 0.219785 0.000000
#
# Coordination Sequence:
#
# PCOD9386351 Si02
#       8
#     8   4   4   8   8   8   8   4
#     4   8  14  25  42  65  93 126 166 211 256 307
#     4   9  16  28  48  75 109 146 180 217 267 317
#     4   9  18  30  50  80 108 142 182 229 283 329
#     4   9  16  27  45  71 103 134 167 212 262 310
#     4   9  17  30  50  77 106 141 183 227 279 339
#     4   9  18  30  47  75 107 138 176 220 263 313
#     4  10  20  35  56  80 106 141 184 223 268 327
#     4  11  25  39  55  81 111 142 173 218 280 332
#
# _framework density 20.397819999999999
#
# number of rings (size 3 to 8) (size 9 to 14) (size 15 to 20)
#    0.000    2.846    0.769    1.154    2.154    3.077 
#    0.000    3.846    0.000    0.923    0.000    4.308 
#    0.000    3.692    0.000    0.000    0.000    0.000 
#
# Total GULP energy -290011.652780 kJ/mol
# GULP energy per Si atom -5577.147169 kJ/mol
# Density = 2.035139 g / cm^3
# Si number density = 20.397820 Si / 1000 Ang^3
#
#
#
# Elastic Constant Matrix: (Units=GPa)
#
#
# Indices 1 2 3 4 5 6 
#
# 1 240.0315 30.7547 92.8234 0.0000 0.0000 0.0000
# 2 30.7547 46.7131 14.4405 0.0000 0.0000 0.0000
# 3 92.8234 14.4405 100.6524 0.0000 0.0000 0.0000
# 4 0.0000 0.0000 0.0000 -5.8125 0.0000 0.0000
# 5 0.0000 0.0000 0.0000 0.0000 10.3316 0.0000
# 6 0.0000 0.0000 0.0000 0.0000 0.0000 94.0885
#
#
#
# Elastic Compliance Matrix: (Units=1/GPa)
#
#
# Indices 1 2 3 4 5 6 
#
# 1 0.006774 -0.002646 -0.005868 0.000000 0.000000 0.000000
# 2 -0.002646 0.023434 -0.000922 0.000000 0.000000 0.000000
# 3 -0.005868 -0.000922 0.015479 0.000000 0.000000 0.000000
# 4 0.000000 0.000000 0.000000 -0.172042 0.000000 0.000000
# 5 0.000000 0.000000 0.000000 0.000000 0.096791 0.000000
# 6 0.000000 0.000000 0.000000 0.000000 0.000000 0.010628
#
#
# Mechanical properties :
#
#
# Convention : Reuss Voigt Hill
#
# Bulk Modulus (GPa) = 37.29104 73.71492 55.50298
# Shear Modulus (GPa) = 563.40161 36.34675 299.87418
#
# Velocity S-wave (km/s) = 16.63750 4.22583 12.13804
# Velocity P-wave (km/s) = 19.68240 7.74772 14.95701
#
# Compressibility (1/GPa) = 0.02681609
#
# Stress axis : x y z
#
# Youngs Moduli (GPa) = 147.61681 42.67242 64.60466
#
# Poissons Ratio (x) = 0.11292 0.37908
# Poissons Ratio (y) = 0.39061 0.05955
# Poissons Ratio (z) = 0.86618 0.03934
#
# Static dielectric constant tensor:
#      x y z
#    x 1.733330 0.000000 0.000000 
#    y 0.000000 1.741650 0.000000 
#    z 0.000000 0.000000 1.666350 
# 
# From -- ./inp_files/28536.got.cif
#   From: 2010.05.17/outbox.cif.g08.bks.cpg/sg47_15_cif.got.tgz:28536.got - 2010.06.03 20:15:42.
