data_PCOD9386425
_publ_section_title
;
Structure prediction by ZEFSAII (Michael W. Deem and Ramdas Pophale) SiO2 
 PCOD9386425
Probable space group: P M M M
;
_chemical_formula_sum "Si O2"
_cell_formula_units_Z 40
_cell_length_a 7.648807
_cell_length_b 9.502236
_cell_length_c 26.420154
_cell_angle_alpha 90.000000
_cell_angle_beta 90.000000
_cell_angle_gamma 90.000000
_cell_volume 1920.237116
_symmetry_space_group_name_H-M "P M M M"
_symmetry_group_IT_number 47
_symmetry_cell_setting 'orthorhombic'
loop_
_space_group_symop_operation_xyz
x,y,z
-x,-y,z
x,-y,-z
-x,y,-z
-x,-y,-z
x,y,-z
-x,y,z
x,-y,z
loop_
_atom_site_type_symbol
_atom_site_label
_atom_site_fract_x
_atom_site_fract_y
_atom_site_fract_z
Si Si1 0.211112 0.338586 0.710210
Si Si2 0.705979 0.840942 0.807714
Si Si3 0.785721 0.161253 0.500000
Si Si4 0.213177 0.337918 0.403533
Si Si5 0.785205 0.162215 0.000000
Si Si6 0.793628 0.658730 0.904358
O O1 0.269213 0.500000 0.720449
O O2 0.265820 0.231881 0.753581
O O3 0.269160 0.298724 0.653378
O O4 0.000000 0.341210 0.709902
O O5 0.500000 0.850049 0.816413
O O6 0.776296 0.740171 0.851602
O O7 0.778953 0.000000 0.809601
O O8 0.727303 0.240502 0.550756
O O9 0.000000 0.164542 0.500000
O O10 0.731368 0.000000 0.500000
O O11 0.263734 0.500000 0.412450
O O12 0.000000 0.334419 0.403532
O O13 0.724616 0.245960 0.049779
O O14 0.000000 0.159647 0.000000
O O15 0.728761 0.000000 0.000000
O O16 0.720480 0.500000 0.902378
O O17 0.000000 0.645205 0.914255
#
# Coordination Sequence:
#
# PCOD9386425 Si02
#       6
#     8   8   4   8   4   8
#     4   9  18  33  53  76  99 127 168 213 254 300
#     4  11  24  38  51  72 103 137 172 210 254 303
#     4   9  15  21  33  59  94 127 158 193 236 288
#     4   8  14  25  41  62  91 125 158 195 242 294
#     4   9  17  31  54  83 112 139 166 200 246 297
#     4  10  20  35  57  83 108 135 170 210 249 293
#
# _framework density 20.830763000000001
#
# number of rings (size 3 to 8) (size 9 to 14) (size 15 to 20)
#    0.000    2.600    0.000    3.600    0.000    8.800 
#    0.000    2.500    0.000    3.000    0.000    0.700 
#    0.000    5.600    0.000    0.000    0.000    0.000 
#
# Total GULP energy -223318.877818 kJ/mol
# GULP energy per Si atom -5582.971945 kJ/mol
# Density = 2.078335 g / cm^3
# Si number density = 20.830763 Si / 1000 Ang^3
#
#
#
# Elastic Constant Matrix: (Units=GPa)
#
#
# Indices 1 2 3 4 5 6 
#
# 1 36.9096 3.6840 -6.9759 0.0000 0.0000 0.0000
# 2 3.6840 197.6697 131.6764 0.0000 0.0000 0.0000
# 3 -6.9759 131.6764 173.7472 0.0000 0.0000 0.0000
# 4 0.0000 0.0000 0.0000 231.8245 0.0000 0.0000
# 5 0.0000 0.0000 0.0000 0.0000 -97.6754 0.0000
# 6 0.0000 0.0000 0.0000 0.0000 0.0000 -5.0069
#
#
#
# Elastic Compliance Matrix: (Units=1/GPa)
#
#
# Indices 1 2 3 4 5 6 
#
# 1 0.027927 -0.002560 0.003061 0.000000 0.000000 0.000000
# 2 -0.002560 0.010451 -0.008024 0.000000 0.000000 0.000000
# 3 0.003061 -0.008024 0.011959 0.000000 0.000000 0.000000
# 4 0.000000 0.000000 0.000000 0.004314 0.000000 0.000000
# 5 0.000000 0.000000 0.000000 0.000000 -0.010238 0.000000
# 6 0.000000 0.000000 0.000000 0.000000 0.000000 -0.199724
#
#
# Mechanical properties :
#
#
# Convention : Reuss Voigt Hill
#
# Bulk Modulus (GPa) = 28.33362 73.89948 51.11655
# Shear Modulus (GPa) = -38.90995 44.49124 2.79065
#
# Velocity S-wave (km/s) = -4.32662 4.62653 1.15870
# Velocity P-wave (km/s) = 3.36573 8.00580 5.13638
#
# Compressibility (1/GPa) = 0.03529376
#
# Stress axis : x y z
#
# Youngs Moduli (GPa) = 35.80732 95.68021 83.61809
#
# Poissons Ratio (x) = 0.24491 -0.25597
# Poissons Ratio (y) = 0.09165 0.67091
# Poissons Ratio (z) = -0.10961 0.76769
#
# Static dielectric constant tensor:
#      x y z
#    x 1.774920 0.000000 0.000000 
#    y 0.000000 1.729160 0.000000 
#    z 0.000000 0.000000 1.713200 
# 
# From -- ./inp_files/13028.got.cif
#   From: 2010.05.17/outbox.cif.g08.bks.cpg/sg47_7_cif.got.tgz:13028.got - 2010.06.03 20:15:42.
