data_PCOD9386558
_publ_section_title
;
Structure prediction by ZEFSAII (Michael W. Deem and Ramdas Pophale) SiO2 
 PCOD9386558
Probable space group: P M M M
;
_chemical_formula_sum "Si O2"
_cell_formula_units_Z 64
_cell_length_a 8.749180
_cell_length_b 14.885924
_cell_length_c 25.627298
_cell_angle_alpha 90.000000
_cell_angle_beta 90.000000
_cell_angle_gamma 90.000000
_cell_volume 3337.689772
_symmetry_space_group_name_H-M "P M M M"
_symmetry_group_IT_number 47
_symmetry_cell_setting 'orthorhombic'
loop_
_space_group_symop_operation_xyz
x,y,z
-x,-y,z
x,-y,-z
-x,y,-z
-x,-y,-z
x,y,-z
-x,y,z
x,-y,z
loop_
_atom_site_type_symbol
_atom_site_label
_atom_site_fract_x
_atom_site_fract_y
_atom_site_fract_z
Si Si1 0.181517 0.896082 0.346240
Si Si2 0.817304 0.600517 0.778322
Si Si3 0.316170 0.400075 0.105264
Si Si4 0.315430 0.209639 0.941080
Si Si5 0.684571 0.206762 0.438425
Si Si6 0.317768 0.403964 0.563109
Si Si7 0.318927 0.782948 0.253278
Si Si8 0.183290 0.895244 0.156741
O O1 0.235729 0.867271 0.403468
O O2 0.267550 0.834315 0.304895
O O3 0.000000 0.883887 0.340730
O O4 0.217420 0.000000 0.336083
O O5 0.773774 0.500000 0.760496
O O6 0.761238 0.609072 0.838217
O O7 0.743126 0.681635 0.747124
O O8 0.000000 0.608162 0.776986
O O9 0.500000 0.397329 0.112412
O O10 0.278088 0.500000 0.084334
O O11 0.274720 0.313791 0.070966
O O12 0.500000 0.202751 0.937300
O O13 0.242013 0.147064 0.897259
O O14 0.270082 0.186028 0.000000
O O15 0.716721 0.197744 0.500000
O O16 0.500000 0.202712 0.432466
O O17 0.738996 0.306324 0.419784
O O18 0.302417 0.403731 0.500000
O O19 0.500000 0.404602 0.573501
O O20 0.253918 0.500000 0.582240
O O21 0.500000 0.781565 0.248345
O O22 0.249988 0.836238 0.203851
O O23 0.000000 0.890350 0.158759
O O24 0.228384 0.000000 0.161596
#
# Coordination Sequence:
#
# PCOD9386558 Si02
#       8
#     8   8   8   8   8   8   8   8
#     4  11  25  43  61  83 114 153 197 245 298 355
#     4  10  20  35  59  90 123 157 190 228 279 341
#     4   9  17  31  53  82 116 154 195 236 281 338
#     4  10  21  36  55  83 118 156 198 244 293 344
#     4   9  18  34  58  88 120 155 196 241 290 345
#     4   7  10  20  43  76 111 145 182 224 269 319
#     4  12  24  40  65  92 117 147 188 240 296 352
#     4  11  24  41  61  84 111 148 194 242 299 363
#
# _framework density 19.174938999999998
#
# number of rings (size 3 to 8) (size 9 to 14) (size 15 to 20)
#    0.000    2.125    1.250    3.750    0.000    5.500 
#    0.000    4.375    0.000    2.625    0.000    4.375 
#    0.000    0.000    0.000    0.000    0.000    0.000 
#
# Total GULP energy -357196.824137 kJ/mol
# GULP energy per Si atom -5581.200377 kJ/mol
# Density = 1.913130 g / cm^3
# Si number density = 19.174939 Si / 1000 Ang^3
#
#
#
# Elastic Constant Matrix: (Units=GPa)
#
#
# Indices 1 2 3 4 5 6 
#
# 1 38.3229 46.9109 23.5559 0.0000 0.0000 0.0000
# 2 46.9109 120.1021 39.6185 0.0000 0.0000 0.0000
# 3 23.5559 39.6185 44.2834 0.0000 0.0000 0.0000
# 4 0.0000 0.0000 0.0000 2.8170 0.0000 0.0000
# 5 0.0000 0.0000 0.0000 0.0000 38.5296 0.0000
# 6 0.0000 0.0000 0.0000 0.0000 0.0000 27.8867
#
#
#
# Elastic Compliance Matrix: (Units=1/GPa)
#
#
# Indices 1 2 3 4 5 6 
#
# 1 0.055842 -0.017042 -0.014457 0.000000 0.000000 0.000000
# 2 -0.017042 0.017013 -0.006156 0.000000 0.000000 0.000000
# 3 -0.014457 -0.006156 0.035779 0.000000 0.000000 0.000000
# 4 0.000000 0.000000 0.000000 0.354992 0.000000 0.000000
# 5 0.000000 0.000000 0.000000 0.000000 0.025954 0.000000
# 6 0.000000 0.000000 0.000000 0.000000 0.000000 0.035859
#
#
# Mechanical properties :
#
#
# Convention : Reuss Voigt Hill
#
# Bulk Modulus (GPa) = 30.00830 46.98655 38.49743
# Shear Modulus (GPa) = 8.17182 20.02152 14.09667
#
# Velocity S-wave (km/s) = 2.06663 3.23484 2.71433
# Velocity P-wave (km/s) = 4.62367 6.20561 5.47211
#
# Compressibility (1/GPa) = 0.03332411
#
# Stress axis : x y z
#
# Youngs Moduli (GPa) = 17.90769 58.77692 27.94898
#
# Poissons Ratio (x) = 1.00170 0.40407
# Poissons Ratio (y) = 0.30519 0.17205
# Poissons Ratio (z) = 0.25890 0.36182
#
# Static dielectric constant tensor:
#      x y z
#    x 1.645350 0.000000 0.000000 
#    y 0.000000 1.697660 0.000000 
#    z 0.000000 0.000000 1.652820 
# 
# From -- ./inp_files/21926.got.cif
#   From: 2010.05.17/outbox.cif.g08.bks.cpg/sg47_11_cif.got.tgz:21926.got - 2010.06.03 20:15:42.
