data_PCOD9386762
_publ_section_title
;
Structure prediction by ZEFSAII (Michael W. Deem and Ramdas Pophale) SiO2 
 PCOD9386762
Probable space group: P M M M
;
_chemical_formula_sum "Si O2"
_cell_formula_units_Z 34
_cell_length_a 20.195389
_cell_length_b 9.243261
_cell_length_c 9.655137
_cell_angle_alpha 90.000000
_cell_angle_beta 90.000000
_cell_angle_gamma 90.000000
_cell_volume 1802.336507
_symmetry_space_group_name_H-M "P M M M"
_symmetry_group_IT_number 47
_symmetry_cell_setting 'orthorhombic'
loop_
_space_group_symop_operation_xyz
x,y,z
-x,-y,z
x,-y,-z
-x,y,-z
-x,-y,-z
x,y,-z
-x,y,z
x,-y,z
loop_
_atom_site_type_symbol
_atom_site_label
_atom_site_fract_x
_atom_site_fract_y
_atom_site_fract_z
Si Si1 0.614421 0.827697 0.162788
Si Si2 0.500000 0.326869 0.334772
Si Si3 0.000000 0.730129 0.250681
Si Si4 0.000000 0.500000 0.000000
Si Si5 0.000000 0.500000 0.500000
Si Si6 0.754148 0.670164 0.838595
Si Si7 0.861239 0.164174 0.335373
O O1 0.563200 0.745908 0.261358
O O2 0.687361 0.761451 0.183288
O O3 0.613727 0.000000 0.188119
O O4 0.596855 0.804943 0.000000
O O5 0.500000 0.500000 0.312264
O O6 0.500000 0.300919 0.500000
O O7 0.000000 0.624579 0.381170
O O8 0.932864 0.821065 0.265322
O O9 0.000000 0.627309 0.118943
O O10 0.741101 0.500000 0.816985
O O11 0.811344 0.726161 0.738373
O O12 0.774286 0.688852 0.000000
O O13 0.866317 0.193375 0.500000
O O14 0.836466 0.000000 0.318053
#
# Coordination Sequence:
#
# PCOD9386762 Si02
#       7
#     8   4   4   1   1   8   8
#     4  10  21  40  64  91 121 159 202 246 299 359
#     4  11  24  39  60  90 126 161 202 249 296 350
#     4  11  23  41  62  89 121 156 199 251 302 363
#     4  10  28  38  62  94 124 146 198 252 312 350
#     4  10  20  38  66  86 116 158 198 244 308 350
#     4  10  23  40  63  90 122 157 200 248 299 355
#     4  11  24  41  62  88 120 160 202 247 299 360
#
# _framework density 18.864401999999998
#
# number of rings (size 3 to 8) (size 9 to 14) (size 15 to 20)
#    0.000    1.529    1.176    2.471    4.941    7.529 
#    0.000    0.588    0.000    0.000    0.000    0.000 
#    0.000    0.000    0.000    0.000    0.000    0.000 
#
# Total GULP energy -189408.204233 kJ/mol
# GULP energy per Si atom -5570.829536 kJ/mol
# Density = 1.882147 g / cm^3
# Si number density = 18.864402 Si / 1000 Ang^3
#
#
#
# Elastic Constant Matrix: (Units=GPa)
#
#
# Indices 1 2 3 4 5 6 
#
# 1 94.8321 53.4391 57.9171 0.0000 0.0000 0.0000
# 2 53.4391 123.7316 70.0311 0.0000 0.0000 0.0000
# 3 57.9171 70.0311 125.2616 0.0000 0.0000 0.0000
# 4 0.0000 0.0000 0.0000 38.7916 0.0000 0.0000
# 5 0.0000 0.0000 0.0000 0.0000 -38.5207 0.0000
# 6 0.0000 0.0000 0.0000 0.0000 0.0000 174.6494
#
#
#
# Elastic Compliance Matrix: (Units=1/GPa)
#
#
# Indices 1 2 3 4 5 6 
#
# 1 0.015921 -0.003964 -0.005145 0.000000 0.000000 0.000000
# 2 -0.003964 0.012810 -0.005329 0.000000 0.000000 0.000000
# 3 -0.005145 -0.005329 0.013342 0.000000 0.000000 0.000000
# 4 0.000000 0.000000 0.000000 0.025779 0.000000 0.000000
# 5 0.000000 0.000000 0.000000 0.000000 -0.025960 0.000000
# 6 0.000000 0.000000 0.000000 0.000000 0.000000 0.005726
#
#
# Mechanical properties :
#
#
# Convention : Reuss Voigt Hill
#
# Bulk Modulus (GPa) = 75.77882 78.51111 77.14496
# Shear Modulus (GPa) = 61.81002 45.81327 53.81164
#
# Velocity S-wave (km/s) = 5.73032 4.93339 5.34672
# Velocity P-wave (km/s) = 9.16731 8.61162 8.89381
#
# Compressibility (1/GPa) = 0.01319630
#
# Stress axis : x y z
#
# Youngs Moduli (GPa) = 62.80972 78.06203 74.95330
#
# Poissons Ratio (x) = 0.30945 0.38565
# Poissons Ratio (y) = 0.24899 0.39943
# Poissons Ratio (z) = 0.32317 0.41600
#
# Static dielectric constant tensor:
#      x y z
#    x 1.661320 0.000000 0.000000 
#    y 0.000000 1.634690 0.000000 
#    z 0.000000 0.000000 1.622860 
# 
# From -- ./inp_files/1228.got.cif
#   From: 2010.05.17/outbox.cif.g08.bks.cpg/sg47_1_cif.got.tgz:1228.got - 2010.06.03 20:15:42.
