data_PCOD9386353
_publ_section_title
;
Structure prediction by ZEFSAII (Michael W. Deem and Ramdas Pophale) SiO2 
 PCOD9386353
Probable space group: P M M M
;
_chemical_formula_sum "Si O2"
_cell_formula_units_Z 32
_cell_length_a 10.865694
_cell_length_b 18.126817
_cell_length_c 7.668676
_cell_angle_alpha 90.000000
_cell_angle_beta 90.000000
_cell_angle_gamma 90.000000
_cell_volume 1510.425851
_symmetry_space_group_name_H-M "P M M M"
_symmetry_group_IT_number 47
_symmetry_cell_setting 'orthorhombic'
loop_
_space_group_symop_operation_xyz
x,y,z
-x,-y,z
x,-y,-z
-x,y,-z
-x,-y,-z
x,y,-z
-x,y,z
x,-y,z
loop_
_atom_site_type_symbol
_atom_site_label
_atom_site_fract_x
_atom_site_fract_y
_atom_site_fract_z
Si Si1 0.760744 0.349717 0.706074
Si Si2 0.855923 0.500000 0.301525
Si Si3 0.139582 0.806503 0.709391
Si Si4 0.500000 0.412524 0.790228
Si Si5 0.636768 0.915327 0.209746
O O1 0.792831 0.348551 0.500000
O O2 0.818101 0.423889 0.785326
O O3 0.811600 0.272805 0.776932
O O4 0.617294 0.366510 0.726660
O O5 0.800783 0.500000 0.500000
O O6 0.000000 0.500000 0.318518
O O7 0.131500 0.802057 0.500000
O O8 0.246089 0.865938 0.744632
O O9 0.000000 0.822412 0.773258
O O10 0.500000 0.500000 0.733249
O O11 0.500000 0.414122 0.000000
O O12 0.500000 0.889081 0.269799
O O13 0.651968 0.000000 0.270443
O O14 0.632043 0.916856 0.000000
#
# Coordination Sequence:
#
# PCOD9386353 Si02
#       5
#     8   4   8   4   8
#     4  10  20  35  56  80 109 145 187 230 276 333
#     4   9  16  29  53  78 100 137 186 229 268 317
#     4  10  22  38  57  87 122 150 184 235 290 341
#     4  11  23  37  53  77 110 145 186 237 289 334
#     4   9  20  40  63  86 114 151 194 234 276 335
#
# _framework density 21.186078999999999
#
# number of rings (size 3 to 8) (size 9 to 14) (size 15 to 20)
#    0.000    2.250    1.250    1.875    1.750    6.500 
#    0.000    3.750    0.000    3.000    0.000    0.000 
#    0.000    0.000    0.000    0.000    0.000    0.000 
#
# Total GULP energy -178418.612304 kJ/mol
# GULP energy per Si atom -5575.581634 kJ/mol
# Density = 2.113786 g / cm^3
# Si number density = 21.186079 Si / 1000 Ang^3
#
#
#
# Elastic Constant Matrix: (Units=GPa)
#
#
# Indices 1 2 3 4 5 6 
#
# 1 201.3221 119.0493 -0.4845 0.0000 0.0000 0.0000
# 2 119.0493 152.1612 10.3458 0.0000 0.0000 0.0000
# 3 -0.4845 10.3458 44.7251 0.0000 0.0000 0.0000
# 4 0.0000 0.0000 0.0000 64.4223 0.0000 0.0000
# 5 0.0000 0.0000 0.0000 0.0000 20.5531 0.0000
# 6 0.0000 0.0000 0.0000 0.0000 0.0000 3.1238
#
#
#
# Elastic Compliance Matrix: (Units=1/GPa)
#
#
# Indices 1 2 3 4 5 6 
#
# 1 0.009389 -0.007470 0.001830 0.000000 0.000000 0.000000
# 2 -0.007470 0.012621 -0.003000 0.000000 0.000000 0.000000
# 3 0.001830 -0.003000 0.023073 0.000000 0.000000 0.000000
# 4 0.000000 0.000000 0.000000 0.015523 0.000000 0.000000
# 5 0.000000 0.000000 0.000000 0.000000 0.048655 0.000000
# 6 0.000000 0.000000 0.000000 0.000000 0.000000 0.320127
#
#
# Mechanical properties :
#
#
# Convention : Reuss Voigt Hill
#
# Bulk Modulus (GPa) = 35.97048 72.89218 54.43133
# Shear Modulus (GPa) = 10.96649 35.57302 23.26975
#
# Velocity S-wave (km/s) = 2.27761 4.10210 3.31773
# Velocity P-wave (km/s) = 4.89202 7.54431 6.35801
#
# Compressibility (1/GPa) = 0.02780057
#
# Stress axis : x y z
#
# Youngs Moduli (GPa) = 106.50735 79.23525 43.34135
#
# Poissons Ratio (x) = 0.59191 -0.07930
# Poissons Ratio (y) = 0.79564 0.13004
# Poissons Ratio (z) = -0.19488 0.23773
#
# Static dielectric constant tensor:
#      x y z
#    x 1.961410 0.000000 0.000000 
#    y 0.000000 1.776010 0.000000 
#    z 0.000000 0.000000 1.811040 
# 
# From -- ./inp_files/3409.got.cif
#   From: 2010.05.17/outbox.cif.g08.bks.cpg/sg47_2_cif.got.tgz:3409.got - 2010.06.03 20:15:42.
