data_PCOD9386117
_publ_section_title
;
Structure prediction by ZEFSAII (Michael W. Deem and Ramdas Pophale) SiO2 
 PCOD9386117
Probable space group: P M M M
;
_chemical_formula_sum "Si O2"
_cell_formula_units_Z 52
_cell_length_a 29.070734
_cell_length_b 8.935542
_cell_length_c 11.817523
_cell_angle_alpha 90.000000
_cell_angle_beta 90.000000
_cell_angle_gamma 90.000000
_cell_volume 3069.752446
_symmetry_space_group_name_H-M "P M M M"
_symmetry_group_IT_number 47
_symmetry_cell_setting 'orthorhombic'
loop_
_space_group_symop_operation_xyz
x,y,z
-x,-y,z
x,-y,-z
-x,y,-z
-x,-y,-z
x,y,-z
-x,y,z
x,-y,z
loop_
_atom_site_type_symbol
_atom_site_label
_atom_site_fract_x
_atom_site_fract_y
_atom_site_fract_z
Si Si1 0.412698 0.179760 0.744117
Si Si2 0.270027 0.179747 0.500000
Si Si3 0.764841 0.321403 0.270058
Si Si4 0.622197 0.818153 0.500000
Si Si5 0.316142 0.174748 0.134585
Si Si6 0.500000 0.679382 0.867774
Si Si7 0.854547 0.319928 0.868662
Si Si8 0.949630 0.175984 0.863029
O O1 0.403304 0.228481 0.614798
O O2 0.365627 0.209462 0.811998
O O3 0.455208 0.258175 0.804256
O O4 0.420223 0.000000 0.744859
O O5 0.245519 0.242321 0.611407
O O6 0.324066 0.227638 0.500000
O O7 0.269296 0.000000 0.500000
O O8 0.766293 0.500000 0.285564
O O9 0.723054 0.276557 0.187920
O O10 0.812177 0.272357 0.209713
O O11 0.622796 0.000000 0.500000
O O12 0.306065 0.000000 0.162686
O O13 0.317802 0.189837 0.000000
O O14 0.500000 0.500000 0.864336
O O15 0.500000 0.726391 0.000000
O O16 0.855663 0.500000 0.869718
O O17 0.903728 0.260211 0.826392
O O18 0.847615 0.270622 0.000000
O O19 0.000000 0.230534 0.823092
O O20 0.946069 0.000000 0.836118
O O21 0.950218 0.188343 0.000000
#
# Coordination Sequence:
#
# PCOD9386117 Si02
#       8
#     8   4   8   4   8   4   8   8
#     4  10  20  38  62  84 106 139 179 217 259 309
#     4  11  21  39  60  78 104 137 179 226 265 311
#     4  11  22  35  52  77 108 142 177 217 270 322
#     4   9  18  36  62  85 106 131 170 221 262 303
#     4  10  20  34  55  82 108 139 181 220 258 312
#     4  11  25  42  57  80 114 145 174 215 266 315
#     4   9  18  31  46  69 105 144 178 213 255 312
#     4   8  14  25  42  66  97 133 174 220 266 310
#
# _framework density 16.939475999999999
#
# number of rings (size 3 to 8) (size 9 to 14) (size 15 to 20)
#    0.000    2.231    1.538    2.308    0.000    4.615 
#    0.000    5.000    0.000    0.000    0.000    0.538 
#    0.000    4.308    0.000    0.000    0.000    0.000 
#
# Total GULP energy -290066.356375 kJ/mol
# GULP energy per Si atom -5578.199161 kJ/mol
# Density = 1.690092 g / cm^3
# Si number density = 16.939476 Si / 1000 Ang^3
#
#
#
# Elastic Constant Matrix: (Units=GPa)
#
#
# Indices 1 2 3 4 5 6 
#
# 1 158.9008 49.7392 79.5916 0.0000 0.0000 0.0000
# 2 49.7392 30.8952 35.4455 0.0000 0.0000 0.0000
# 3 79.5916 35.4455 107.3864 0.0000 0.0000 0.0000
# 4 0.0000 0.0000 0.0000 23.2265 0.0000 0.0000
# 5 0.0000 0.0000 0.0000 0.0000 -5.1317 0.0000
# 6 0.0000 0.0000 0.0000 0.0000 0.0000 39.4419
#
#
#
# Elastic Compliance Matrix: (Units=1/GPa)
#
#
# Indices 1 2 3 4 5 6 
#
# 1 0.014041 -0.017167 -0.004741 0.000000 0.000000 0.000000
# 2 -0.017167 0.073083 -0.011399 0.000000 0.000000 0.000000
# 3 -0.004741 -0.011399 0.016589 0.000000 0.000000 0.000000
# 4 0.000000 0.000000 0.000000 0.043054 0.000000 0.000000
# 5 0.000000 0.000000 0.000000 0.000000 -0.194866 0.000000
# 6 0.000000 0.000000 0.000000 0.000000 0.000000 0.025354
#
#
# Mechanical properties :
#
#
# Convention : Reuss Voigt Hill
#
# Bulk Modulus (GPa) = 26.95482 69.63721 48.29601
# Shear Modulus (GPa) = 88.91365 20.33441 54.62403
#
# Velocity S-wave (km/s) = 7.25279 3.46846 5.68477
# Velocity P-wave (km/s) = 9.27816 7.56564 8.46532
#
# Compressibility (1/GPa) = 0.03709912
#
# Stress axis : x y z
#
# Youngs Moduli (GPa) = 71.21845 13.68314 60.28272
#
# Poissons Ratio (x) = 0.23489 0.28579
# Poissons Ratio (y) = 1.22257 0.68718
# Poissons Ratio (z) = 0.33763 0.15598
#
# Static dielectric constant tensor:
#      x y z
#    x 1.563810 0.000000 0.000000 
#    y 0.000000 1.571780 0.000000 
#    z 0.000000 0.000000 1.563110 
# 
# From -- ./inp_files/4611.got.cif
#   From: 2010.05.17/outbox.cif.g08.bks.cpg/sg47_3_cif.got.tgz:4611.got - 2010.06.03 20:15:42.
