data_PCOD9386465
_publ_section_title
;
Structure prediction by ZEFSAII (Michael W. Deem and Ramdas Pophale) SiO2 
 PCOD9386465
Probable space group: P M M M
;
_chemical_formula_sum "Si O2"
_cell_formula_units_Z 48
_cell_length_a 9.083983
_cell_length_b 32.053892
_cell_length_c 9.111526
_cell_angle_alpha 90.000000
_cell_angle_beta 90.000000
_cell_angle_gamma 90.000000
_cell_volume 2653.066897
_symmetry_space_group_name_H-M "P M M M"
_symmetry_group_IT_number 47
_symmetry_cell_setting 'orthorhombic'
loop_
_space_group_symop_operation_xyz
x,y,z
-x,-y,z
x,-y,-z
-x,y,-z
-x,-y,-z
x,y,-z
-x,y,z
x,-y,z
loop_
_atom_site_type_symbol
_atom_site_label
_atom_site_fract_x
_atom_site_fract_y
_atom_site_fract_z
Si Si1 0.322042 0.591206 0.173053
Si Si2 0.330552 0.000000 0.178556
Si Si3 0.825821 0.914214 0.823716
Si Si4 0.325117 0.165050 0.325744
Si Si5 0.176400 0.330517 0.328163
Si Si6 0.823636 0.244088 0.173571
Si Si7 0.328371 0.500000 0.178478
O O1 0.500000 0.591554 0.185071
O O2 0.253826 0.628946 0.262402
O O3 0.267292 0.545130 0.223162
O O4 0.286792 0.595986 0.000000
O O5 0.247808 0.042176 0.223536
O O6 0.500000 0.000000 0.227159
O O7 0.329920 0.000000 0.000000
O O8 0.750941 0.875369 0.744443
O O9 0.000000 0.915060 0.795288
O O10 0.805383 0.909921 0.000000
O O11 0.298558 0.166106 0.500000
O O12 0.500000 0.163224 0.300238
O O13 0.258272 0.206264 0.252023
O O14 0.210108 0.325804 0.500000
O O15 0.219984 0.288542 0.242307
O O16 0.000000 0.335114 0.312113
O O17 0.000000 0.239198 0.194956
O O18 0.794536 0.243662 0.000000
O O19 0.500000 0.500000 0.222745
O O20 0.326582 0.500000 0.000000
#
# Coordination Sequence:
#
# PCOD9386465 Si02
#       7
#     8   4   8   8   8   8   4
#     4   9  17  31  53  78 102 132 173 219 264 310
#     4   9  17  31  54  83 114 147 182 224 272 315
#     4  10  20  35  57  84 112 144 184 226 267 315
#     4  11  24  39  55  79 111 144 177 216 264 316
#     4  10  21  36  53  75 106 142 175 210 258 314
#     4  10  21  38  60  82 102 131 174 219 262 312
#     4   7  12  26  48  73 100 130 168 215 262 307
#
# _framework density 18.092268000000001
#
# number of rings (size 3 to 8) (size 9 to 14) (size 15 to 20)
#    0.000    2.333    0.000    3.750    0.000    8.333 
#    0.000    1.250    0.000    6.500    0.000    0.000 
#    0.000    0.000    0.000    0.000    0.000    0.000 
#
# Total GULP energy -267887.311115 kJ/mol
# GULP energy per Si atom -5580.985648 kJ/mol
# Density = 1.805109 g / cm^3
# Si number density = 18.092268 Si / 1000 Ang^3
#
#
#
# Elastic Constant Matrix: (Units=GPa)
#
#
# Indices 1 2 3 4 5 6 
#
# 1 68.7445 87.7806 68.0103 0.0000 0.0000 0.0000
# 2 87.7806 222.1286 88.2597 0.0000 0.0000 0.0000
# 3 68.0103 88.2597 75.4730 0.0000 0.0000 0.0000
# 4 0.0000 0.0000 0.0000 -25.9582 0.0000 0.0000
# 5 0.0000 0.0000 0.0000 0.0000 25.5844 0.0000
# 6 0.0000 0.0000 0.0000 0.0000 0.0000 37.9450
#
#
#
# Elastic Compliance Matrix: (Units=1/GPa)
#
#
# Indices 1 2 3 4 5 6 
#
# 1 0.145202 -0.010071 -0.119067 0.000000 0.000000 0.000000
# 2 -0.010071 0.009108 -0.001576 0.000000 0.000000 0.000000
# 3 -0.119067 -0.001576 0.122386 0.000000 0.000000 0.000000
# 4 0.000000 0.000000 0.000000 -0.038523 0.000000 0.000000
# 5 0.000000 0.000000 0.000000 0.000000 0.039086 0.000000
# 6 0.000000 0.000000 0.000000 0.000000 0.000000 0.026354
#
#
# Mechanical properties :
#
#
# Convention : Reuss Voigt Hill
#
# Bulk Modulus (GPa) = 65.49531 94.93860 80.21695
# Shear Modulus (GPa) = 8.76995 15.66728 12.21862
#
# Velocity S-wave (km/s) = 2.20406 2.94592 2.60157
# Velocity P-wave (km/s) = 6.53884 8.00999 7.31151
#
# Compressibility (1/GPa) = 0.01526827
#
# Stress axis : x y z
#
# Youngs Moduli (GPa) = 6.88698 109.79565 8.17088
#
# Poissons Ratio (x) = 1.10576 0.97288
# Poissons Ratio (y) = 0.06936 0.01287
# Poissons Ratio (z) = 0.82001 0.17300
#
# Static dielectric constant tensor:
#      x y z
#    x 1.606460 0.000000 0.000000 
#    y 0.000000 1.604900 0.000000 
#    z 0.000000 0.000000 1.599150 
# 
# From -- ./inp_files/2594.got.cif
#   From: 2010.05.17/outbox.cif.g08.bks.cpg/sg47_2_cif.got.tgz:2594.got - 2010.06.03 20:15:42.
