data_PCOD9386734
_publ_section_title
;
Structure prediction by ZEFSAII (Michael W. Deem and Ramdas Pophale) SiO2 
 PCOD9386734
Probable space group: P M M M
;
_chemical_formula_sum "Si O2"
_cell_formula_units_Z 44
_cell_length_a 7.625370
_cell_length_b 31.487281
_cell_length_c 8.410875
_cell_angle_alpha 90.000000
_cell_angle_beta 90.000000
_cell_angle_gamma 90.000000
_cell_volume 2019.469322
_symmetry_space_group_name_H-M "P M M M"
_symmetry_group_IT_number 47
_symmetry_cell_setting 'orthorhombic'
loop_
_space_group_symop_operation_xyz
x,y,z
-x,-y,z
x,-y,-z
-x,y,-z
-x,-y,-z
x,y,-z
-x,y,z
x,-y,z
loop_
_atom_site_type_symbol
_atom_site_label
_atom_site_fract_x
_atom_site_fract_y
_atom_site_fract_z
Si Si1 0.714409 0.815334 0.180398
Si Si2 0.210807 0.634912 0.319428
Si Si3 0.212386 0.454368 0.812414
Si Si4 0.289854 0.273615 0.681846
Si Si5 0.207967 0.952298 0.000000
Si Si6 0.289572 0.097907 0.674753
O O1 0.500000 0.814919 0.183841
O O2 0.774524 0.768550 0.230967
O O3 0.772028 0.853824 0.292403
O O4 0.767311 0.824739 0.000000
O O5 0.276244 0.637872 0.500000
O O6 0.278807 0.590492 0.251567
O O7 0.251681 0.680414 0.242078
O O8 0.000000 0.631942 0.320918
O O9 0.274870 0.500000 0.745543
O O10 0.000000 0.454253 0.791693
O O11 0.246474 0.454758 0.000000
O O12 0.221660 0.273421 0.500000
O O13 0.500000 0.270322 0.674573
O O14 0.253038 0.928614 0.165126
O O15 0.000000 0.955223 0.000000
O O16 0.283476 0.000000 0.000000
O O17 0.225555 0.082860 0.500000
O O18 0.500000 0.099152 0.665305
#
# Coordination Sequence:
#
# PCOD9386734 Si02
#       6
#     8   8   8   8   4   8
#     4   9  16  29  52  80 107 135 173 222 269 315
#     4   9  17  28  42  62  88 115 147 193 243 287
#     4   8  14  25  41  60  81 107 142 185 234 288
#     4   9  17  29  45  66  94 129 164 195 239 305
#     4  11  25  43  61  85 123 165 199 235 284 347
#     4  10  20  37  64  93 118 149 194 248 297 336
#
# _framework density 21.787903
#
# number of rings (size 3 to 8) (size 9 to 14) (size 15 to 20)
#    0.000    2.818    0.909    1.364    0.000    4.727 
#    0.000    4.545    0.000    2.727    0.000    3.818 
#    0.000    0.000    0.000    0.000    0.000    0.000 
#
# Total GULP energy -245225.406352 kJ/mol
# GULP energy per Si atom -5573.304690 kJ/mol
# Density = 2.173831 g / cm^3
# Si number density = 21.787903 Si / 1000 Ang^3
#
#
#
# Elastic Constant Matrix: (Units=GPa)
#
#
# Indices 1 2 3 4 5 6 
#
# 1 43.1625 6.2603 10.0230 0.0000 0.0000 0.0000
# 2 6.2603 189.1402 80.6356 0.0000 0.0000 0.0000
# 3 10.0230 80.6356 112.7966 0.0000 0.0000 0.0000
# 4 0.0000 0.0000 0.0000 -8.0129 0.0000 0.0000
# 5 0.0000 0.0000 0.0000 0.0000 -2.4615 0.0000
# 6 0.0000 0.0000 0.0000 0.0000 0.0000 20.9785
#
#
#
# Elastic Compliance Matrix: (Units=1/GPa)
#
#
# Indices 1 2 3 4 5 6 
#
# 1 0.023660 0.000163 -0.002219 0.000000 0.000000 0.000000
# 2 0.000163 0.007606 -0.005452 0.000000 0.000000 0.000000
# 3 -0.002219 -0.005452 0.012960 0.000000 0.000000 0.000000
# 4 0.000000 0.000000 0.000000 -0.124799 0.000000 0.000000
# 5 0.000000 0.000000 0.000000 0.000000 -0.406253 0.000000
# 6 0.000000 0.000000 0.000000 0.000000 0.000000 0.047668
#
#
# Mechanical properties :
#
#
# Convention : Reuss Voigt Hill
#
# Bulk Modulus (GPa) = 34.23445 59.88191 47.05818
# Shear Modulus (GPa) = -12.06547 18.64617 3.29035
#
# Velocity S-wave (km/s) = -2.35578 2.92859 1.23022
# Velocity P-wave (km/s) = 2.88913 6.24333 4.86448
#
# Compressibility (1/GPa) = 0.02921034
#
# Stress axis : x y z
#
# Youngs Moduli (GPa) = 42.26564 131.47631 77.16038
#
# Poissons Ratio (x) = -0.02141 0.17120
# Poissons Ratio (y) = -0.00688 0.42066
# Poissons Ratio (z) = 0.09378 0.71678
#
# Static dielectric constant tensor:
#      x y z
#    x 1.826150 0.000000 0.000000 
#    y 0.000000 1.841240 0.000000 
#    z 0.000000 0.000000 1.822560 
# 
# From -- ./inp_files/1967.got.cif
#   From: 2010.05.17/outbox.cif.g08.bks.cpg/sg47_1_cif.got.tgz:1967.got - 2010.06.03 20:15:42.
