data_PCOD9386073
_publ_section_title
;
Structure prediction by ZEFSAII (Michael W. Deem and Ramdas Pophale) SiO2 
 PCOD9386073
Probable space group: P M M M
;
_chemical_formula_sum "Si O2"
_cell_formula_units_Z 44
_cell_length_a 18.457261
_cell_length_b 8.769634
_cell_length_c 14.536515
_cell_angle_alpha 90.000000
_cell_angle_beta 90.000000
_cell_angle_gamma 90.000000
_cell_volume 2352.930085
_symmetry_space_group_name_H-M "P M M M"
_symmetry_group_IT_number 47
_symmetry_cell_setting 'orthorhombic'
loop_
_space_group_symop_operation_xyz
x,y,z
-x,-y,z
x,-y,-z
-x,y,-z
-x,-y,-z
x,y,-z
-x,y,z
x,-y,z
loop_
_atom_site_type_symbol
_atom_site_label
_atom_site_fract_x
_atom_site_fract_y
_atom_site_fract_z
Si Si1 0.080452 0.683744 0.782865
Si Si2 0.148500 0.182203 0.395513
Si Si3 0.776184 0.316273 0.107949
Si Si4 0.500000 0.316960 0.107787
Si Si5 0.361997 0.181513 0.212180
Si Si6 0.690084 0.682244 0.394868
O O1 0.082266 0.500000 0.776332
O O2 0.097177 0.752338 0.682936
O O3 0.146138 0.728681 0.849852
O O4 0.000000 0.728790 0.814334
O O5 0.124345 0.216636 0.500000
O O6 0.228032 0.255638 0.383356
O O7 0.154741 0.000000 0.386349
O O8 0.768435 0.500000 0.118317
O O9 0.711778 0.236832 0.163125
O O10 0.772081 0.280707 0.000000
O O11 0.500000 0.500000 0.113848
O O12 0.429152 0.252025 0.157437
O O13 0.500000 0.274716 0.000000
O O14 0.358345 0.242297 0.316527
O O15 0.366096 0.000000 0.211279
O O16 0.667897 0.716917 0.500000
O O17 0.690851 0.500000 0.383009
#
# Coordination Sequence:
#
# PCOD9386073 Si02
#       6
#     8   8   8   4   8   8
#     4  10  21  36  55  81 114 154 201 251 300 353
#     4  10  20  34  54  82 115 152 194 242 299 357
#     4  10  21  38  60  84 113 154 203 249 297 357
#     4  11  25  45  68  93 124 163 205 248 294 345
#     4  12  24  39  63  94 127 159 194 242 298 355
#     4  10  20  36  61  90 120 157 200 243 288 347
#
# _framework density 18.700088000000001
#
# number of rings (size 3 to 8) (size 9 to 14) (size 15 to 20)
#    0.000    1.545    1.818    3.545    0.000    6.545 
#    0.000    4.091    0.000    2.727    0.000    2.545 
#    0.000    0.000    0.000    0.000    0.000    0.000 
#
# Total GULP energy -245893.877244 kJ/mol
# GULP energy per Si atom -5588.497210 kJ/mol
# Density = 1.865753 g / cm^3
# Si number density = 18.700088 Si / 1000 Ang^3
#
#
#
# Elastic Constant Matrix: (Units=GPa)
#
#
# Indices 1 2 3 4 5 6 
#
# 1 127.5190 50.2821 77.8380 0.0000 0.0000 0.0000
# 2 50.2821 53.9779 52.5052 0.0000 0.0000 0.0000
# 3 77.8380 52.5052 128.6183 0.0000 0.0000 0.0000
# 4 0.0000 0.0000 0.0000 14.4560 0.0000 0.0000
# 5 0.0000 0.0000 0.0000 0.0000 12.4755 0.0000
# 6 0.0000 0.0000 0.0000 0.0000 0.0000 -583.1498
#
#
#
# Elastic Compliance Matrix: (Units=1/GPa)
#
#
# Indices 1 2 3 4 5 6 
#
# 1 0.014309 -0.008137 -0.005338 0.000000 0.000000 0.000000
# 2 -0.008137 0.035355 -0.009508 0.000000 0.000000 0.000000
# 3 -0.005338 -0.009508 0.014887 0.000000 0.000000 0.000000
# 4 0.000000 0.000000 0.000000 0.069175 0.000000 0.000000
# 5 0.000000 0.000000 0.000000 0.000000 0.080157 0.000000
# 6 0.000000 0.000000 0.000000 0.000000 0.000000 -0.001715
#
#
# Mechanical properties :
#
#
# Convention : Reuss Voigt Hill
#
# Bulk Modulus (GPa) = 53.80877 74.59620 64.20248
# Shear Modulus (GPa) = 18.91586 -102.61101 -41.84757
#
# Velocity S-wave (km/s) = 3.18392 -7.41560 -4.73570
# Velocity P-wave (km/s) = 6.50796 5.77443 2.12245
#
# Compressibility (1/GPa) = 0.01858433
#
# Stress axis : x y z
#
# Youngs Moduli (GPa) = 69.88831 28.28464 67.17342
#
# Poissons Ratio (x) = 0.23015 0.35855
# Poissons Ratio (y) = 0.56867 0.63872
# Poissons Ratio (z) = 0.37304 0.26894
#
# Static dielectric constant tensor:
#      x y z
#    x 1.627140 0.000000 0.000000 
#    y 0.000000 1.622070 0.000000 
#    z 0.000000 0.000000 1.641550 
# 
# From -- ./inp_files/8992.got.cif
#   From: 2010.05.17/outbox.cif.g08.bks.cpg/sg47_5_cif.got.tgz:8992.got - 2010.06.03 20:15:42.
