data_PCOD9386037
_publ_section_title
;
Structure prediction by ZEFSAII (Michael W. Deem and Ramdas Pophale) SiO2 
 PCOD9386037
Probable space group: P M M M
;
_chemical_formula_sum "Si O2"
_cell_formula_units_Z 48
_cell_length_a 9.287940
_cell_length_b 9.220787
_cell_length_c 31.563578
_cell_angle_alpha 90.000000
_cell_angle_beta 90.000000
_cell_angle_gamma 90.000000
_cell_volume 2703.171621
_symmetry_space_group_name_H-M "P M M M"
_symmetry_group_IT_number 47
_symmetry_cell_setting 'orthorhombic'
loop_
_space_group_symop_operation_xyz
x,y,z
-x,-y,z
x,-y,-z
-x,y,-z
-x,-y,-z
x,y,-z
-x,y,z
x,-y,z
loop_
_atom_site_type_symbol
_atom_site_label
_atom_site_fract_x
_atom_site_fract_y
_atom_site_fract_z
Si Si1 0.327247 0.170464 0.826639
Si Si2 0.827579 0.669496 0.249461
Si Si3 0.829676 0.671957 0.000000
Si Si4 0.670739 0.826749 0.076618
Si Si5 0.670248 0.325779 0.414337
Si Si6 0.828539 0.172354 0.336854
Si Si7 0.834242 0.323665 0.500000
O O1 0.500000 0.184474 0.822991
O O2 0.249656 0.264237 0.791287
O O3 0.288490 0.211128 0.874994
O O4 0.292131 0.000000 0.820860
O O5 0.792789 0.500000 0.254581
O O6 0.787543 0.756496 0.291952
O O7 0.000000 0.683026 0.244288
O O8 0.758642 0.742452 0.041417
O O9 0.804767 0.500000 0.000000
O O10 0.000000 0.699127 0.000000
O O11 0.500000 0.798490 0.071523
O O12 0.690968 0.000000 0.071664
O O13 0.500000 0.297105 0.417304
O O14 0.689102 0.500000 0.409579
O O15 0.740921 0.245785 0.374644
O O16 0.750499 0.279966 0.457532
O O17 0.000000 0.198405 0.343179
O O18 0.805087 0.000000 0.335719
O O19 0.835532 0.500000 0.500000
O O20 0.000000 0.274332 0.500000
#
# Coordination Sequence:
#
# PCOD9386037 Si02
#       7
#     8   8   4   8   8   8   4
#     4   9  19  36  57  81 108 138 174 217 264 314
#     4  10  21  36  55  80 109 141 177 218 264 314
#     4  11  24  37  50  76 112 143 174 217 266 314
#     4   9  19  37  59  80 103 136 179 221 261 312
#     4  10  20  34  54  81 111 141 175 217 265 316
#     4  10  21  37  56  77 103 139 182 223 264 313
#     4   9  17  31  54  81 108 141 178 216 260 311
#
# _framework density 17.756917999999999
#
# number of rings (size 3 to 8) (size 9 to 14) (size 15 to 20)
#    0.000    2.333    0.000    3.250    0.000    8.333 
#    0.000    5.417    0.000    2.500    0.000    0.000 
#    0.000    0.000    0.000    0.000    0.000    0.000 
#
# Total GULP energy -267984.995382 kJ/mol
# GULP energy per Si atom -5583.020737 kJ/mol
# Density = 1.771650 g / cm^3
# Si number density = 17.756918 Si / 1000 Ang^3
#
#
#
# Elastic Constant Matrix: (Units=GPa)
#
#
# Indices 1 2 3 4 5 6 
#
# 1 84.3807 70.2834 102.3934 0.0000 0.0000 0.0000
# 2 70.2834 73.4073 94.8543 0.0000 0.0000 0.0000
# 3 102.3934 94.8543 199.0367 0.0000 0.0000 0.0000
# 4 0.0000 0.0000 0.0000 35.8157 0.0000 0.0000
# 5 0.0000 0.0000 0.0000 0.0000 38.5919 0.0000
# 6 0.0000 0.0000 0.0000 0.0000 0.0000 29.8056
#
#
#
# Elastic Compliance Matrix: (Units=1/GPa)
#
#
# Indices 1 2 3 4 5 6 
#
# 1 0.065206 -0.049677 -0.009871 0.000000 0.000000 0.000000
# 2 -0.049677 0.073303 -0.009378 0.000000 0.000000 0.000000
# 3 -0.009871 -0.009378 0.014571 0.000000 0.000000 0.000000
# 4 0.000000 0.000000 0.000000 0.027921 0.000000 0.000000
# 5 0.000000 0.000000 0.000000 0.000000 0.025912 0.000000
# 6 0.000000 0.000000 0.000000 0.000000 0.000000 0.033551
#
#
# Mechanical properties :
#
#
# Convention : Reuss Voigt Hill
#
# Bulk Modulus (GPa) = 65.65998 99.09852 82.37925
# Shear Modulus (GPa) = 13.04152 26.79553 19.91853
#
# Velocity S-wave (km/s) = 2.71301 3.88882 3.35286
# Velocity P-wave (km/s) = 6.84626 8.72316 7.84107
#
# Compressibility (1/GPa) = 0.01522998
#
# Stress axis : x y z
#
# Youngs Moduli (GPa) = 15.33601 13.64202 68.62796
#
# Poissons Ratio (x) = 0.67769 0.67741
# Poissons Ratio (y) = 0.76184 0.64359
# Poissons Ratio (z) = 0.15138 0.12793
#
# Static dielectric constant tensor:
#      x y z
#    x 1.589590 0.000000 0.000000 
#    y 0.000000 1.589650 0.000000 
#    z 0.000000 0.000000 1.577440 
# 
# From -- ./inp_files/34072.got.cif
#   From: 2010.05.17/outbox.cif.g08.bks.cpg/sg47_18_cif.got.tgz:34072.got - 2010.06.03 20:15:42.
