data_PCOD9386458
_publ_section_title
;
Structure prediction by ZEFSAII (Michael W. Deem and Ramdas Pophale) SiO2 
 PCOD9386458
Probable space group: P M M M
;
_chemical_formula_sum "Si O2"
_cell_formula_units_Z 48
_cell_length_a 9.321571
_cell_length_b 32.080805
_cell_length_c 7.819756
_cell_angle_alpha 90.000000
_cell_angle_beta 90.000000
_cell_angle_gamma 90.000000
_cell_volume 2338.447215
_symmetry_space_group_name_H-M "P M M M"
_symmetry_group_IT_number 47
_symmetry_cell_setting 'orthorhombic'
loop_
_space_group_symop_operation_xyz
x,y,z
-x,-y,z
x,-y,-z
-x,y,-z
-x,-y,-z
x,y,-z
-x,y,z
x,-y,z
loop_
_atom_site_type_symbol
_atom_site_label
_atom_site_fract_x
_atom_site_fract_y
_atom_site_fract_z
Si Si1 0.325225 0.500000 0.301881
Si Si2 0.335358 0.590533 0.706857
Si Si3 0.162563 0.672818 0.794410
Si Si4 0.662712 0.247255 0.794450
Si Si5 0.165644 0.000000 0.790351
Si Si6 0.836892 0.835507 0.295884
Si Si7 0.336756 0.081630 0.205237
O O1 0.500000 0.500000 0.302975
O O2 0.277056 0.500000 0.500000
O O3 0.284559 0.454989 0.227557
O O4 0.339025 0.587827 0.500000
O O5 0.500000 0.597618 0.764573
O O6 0.236760 0.628963 0.755406
O O7 0.257399 0.711405 0.728693
O O8 0.000000 0.674628 0.728423
O O9 0.156376 0.676822 0.000000
O O10 0.500000 0.243829 0.728464
O O11 0.754350 0.206221 0.757156
O O12 0.654087 0.250939 0.000000
O O13 0.249020 0.958618 0.732559
O O14 0.000000 0.000000 0.735956
O O15 0.165404 0.000000 0.000000
O O16 0.844368 0.835741 0.500000
O O17 0.748388 0.876124 0.241929
O O18 0.000000 0.836338 0.227444
O O19 0.500000 0.082976 0.271503
O O20 0.345387 0.077606 0.000000
#
# Coordination Sequence:
#
# PCOD9386458 Si02
#       7
#     4   8   8   8   4   8   8
#     4   7  12  26  48  73 100 130 168 213 256 301
#     4   9  17  31  53  78 102 132 172 216 260 306
#     4  10  21  36  53  75 105 139 172 209 257 311
#     4  10  21  38  60  82 102 131 174 219 262 311
#     4   9  17  31  54  83 112 143 180 222 266 311
#     4  11  24  39  55  79 111 144 177 215 261 313
#     4  10  20  35  57  84 112 143 181 223 265 311
#
# _framework density 20.526443
#
# number of rings (size 3 to 8) (size 9 to 14) (size 15 to 20)
#    0.000    2.333    0.000    3.750    0.000    8.333 
#    0.000    1.250    0.000    6.500    0.000    0.000 
#    0.000    0.000    0.000    0.000    0.000    0.000 
#
# Total GULP energy -268014.412151 kJ/mol
# GULP energy per Si atom -5583.633586 kJ/mol
# Density = 2.047972 g / cm^3
# Si number density = 20.526443 Si / 1000 Ang^3
#
#
#
# Elastic Constant Matrix: (Units=GPa)
#
#
# Indices 1 2 3 4 5 6 
#
# 1 203.8954 130.7364 10.1290 0.0000 0.0000 0.0000
# 2 130.7364 227.1084 0.4857 0.0000 0.0000 0.0000
# 3 10.1290 0.4857 24.7566 0.0000 0.0000 0.0000
# 4 0.0000 0.0000 0.0000 27.8647 0.0000 0.0000
# 5 0.0000 0.0000 0.0000 0.0000 16.6035 0.0000
# 6 0.0000 0.0000 0.0000 0.0000 0.0000 -18.4233
#
#
#
# Elastic Compliance Matrix: (Units=1/GPa)
#
#
# Indices 1 2 3 4 5 6 
#
# 1 0.008018 -0.004609 -0.003190 0.000000 0.000000 0.000000
# 2 -0.004609 0.007053 0.001747 0.000000 0.000000 0.000000
# 3 -0.003190 0.001747 0.041664 0.000000 0.000000 0.000000
# 4 0.000000 0.000000 0.000000 0.035888 0.000000 0.000000
# 5 0.000000 0.000000 0.000000 0.000000 0.060228 0.000000
# 6 0.000000 0.000000 0.000000 0.000000 0.000000 -0.054279
#
#
# Mechanical properties :
#
#
# Convention : Reuss Voigt Hill
#
# Bulk Modulus (GPa) = 22.40565 82.05140 52.22852
# Shear Modulus (GPa) = 39.82403 26.16962 32.99682
#
# Velocity S-wave (km/s) = 4.40947 3.57448 4.01375
# Velocity P-wave (km/s) = 6.07156 7.55620 6.85419
#
# Compressibility (1/GPa) = 0.04463159
#
# Stress axis : x y z
#
# Youngs Moduli (GPa) = 124.71744 141.79234 24.00139
#
# Poissons Ratio (x) = 0.65350 0.07657
# Poissons Ratio (y) = 0.57481 -0.04194
# Poissons Ratio (z) = 0.39787 -0.24776
#
# Static dielectric constant tensor:
#      x y z
#    x 1.717370 0.000000 0.000000 
#    y 0.000000 1.706020 0.000000 
#    z 0.000000 0.000000 1.763670 
# 
# From -- ./inp_files/2535.got.cif
#   From: 2010.05.17/outbox.cif.g08.bks.cpg/sg47_2_cif.got.tgz:2535.got - 2010.06.03 20:15:42.
