data_PCOD9386587
_publ_section_title
;
Structure prediction by ZEFSAII (Michael W. Deem and Ramdas Pophale) SiO2 
 PCOD9386587
Probable space group: P M M M
;
_chemical_formula_sum "Si O2"
_cell_formula_units_Z 48
_cell_length_a 9.386212
_cell_length_b 7.900386
_cell_length_c 35.055359
_cell_angle_alpha 90.000000
_cell_angle_beta 90.000000
_cell_angle_gamma 90.000000
_cell_volume 2599.519556
_symmetry_space_group_name_H-M "P M M M"
_symmetry_group_IT_number 47
_symmetry_cell_setting 'orthorhombic'
loop_
_space_group_symop_operation_xyz
x,y,z
-x,-y,z
x,-y,-z
-x,y,-z
-x,-y,-z
x,y,-z
-x,y,z
x,-y,z
loop_
_atom_site_type_symbol
_atom_site_label
_atom_site_fract_x
_atom_site_fract_y
_atom_site_fract_z
Si Si1 0.332712 0.500000 0.545670
Si Si2 0.162826 0.301837 0.667695
Si Si3 0.828747 0.808650 0.585126
Si Si4 0.663444 0.296432 0.824311
Si Si5 0.828610 0.301978 0.099353
Si Si6 0.337153 0.798958 0.259003
Si Si7 0.173323 0.000000 0.043597
O O1 0.500000 0.500000 0.556223
O O2 0.321859 0.500000 0.500000
O O3 0.254981 0.334363 0.562339
O O4 0.163842 0.500000 0.657540
O O5 0.212418 0.205529 0.629848
O O6 0.252297 0.275659 0.705692
O O7 0.000000 0.249547 0.675483
O O8 0.000000 0.777424 0.583253
O O9 0.801807 0.000000 0.571568
O O10 0.500000 0.233644 0.827966
O O11 0.659684 0.500000 0.823757
O O12 0.756048 0.248496 0.860883
O O13 0.721190 0.239760 0.783206
O O14 0.791648 0.500000 0.091425
O O15 0.784997 0.169226 0.066696
O O16 0.000000 0.294402 0.103202
O O17 0.500000 0.734159 0.259386
O O18 0.339401 0.000000 0.263820
O O19 0.000000 0.000000 0.042669
O O20 0.223973 0.000000 0.000000
#
# Coordination Sequence:
#
# PCOD9386587 Si02
#       7
#     4   8   8   8   8   8   4
#     4  11  25  43  63  91 127 163 199 245 301 359
#     4  10  20  36  58  82 111 148 190 236 285 335
#     4  10  21  40  66  92 120 157 201 248 297 354
#     4   9  18  33  51  71  99 137 177 217 265 317
#     4   9  18  32  51  75 101 131 170 214 259 315
#     4  10  21  34  49  75 109 144 184 228 273 328
#     4   9  18  32  51  77 105 131 165 213 269 323
#
# _framework density 18.464950999999999
#
# number of rings (size 3 to 8) (size 9 to 14) (size 15 to 20)
#    0.000    2.333    0.833    1.250    1.167    5.000 
#    0.000    5.000    0.000    1.000    0.000    2.333 
#    0.000    0.000    0.000    0.000    0.000    0.000 
#
# Total GULP energy -267770.881351 kJ/mol
# GULP energy per Si atom -5578.560028 kJ/mol
# Density = 1.842292 g / cm^3
# Si number density = 18.464951 Si / 1000 Ang^3
#
#
#
# Elastic Constant Matrix: (Units=GPa)
#
#
# Indices 1 2 3 4 5 6 
#
# 1 41.9283 40.2876 51.3062 0.0000 0.0000 0.0000
# 2 40.2876 98.0445 61.0662 0.0000 0.0000 0.0000
# 3 51.3062 61.0662 120.1165 0.0000 0.0000 0.0000
# 4 0.0000 0.0000 0.0000 -27.9191 0.0000 0.0000
# 5 0.0000 0.0000 0.0000 0.0000 43.7177 0.0000
# 6 0.0000 0.0000 0.0000 0.0000 0.0000 19.5569
#
#
#
# Elastic Compliance Matrix: (Units=1/GPa)
#
#
# Indices 1 2 3 4 5 6 
#
# 1 0.058816 -0.012469 -0.018783 0.000000 0.000000 0.000000
# 2 -0.012469 0.017569 -0.003606 0.000000 0.000000 0.000000
# 3 -0.018783 -0.003606 0.018181 0.000000 0.000000 0.000000
# 4 0.000000 0.000000 0.000000 -0.035818 0.000000 0.000000
# 5 0.000000 0.000000 0.000000 0.000000 0.022874 0.000000
# 6 0.000000 0.000000 0.000000 0.000000 0.000000 0.051133
#
#
# Mechanical properties :
#
#
# Convention : Reuss Voigt Hill
#
# Bulk Modulus (GPa) = 40.24175 62.82324 51.53250
# Shear Modulus (GPa) = 23.72419 14.23303 18.97861
#
# Velocity S-wave (km/s) = 3.58833 2.77936 3.20944
# Velocity P-wave (km/s) = 6.24572 6.66308 6.45777
#
# Compressibility (1/GPa) = 0.02484981
#
# Stress axis : x y z
#
# Youngs Moduli (GPa) = 17.00224 56.91812 55.00104
#
# Poissons Ratio (x) = 0.70972 1.03309
# Poissons Ratio (y) = 0.21200 0.19833
# Poissons Ratio (z) = 0.31936 0.20524
#
# Static dielectric constant tensor:
#      x y z
#    x 1.633400 0.000000 0.000000 
#    y 0.000000 1.660210 0.000000 
#    z 0.000000 0.000000 1.617830 
# 
# From -- ./inp_files/34073.got.cif
#   From: 2010.05.17/outbox.cif.g08.bks.cpg/sg47_18_cif.got.tgz:34073.got - 2010.06.03 20:15:42.
