data_PCOD9386745
_publ_section_title
;
Structure prediction by ZEFSAII (Michael W. Deem and Ramdas Pophale) SiO2 
 PCOD9386745
Probable space group: P M M M
;
_chemical_formula_sum "Si O2"
_cell_formula_units_Z 56
_cell_length_a 22.755835
_cell_length_b 8.914439
_cell_length_c 15.387020
_cell_angle_alpha 90.000000
_cell_angle_beta 90.000000
_cell_angle_gamma 90.000000
_cell_volume 3121.341682
_symmetry_space_group_name_H-M "P M M M"
_symmetry_group_IT_number 47
_symmetry_cell_setting 'orthorhombic'
loop_
_space_group_symop_operation_xyz
x,y,z
-x,-y,z
x,-y,-z
-x,y,-z
-x,-y,-z
x,y,-z
-x,y,z
x,-y,z
loop_
_atom_site_type_symbol
_atom_site_label
_atom_site_fract_x
_atom_site_fract_y
_atom_site_fract_z
Si Si1 0.214906 0.817354 0.097231
Si Si2 0.348692 0.823061 0.860851
Si Si3 0.567418 0.679150 0.000000
Si Si4 0.261345 0.677587 0.401604
Si Si5 0.500000 0.324388 0.604467
Si Si6 0.378027 0.823378 0.342189
Si Si7 0.165250 0.820238 0.278380
Si Si8 0.069198 0.680003 0.598923
O O1 0.282486 0.772496 0.116339
O O2 0.174816 0.769761 0.178498
O O3 0.214435 0.000000 0.097447
O O4 0.198062 0.767763 0.000000
O O5 0.396769 0.737797 0.917129
O O6 0.361559 0.806724 0.759179
O O7 0.352000 0.000000 0.882491
O O8 0.567067 0.500000 0.000000
O O9 0.500000 0.732934 0.000000
O O10 0.239841 0.703262 0.500000
O O11 0.258542 0.500000 0.384292
O O12 0.327814 0.735214 0.393952
O O13 0.221526 0.765285 0.333163
O O14 0.500000 0.500000 0.628807
O O15 0.500000 0.314423 0.500000
O O16 0.441686 0.244369 0.639371
O O17 0.376731 0.000000 0.363983
O O18 0.109241 0.754903 0.328411
O O19 0.163137 0.000000 0.279646
O O20 0.085085 0.727371 0.500000
O O21 0.077044 0.500000 0.602713
O O22 0.000000 0.711518 0.610987
#
# Coordination Sequence:
#
# PCOD9386745 Si02
#       8
#     8   8   4   8   4   8   8   8
#     4   9  17  34  58  81 108 143 181 226 280 336
#     4  10  20  38  60  79 103 140 181 223 279 342
#     4  11  25  39  53  81 113 139 176 229 286 341
#     4  11  23  37  54  79 114 153 186 222 279 344
#     4  11  25  43  59  76 103 142 183 221 276 349
#     4  11  23  39  59  83 106 135 183 236 282 330
#     4  11  21  34  56  88 118 147 191 241 285 330
#     4   9  19  37  59  83 117 162 202 233 277 339
#
# _framework density 17.941004
#
# number of rings (size 3 to 8) (size 9 to 14) (size 15 to 20)
#    0.000    1.714    2.143    3.000    1.000    7.429 
#    0.000    0.714    0.000    0.429    0.000    3.000 
#    0.000    0.000    0.000    0.000    0.000    0.000 
#
# Total GULP energy -312776.851245 kJ/mol
# GULP energy per Si atom -5585.300915 kJ/mol
# Density = 1.790017 g / cm^3
# Si number density = 17.941004 Si / 1000 Ang^3
#
#
#
# Elastic Constant Matrix: (Units=GPa)
#
#
# Indices 1 2 3 4 5 6 
#
# 1 103.8797 33.1895 68.9812 0.0000 0.0000 0.0000
# 2 33.1895 38.2771 43.0131 0.0000 0.0000 0.0000
# 3 68.9812 43.0131 128.1833 0.0000 0.0000 0.0000
# 4 0.0000 0.0000 0.0000 79.2013 0.0000 0.0000
# 5 0.0000 0.0000 0.0000 0.0000 25.8572 0.0000
# 6 0.0000 0.0000 0.0000 0.0000 0.0000 33.5047
#
#
#
# Elastic Compliance Matrix: (Units=1/GPa)
#
#
# Indices 1 2 3 4 5 6 
#
# 1 0.015993 -0.006736 -0.006346 0.000000 0.000000 0.000000
# 2 -0.006736 0.044777 -0.011401 0.000000 0.000000 0.000000
# 3 -0.006346 -0.011401 0.015042 0.000000 0.000000 0.000000
# 4 0.000000 0.000000 0.000000 0.012626 0.000000 0.000000
# 5 0.000000 0.000000 0.000000 0.000000 0.038674 0.000000
# 6 0.000000 0.000000 0.000000 0.000000 0.000000 0.029847
#
#
# Mechanical properties :
#
#
# Convention : Reuss Voigt Hill
#
# Bulk Modulus (GPa) = 37.24830 62.30083 49.77457
# Shear Modulus (GPa) = 23.26967 36.05638 29.66303
#
# Velocity S-wave (km/s) = 3.60531 4.48785 4.07057
# Velocity P-wave (km/s) = 6.17557 7.85208 7.06374
#
# Compressibility (1/GPa) = 0.02684686
#
# Stress axis : x y z
#
# Youngs Moduli (GPa) = 62.52835 22.33300 66.48024
#
# Poissons Ratio (x) = 0.15043 0.42190
# Poissons Ratio (y) = 0.42117 0.75791
# Poissons Ratio (z) = 0.39682 0.25461
#
# Static dielectric constant tensor:
#      x y z
#    x 1.593920 0.000000 0.000000 
#    y 0.000000 1.600830 0.000000 
#    z 0.000000 0.000000 1.628340 
# 
# From -- ./inp_files/25218.got.cif
#   From: 2010.05.17/outbox.cif.g08.bks.cpg/sg47_13_cif.got.tgz:25218.got - 2010.06.03 20:15:42.
