data_PCOD9386848
_publ_section_title
;
Structure prediction by ZEFSAII (Michael W. Deem and Ramdas Pophale) SiO2 
 PCOD9386848
Probable space group: P M M M
;
_chemical_formula_sum "Si O2"
_cell_formula_units_Z 64
_cell_length_a 14.781892
_cell_length_b 29.726664
_cell_length_c 8.766883
_cell_angle_alpha 90.000000
_cell_angle_beta 90.000000
_cell_angle_gamma 90.000000
_cell_volume 3852.311613
_symmetry_space_group_name_H-M "P M M M"
_symmetry_group_IT_number 47
_symmetry_cell_setting 'orthorhombic'
loop_
_space_group_symop_operation_xyz
x,y,z
-x,-y,z
x,-y,-z
-x,y,-z
-x,-y,-z
x,y,-z
-x,y,z
x,-y,z
loop_
_atom_site_type_symbol
_atom_site_label
_atom_site_fract_x
_atom_site_fract_y
_atom_site_fract_z
Si Si1 0.107261 0.135476 0.319470
Si Si2 0.722211 0.728086 0.680308
Si Si3 0.603481 0.087684 0.183545
Si Si4 0.895522 0.232307 0.181988
Si Si5 0.219683 0.950650 0.316277
Si Si6 0.394114 0.352777 0.184965
Si Si7 0.393196 0.807460 0.180916
Si Si8 0.390584 0.548340 0.819207
O O1 0.126505 0.142132 0.500000
O O2 0.129118 0.181484 0.232728
O O3 0.161077 0.091907 0.262543
O O4 0.000000 0.127418 0.304099
O O5 0.724637 0.723559 0.500000
O O6 0.823064 0.734436 0.744820
O O7 0.668664 0.686359 0.752507
O O8 0.667235 0.772960 0.726902
O O9 0.500000 0.077335 0.227069
O O10 0.678218 0.057534 0.262515
O O11 0.621621 0.140256 0.221261
O O12 0.609711 0.083583 0.000000
O O13 0.000000 0.239978 0.229919
O O14 0.890831 0.235332 0.000000
O O15 0.215659 0.950161 0.500000
O O16 0.187957 0.000000 0.264427
O O17 0.500000 0.345951 0.227968
O O18 0.363048 0.402569 0.239798
O O19 0.391649 0.352508 0.000000
O O20 0.500000 0.798048 0.203270
O O21 0.374375 0.802123 0.000000
O O22 0.500000 0.548563 0.808925
O O23 0.359174 0.500000 0.754262
O O24 0.369141 0.547871 0.000000
#
# Coordination Sequence:
#
# PCOD9386848 Si02
#       8
#     8   8   8   8   8   8   8   8
#     4   9  18  34  55  76  97 119 143 175 218 269
#     4  12  23  31  44  68  99 130 157 190 232 279
#     4   9  19  35  52  68  86 113 151 191 228 265
#     4  10  21  37  56  74  91 115 150 191 233 279
#     4  10  21  34  48  70  97 122 148 177 213 260
#     4   9  17  29  45  66  96 134 171 205 240 277
#     4   9  18  33  51  69  91 121 157 194 230 271
#     4   7  10  19  38  63  88 118 162 211 248 274
#
# _framework density 16.613402000000001
#
# number of rings (size 3 to 8) (size 9 to 14) (size 15 to 20)
#    0.000    2.625    0.000    4.500    0.000    6.750 
#    0.000    3.750    0.000    0.375    0.000    4.375 
#    0.000    0.500    0.000    5.750    0.000    1.875 
#
# Total GULP energy -356834.185685 kJ/mol
# GULP energy per Si atom -5575.534151 kJ/mol
# Density = 1.657559 g / cm^3
# Si number density = 16.613402 Si / 1000 Ang^3
#
#
#
# Elastic Constant Matrix: (Units=GPa)
#
#
# Indices 1 2 3 4 5 6 
#
# 1 60.8941 60.4212 23.2973 0.0000 0.0000 0.0000
# 2 60.4212 86.9348 27.5491 0.0000 0.0000 0.0000
# 3 23.2973 27.5491 23.2860 0.0000 0.0000 0.0000
# 4 0.0000 0.0000 0.0000 517.0118 0.0000 0.0000
# 5 0.0000 0.0000 0.0000 0.0000 17.9822 0.0000
# 6 0.0000 0.0000 0.0000 0.0000 0.0000 14.3379
#
#
#
# Elastic Compliance Matrix: (Units=1/GPa)
#
#
# Indices 1 2 3 4 5 6 
#
# 1 0.056443 -0.034129 -0.016093 0.000000 0.000000 0.000000
# 2 -0.034129 0.039039 -0.012040 0.000000 0.000000 0.000000
# 3 -0.016093 -0.012040 0.073290 0.000000 0.000000 0.000000
# 4 0.000000 0.000000 0.000000 0.001934 0.000000 0.000000
# 5 0.000000 0.000000 0.000000 0.000000 0.055610 0.000000
# 6 0.000000 0.000000 0.000000 0.000000 0.000000 0.069745
#
#
# Mechanical properties :
#
#
# Convention : Reuss Voigt Hill
#
# Bulk Modulus (GPa) = 22.60056 43.73891 33.16973
# Shear Modulus (GPa) = 11.48541 113.85619 62.67080
#
# Velocity S-wave (km/s) = 2.63218 8.28743 6.14857
# Velocity P-wave (km/s) = 4.78238 10.86094 8.39140
#
# Compressibility (1/GPa) = 0.04424669
#
# Stress axis : x y z
#
# Youngs Moduli (GPa) = 17.71691 25.61573 13.64450
#
# Poissons Ratio (x) = 0.87424 0.21959
# Poissons Ratio (y) = 0.60466 0.16428
# Poissons Ratio (z) = 0.28513 0.30841
#
# Static dielectric constant tensor:
#      x y z
#    x 1.552930 0.000000 0.000000 
#    y 0.000000 1.584350 0.000000 
#    z 0.000000 0.000000 1.561180 
# 
# From -- ./inp_files/8311.got.cif
#   From: 2010.05.17/outbox.cif.g08.bks.cpg/sg47_5_cif.got.tgz:8311.got - 2010.06.03 20:15:42.
