data_PCOD9386083
_publ_section_title
;
Structure prediction by ZEFSAII (Michael W. Deem and Ramdas Pophale) SiO2 
 PCOD9386083
Probable space group: P M M M
;
_chemical_formula_sum "Si O2"
_cell_formula_units_Z 48
_cell_length_a 8.541234
_cell_length_b 9.874856
_cell_length_c 29.746140
_cell_angle_alpha 90.000000
_cell_angle_beta 90.000000
_cell_angle_gamma 90.000000
_cell_volume 2508.892245
_symmetry_space_group_name_H-M "P M M M"
_symmetry_group_IT_number 47
_symmetry_cell_setting 'orthorhombic'
loop_
_space_group_symop_operation_xyz
x,y,z
-x,-y,z
x,-y,-z
-x,y,-z
-x,-y,-z
x,y,-z
-x,y,z
x,-y,z
loop_
_atom_site_type_symbol
_atom_site_label
_atom_site_fract_x
_atom_site_fract_y
_atom_site_fract_z
Si Si1 0.186725 0.000000 0.051754
Si Si2 0.684435 0.748184 0.893700
Si Si3 0.182265 0.500000 0.946497
Si Si4 0.808847 0.842452 0.713433
Si Si5 0.311115 0.153501 0.552372
Si Si6 0.189123 0.657085 0.202631
Si Si7 0.188951 0.343293 0.629423
O O1 0.241946 0.874302 0.080968
O O2 0.000000 0.000000 0.048976
O O3 0.246924 0.000000 0.000000
O O4 0.500000 0.765500 0.889131
O O5 0.728792 0.626159 0.926244
O O6 0.754577 0.713948 0.845007
O O7 0.000000 0.500000 0.931546
O O8 0.183730 0.500000 0.000000
O O9 0.760061 0.758194 0.757604
O O10 0.758430 0.753290 0.670505
O O11 0.000000 0.845281 0.713191
O O12 0.757151 0.000000 0.712589
O O13 0.268000 0.171919 0.500000
O O14 0.500000 0.157910 0.555007
O O15 0.241788 0.268206 0.584157
O O16 0.261950 0.000000 0.565909
O O17 0.241074 0.500000 0.208667
O O18 0.000000 0.655051 0.202930
O O19 0.243024 0.500000 0.632828
O O20 0.000000 0.346653 0.630803
#
# Coordination Sequence:
#
# PCOD9386083 Si02
#       7
#     4   8   4   8   8   8   8
#     4  11  25  45  67  89 117 157 203 245 288 351
#     4  12  25  40  61  91 126 158 192 243 302 352
#     4  11  23  41  65  91 119 157 205 245 284 347
#     4   9  18  33  56  85 112 147 196 244 288 339
#     4   9  19  36  56  78 108 149 197 245 294 352
#     4  10  20  36  59  84 114 153 196 237 284 348
#     4  10  20  34  54  83 119 153 191 241 294 348
#
# _framework density 19.131951000000001
#
# number of rings (size 3 to 8) (size 9 to 14) (size 15 to 20)
#    0.000    1.833    0.833    4.000    1.167    7.333 
#    0.000    3.333    0.000    3.000    0.000    0.000 
#    0.000    0.000    0.000    0.000    0.000    0.000 
#
# Total GULP energy -267976.179813 kJ/mol
# GULP energy per Si atom -5582.837079 kJ/mol
# Density = 1.908841 g / cm^3
# Si number density = 19.131951 Si / 1000 Ang^3
#
#
#
# Elastic Constant Matrix: (Units=GPa)
#
#
# Indices 1 2 3 4 5 6 
#
# 1 17.7066 25.5163 20.0826 0.0000 0.0000 0.0000
# 2 25.5163 219.4568 105.0834 0.0000 0.0000 0.0000
# 3 20.0826 105.0834 133.1444 0.0000 0.0000 0.0000
# 4 0.0000 0.0000 0.0000 46.8336 0.0000 0.0000
# 5 0.0000 0.0000 0.0000 0.0000 -133.2339 0.0000
# 6 0.0000 0.0000 0.0000 0.0000 0.0000 16.9058
#
#
#
# Elastic Compliance Matrix: (Units=1/GPa)
#
#
# Indices 1 2 3 4 5 6 
#
# 1 0.071464 -0.005060 -0.006786 0.000000 0.000000 0.000000
# 2 -0.005060 0.007683 -0.005301 0.000000 0.000000 0.000000
# 3 -0.006786 -0.005301 0.012718 0.000000 0.000000 0.000000
# 4 0.000000 0.000000 0.000000 0.021352 0.000000 0.000000
# 5 0.000000 0.000000 0.000000 0.000000 -0.007506 0.000000
# 6 0.000000 0.000000 0.000000 0.000000 0.000000 0.059151
#
#
# Mechanical properties :
#
#
# Convention : Reuss Voigt Hill
#
# Bulk Modulus (GPa) = 17.36945 74.63029 45.99987
# Shear Modulus (GPa) = 22.89943 0.74280 11.82111
#
# Velocity S-wave (km/s) = 3.46341 0.62377 2.48840
# Velocity P-wave (km/s) = 5.00920 6.29378 5.68787
#
# Compressibility (1/GPa) = 0.05757235
#
# Stress axis : x y z
#
# Youngs Moduli (GPa) = 13.99306 130.15437 78.63075
#
# Poissons Ratio (x) = 0.65858 0.53355
# Poissons Ratio (y) = 0.07080 0.41680
# Poissons Ratio (z) = 0.09495 0.68991
#
# Static dielectric constant tensor:
#      x y z
#    x 1.651170 0.000000 0.000000 
#    y 0.000000 1.639660 0.000000 
#    z 0.000000 0.000000 1.649120 
# 
# From -- ./inp_files/34193.got.cif
#   From: 2010.05.17/outbox.cif.g08.bks.cpg/sg47_18_cif.got.tgz:34193.got - 2010.06.03 20:15:42.
