data_PCOD9386825
_publ_section_title
;
Structure prediction by ZEFSAII (Michael W. Deem and Ramdas Pophale) SiO2 
 PCOD9386825
Probable space group: P M M M
;
_chemical_formula_sum "Si O2"
_cell_formula_units_Z 52
_cell_length_a 8.084443
_cell_length_b 19.711859
_cell_length_c 16.511250
_cell_angle_alpha 90.000000
_cell_angle_beta 90.000000
_cell_angle_gamma 90.000000
_cell_volume 2631.222902
_symmetry_space_group_name_H-M "P M M M"
_symmetry_group_IT_number 47
_symmetry_cell_setting 'orthorhombic'
loop_
_space_group_symop_operation_xyz
x,y,z
-x,-y,z
x,-y,-z
-x,y,-z
-x,-y,-z
x,y,-z
-x,y,z
x,-y,z
loop_
_atom_site_type_symbol
_atom_site_label
_atom_site_fract_x
_atom_site_fract_y
_atom_site_fract_z
Si Si1 0.809124 0.075583 0.237412
Si Si2 0.799570 0.575538 0.336710
Si Si3 0.800906 0.360249 0.831107
Si Si4 0.696836 0.423512 0.000000
Si Si5 0.688413 0.081287 0.588015
Si Si6 0.303288 0.717048 0.409939
Si Si7 0.199546 0.780272 0.758494
O O1 0.801828 0.088735 0.334238
O O2 0.733995 0.147269 0.209287
O O3 0.000000 0.072035 0.211293
O O4 0.735295 0.000000 0.222492
O O5 0.744926 0.500000 0.360713
O O6 0.748957 0.591630 0.243733
O O7 0.737333 0.638655 0.389177
O O8 0.000000 0.577005 0.339874
O O9 0.748864 0.386126 0.918166
O O10 0.740700 0.284603 0.809250
O O11 0.000000 0.358677 0.829017
O O12 0.766550 0.500000 0.000000
O O13 0.500000 0.427469 0.000000
O O14 0.743790 0.107016 0.500000
O O15 0.500000 0.106414 0.603167
O O16 0.675459 0.000000 0.581023
O O17 0.238636 0.733033 0.500000
O O18 0.500000 0.725012 0.410833
O O19 0.238034 0.762018 0.335249
O O20 0.000000 0.783380 0.764848
#
# Coordination Sequence:
#
# PCOD9386825 Si02
#       7
#     8   8   8   4   8   8   8
#     4   9  17  29  46  68  91 115 149 197 249 295
#     4   9  18  33  53  75  98 127 164 204 246 291
#     4   9  18  34  54  74  99 132 165 193 227 279
#     4  11  23  35  51  81 114 135 154 186 229 277
#     4   8  14  24  36  52  79 114 149 188 236 288
#     4  10  21  34  47  66  93 128 171 214 254 295
#     4   9  19  35  52  70  95 129 167 205 247 295
#
# _framework density 19.762674000000001
#
# number of rings (size 3 to 8) (size 9 to 14) (size 15 to 20)
#    0.000    2.846    0.000    2.538    0.000    7.077 
#    0.000    6.154    0.000    0.000    0.000    0.538 
#    0.000    4.308    0.000    0.000    0.000    0.000 
#
# Total GULP energy -289668.549708 kJ/mol
# GULP energy per Si atom -5570.549033 kJ/mol
# Density = 1.971769 g / cm^3
# Si number density = 19.762674 Si / 1000 Ang^3
#
#
#
# Elastic Constant Matrix: (Units=GPa)
#
#
# Indices 1 2 3 4 5 6 
#
# 1 11.5297 8.1859 -1.1309 0.0000 0.0000 0.0000
# 2 8.1859 185.3110 36.4450 0.0000 0.0000 0.0000
# 3 -1.1309 36.4450 72.2451 0.0000 0.0000 0.0000
# 4 0.0000 0.0000 0.0000 0.7160 0.0000 0.0000
# 5 0.0000 0.0000 0.0000 0.0000 22.7289 0.0000
# 6 0.0000 0.0000 0.0000 0.0000 0.0000 2.1806
#
#
#
# Elastic Compliance Matrix: (Units=1/GPa)
#
#
# Indices 1 2 3 4 5 6 
#
# 1 0.090476 -0.004746 0.003811 0.000000 0.000000 0.000000
# 2 -0.004746 0.006240 -0.003222 0.000000 0.000000 0.000000
# 3 0.003811 -0.003222 0.015527 0.000000 0.000000 0.000000
# 4 0.000000 0.000000 0.000000 1.396598 0.000000 0.000000
# 5 0.000000 0.000000 0.000000 0.000000 0.043997 0.000000
# 6 0.000000 0.000000 0.000000 0.000000 0.000000 0.458599
#
#
# Mechanical properties :
#
#
# Convention : Reuss Voigt Hill
#
# Bulk Modulus (GPa) = 9.62210 39.56509 24.59359
# Shear Modulus (GPa) = 2.43381 20.16414 11.29897
#
# Velocity S-wave (km/s) = 1.11094 3.19770 2.39369
# Velocity P-wave (km/s) = 2.55440 5.80494 4.48454
#
# Compressibility (1/GPa) = 0.10392745
#
# Stress axis : x y z
#
# Youngs Moduli (GPa) = 11.05265 160.26530 64.40485
#
# Poissons Ratio (x) = 0.76064 -0.24542
# Poissons Ratio (y) = 0.05246 0.20751
# Poissons Ratio (z) = -0.04212 0.51637
#
# Static dielectric constant tensor:
#      x y z
#    x 1.703460 0.000000 0.000000 
#    y 0.000000 1.778360 0.000000 
#    z 0.000000 0.000000 1.678060 
# 
# From -- ./inp_files/21460.got.cif
#   From: 2010.05.17/outbox.cif.g08.bks.cpg/sg47_11_cif.got.tgz:21460.got - 2010.06.03 20:15:42.
