data_PCOD9386889
_publ_section_title
;
Structure prediction by ZEFSAII (Michael W. Deem and Ramdas Pophale) SiO2 
 PCOD9386889
Probable space group: P M M M
;
_chemical_formula_sum "Si O2"
_cell_formula_units_Z 64
_cell_length_a 24.877666
_cell_length_b 15.354880
_cell_length_c 8.163715
_cell_angle_alpha 90.000000
_cell_angle_beta 90.000000
_cell_angle_gamma 90.000000
_cell_volume 3118.486687
_symmetry_space_group_name_H-M "P M M M"
_symmetry_group_IT_number 47
_symmetry_cell_setting 'orthorhombic'
loop_
_space_group_symop_operation_xyz
x,y,z
-x,-y,z
x,-y,-z
-x,y,-z
-x,-y,-z
x,y,-z
-x,y,z
x,-y,z
loop_
_atom_site_type_symbol
_atom_site_label
_atom_site_fract_x
_atom_site_fract_y
_atom_site_fract_z
Si Si1 0.826110 0.223561 0.196011
Si Si2 0.390189 0.097375 0.195654
Si Si3 0.940261 0.217356 0.189614
Si Si4 0.064382 0.405106 0.686533
Si Si5 0.440722 0.727181 0.197713
Si Si6 0.269963 0.099771 0.304665
Si Si7 0.653515 0.599351 0.302583
Si Si8 0.775613 0.599533 0.697690
O O1 0.883380 0.186302 0.262204
O O2 0.776501 0.165390 0.253917
O O3 0.814256 0.323399 0.246026
O O4 0.828818 0.220264 0.000000
O O5 0.426822 0.175577 0.258759
O O6 0.327965 0.120531 0.228472
O O7 0.399874 0.000000 0.262896
O O8 0.397896 0.093032 0.000000
O O9 0.930454 0.321560 0.200097
O O10 0.000000 0.199914 0.262797
O O11 0.943073 0.190447 0.000000
O O12 0.084661 0.388971 0.500000
O O13 0.084817 0.500000 0.741340
O O14 0.000000 0.412940 0.672583
O O15 0.500000 0.699511 0.254982
O O16 0.392624 0.663656 0.245789
O O17 0.441756 0.729916 0.000000
O O18 0.276130 0.103182 0.500000
O O19 0.256633 0.000000 0.256747
O O20 0.654418 0.600508 0.500000
O O21 0.642562 0.500000 0.249662
O O22 0.714360 0.621477 0.248410
O O23 0.776166 0.598738 0.500000
O O24 0.787302 0.500000 0.751304
#
# Coordination Sequence:
#
# PCOD9386889 Si02
#       8
#     8   8   8   8   8   8   8   8
#     4  11  22  34  53  80 107 136 171 214 261 310
#     4   9  18  34  56  80 107 139 172 207 251 305
#     4   9  19  34  48  65  94 132 170 205 245 297
#     4   8  14  25  41  61  85 116 158 204 243 281
#     4  10  21  34  49  75 109 142 177 215 255 301
#     4  10  21  37  58  83 108 133 165 210 264 319
#     4   9  19  36  55  73  96 132 178 223 266 310
#     4   9  19  36  56  78 106 140 177 219 268 318
#
# _framework density 20.522773999999998
#
# number of rings (size 3 to 8) (size 9 to 14) (size 15 to 20)
#    0.000    2.625    0.000    2.625    0.000    6.750 
#    0.000    7.500    0.000    0.375    0.000    5.250 
#    0.000    0.000    0.000    0.000    0.000    0.000 
#
# Total GULP energy -356790.513558 kJ/mol
# GULP energy per Si atom -5574.851774 kJ/mol
# Density = 2.047606 g / cm^3
# Si number density = 20.522774 Si / 1000 Ang^3
#
#
#
# Elastic Constant Matrix: (Units=GPa)
#
#
# Indices 1 2 3 4 5 6 
#
# 1 122.5381 42.1382 1.1387 0.0000 0.0000 0.0000
# 2 42.1382 42.4775 3.3147 0.0000 0.0000 0.0000
# 3 1.1387 3.3147 11.8560 0.0000 0.0000 0.0000
# 4 0.0000 0.0000 0.0000 22.5505 0.0000 0.0000
# 5 0.0000 0.0000 0.0000 0.0000 -1.6356 0.0000
# 6 0.0000 0.0000 0.0000 0.0000 0.0000 -2.5480
#
#
#
# Elastic Compliance Matrix: (Units=1/GPa)
#
#
# Indices 1 2 3 4 5 6 
#
# 1 0.012447 -0.012528 0.002307 0.000000 0.000000 0.000000
# 2 -0.012528 0.036676 -0.009051 0.000000 0.000000 0.000000
# 3 0.002307 -0.009051 0.086654 0.000000 0.000000 0.000000
# 4 0.000000 0.000000 0.000000 0.044345 0.000000 0.000000
# 5 0.000000 0.000000 0.000000 0.000000 -0.611389 0.000000
# 6 0.000000 0.000000 0.000000 0.000000 0.000000 -0.392466
#
#
# Mechanical properties :
#
#
# Convention : Reuss Voigt Hill
#
# Bulk Modulus (GPa) = 10.28443 30.00610 20.14527
# Shear Modulus (GPa) = -6.64207 12.35871 2.85832
#
# Velocity S-wave (km/s) = -1.80096 2.45663 1.18143
# Velocity P-wave (km/s) = 0.83516 4.76438 3.42029
#
# Compressibility (1/GPa) = 0.09723435
#
# Stress axis : x y z
#
# Youngs Moduli (GPa) = 80.33809 27.26576 11.54014
#
# Poissons Ratio (x) = 0.34159 -0.02662
# Poissons Ratio (y) = 1.00648 0.10445
# Poissons Ratio (z) = -0.18535 0.24677
#
# Static dielectric constant tensor:
#      x y z
#    x 1.774140 0.000000 0.000000 
#    y 0.000000 1.746630 0.000000 
#    z 0.000000 0.000000 1.734830 
# 
# From -- ./inp_files/12684.got.cif
#   From: 2010.05.17/outbox.cif.g08.bks.cpg/sg47_7_cif.got.tgz:12684.got - 2010.06.03 20:15:42.
