data_PCOD9386977
_publ_section_title
;
Structure prediction by ZEFSAII (Michael W. Deem and Ramdas Pophale) SiO2 
 PCOD9386977
Probable space group: P M M M
;
_chemical_formula_sum "Si O2"
_cell_formula_units_Z 52
_cell_length_a 15.009306
_cell_length_b 23.542183
_cell_length_c 9.634061
_cell_angle_alpha 90.000000
_cell_angle_beta 90.000000
_cell_angle_gamma 90.000000
_cell_volume 3404.213071
_symmetry_space_group_name_H-M "P M M M"
_symmetry_group_IT_number 47
_symmetry_cell_setting 'orthorhombic'
loop_
_space_group_symop_operation_xyz
x,y,z
-x,-y,z
x,-y,-z
-x,y,-z
-x,-y,-z
x,y,-z
-x,y,z
x,-y,z
loop_
_atom_site_type_symbol
_atom_site_label
_atom_site_fract_x
_atom_site_fract_y
_atom_site_fract_z
Si Si1 0.661520 0.601231 0.345062
Si Si2 0.395773 0.173676 0.666573
Si Si3 0.101404 0.676435 0.836034
Si Si4 0.500000 0.567847 0.844772
Si Si5 0.607982 0.936644 0.160253
Si Si6 0.258366 0.273291 0.661275
Si Si7 0.861034 0.564089 0.336894
O O1 0.627387 0.589102 0.500000
O O2 0.587685 0.587021 0.234769
O O3 0.688590 0.667178 0.336603
O O4 0.753661 0.567475 0.326343
O O5 0.393660 0.166707 0.500000
O O6 0.500000 0.186349 0.703536
O O7 0.367435 0.115568 0.741955
O O8 0.326875 0.223750 0.702549
O O9 0.173282 0.716236 0.759057
O O10 0.105465 0.614795 0.760353
O O11 0.000000 0.697625 0.822567
O O12 0.122009 0.670628 0.000000
O O13 0.500000 0.500000 0.848525
O O14 0.500000 0.590754 0.000000
O O15 0.500000 0.937946 0.161408
O O16 0.638106 0.000000 0.203314
O O17 0.635111 0.927352 0.000000
O O18 0.230687 0.264171 0.500000
O O19 0.882873 0.575200 0.500000
O O20 0.890487 0.500000 0.302572
#
# Coordination Sequence:
#
# PCOD9386977 Si02
#       7
#     8   8   8   4   8   8   8
#     4   9  18  32  49  63  80 111 147 183 223 267
#     4   9  17  28  45  69  96 125 158 196 232 264
#     4  10  21  35  50  69  93 119 146 182 231 281
#     4  11  23  33  41  59  85 111 144 185 226 267
#     4   8  14  25  40  60  91 130 166 195 223 258
#     4   9  19  34  51  69  90 119 153 191 231 271
#     4   9  18  33  52  71  88 109 141 180 224 277
#
# _framework density 15.27519
#
# number of rings (size 3 to 8) (size 9 to 14) (size 15 to 20)
#    0.000    2.846    0.000    2.538    1.077    6.462 
#    0.000    3.077    0.000    0.000    0.000    0.000 
#    0.000    0.615    0.000    6.769    0.000    5.231 
#
# Total GULP energy -289670.768181 kJ/mol
# GULP energy per Si atom -5570.591696 kJ/mol
# Density = 1.524042 g / cm^3
# Si number density = 15.275190 Si / 1000 Ang^3
#
#
#
# Elastic Constant Matrix: (Units=GPa)
#
#
# Indices 1 2 3 4 5 6 
#
# 1 78.6243 41.1585 58.7956 0.0000 0.0000 0.0000
# 2 41.1585 100.5618 39.7374 0.0000 0.0000 0.0000
# 3 58.7956 39.7374 82.6453 0.0000 0.0000 0.0000
# 4 0.0000 0.0000 0.0000 21.9838 0.0000 0.0000
# 5 0.0000 0.0000 0.0000 0.0000 20.9440 0.0000
# 6 0.0000 0.0000 0.0000 0.0000 0.0000 15.4288
#
#
#
# Elastic Compliance Matrix: (Units=1/GPa)
#
#
# Indices 1 2 3 4 5 6 
#
# 1 0.028772 -0.004552 -0.018280 0.000000 0.000000 0.000000
# 2 -0.004552 0.012997 -0.003010 0.000000 0.000000 0.000000
# 3 -0.018280 -0.003010 0.026552 0.000000 0.000000 0.000000
# 4 0.000000 0.000000 0.000000 0.045488 0.000000 0.000000
# 5 0.000000 0.000000 0.000000 0.000000 0.047746 0.000000
# 6 0.000000 0.000000 0.000000 0.000000 0.000000 0.064814
#
#
# Mechanical properties :
#
#
# Convention : Reuss Voigt Hill
#
# Bulk Modulus (GPa) = 60.11376 60.13492 60.12434
# Shear Modulus (GPa) = 17.63052 19.81398 18.72225
#
# Velocity S-wave (km/s) = 3.40103 3.60548 3.50475
# Velocity P-wave (km/s) = 7.40688 7.53564 7.47154
#
# Compressibility (1/GPa) = 0.01663513
#
# Stress axis : x y z
#
# Youngs Moduli (GPa) = 34.75656 76.94080 37.66197
#
# Poissons Ratio (x) = 0.35027 0.68845
# Poissons Ratio (y) = 0.15823 0.11338
# Poissons Ratio (z) = 0.63534 0.23163
#
# Static dielectric constant tensor:
#      x y z
#    x 1.499950 0.000000 0.000000 
#    y 0.000000 1.501750 0.000000 
#    z 0.000000 0.000000 1.516560 
# 
# From -- ./inp_files/7683.got.cif
#   From: 2010.05.17/outbox.cif.g08.bks.cpg/sg47_4_cif.got.tgz:7683.got - 2010.06.03 20:15:42.
