data_PCOD9386957
_publ_section_title
;
Structure prediction by ZEFSAII (Michael W. Deem and Ramdas Pophale) SiO2 
 PCOD9386957
Probable space group: P M M M
;
_chemical_formula_sum "Si O2"
_cell_formula_units_Z 48
_cell_length_a 8.558550
_cell_length_b 16.820761
_cell_length_c 19.163409
_cell_angle_alpha 90.000000
_cell_angle_beta 90.000000
_cell_angle_gamma 90.000000
_cell_volume 2758.789733
_symmetry_space_group_name_H-M "P M M M"
_symmetry_group_IT_number 47
_symmetry_cell_setting 'orthorhombic'
loop_
_space_group_symop_operation_xyz
x,y,z
-x,-y,z
x,-y,-z
-x,y,-z
-x,-y,-z
x,y,-z
-x,y,z
x,-y,z
loop_
_atom_site_type_symbol
_atom_site_label
_atom_site_fract_x
_atom_site_fract_y
_atom_site_fract_z
Si Si1 0.189406 0.327203 0.580075
Si Si2 0.811361 0.910354 0.214361
Si Si3 0.313133 0.661058 0.849607
Si Si4 0.686707 0.244678 0.287192
Si Si5 0.178096 0.500000 0.415393
Si Si6 0.812752 0.500000 0.918356
Si Si7 0.188206 0.182826 0.078231
O O1 0.237548 0.311057 0.500000
O O2 0.246148 0.266644 0.637750
O O3 0.250361 0.415166 0.602197
O O4 0.000000 0.330760 0.579897
O O5 0.742704 0.841990 0.263176
O O6 0.769507 0.882508 0.135945
O O7 0.000000 0.908540 0.219798
O O8 0.758502 0.000000 0.228792
O O9 0.500000 0.654102 0.848714
O O10 0.260881 0.691687 0.772558
O O11 0.243862 0.578889 0.877990
O O12 0.263001 0.733428 0.899909
O O13 0.500000 0.246640 0.288814
O O14 0.168470 0.500000 0.500000
O O15 0.000000 0.500000 0.388114
O O16 0.000000 0.500000 0.919322
O O17 0.758967 0.500000 0.000000
O O18 0.000000 0.192486 0.080720
O O19 0.233070 0.160618 0.000000
#
# Coordination Sequence:
#
# PCOD9386957 Si02
#       7
#     8   8   8   8   4   4   8
#     4   9  17  31  53  79 105 134 169 206 244 290
#     4   9  18  33  53  75  98 127 163 201 245 299
#     4  10  21  35  49  68  97 134 173 208 246 295
#     4  10  21  35  51  73 102 134 166 202 246 297
#     4   7  12  25  45  70  98 125 154 189 228 270
#     4  11  23  36  51  72  97 129 174 223 263 295
#     4   9  17  30  49  73 100 127 158 201 250 297
#
# _framework density 17.398933
#
# number of rings (size 3 to 8) (size 9 to 14) (size 15 to 20)
#    0.000    2.667    0.000    2.750    0.000    6.667 
#    0.000    3.750    0.000    2.000    0.000    8.167 
#    0.000    0.000    0.000    0.000    0.000    0.000 
#
# Total GULP energy -267531.530910 kJ/mol
# GULP energy per Si atom -5573.573561 kJ/mol
# Density = 1.735933 g / cm^3
# Si number density = 17.398933 Si / 1000 Ang^3
#
#
#
# Elastic Constant Matrix: (Units=GPa)
#
#
# Indices 1 2 3 4 5 6 
#
# 1 20.1736 30.2298 28.7729 0.0000 0.0000 0.0000
# 2 30.2298 137.9349 81.1678 0.0000 0.0000 0.0000
# 3 28.7729 81.1678 128.5317 0.0000 0.0000 0.0000
# 4 0.0000 0.0000 0.0000 10.6984 0.0000 0.0000
# 5 0.0000 0.0000 0.0000 0.0000 16.4778 0.0000
# 6 0.0000 0.0000 0.0000 0.0000 0.0000 8.9949
#
#
#
# Elastic Compliance Matrix: (Units=1/GPa)
#
#
# Indices 1 2 3 4 5 6 
#
# 1 0.082956 -0.011542 -0.011282 0.000000 0.000000 0.000000
# 2 -0.011542 0.013143 -0.005716 0.000000 0.000000 0.000000
# 3 -0.011282 -0.005716 0.013915 0.000000 0.000000 0.000000
# 4 0.000000 0.000000 0.000000 0.093472 0.000000 0.000000
# 5 0.000000 0.000000 0.000000 0.000000 0.060688 0.000000
# 6 0.000000 0.000000 0.000000 0.000000 0.000000 0.111174
#
#
# Mechanical properties :
#
#
# Convention : Reuss Voigt Hill
#
# Bulk Modulus (GPa) = 18.89111 62.99792 40.94451
# Shear Modulus (GPa) = 11.10934 16.99886 14.05410
#
# Velocity S-wave (km/s) = 2.52961 3.12910 2.84519
# Velocity P-wave (km/s) = 4.40603 7.02435 5.86322
#
# Compressibility (1/GPa) = 0.05293495
#
# Stress axis : x y z
#
# Youngs Moduli (GPa) = 12.05460 76.08668 71.86327
#
# Poissons Ratio (x) = 0.87819 0.81073
# Poissons Ratio (y) = 0.13913 0.41077
# Poissons Ratio (z) = 0.13600 0.43491
#
# Static dielectric constant tensor:
#      x y z
#    x 1.591830 0.000000 0.000000 
#    y 0.000000 1.581260 0.000000 
#    z 0.000000 0.000000 1.591610 
# 
# From -- ./inp_files/26542.got.cif
#   From: 2010.05.17/outbox.cif.g08.bks.cpg/sg47_14_cif.got.tgz:26542.got - 2010.06.03 20:15:42.
