data_PCOD9386188
_publ_section_title
;
Structure prediction by ZEFSAII (Michael W. Deem and Ramdas Pophale) SiO2 
 PCOD9386188
Probable space group: P M M M
;
_chemical_formula_sum "Si O2"
_cell_formula_units_Z 37
_cell_length_a 8.481193
_cell_length_b 27.353425
_cell_length_c 7.476917
_cell_angle_alpha 90.000000
_cell_angle_beta 90.000000
_cell_angle_gamma 90.000000
_cell_volume 1734.567557
_symmetry_space_group_name_H-M "P M M M"
_symmetry_group_IT_number 47
_symmetry_cell_setting 'orthorhombic'
loop_
_space_group_symop_operation_xyz
x,y,z
-x,-y,z
x,-y,-z
-x,y,-z
-x,-y,-z
x,y,-z
-x,y,z
x,-y,z
loop_
_atom_site_type_symbol
_atom_site_label
_atom_site_fract_x
_atom_site_fract_y
_atom_site_fract_z
Si Si1 0.500000 0.590971 0.279090
Si Si2 0.500000 0.500000 0.000000
Si Si3 0.325614 0.743788 0.216279
Si Si4 0.826229 0.355257 0.709280
Si Si5 0.318433 0.052938 0.284940
Si Si6 0.174471 0.157673 0.212459
O O1 0.500000 0.584567 0.500000
O O2 0.663022 0.619513 0.228505
O O3 0.500000 0.542549 0.159352
O O4 0.500000 0.730038 0.280950
O O5 0.201815 0.702727 0.270968
O O6 0.283519 0.798371 0.279414
O O7 0.329038 0.743745 0.000000
O O8 0.833572 0.367102 0.500000
O O9 0.000000 0.368346 0.786077
O O10 0.319806 0.051549 0.500000
O O11 0.500000 0.056102 0.224033
O O12 0.232470 0.102554 0.236308
O O13 0.253681 0.000000 0.223724
O O14 0.000000 0.162872 0.288425
O O15 0.166161 0.165177 0.000000
#
# Coordination Sequence:
#
# PCOD9386188 Si02
#       6
#     4   1   8   8   8   8
#     4  10  23  45  67  98 139 173 217 276 314 364
#     4  12  26  44  78 102 132 182 234 256 324 382
#     4  10  20  34  56  84 116 152 196 245 297 361
#     4  10  21  38  62  91 126 168 208 253 314 370
#     4   9  19  36  55  73  95 130 180 235 290 352
#     4  10  21  35  50  75 110 145 183 232 293 356
#
# _framework density 21.330964000000002
#
# number of rings (size 3 to 8) (size 9 to 14) (size 15 to 20)
#    0.000    2.162    1.081    2.108    1.514    4.757 
#    0.000    4.324    0.000    2.595    0.000    0.000 
#    0.000    0.000    0.000    0.000    0.000    0.000 
#
# Total GULP energy -206062.570015 kJ/mol
# GULP energy per Si atom -5569.258649 kJ/mol
# Density = 2.128241 g / cm^3
# Si number density = 21.330964 Si / 1000 Ang^3
#
#
#
# Elastic Constant Matrix: (Units=GPa)
#
#
# Indices 1 2 3 4 5 6 
#
# 1 146.1905 61.9628 13.1090 0.0000 0.0000 0.0000
# 2 61.9628 133.7357 7.5284 0.0000 0.0000 0.0000
# 3 13.1090 7.5284 67.8873 0.0000 0.0000 0.0000
# 4 0.0000 0.0000 0.0000 34.7041 0.0000 0.0000
# 5 0.0000 0.0000 0.0000 0.0000 8.3455 0.0000
# 6 0.0000 0.0000 0.0000 0.0000 0.0000 -18.7432
#
#
#
# Elastic Compliance Matrix: (Units=1/GPa)
#
#
# Indices 1 2 3 4 5 6 
#
# 1 0.008613 -0.003921 -0.001228 0.000000 0.000000 0.000000
# 2 -0.003921 0.009310 -0.000275 0.000000 0.000000 0.000000
# 3 -0.001228 -0.000275 0.014998 0.000000 0.000000 0.000000
# 4 0.000000 0.000000 0.000000 0.028815 0.000000 0.000000
# 5 0.000000 0.000000 0.000000 0.000000 0.119825 0.000000
# 6 0.000000 0.000000 0.000000 0.000000 0.000000 -0.053353
#
#
# Mechanical properties :
#
#
# Convention : Reuss Voigt Hill
#
# Bulk Modulus (GPa) = 45.30858 57.00155 51.15507
# Shear Modulus (GPa) = 34.14979 22.54216 28.34597
#
# Velocity S-wave (km/s) = 4.00553 3.25434 3.64932
# Velocity P-wave (km/s) = 6.53293 6.39543 6.46454
#
# Compressibility (1/GPa) = 0.02207087
#
# Stress axis : x y z
#
# Youngs Moduli (GPa) = 116.10971 107.41449 66.67560
#
# Poissons Ratio (x) = 0.42120 0.08189
# Poissons Ratio (y) = 0.45529 0.01835
# Poissons Ratio (z) = 0.14261 0.02956
#
# Static dielectric constant tensor:
#      x y z
#    x 1.798720 0.000000 0.000000 
#    y 0.000000 1.747360 0.000000 
#    z 0.000000 0.000000 1.808530 
# 
# From -- ./inp_files/1539.got.cif
#   From: 2010.05.17/outbox.cif.g08.bks.cpg/sg47_1_cif.got.tgz:1539.got - 2010.06.03 20:15:42.
