data_PCOD9386642
_publ_section_title
;
Structure prediction by ZEFSAII (Michael W. Deem and Ramdas Pophale) SiO2 
 PCOD9386642
Probable space group: P M M M
;
_chemical_formula_sum "Si O2"
_cell_formula_units_Z 48
_cell_length_a 18.079592
_cell_length_b 8.740471
_cell_length_c 15.883571
_cell_angle_alpha 90.000000
_cell_angle_beta 90.000000
_cell_angle_gamma 90.000000
_cell_volume 2509.987799
_symmetry_space_group_name_H-M "P M M M"
_symmetry_group_IT_number 47
_symmetry_cell_setting 'orthorhombic'
loop_
_space_group_symop_operation_xyz
x,y,z
-x,-y,z
x,-y,-z
-x,y,-z
-x,-y,-z
x,y,-z
-x,y,z
x,-y,z
loop_
_atom_site_type_symbol
_atom_site_label
_atom_site_fract_x
_atom_site_fract_y
_atom_site_fract_z
Si Si1 0.691503 0.816209 0.594435
Si Si2 0.155140 0.815714 0.678435
Si Si3 0.350504 0.183526 0.905404
Si Si4 0.912440 0.818331 0.000000
Si Si5 0.415678 0.682677 0.263436
Si Si6 0.000000 0.186453 0.596812
Si Si7 0.809185 0.317865 0.860204
O O1 0.672475 0.763714 0.500000
O O2 0.777552 0.784125 0.614591
O O3 0.640942 0.745715 0.667160
O O4 0.682750 0.000000 0.597595
O O5 0.075497 0.767069 0.643031
O O6 0.174885 0.734913 0.765526
O O7 0.153306 0.000000 0.691929
O O8 0.397164 0.250793 0.828494
O O9 0.267060 0.242833 0.891727
O O10 0.350997 0.000000 0.899900
O O11 0.375169 0.227209 0.000000
O O12 0.874486 0.742901 0.919249
O O13 0.000000 0.795419 0.000000
O O14 0.897323 0.000000 0.000000
O O15 0.500000 0.722381 0.286398
O O16 0.408506 0.500000 0.259654
O O17 0.000000 0.237566 0.500000
O O18 0.000000 0.000000 0.595920
O O19 0.802830 0.500000 0.865636
#
# Coordination Sequence:
#
# PCOD9386642 Si02
#       7
#     8   8   8   4   8   4   8
#     4  10  21  38  63  92 122 163 214 263 310 369
#     4  10  20  36  60  89 123 162 206 253 303 363
#     4  11  23  41  67  94 122 159 205 255 305 367
#     4  11  25  43  63  87 120 163 214 261 307 363
#     4  11  25  43  63  91 128 167 206 254 315 379
#     4   9  18  34  59  90 121 156 201 251 300 353
#     4  12  24  38  60  89 123 162 203 250 308 368
#
# _framework density 19.123598999999999
#
# number of rings (size 3 to 8) (size 9 to 14) (size 15 to 20)
#    0.000    1.333    2.500    3.250    1.167    6.000 
#    0.000    3.333    0.000    2.000    0.000    0.000 
#    0.000    0.000    0.000    0.000    0.000    0.000 
#
# Total GULP energy -268313.424463 kJ/mol
# GULP energy per Si atom -5589.863010 kJ/mol
# Density = 1.908007 g / cm^3
# Si number density = 19.123599 Si / 1000 Ang^3
#
#
#
# Elastic Constant Matrix: (Units=GPa)
#
#
# Indices 1 2 3 4 5 6 
#
# 1 105.3354 35.4603 44.4045 0.0000 0.0000 0.0000
# 2 35.4603 32.4444 31.5917 0.0000 0.0000 0.0000
# 3 44.4045 31.5917 133.7307 0.0000 0.0000 0.0000
# 4 0.0000 0.0000 0.0000 -145.3171 0.0000 0.0000
# 5 0.0000 0.0000 0.0000 0.0000 21.8412 0.0000
# 6 0.0000 0.0000 0.0000 0.0000 0.0000 36.4287
#
#
#
# Elastic Compliance Matrix: (Units=1/GPa)
#
#
# Indices 1 2 3 4 5 6 
#
# 1 0.015237 -0.015230 -0.001461 0.000000 0.000000 0.000000
# 2 -0.015230 0.055253 -0.007996 0.000000 0.000000 0.000000
# 3 -0.001461 -0.007996 0.009852 0.000000 0.000000 0.000000
# 4 0.000000 0.000000 0.000000 -0.006882 0.000000 0.000000
# 5 0.000000 0.000000 0.000000 0.000000 0.045785 0.000000
# 6 0.000000 0.000000 0.000000 0.000000 0.000000 0.027451
#
#
# Mechanical properties :
#
#
# Convention : Reuss Voigt Hill
#
# Bulk Modulus (GPa) = 32.29186 54.93593 43.61389
# Shear Modulus (GPa) = 24.22573 -6.73917 8.74328
#
# Velocity S-wave (km/s) = 3.56307 -1.87927 2.14054
# Velocity P-wave (km/s) = 5.81806 4.90716 5.38192
#
# Compressibility (1/GPa) = 0.03096756
#
# Stress axis : x y z
#
# Youngs Moduli (GPa) = 65.63166 18.09857 101.50433
#
# Poissons Ratio (x) = 0.27564 0.14834
# Poissons Ratio (y) = 0.99956 0.81159
# Poissons Ratio (z) = 0.09591 0.14471
#
# Static dielectric constant tensor:
#      x y z
#    x 1.645840 0.000000 0.000000 
#    y 0.000000 1.641730 0.000000 
#    z 0.000000 0.000000 1.651880 
# 
# From -- ./inp_files/24512.got.cif
#   From: 2010.05.17/outbox.cif.g08.bks.cpg/sg47_13_cif.got.tgz:24512.got - 2010.06.03 20:15:42.
