data_PCOD9386565
_publ_section_title
;
Structure prediction by ZEFSAII (Michael W. Deem and Ramdas Pophale) SiO2 
 PCOD9386565
Probable space group: P M M M
;
_chemical_formula_sum "Si O2"
_cell_formula_units_Z 48
_cell_length_a 8.076055
_cell_length_b 18.935720
_cell_length_c 15.892962
_cell_angle_alpha 90.000000
_cell_angle_beta 90.000000
_cell_angle_gamma 90.000000
_cell_volume 2430.445775
_symmetry_space_group_name_H-M "P M M M"
_symmetry_group_IT_number 47
_symmetry_cell_setting 'orthorhombic'
loop_
_space_group_symop_operation_xyz
x,y,z
-x,-y,z
x,-y,-z
-x,y,-z
-x,-y,-z
x,y,-z
-x,y,z
x,-y,z
loop_
_atom_site_type_symbol
_atom_site_label
_atom_site_fract_x
_atom_site_fract_y
_atom_site_fract_z
Si Si1 0.696569 0.195878 0.866642
Si Si2 0.304376 0.580384 0.266080
Si Si3 0.194385 0.648277 0.093139
Si Si4 0.806500 0.690536 0.404686
Si Si5 0.000000 0.915964 0.598691
Si Si6 0.312222 0.833539 0.669619
Si Si7 0.701848 0.919459 0.000000
O O1 0.500000 0.206044 0.882745
O O2 0.783739 0.267581 0.895047
O O3 0.717043 0.183579 0.767778
O O4 0.751067 0.127593 0.919593
O O5 0.500000 0.580980 0.283000
O O6 0.242888 0.500000 0.270830
O O7 0.276925 0.610721 0.172553
O O8 0.222562 0.630564 0.335429
O O9 0.000000 0.631381 0.095897
O O10 0.258955 0.629003 0.000000
O O11 0.767377 0.667429 0.500000
O O12 0.704145 0.759720 0.379771
O O13 0.000000 0.710996 0.401940
O O14 0.166523 0.883941 0.638403
O O15 0.000000 0.897634 0.500000
O O16 0.000000 0.000000 0.607958
O O17 0.500000 0.861427 0.660060
O O18 0.500000 0.922964 0.000000
O O19 0.762559 0.000000 0.000000
#
# Coordination Sequence:
#
# PCOD9386565 Si02
#       7
#     8   8   8   8   4   8   4
#     4  10  20  35  60  90 120 160 206 252 307 373
#     4  11  25  43  63  91 126 165 212 265 323 388
#     4  11  23  38  61  90 122 161 208 259 314 379
#     4  11  23  40  65  96 129 166 212 265 321 388
#     4  11  26  46  66  93 128 166 213 269 330 390
#     4  11  23  40  66  97 129 167 216 268 320 383
#     4   9  18  34  57  87 124 161 200 251 307 371
#
# _framework density 19.749462999999999
#
# number of rings (size 3 to 8) (size 9 to 14) (size 15 to 20)
#    0.000    1.333    3.333    2.000    1.167    6.333 
#    0.000    5.833    0.000    0.500    0.000    0.000 
#    0.000    0.000    0.000    0.000    0.000    0.000 
#
# Total GULP energy -268268.827458 kJ/mol
# GULP energy per Si atom -5588.933905 kJ/mol
# Density = 1.970451 g / cm^3
# Si number density = 19.749463 Si / 1000 Ang^3
#
#
#
# Elastic Constant Matrix: (Units=GPa)
#
#
# Indices 1 2 3 4 5 6 
#
# 1 65.8061 12.8681 36.3237 0.0000 0.0000 0.0000
# 2 12.8681 51.8536 24.8739 0.0000 0.0000 0.0000
# 3 36.3237 24.8739 128.8055 0.0000 0.0000 0.0000
# 4 0.0000 0.0000 0.0000 105.6973 0.0000 0.0000
# 5 0.0000 0.0000 0.0000 0.0000 16.1390 0.0000
# 6 0.0000 0.0000 0.0000 0.0000 0.0000 24.5677
#
#
#
# Elastic Compliance Matrix: (Units=1/GPa)
#
#
# Indices 1 2 3 4 5 6 
#
# 1 0.018237 -0.002269 -0.004705 0.000000 0.000000 0.000000
# 2 -0.002269 0.021536 -0.003519 0.000000 0.000000 0.000000
# 3 -0.004705 -0.003519 0.009770 0.000000 0.000000 0.000000
# 4 0.000000 0.000000 0.000000 0.009461 0.000000 0.000000
# 5 0.000000 0.000000 0.000000 0.000000 0.061962 0.000000
# 6 0.000000 0.000000 0.000000 0.000000 0.000000 0.040704
#
#
# Mechanical properties :
#
#
# Convention : Reuss Voigt Hill
#
# Bulk Modulus (GPa) = 35.01689 43.84406 39.43047
# Shear Modulus (GPa) = 26.01810 40.77410 33.39610
#
# Velocity S-wave (km/s) = 3.63355 4.54868 4.11662
# Velocity P-wave (km/s) = 5.94749 7.05944 6.52718
#
# Compressibility (1/GPa) = 0.02855765
#
# Stress axis : x y z
#
# Youngs Moduli (GPa) = 54.83437 46.43354 102.35459
#
# Poissons Ratio (x) = 0.10535 0.48155
# Poissons Ratio (y) = 0.12441 0.36019
# Poissons Ratio (z) = 0.25798 0.16340
#
# Static dielectric constant tensor:
#      x y z
#    x 1.705420 0.000000 0.000000 
#    y 0.000000 1.668370 0.000000 
#    z 0.000000 0.000000 1.686220 
# 
# From -- ./inp_files/21094.got.cif
#   From: 2010.05.17/outbox.cif.g08.bks.cpg/sg47_11_cif.got.tgz:21094.got - 2010.06.03 20:15:42.
