data_PCOD9386365
_publ_section_title
;
Structure prediction by ZEFSAII (Michael W. Deem and Ramdas Pophale) SiO2 
 PCOD9386365
Probable space group: P M M M
;
_chemical_formula_sum "Si O2"
_cell_formula_units_Z 56
_cell_length_a 14.759756
_cell_length_b 21.343086
_cell_length_c 9.214149
_cell_angle_alpha 90.000000
_cell_angle_beta 90.000000
_cell_angle_gamma 90.000000
_cell_volume 2902.629623
_symmetry_space_group_name_H-M "P M M M"
_symmetry_group_IT_number 47
_symmetry_cell_setting 'orthorhombic'
loop_
_space_group_symop_operation_xyz
x,y,z
-x,-y,z
x,-y,-z
-x,y,-z
-x,-y,-z
x,y,-z
-x,y,z
x,-y,z
loop_
_atom_site_type_symbol
_atom_site_label
_atom_site_fract_x
_atom_site_fract_y
_atom_site_fract_z
Si Si1 0.168850 0.871804 0.328206
Si Si2 0.392567 0.328369 0.672333
Si Si3 0.605314 0.792577 0.157684
Si Si4 0.781712 0.622713 0.174340
Si Si5 0.000000 0.926179 0.836918
Si Si6 0.894837 0.500000 0.823286
Si Si7 0.107891 0.749446 0.826257
Si Si8 0.667722 0.069838 0.830385
O O1 0.163504 0.866414 0.500000
O O2 0.084339 0.904873 0.255121
O O3 0.165006 0.803401 0.254159
O O4 0.251635 0.915035 0.278409
O O5 0.384543 0.334016 0.500000
O O6 0.500000 0.340548 0.708498
O O7 0.366545 0.257310 0.722108
O O8 0.316699 0.370265 0.751511
O O9 0.500000 0.779043 0.142349
O O10 0.610511 0.866683 0.186611
O O11 0.650676 0.780304 0.000000
O O12 0.838332 0.561487 0.219908
O O13 0.845142 0.683023 0.205704
O O14 0.768663 0.620490 0.000000
O O15 0.000000 0.000000 0.850622
O O16 0.000000 0.898645 0.000000
O O17 0.000000 0.500000 0.774077
O O18 0.898148 0.500000 0.000000
O O19 0.000000 0.751531 0.785801
O O20 0.111984 0.759298 0.000000
O O21 0.628670 0.000000 0.805745
O O22 0.698585 0.070228 0.000000
#
# Coordination Sequence:
#
# PCOD9386365 Si02
#       8
#     8   8   8   8   4   4   8   8
#     4  12  24  36  52  76 105 137 178 227 276 325
#     4  10  21  37  57  83 116 154 193 235 287 342
#     4   9  18  34  57  83 109 139 181 234 285 335
#     4  10  20  35  60  91 118 152 194 235 280 331
#     4  11  23  39  57  73  95 132 175 220 275 335
#     4   9  18  36  62  93 128 158 193 237 280 331
#     4  10  20  35  56  81 111 146 185 228 279 341
#     4  10  21  36  53  74 103 141 182 224 279 345
#
# _framework density 19.292850999999999
#
# number of rings (size 3 to 8) (size 9 to 14) (size 15 to 20)
#    0.000    1.857    0.714    3.643    0.000   10.000 
#    0.000    2.143    0.000    3.857    0.000    3.000 
#    0.000    0.000    0.000    0.000    0.000    0.000 
#
# Total GULP energy -312146.930144 kJ/mol
# GULP energy per Si atom -5574.052324 kJ/mol
# Density = 1.924894 g / cm^3
# Si number density = 19.292851 Si / 1000 Ang^3
#
#
#
# Elastic Constant Matrix: (Units=GPa)
#
#
# Indices 1 2 3 4 5 6 
#
# 1 90.3036 40.6364 36.9368 0.0000 0.0000 0.0000
# 2 40.6364 133.3567 34.9976 0.0000 0.0000 0.0000
# 3 36.9368 34.9976 50.8080 0.0000 0.0000 0.0000
# 4 0.0000 0.0000 0.0000 -20.3170 0.0000 0.0000
# 5 0.0000 0.0000 0.0000 0.0000 7.5317 0.0000
# 6 0.0000 0.0000 0.0000 0.0000 0.0000 44.1062
#
#
#
# Elastic Compliance Matrix: (Units=1/GPa)
#
#
# Indices 1 2 3 4 5 6 
#
# 1 0.016303 -0.002267 -0.010290 0.000000 0.000000 0.000000
# 2 -0.002267 0.009469 -0.004874 0.000000 0.000000 0.000000
# 3 -0.010290 -0.004874 0.030520 0.000000 0.000000 0.000000
# 4 0.000000 0.000000 0.000000 -0.049220 0.000000 0.000000
# 5 0.000000 0.000000 0.000000 0.000000 0.132772 0.000000
# 6 0.000000 0.000000 0.000000 0.000000 0.000000 0.022673
#
#
# Mechanical properties :
#
#
# Convention : Reuss Voigt Hill
#
# Bulk Modulus (GPa) = 46.66632 55.51222 51.08927
# Shear Modulus (GPa) = 24.44718 17.05735 20.75227
#
# Velocity S-wave (km/s) = 3.56358 2.97666 3.28326
# Velocity P-wave (km/s) = 6.41663 6.37573 6.39621
#
# Compressibility (1/GPa) = 0.02142873
#
# Stress axis : x y z
#
# Youngs Moduli (GPa) = 61.33794 105.61153 32.76520
#
# Poissons Ratio (x) = 0.23945 0.33717
# Poissons Ratio (y) = 0.13907 0.15969
# Poissons Ratio (z) = 0.63119 0.51474
#
# Static dielectric constant tensor:
#      x y z
#    x 1.688950 0.000000 0.000000 
#    y 0.000000 1.684790 0.000000 
#    z 0.000000 0.000000 1.658450 
# 
# From -- ./inp_files/7448.got.cif
#   From: 2010.05.17/outbox.cif.g08.bks.cpg/sg47_4_cif.got.tgz:7448.got - 2010.06.03 20:15:42.
