data_PCOD9386764
_publ_section_title
;
Structure prediction by ZEFSAII (Michael W. Deem and Ramdas Pophale) SiO2 
 PCOD9386764
Probable space group: P M M M
;
_chemical_formula_sum "Si O2"
_cell_formula_units_Z 45
_cell_length_a 15.282173
_cell_length_b 7.605894
_cell_length_c 18.569337
_cell_angle_alpha 90.000000
_cell_angle_beta 90.000000
_cell_angle_gamma 90.000000
_cell_volume 2158.399234
_symmetry_space_group_name_H-M "P M M M"
_symmetry_group_IT_number 47
_symmetry_cell_setting 'orthorhombic'
loop_
_space_group_symop_operation_xyz
x,y,z
-x,-y,z
x,-y,-z
-x,y,-z
-x,-y,-z
x,y,-z
-x,y,z
x,-y,z
loop_
_atom_site_type_symbol
_atom_site_label
_atom_site_fract_x
_atom_site_fract_y
_atom_site_fract_z
Si Si1 0.400726 0.209549 0.279885
Si Si2 0.724976 0.214194 0.849243
Si Si3 0.904368 0.705131 0.610350
Si Si4 0.288628 0.712321 0.578311
Si Si5 0.500000 0.000000 0.000000
Si Si6 0.904516 0.212681 0.221947
Si Si7 0.354113 0.305665 0.000000
O O1 0.500000 0.279807 0.283312
O O2 0.345042 0.273983 0.211319
O O3 0.346883 0.237431 0.353400
O O4 0.407150 0.000000 0.270296
O O5 0.820976 0.269222 0.823052
O O6 0.701680 0.283143 0.927462
O O7 0.722579 0.000000 0.851321
O O8 0.905996 0.500000 0.589028
O O9 0.811694 0.779294 0.584222
O O10 0.899206 0.716753 0.696880
O O11 0.000000 0.780657 0.589552
O O12 0.324434 0.766285 0.500000
O O13 0.284337 0.500000 0.579665
O O14 0.424772 0.847126 0.000000
O O15 0.000000 0.261610 0.192273
O O16 0.901251 0.000000 0.227491
O O17 0.393303 0.500000 0.000000
#
# Coordination Sequence:
#
# PCOD9386764 Si02
#       7
#     8   8   8   8   1   8   4
#     4  10  22  38  60  84 109 150 196 244 307 367
#     4  10  20  39  63  88 128 165 197 257 317 367
#     4   9  17  30  50  78 111 147 189 242 301 361
#     4  10  21  36  53  77 112 151 193 247 304 360
#     4  12  26  52  68  94 146 168 208 272 320 378
#     4   9  17  31  57  89 118 156 202 243 302 373
#     4  12  27  43  70 101 130 174 214 260 322 376
#
# _framework density 20.848786
#
# number of rings (size 3 to 8) (size 9 to 14) (size 15 to 20)
#    0.000    2.133    2.667    0.133    1.244    2.844 
#    0.000    4.000    0.000    2.667    0.000    3.733 
#    0.000    0.000    0.000    0.000    0.000    0.000 
#
# Total GULP energy -250950.798905 kJ/mol
# GULP energy per Si atom -5576.684420 kJ/mol
# Density = 2.080133 g / cm^3
# Si number density = 20.848786 Si / 1000 Ang^3
#
#
#
# Elastic Constant Matrix: (Units=GPa)
#
#
# Indices 1 2 3 4 5 6 
#
# 1 178.9250 23.1928 98.2758 0.0000 0.0000 0.0000
# 2 23.1928 68.6385 9.9253 0.0000 0.0000 0.0000
# 3 98.2758 9.9253 168.5892 0.0000 0.0000 0.0000
# 4 0.0000 0.0000 0.0000 7.0883 0.0000 0.0000
# 5 0.0000 0.0000 0.0000 0.0000 -3.2206 0.0000
# 6 0.0000 0.0000 0.0000 0.0000 0.0000 46.8955
#
#
#
# Elastic Compliance Matrix: (Units=1/GPa)
#
#
# Indices 1 2 3 4 5 6 
#
# 1 0.008534 -0.002183 -0.004846 0.000000 0.000000 0.000000
# 2 -0.002183 0.015252 0.000374 0.000000 0.000000 0.000000
# 3 -0.004846 0.000374 0.008734 0.000000 0.000000 0.000000
# 4 0.000000 0.000000 0.000000 0.141078 0.000000 0.000000
# 5 0.000000 0.000000 0.000000 0.000000 -0.310501 0.000000
# 6 0.000000 0.000000 0.000000 0.000000 0.000000 0.021324
#
#
# Mechanical properties :
#
#
# Convention : Reuss Voigt Hill
#
# Bulk Modulus (GPa) = 52.05108 75.43784 63.74446
# Shear Modulus (GPa) = -52.15624 29.13655 -11.50984
#
# Velocity S-wave (km/s) = -5.00707 3.74239 -2.35215
# Velocity P-wave (km/s) = 2.89956 7.41188 4.82330
#
# Compressibility (1/GPa) = 0.01921190
#
# Stress axis : x y z
#
# Youngs Moduli (GPa) = 117.18459 65.56308 114.48990
#
# Poissons Ratio (x) = 0.14311 0.55481
# Poissons Ratio (y) = 0.25578 -0.04287
# Poissons Ratio (z) = 0.56787 -0.02455
#
# Static dielectric constant tensor:
#      x y z
#    x 1.755990 0.000000 0.000000 
#    y 0.000000 1.786060 0.000000 
#    z 0.000000 0.000000 1.710000 
# 
# From -- ./inp_files/27915.got.cif
#   From: 2010.05.17/outbox.cif.g08.bks.cpg/sg47_14_cif.got.tgz:27915.got - 2010.06.03 20:15:42.
