data_PCOD9386381
_publ_section_title
;
Structure prediction by ZEFSAII (Michael W. Deem and Ramdas Pophale) SiO2 
 PCOD9386381
Probable space group: P M M M
;
_chemical_formula_sum "Si O2"
_cell_formula_units_Z 48
_cell_length_a 8.799459
_cell_length_b 21.036711
_cell_length_c 14.373236
_cell_angle_alpha 90.000000
_cell_angle_beta 90.000000
_cell_angle_gamma 90.000000
_cell_volume 2660.653805
_symmetry_space_group_name_H-M "P M M M"
_symmetry_group_IT_number 47
_symmetry_cell_setting 'orthorhombic'
loop_
_space_group_symop_operation_xyz
x,y,z
-x,-y,z
x,-y,-z
-x,y,-z
-x,-y,-z
x,y,-z
-x,y,z
x,-y,z
loop_
_atom_site_type_symbol
_atom_site_label
_atom_site_fract_x
_atom_site_fract_y
_atom_site_fract_z
Si Si1 0.181185 0.183013 0.106896
Si Si2 0.317640 0.500000 0.608844
Si Si3 0.681842 0.873045 0.284800
Si Si4 0.817962 0.621550 0.712798
Si Si5 0.681695 0.676279 0.892767
Si Si6 0.818255 0.246970 0.609512
Si Si7 0.685245 0.000000 0.392801
O O1 0.247122 0.135316 0.182847
O O2 0.253641 0.252637 0.122948
O O3 0.000000 0.188585 0.117926
O O4 0.214316 0.164940 0.000000
O O5 0.500000 0.500000 0.613844
O O6 0.272801 0.500000 0.500000
O O7 0.253193 0.437971 0.659969
O O8 0.500000 0.873894 0.277483
O O9 0.733694 0.811645 0.343154
O O10 0.732474 0.936608 0.338274
O O11 0.755274 0.630346 0.816921
O O12 0.777755 0.686612 0.658326
O O13 0.000000 0.615807 0.713970
O O14 0.500000 0.677474 0.881772
O O15 0.716991 0.659249 0.000000
O O16 0.785208 0.249914 0.500000
O O17 0.000000 0.237957 0.621406
O O18 0.500000 0.000000 0.394734
O O19 0.737072 0.000000 0.500000
#
# Coordination Sequence:
#
# PCOD9386381 Si02
#       7
#     8   4   8   8   8   8   4
#     4  10  20  35  56  83 116 152 189 233 288 347
#     4  11  25  43  62  85 118 159 201 244 290 343
#     4  11  21  35  58  84 112 149 193 241 292 343
#     4  11  22  38  61  87 118 156 195 237 290 348
#     4  10  20  35  58  89 121 152 190 237 288 342
#     4  10  21  36  55  82 115 148 188 238 288 342
#     4   9  20  38  56  79 114 154 193 235 290 351
#
# _framework density 18.040678
#
# number of rings (size 3 to 8) (size 9 to 14) (size 15 to 20)
#    0.000    1.667    1.667    3.250    0.000    5.000 
#    0.000    2.500    0.000    8.000    0.000    0.000 
#    0.000    0.000    0.000    0.000    0.000    0.000 
#
# Total GULP energy -268193.899200 kJ/mol
# GULP energy per Si atom -5587.372900 kJ/mol
# Density = 1.799962 g / cm^3
# Si number density = 18.040678 Si / 1000 Ang^3
#
#
#
# Elastic Constant Matrix: (Units=GPa)
#
#
# Indices 1 2 3 4 5 6 
#
# 1 54.8575 54.1877 61.2928 0.0000 0.0000 0.0000
# 2 54.1877 143.6407 96.3037 0.0000 0.0000 0.0000
# 3 61.2928 96.3037 172.8690 0.0000 0.0000 0.0000
# 4 0.0000 0.0000 0.0000 34.2475 0.0000 0.0000
# 5 0.0000 0.0000 0.0000 0.0000 31.6698 0.0000
# 6 0.0000 0.0000 0.0000 0.0000 0.0000 46.8023
#
#
#
# Elastic Compliance Matrix: (Units=1/GPa)
#
#
# Indices 1 2 3 4 5 6 
#
# 1 0.034890 -0.007770 -0.008042 0.000000 0.000000 0.000000
# 2 -0.007770 0.012843 -0.004400 0.000000 0.000000 0.000000
# 3 -0.008042 -0.004400 0.011087 0.000000 0.000000 0.000000
# 4 0.000000 0.000000 0.000000 0.029199 0.000000 0.000000
# 5 0.000000 0.000000 0.000000 0.000000 0.031576 0.000000
# 6 0.000000 0.000000 0.000000 0.000000 0.000000 0.021366
#
#
# Mechanical properties :
#
#
# Convention : Reuss Voigt Hill
#
# Bulk Modulus (GPa) = 54.35927 88.32619 71.34273
# Shear Modulus (GPa) = 26.66437 33.18281 29.92359
#
# Velocity S-wave (km/s) = 3.84867 4.29340 4.07710
# Velocity P-wave (km/s) = 7.06729 8.58157 7.86098
#
# Compressibility (1/GPa) = 0.01839613
#
# Stress axis : x y z
#
# Youngs Moduli (GPa) = 28.66181 77.86463 90.19606
#
# Poissons Ratio (x) = 0.60504 0.72533
# Poissons Ratio (y) = 0.22271 0.39682
# Poissons Ratio (z) = 0.23049 0.34257
#
# Static dielectric constant tensor:
#      x y z
#    x 1.604480 0.000000 0.000000 
#    y 0.000000 1.580050 0.000000 
#    z 0.000000 0.000000 1.625600 
# 
# From -- ./inp_files/21059.got.cif
#   From: 2010.05.17/outbox.cif.g08.bks.cpg/sg47_11_cif.got.tgz:21059.got - 2010.06.03 20:15:42.
