data_PCOD9386025
_publ_section_title
;
Structure prediction by ZEFSAII (Michael W. Deem and Ramdas Pophale) SiO2 
 PCOD9386025
Probable space group: P M M M
;
_chemical_formula_sum "Si O2"
_cell_formula_units_Z 48
_cell_length_a 8.158568
_cell_length_b 9.327978
_cell_length_c 33.378287
_cell_angle_alpha 90.000000
_cell_angle_beta 90.000000
_cell_angle_gamma 90.000000
_cell_volume 2540.185867
_symmetry_space_group_name_H-M "P M M M"
_symmetry_group_IT_number 47
_symmetry_cell_setting 'orthorhombic'
loop_
_space_group_symop_operation_xyz
x,y,z
-x,-y,z
x,-y,-z
-x,y,-z
-x,-y,-z
x,y,-z
-x,y,z
x,-y,z
loop_
_atom_site_type_symbol
_atom_site_label
_atom_site_fract_x
_atom_site_fract_y
_atom_site_fract_z
Si Si1 0.304892 0.837981 0.577366
Si Si2 0.804523 0.335492 0.654522
Si Si3 0.500000 0.325731 0.954118
Si Si4 0.186332 0.327541 0.901048
Si Si5 0.697649 0.665254 0.257490
Si Si6 0.301621 0.168595 0.822073
Si Si7 0.195124 0.661744 0.500000
O O1 0.500000 0.845450 0.574671
O O2 0.260366 0.761918 0.618915
O O3 0.245477 0.745975 0.539769
O O4 0.237876 0.000000 0.575794
O O5 0.742491 0.500000 0.650330
O O6 0.756465 0.284817 0.698958
O O7 0.000000 0.339097 0.651712
O O8 0.500000 0.500000 0.954739
O O9 0.333846 0.283069 0.930814
O O10 0.500000 0.275691 0.000000
O O11 0.198617 0.500000 0.895854
O O12 0.219354 0.250751 0.858895
O O13 0.000000 0.296533 0.915011
O O14 0.500000 0.665144 0.258032
O O15 0.753082 0.500000 0.252065
O O16 0.749937 0.761428 0.220100
O O17 0.500000 0.185730 0.825640
O O18 0.264979 0.000000 0.823104
O O19 0.263698 0.500000 0.500000
O O20 0.000000 0.652233 0.500000
#
# Coordination Sequence:
#
# PCOD9386025 Si02
#       7
#     8   8   4   8   8   8   4
#     4  11  24  40  59  84 113 145 183 226 272 326
#     4  10  21  37  57  82 112 146 185 228 275 330
#     4   9  18  34  57  85 117 149 185 237 293 342
#     4  10  20  34  56  84 113 149 191 234 285 345
#     4   9  18  33  54  79 110 150 192 233 278 331
#     4  10  20  34  54  80 112 150 190 235 286 338
#     4  11  24  41  62  88 114 141 178 223 272 328
#
# _framework density 18.896255
#
# number of rings (size 3 to 8) (size 9 to 14) (size 15 to 20)
#    0.000    2.000    0.833    2.500    0.000    8.667 
#    0.000    5.000    0.000    1.000    0.000    1.167 
#    0.000    0.000    0.000    0.000    0.000    0.000 
#
# Total GULP energy -268023.094370 kJ/mol
# GULP energy per Si atom -5583.814466 kJ/mol
# Density = 1.885325 g / cm^3
# Si number density = 18.896255 Si / 1000 Ang^3
#
#
#
# Elastic Constant Matrix: (Units=GPa)
#
#
# Indices 1 2 3 4 5 6 
#
# 1 79.3166 42.3092 64.2803 0.0000 0.0000 0.0000
# 2 42.3092 82.1058 77.8969 0.0000 0.0000 0.0000
# 3 64.2803 77.8969 170.5712 0.0000 0.0000 0.0000
# 4 0.0000 0.0000 0.0000 -16.5762 0.0000 0.0000
# 5 0.0000 0.0000 0.0000 0.0000 -159.6633 0.0000
# 6 0.0000 0.0000 0.0000 0.0000 0.0000 21.2177
#
#
#
# Elastic Compliance Matrix: (Units=1/GPa)
#
#
# Indices 1 2 3 4 5 6 
#
# 1 0.019423 -0.005407 -0.004850 0.000000 0.000000 0.000000
# 2 -0.005407 0.022996 -0.008464 0.000000 0.000000 0.000000
# 3 -0.004850 -0.008464 0.011556 0.000000 0.000000 0.000000
# 4 0.000000 0.000000 0.000000 -0.060327 0.000000 0.000000
# 5 0.000000 0.000000 0.000000 0.000000 -0.006263 0.000000
# 6 0.000000 0.000000 0.000000 0.000000 0.000000 0.047130
#
#
# Mechanical properties :
#
#
# Convention : Reuss Voigt Hill
#
# Bulk Modulus (GPa) = 60.48958 77.88513 69.18736
# Shear Modulus (GPa) = 64.54315 -21.17054 21.68631
#
# Velocity S-wave (km/s) = 5.85070 -3.35080 3.39138
# Velocity P-wave (km/s) = 8.81600 5.13188 7.21312
#
# Compressibility (1/GPa) = 0.01653177
#
# Stress axis : x y z
#
# Youngs Moduli (GPa) = 51.48635 43.48604 86.53556
#
# Poissons Ratio (x) = 0.23512 0.41972
# Poissons Ratio (y) = 0.27838 0.73246
# Poissons Ratio (z) = 0.24972 0.36808
#
# Static dielectric constant tensor:
#      x y z
#    x 1.667330 0.000000 0.000000 
#    y 0.000000 1.650270 0.000000 
#    z 0.000000 0.000000 1.391110 
# 
# From -- ./inp_files/34172.got.cif
#   From: 2010.05.17/outbox.cif.g08.bks.cpg/sg47_18_cif.got.tgz:34172.got - 2010.06.03 20:15:42.
