data_PCOD9386206
_publ_section_title
;
Structure prediction by ZEFSAII (Michael W. Deem and Ramdas Pophale) SiO2 
 PCOD9386206
Probable space group: P M M M
;
_chemical_formula_sum "Si O2"
_cell_formula_units_Z 64
_cell_length_a 14.842837
_cell_length_b 26.050515
_cell_length_c 8.728969
_cell_angle_alpha 90.000000
_cell_angle_beta 90.000000
_cell_angle_gamma 90.000000
_cell_volume 3375.174123
_symmetry_space_group_name_H-M "P M M M"
_symmetry_group_IT_number 47
_symmetry_cell_setting 'orthorhombic'
loop_
_space_group_symop_operation_xyz
x,y,z
-x,-y,z
x,-y,-z
-x,y,-z
-x,-y,-z
x,y,-z
-x,y,z
x,-y,z
loop_
_atom_site_type_symbol
_atom_site_label
_atom_site_fract_x
_atom_site_fract_y
_atom_site_fract_z
Si Si1 0.211359 0.750898 0.316905
Si Si2 0.786965 0.442236 0.682510
Si Si3 0.786729 0.058463 0.816026
Si Si4 0.601682 0.407557 0.817027
Si Si5 0.600483 0.293372 0.683597
Si Si6 0.598228 0.062290 0.320862
Si Si7 0.894147 0.346621 0.183215
Si Si8 0.897657 0.845268 0.185254
O O1 0.205935 0.754184 0.500000
O O2 0.316000 0.742409 0.273746
O O3 0.156699 0.701005 0.260744
O O4 0.167105 0.800895 0.244602
O O5 0.791780 0.434669 0.500000
O O6 0.817686 0.500000 0.719107
O O7 0.683516 0.436008 0.735495
O O8 0.846040 0.398796 0.763636
O O9 0.687894 0.077892 0.766662
O O10 0.860666 0.099281 0.764191
O O11 0.799687 0.000000 0.758498
O O12 0.789414 0.056343 0.000000
O O13 0.500000 0.424487 0.774449
O O14 0.609243 0.347787 0.768844
O O15 0.610912 0.412417 0.000000
O O16 0.606712 0.303186 0.500000
O O17 0.500000 0.272751 0.714618
O O18 0.605778 0.076104 0.500000
O O19 0.500000 0.080250 0.263911
O O20 0.596678 0.000000 0.312792
O O21 0.000000 0.346688 0.223551
O O22 0.886433 0.341530 0.000000
O O23 0.000000 0.836461 0.236793
O O24 0.897084 0.844344 0.000000
#
# Coordination Sequence:
#
# PCOD9386206 Si02
#       8
#     8   8   8   8   8   8   8   8
#     4  11  22  37  61  89 115 146 185 230 278 333
#     4  11  24  40  58  83 116 154 195 239 286 337
#     4   9  18  33  54  80 109 144 188 235 281 331
#     4  10  20  34  56  86 117 151 191 234 281 335
#     4   9  18  34  57  84 114 147 182 222 274 336
#     4   8  14  26  46  73 105 141 179 218 264 321
#     4  11  24  41  62  86 112 146 188 236 292 348
#     4  10  22  39  57  79 110 147 186 233 288 339
#
# _framework density 18.961984000000001
#
# number of rings (size 3 to 8) (size 9 to 14) (size 15 to 20)
#    0.000    2.125    1.250    2.250    0.000    6.500 
#    0.000    5.625    0.000    2.250    0.000    2.625 
#    0.000    0.000    0.000    0.000    0.000    0.000 
#
# Total GULP energy -357197.468338 kJ/mol
# GULP energy per Si atom -5581.210443 kJ/mol
# Density = 1.891883 g / cm^3
# Si number density = 18.961984 Si / 1000 Ang^3
#
#
#
# Elastic Constant Matrix: (Units=GPa)
#
#
# Indices 1 2 3 4 5 6 
#
# 1 107.8338 49.4034 20.0247 0.0000 0.0000 0.0000
# 2 49.4034 82.1584 14.9742 0.0000 0.0000 0.0000
# 3 20.0247 14.9742 14.0949 0.0000 0.0000 0.0000
# 4 0.0000 0.0000 0.0000 27.1417 0.0000 0.0000
# 5 0.0000 0.0000 0.0000 0.0000 21.9930 0.0000
# 6 0.0000 0.0000 0.0000 0.0000 0.0000 -1.2765
#
#
#
# Elastic Compliance Matrix: (Units=1/GPa)
#
#
# Indices 1 2 3 4 5 6 
#
# 1 0.014828 -0.006296 -0.014377 0.000000 0.000000 0.000000
# 2 -0.006296 0.017768 -0.009931 0.000000 0.000000 0.000000
# 3 -0.014377 -0.009931 0.101924 0.000000 0.000000 0.000000
# 4 0.000000 0.000000 0.000000 0.036844 0.000000 0.000000
# 5 0.000000 0.000000 0.000000 0.000000 0.045469 0.000000
# 6 0.000000 0.000000 0.000000 0.000000 0.000000 -0.783388
#
#
# Mechanical properties :
#
#
# Convention : Reuss Voigt Hill
#
# Bulk Modulus (GPa) = 13.64061 41.43242 27.53652
# Shear Modulus (GPa) = -10.39696 17.55063 3.57683
#
# Velocity S-wave (km/s) = -2.34413 3.04562 1.37492
# Velocity P-wave (km/s) = 0.34254 5.85367 4.13207
#
# Compressibility (1/GPa) = 0.07331051
#
# Stress axis : x y z
#
# Youngs Moduli (GPa) = 67.44086 56.28252 9.81121
#
# Poissons Ratio (x) = 0.35435 0.14106
# Poissons Ratio (y) = 0.42460 0.09744
# Poissons Ratio (z) = 0.96962 0.55896
#
# Static dielectric constant tensor:
#      x y z
#    x 1.670510 0.000000 0.000000 
#    y 0.000000 1.645810 0.000000 
#    z 0.000000 0.000000 1.639540 
# 
# From -- ./inp_files/7845.got.cif
#   From: 2010.05.17/outbox.cif.g08.bks.cpg/sg47_4_cif.got.tgz:7845.got - 2010.06.03 20:15:42.
