data_PCOD9386540
_publ_section_title
;
Structure prediction by ZEFSAII (Michael W. Deem and Ramdas Pophale) SiO2 
 PCOD9386540
Probable space group: P M M M
;
_chemical_formula_sum "Si O2"
_cell_formula_units_Z 21
_cell_length_a 10.484293
_cell_length_b 7.456261
_cell_length_c 12.829339
_cell_angle_alpha 90.000000
_cell_angle_beta 90.000000
_cell_angle_gamma 90.000000
_cell_volume 1002.915936
_symmetry_space_group_name_H-M "P M M M"
_symmetry_group_IT_number 47
_symmetry_cell_setting 'orthorhombic'
loop_
_space_group_symop_operation_xyz
x,y,z
-x,-y,z
x,-y,-z
-x,y,-z
-x,-y,-z
x,y,-z
-x,y,z
x,-y,z
loop_
_atom_site_type_symbol
_atom_site_label
_atom_site_fract_x
_atom_site_fract_y
_atom_site_fract_z
Si Si1 0.356390 0.718625 0.380008
Si Si2 0.277091 0.200126 0.000000
Si Si3 0.144418 0.282531 0.216218
Si Si4 0.500000 0.500000 0.000000
O O1 0.335659 0.772995 0.500000
O O2 0.500000 0.773181 0.348320
O O3 0.355759 0.500000 0.378832
O O4 0.246999 0.779442 0.301889
O O5 0.191323 0.225442 0.897312
O O6 0.388290 0.345175 0.000000
O O7 0.330091 0.000000 0.000000
O O8 0.145304 0.500000 0.218292
O O9 0.000000 0.223564 0.237378
#
# Coordination Sequence:
#
# PCOD9386540 Si02
#       4
#     8   4   8   1
#     4   8  15  28  50  81 118 164 217 268 316 368
#     4  12  26  42  66  95 126 167 207 256 317 371
#     4  10  20  35  58  87 126 172 213 261 316 371
#     4  12  26  48  66  94 130 160 208 264 308 380
#
# _framework density 20.938943999999999
#
# number of rings (size 3 to 8) (size 9 to 14) (size 15 to 20)
#    0.000    2.286    1.905    2.000    2.667    3.810 
#    0.000    3.810    0.000    1.143    0.000    5.333 
#    0.000    0.000    0.000    0.000    0.000    0.000 
#
# Total GULP energy -117088.971516 kJ/mol
# GULP energy per Si atom -5575.665310 kJ/mol
# Density = 2.089129 g / cm^3
# Si number density = 20.938944 Si / 1000 Ang^3
#
#
#
# Elastic Constant Matrix: (Units=GPa)
#
#
# Indices 1 2 3 4 5 6 
#
# 1 235.4649 40.9216 141.0500 0.0000 0.0000 0.0000
# 2 40.9216 106.8691 11.6858 0.0000 0.0000 0.0000
# 3 141.0500 11.6858 153.1748 0.0000 0.0000 0.0000
# 4 0.0000 0.0000 0.0000 8.3983 0.0000 0.0000
# 5 0.0000 0.0000 0.0000 0.0000 -7.8157 0.0000
# 6 0.0000 0.0000 0.0000 0.0000 0.0000 -42.6618
#
#
#
# Elastic Compliance Matrix: (Units=1/GPa)
#
#
# Indices 1 2 3 4 5 6 
#
# 1 0.010310 -0.002934 -0.009270 0.000000 0.000000 0.000000
# 2 -0.002934 0.010271 0.001918 0.000000 0.000000 0.000000
# 3 -0.009270 0.001918 0.014918 0.000000 0.000000 0.000000
# 4 0.000000 0.000000 0.000000 0.119071 0.000000 0.000000
# 5 0.000000 0.000000 0.000000 0.000000 -0.127948 0.000000
# 6 0.000000 0.000000 0.000000 0.000000 0.000000 -0.023440
#
#
# Mechanical properties :
#
#
# Convention : Reuss Voigt Hill
#
# Bulk Modulus (GPa) = 66.98992 98.09153 82.54072
# Shear Modulus (GPa) = 174.03944 11.70760 92.87352
#
# Velocity S-wave (km/s) = 9.12678 2.36716 6.66714
# Velocity P-wave (km/s) = 11.96355 7.37695 9.93846
#
# Compressibility (1/GPa) = 0.01492762
#
# Stress axis : x y z
#
# Youngs Moduli (GPa) = 96.99631 97.36167 67.03252
#
# Poissons Ratio (x) = 0.28567 0.62137
# Poissons Ratio (y) = 0.28460 -0.12859
# Poissons Ratio (z) = 0.89913 -0.18676
#
# Static dielectric constant tensor:
#      x y z
#    x 1.708800 0.000000 0.000000 
#    y 0.000000 1.756870 0.000000 
#    z 0.000000 0.000000 1.712000 
# 
# From -- ./inp_files/429.got.cif
#   From: 2010.05.17/outbox.cif.g08.bks.cpg/sg47_1_cif.got.tgz:429.got - 2010.06.03 20:15:42.
