data_PCOD9386760
_publ_section_title
;
Structure prediction by ZEFSAII (Michael W. Deem and Ramdas Pophale) SiO2 
 PCOD9386760
Probable space group: P M M M
;
_chemical_formula_sum "Si O2"
_cell_formula_units_Z 44
_cell_length_a 7.559411
_cell_length_b 20.286291
_cell_length_c 14.672505
_cell_angle_alpha 90.000000
_cell_angle_beta 90.000000
_cell_angle_gamma 90.000000
_cell_volume 2250.064022
_symmetry_space_group_name_H-M "P M M M"
_symmetry_group_IT_number 47
_symmetry_cell_setting 'orthorhombic'
loop_
_space_group_symop_operation_xyz
x,y,z
-x,-y,z
x,-y,-z
-x,y,-z
-x,-y,-z
x,y,-z
-x,y,z
x,-y,z
loop_
_atom_site_type_symbol
_atom_site_label
_atom_site_fract_x
_atom_site_fract_y
_atom_site_fract_z
Si Si1 0.785031 0.282337 0.898636
Si Si2 0.705650 0.071723 0.707020
Si Si3 0.214004 0.870437 0.898117
Si Si4 0.207861 0.796350 0.601677
Si Si5 0.500000 0.421242 0.392634
Si Si6 0.784811 0.335107 0.706812
O O1 0.730534 0.205959 0.884298
O O2 0.735628 0.327110 0.813300
O O3 0.000000 0.280953 0.899177
O O4 0.726698 0.302643 0.000000
O O5 0.500000 0.069359 0.683811
O O6 0.722897 0.086003 0.814589
O O7 0.777011 0.134651 0.653683
O O8 0.784955 0.000000 0.685550
O O9 0.000000 0.871411 0.896005
O O10 0.269479 0.890768 0.000000
O O11 0.285316 0.799164 0.500000
O O12 0.271275 0.734383 0.660372
O O13 0.000000 0.783855 0.592808
O O14 0.500000 0.500000 0.385371
O O15 0.500000 0.403336 0.500000
O O16 0.327112 0.390688 0.343913
O O17 0.000000 0.343281 0.699826
#
# Coordination Sequence:
#
# PCOD9386760 Si02
#       6
#     8   8   8   8   4   8
#     4   8  14  28  55  89 119 147 186 239 295 349
#     4  11  24  37  49  71 108 151 190 238 299 353
#     4   9  17  32  54  77 103 139 185 235 286 343
#     4  10  21  37  58  83 107 139 190 245 293 342
#     4  11  26  44  63  93 128 162 200 239 287 349
#     4  10  20  38  65  93 123 158 197 244 295 348
#
# _framework density 19.554998999999999
#
# number of rings (size 3 to 8) (size 9 to 14) (size 15 to 20)
#    0.000    2.273    1.818    2.182    1.273    4.364 
#    0.000    5.000    0.000    1.091    0.000    2.545 
#    0.000    0.000    0.000    0.000    0.000    0.000 
#
# Total GULP energy -245484.876328 kJ/mol
# GULP energy per Si atom -5579.201735 kJ/mol
# Density = 1.951049 g / cm^3
# Si number density = 19.554999 Si / 1000 Ang^3
#
#
#
# Elastic Constant Matrix: (Units=GPa)
#
#
# Indices 1 2 3 4 5 6 
#
# 1 57.6253 19.5857 17.5685 0.0000 0.0000 0.0000
# 2 19.5857 91.7626 60.1316 0.0000 0.0000 0.0000
# 3 17.5685 60.1316 131.9369 0.0000 0.0000 0.0000
# 4 0.0000 0.0000 0.0000 -2.7190 0.0000 0.0000
# 5 0.0000 0.0000 0.0000 0.0000 -40.5465 0.0000
# 6 0.0000 0.0000 0.0000 0.0000 0.0000 18.8597
#
#
#
# Elastic Compliance Matrix: (Units=1/GPa)
#
#
# Indices 1 2 3 4 5 6 
#
# 1 0.018796 -0.003382 -0.000962 0.000000 0.000000 0.000000
# 2 -0.003382 0.016147 -0.006909 0.000000 0.000000 0.000000
# 3 -0.000962 -0.006909 0.010856 0.000000 0.000000 0.000000
# 4 0.000000 0.000000 0.000000 -0.367785 0.000000 0.000000
# 5 0.000000 0.000000 0.000000 0.000000 -0.024663 0.000000
# 6 0.000000 0.000000 0.000000 0.000000 0.000000 0.053023
#
#
# Mechanical properties :
#
#
# Convention : Reuss Voigt Hill
#
# Bulk Modulus (GPa) = 42.92793 52.87741 47.90267
# Shear Modulus (GPa) = -18.98564 7.38812 -5.79876
#
# Velocity S-wave (km/s) = -3.11928 1.94585 -1.72389
# Velocity P-wave (km/s) = 3.00447 5.66988 4.53731
#
# Compressibility (1/GPa) = 0.02329486
#
# Stress axis : x y z
#
# Youngs Moduli (GPa) = 53.20279 61.93205 92.11360
#
# Poissons Ratio (x) = 0.20943 0.08858
# Poissons Ratio (y) = 0.17991 0.63639
# Poissons Ratio (z) = 0.05116 0.42787
#
# Static dielectric constant tensor:
#      x y z
#    x 1.728030 0.000000 0.000000 
#    y 0.000000 1.663600 0.000000 
#    z 0.000000 0.000000 1.708340 
# 
# From -- ./inp_files/20914.got.cif
#   From: 2010.05.17/outbox.cif.g08.bks.cpg/sg47_11_cif.got.tgz:20914.got - 2010.06.03 20:15:42.
