data_PCOD9386077
_publ_section_title
;
Structure prediction by ZEFSAII (Michael W. Deem and Ramdas Pophale) SiO2 
 PCOD9386077
Probable space group: P M M M
;
_chemical_formula_sum "Si O2"
_cell_formula_units_Z 26
_cell_length_a 17.992322
_cell_length_b 8.567603
_cell_length_c 7.414088
_cell_angle_alpha 90.000000
_cell_angle_beta 90.000000
_cell_angle_gamma 90.000000
_cell_volume 1142.889613
_symmetry_space_group_name_H-M "P M M M"
_symmetry_group_IT_number 47
_symmetry_cell_setting 'orthorhombic'
loop_
_space_group_symop_operation_xyz
x,y,z
-x,-y,z
x,-y,-z
-x,y,-z
-x,-y,-z
x,y,-z
-x,y,z
x,-y,z
loop_
_atom_site_type_symbol
_atom_site_label
_atom_site_fract_x
_atom_site_fract_y
_atom_site_fract_z
Si Si1 0.081479 0.682533 0.219451
Si Si2 0.236408 0.823236 0.218202
Si Si3 0.609536 0.320211 0.292869
Si Si4 0.500000 0.202410 0.000000
O O1 0.087359 0.500000 0.268143
O O2 0.154777 0.771536 0.280880
O O3 0.000000 0.740489 0.278304
O O4 0.081515 0.689325 0.000000
O O5 0.302879 0.712449 0.279123
O O6 0.252425 0.000000 0.275169
O O7 0.235685 0.818771 0.000000
O O8 0.587394 0.299883 0.500000
O O9 0.593366 0.500000 0.238929
O O10 0.564551 0.212304 0.157093
#
# Coordination Sequence:
#
# PCOD9386077 Si02
#       4
#     8   8   8   2
#     4   8  14  26  48  80 116 155 201 250 297 345
#     4  10  20  34  54  82 119 163 204 242 293 353
#     4  11  23  39  63  92 119 153 196 242 299 358
#     4  12  23  42  69  94 121 148 187 252 303 352
#
# _framework density 22.749354
#
# number of rings (size 3 to 8) (size 9 to 14) (size 15 to 20)
#    0.000    2.154    1.538    3.692    0.000    3.692 
#    0.000    4.615    0.000    2.769    0.000    6.462 
#    0.000    0.000    0.000    0.000    0.000    0.000 
#
# Total GULP energy -144837.526309 kJ/mol
# GULP energy per Si atom -5570.674089 kJ/mol
# Density = 2.269758 g / cm^3
# Si number density = 22.749354 Si / 1000 Ang^3
#
#
#
# Elastic Constant Matrix: (Units=GPa)
#
#
# Indices 1 2 3 4 5 6 
#
# 1 165.2272 17.9105 16.1764 0.0000 0.0000 0.0000
# 2 17.9105 36.8576 8.8757 0.0000 0.0000 0.0000
# 3 16.1764 8.8757 101.4252 0.0000 0.0000 0.0000
# 4 0.0000 0.0000 0.0000 1.0324 0.0000 0.0000
# 5 0.0000 0.0000 0.0000 0.0000 -205.7627 0.0000
# 6 0.0000 0.0000 0.0000 0.0000 0.0000 -168.1145
#
#
#
# Elastic Compliance Matrix: (Units=1/GPa)
#
#
# Indices 1 2 3 4 5 6 
#
# 1 0.006447 -0.002947 -0.000770 0.000000 0.000000 0.000000
# 2 -0.002947 0.029063 -0.002073 0.000000 0.000000 0.000000
# 3 -0.000770 -0.002073 0.010164 0.000000 0.000000 0.000000
# 4 0.000000 0.000000 0.000000 0.968660 0.000000 0.000000
# 5 0.000000 0.000000 0.000000 0.000000 -0.004860 0.000000
# 6 0.000000 0.000000 0.000000 0.000000 0.000000 -0.005948
#
#
# Mechanical properties :
#
#
# Convention : Reuss Voigt Hill
#
# Bulk Modulus (GPa) = 29.33240 43.27058 36.30149
# Shear Modulus (GPa) = 4.87106 -57.19914 -26.16404
#
# Velocity S-wave (km/s) = 1.46487 -5.01974 -3.39499
# Velocity P-wave (km/s) = 3.97276 3.81250 0.78983
#
# Compressibility (1/GPa) = 0.03409200
#
# Stress axis : x y z
#
# Youngs Moduli (GPa) = 155.10631 34.40801 98.38868
#
# Poissons Ratio (x) = 0.10142 0.07579
# Poissons Ratio (y) = 0.45717 0.20398
# Poissons Ratio (z) = 0.11948 0.07133
#
# Static dielectric constant tensor:
#      x y z
#    x 1.820350 0.000000 0.000000 
#    y 0.000000 1.851560 0.000000 
#    z 0.000000 0.000000 1.855760 
# 
# From -- ./inp_files/8452.got.cif
#   From: 2010.05.17/outbox.cif.g08.bks.cpg/sg47_5_cif.got.tgz:8452.got - 2010.06.03 20:15:42.
