data_PCOD9386506
_publ_section_title
;
Structure prediction by ZEFSAII (Michael W. Deem and Ramdas Pophale) SiO2 
 PCOD9386506
Probable space group: P M M M
;
_chemical_formula_sum "Si O2"
_cell_formula_units_Z 36
_cell_length_a 25.470763
_cell_length_b 7.594235
_cell_length_c 8.316362
_cell_angle_alpha 90.000000
_cell_angle_beta 90.000000
_cell_angle_gamma 90.000000
_cell_volume 1608.641884
_symmetry_space_group_name_H-M "P M M M"
_symmetry_group_IT_number 47
_symmetry_cell_setting 'orthorhombic'
loop_
_space_group_symop_operation_xyz
x,y,z
-x,-y,z
x,-y,-z
-x,y,-z
-x,-y,-z
x,y,-z
-x,y,z
x,-y,z
loop_
_atom_site_type_symbol
_atom_site_label
_atom_site_fract_x
_atom_site_fract_y
_atom_site_fract_z
Si Si1 0.061308 0.714798 0.000000
Si Si2 0.556451 0.289283 0.694730
Si Si3 0.669949 0.712917 0.686210
Si Si4 0.113430 0.295543 0.673654
Si Si5 0.782586 0.792572 0.821381
O O1 0.088209 0.780641 0.835857
O O2 0.066636 0.500000 0.000000
O O3 0.000000 0.756718 0.000000
O O4 0.557308 0.268143 0.500000
O O5 0.500000 0.218377 0.752421
O O6 0.555573 0.500000 0.724730
O O7 0.613288 0.223453 0.751616
O O8 0.674926 0.769785 0.500000
O O9 0.668047 0.500000 0.686504
O O10 0.721928 0.766662 0.778521
O O11 0.099875 0.216360 0.500000
O O12 0.097162 0.500000 0.668657
O O13 0.176174 0.289453 0.698918
O O14 0.792998 0.000000 0.821035
O O15 0.792771 0.720695 0.000000
#
# Coordination Sequence:
#
# PCOD9386506 Si02
#       5
#     4   8   8   8   8
#     4   9  18  34  57  87 121 149 174 213 260 303
#     4   7  10  19  38  65  95 123 153 197 254 313
#     4   9  17  29  48  75 101 126 163 211 264 322
#     4  10  20  35  58  85 111 143 181 218 261 313
#     4  11  23  36  50  70 100 139 180 221 267 317
#
# _framework density 22.379125999999999
#
# number of rings (size 3 to 8) (size 9 to 14) (size 15 to 20)
#    0.000    2.778    1.111    3.333    0.000    5.333 
#    0.000    2.222    0.000    2.667    0.000    9.333 
#    0.000    0.000    0.000    0.000    0.000    0.000 
#
# Total GULP energy -200784.626462 kJ/mol
# GULP energy per Si atom -5577.350735 kJ/mol
# Density = 2.232819 g / cm^3
# Si number density = 22.379126 Si / 1000 Ang^3
#
#
#
# Elastic Constant Matrix: (Units=GPa)
#
#
# Indices 1 2 3 4 5 6 
#
# 1 132.2564 -3.0908 61.8569 0.0000 0.0000 0.0000
# 2 -3.0908 51.8177 8.9866 0.0000 0.0000 0.0000
# 3 61.8569 8.9866 133.6655 0.0000 0.0000 0.0000
# 4 0.0000 0.0000 0.0000 12.2750 0.0000 0.0000
# 5 0.0000 0.0000 0.0000 0.0000 25.4210 0.0000
# 6 0.0000 0.0000 0.0000 0.0000 0.0000 -71.6749
#
#
#
# Elastic Compliance Matrix: (Units=1/GPa)
#
#
# Indices 1 2 3 4 5 6 
#
# 1 0.009746 0.001380 -0.004603 0.000000 0.000000 0.000000
# 2 0.001380 0.019721 -0.001964 0.000000 0.000000 0.000000
# 3 -0.004603 -0.001964 0.009744 0.000000 0.000000 0.000000
# 4 0.000000 0.000000 0.000000 0.081466 0.000000 0.000000
# 5 0.000000 0.000000 0.000000 0.000000 0.039338 0.000000
# 6 0.000000 0.000000 0.000000 0.000000 0.000000 -0.013952
#
#
# Mechanical properties :
#
#
# Convention : Reuss Voigt Hill
#
# Bulk Modulus (GPa) = 34.67936 50.36057 42.51997
# Shear Modulus (GPa) = 30.11136 9.87003 19.99069
#
# Velocity S-wave (km/s) = 3.67210 2.10237 2.99201
# Velocity P-wave (km/s) = 5.78870 5.33343 5.56572
#
# Compressibility (1/GPa) = 0.02883559
#
# Stress axis : x y z
#
# Youngs Moduli (GPa) = 102.60450 50.70641 102.63159
#
# Poissons Ratio (x) = -0.06996 0.47242
# Poissons Ratio (y) = -0.14155 0.20161
# Poissons Ratio (z) = 0.47229 0.09961
#
# Static dielectric constant tensor:
#      x y z
#    x 1.837130 0.000000 0.000000 
#    y 0.000000 1.826060 0.000000 
#    z 0.000000 0.000000 1.833980 
# 
# From -- ./inp_files/12051.got.cif
#   From: 2010.05.17/outbox.cif.g08.bks.cpg/sg47_7_cif.got.tgz:12051.got - 2010.06.03 20:15:42.
