data_PCOD9386136
_publ_section_title
;
Structure prediction by ZEFSAII (Michael W. Deem and Ramdas Pophale) SiO2 
 PCOD9386136
Probable space group: P M M M
;
_chemical_formula_sum "Si O2"
_cell_formula_units_Z 52
_cell_length_a 19.941560
_cell_length_b 15.897005
_cell_length_c 9.214719
_cell_angle_alpha 90.000000
_cell_angle_beta 90.000000
_cell_angle_gamma 90.000000
_cell_volume 2921.168013
_symmetry_space_group_name_H-M "P M M M"
_symmetry_group_IT_number 47
_symmetry_cell_setting 'orthorhombic'
loop_
_space_group_symop_operation_xyz
x,y,z
-x,-y,z
x,-y,-z
-x,y,-z
-x,-y,-z
x,y,-z
-x,y,z
x,-y,z
loop_
_atom_site_type_symbol
_atom_site_label
_atom_site_fract_x
_atom_site_fract_y
_atom_site_fract_z
Si Si1 0.272882 0.407527 0.173849
Si Si2 0.073797 0.100144 0.163036
Si Si3 0.862798 0.364400 0.665435
Si Si4 0.419932 0.904328 0.672881
Si Si5 0.191186 0.824875 0.662957
Si Si6 0.322750 0.775773 0.173632
Si Si7 0.000000 0.601080 0.165961
O O1 0.303271 0.500000 0.205250
O O2 0.200403 0.404312 0.250791
O O3 0.314905 0.323682 0.215693
O O4 0.262717 0.401874 0.000000
O O5 0.133050 0.118879 0.271589
O O6 0.000000 0.132632 0.207961
O O7 0.068898 0.000000 0.152447
O O8 0.088060 0.133262 0.000000
O O9 0.869019 0.396142 0.500000
O O10 0.842070 0.267097 0.658153
O O11 0.932347 0.373482 0.750446
O O12 0.407518 0.897079 0.500000
O O13 0.500000 0.898618 0.695187
O O14 0.382122 0.829635 0.755226
O O15 0.399160 0.000000 0.716998
O O16 0.211563 0.849164 0.500000
O O17 0.254846 0.818683 0.767330
O O18 0.326919 0.779935 0.000000
O O19 0.000000 0.500000 0.160672
O O20 0.000000 0.633239 0.000000
#
# Coordination Sequence:
#
# PCOD9386136 Si02
#       7
#     8   8   8   8   8   8   4
#     4   9  18  34  54  75 103 139 178 219 265 318
#     4   9  19  35  52  70  93 124 166 216 267 317
#     4  10  21  34  48  70  97 125 164 215 266 315
#     4   9  19  37  60  85 115 150 181 211 256 312
#     4  10  21  35  51  72 100 132 169 212 260 314
#     4  10  20  34  55  83 111 140 178 221 264 310
#     4  11  23  35  47  65  90 123 162 203 255 318
#
# _framework density 17.801099000000001
#
# number of rings (size 3 to 8) (size 9 to 14) (size 15 to 20)
#    0.000    2.385    0.000    3.000    1.077    7.077 
#    0.000    1.538    0.000    0.462    0.000    3.231 
#    0.000    0.000    0.000    0.000    0.000    0.000 
#
# Total GULP energy -289837.146770 kJ/mol
# GULP energy per Si atom -5573.791284 kJ/mol
# Density = 1.776058 g / cm^3
# Si number density = 17.801099 Si / 1000 Ang^3
#
#
#
# Elastic Constant Matrix: (Units=GPa)
#
#
# Indices 1 2 3 4 5 6 
#
# 1 72.8317 52.1106 42.0157 0.0000 0.0000 0.0000
# 2 52.1106 85.5547 44.4688 0.0000 0.0000 0.0000
# 3 42.0157 44.4688 69.0937 0.0000 0.0000 0.0000
# 4 0.0000 0.0000 0.0000 22.4092 0.0000 0.0000
# 5 0.0000 0.0000 0.0000 0.0000 34.2133 0.0000
# 6 0.0000 0.0000 0.0000 0.0000 0.0000 -173.3011
#
#
#
# Elastic Compliance Matrix: (Units=1/GPa)
#
#
# Indices 1 2 3 4 5 6 
#
# 1 0.027591 -0.012149 -0.008959 0.000000 0.000000 0.000000
# 2 -0.012149 0.022913 -0.007359 0.000000 0.000000 0.000000
# 3 -0.008959 -0.007359 0.024658 0.000000 0.000000 0.000000
# 4 0.000000 0.000000 0.000000 0.044625 0.000000 0.000000
# 5 0.000000 0.000000 0.000000 0.000000 0.029228 0.000000
# 6 0.000000 0.000000 0.000000 0.000000 0.000000 -0.005770
#
#
# Mechanical properties :
#
#
# Convention : Reuss Voigt Hill
#
# Bulk Modulus (GPa) = 54.86229 56.07449 55.46839
# Shear Modulus (GPa) = 24.24185 -17.41004 3.41590
#
# Velocity S-wave (km/s) = 3.69428 -3.13074 1.38676
# Velocity P-wave (km/s) = 7.00596 4.30119 5.81308
#
# Compressibility (1/GPa) = 0.01822746
#
# Stress axis : x y z
#
# Youngs Moduli (GPa) = 36.24367 43.64270 40.55545
#
# Poissons Ratio (x) = 0.53021 0.36334
# Poissons Ratio (y) = 0.44032 0.29846
# Poissons Ratio (z) = 0.32471 0.32118
#
# Static dielectric constant tensor:
#      x y z
#    x 1.578310 0.000000 0.000000 
#    y 0.000000 1.655860 0.000000 
#    z 0.000000 0.000000 1.620450 
# 
# From -- ./inp_files/9545.got.cif
#   From: 2010.05.17/outbox.cif.g08.bks.cpg/sg47_5_cif.got.tgz:9545.got - 2010.06.03 20:15:42.
