data_PCOD9386786
_publ_section_title
;
Structure prediction by ZEFSAII (Michael W. Deem and Ramdas Pophale) SiO2 
 PCOD9386786
Probable space group: P M M M
;
_chemical_formula_sum "Si O2"
_cell_formula_units_Z 36
_cell_length_a 20.663589
_cell_length_b 7.342676
_cell_length_c 10.981501
_cell_angle_alpha 90.000000
_cell_angle_beta 90.000000
_cell_angle_gamma 90.000000
_cell_volume 1666.179649
_symmetry_space_group_name_H-M "P M M M"
_symmetry_group_IT_number 47
_symmetry_cell_setting 'orthorhombic'
loop_
_space_group_symop_operation_xyz
x,y,z
-x,-y,z
x,-y,-z
-x,y,-z
-x,-y,-z
x,y,-z
-x,y,z
x,-y,z
loop_
_atom_site_type_symbol
_atom_site_label
_atom_site_fract_x
_atom_site_fract_y
_atom_site_fract_z
Si Si1 0.578589 0.293271 0.500000
Si Si2 0.069323 0.217552 0.354055
Si Si3 0.573363 0.279756 0.235153
Si Si4 0.213174 0.222875 0.640422
Si Si5 0.293484 0.213300 0.131048
O O1 0.603929 0.500000 0.500000
O O2 0.500000 0.302339 0.500000
O O3 0.594362 0.209986 0.369690
O O4 0.068221 0.244009 0.500000
O O5 0.140712 0.281522 0.318954
O O6 0.000000 0.288231 0.306187
O O7 0.069014 0.000000 0.332711
O O8 0.500000 0.219647 0.208161
O O9 0.571118 0.500000 0.242673
O O10 0.629264 0.228937 0.143398
O O11 0.226028 0.280332 0.500000
O O12 0.262101 0.286739 0.744754
O O13 0.213868 0.000000 0.636280
O O14 0.276666 0.000000 0.129428
O O15 0.273039 0.290481 0.000000
#
# Coordination Sequence:
#
# PCOD9386786 Si02
#       5
#     4   8   8   8   8
#     4   7  12  26  47  69  89 105 126 169 226 268
#     4   7   9  15  31  56  82 107 140 181 217 249
#     4   9  18  33  52  70  87 111 146 186 227 270
#     4   8  14  25  41  60  84 117 152 181 214 262
#     4  10  21  33  44  63  93 124 149 181 226 266
#
# _framework density 21.606314000000001
#
# number of rings (size 3 to 8) (size 9 to 14) (size 15 to 20)
#    0.000    3.667    0.000    3.333    1.556    1.333 
#    0.000    2.222    0.000    2.667    0.000    4.667 
#    0.000    0.889    0.000    7.556    0.000    6.667 
#
# Total GULP energy -200464.010184 kJ/mol
# GULP energy per Si atom -5568.444727 kJ/mol
# Density = 2.155714 g / cm^3
# Si number density = 21.606314 Si / 1000 Ang^3
#
#
#
# Elastic Constant Matrix: (Units=GPa)
#
#
# Indices 1 2 3 4 5 6 
#
# 1 127.0311 -2.4741 76.0961 0.0000 0.0000 0.0000
# 2 -2.4741 76.5243 5.7926 0.0000 0.0000 0.0000
# 3 76.0961 5.7926 130.8242 0.0000 0.0000 0.0000
# 4 0.0000 0.0000 0.0000 -6.9685 0.0000 0.0000
# 5 0.0000 0.0000 0.0000 0.0000 -2.3704 0.0000
# 6 0.0000 0.0000 0.0000 0.0000 0.0000 12.8978
#
#
#
# Elastic Compliance Matrix: (Units=1/GPa)
#
#
# Indices 1 2 3 4 5 6 
#
# 1 0.012148 0.000931 -0.007107 0.000000 0.000000 0.000000
# 2 0.000931 0.013183 -0.001125 0.000000 0.000000 0.000000
# 3 -0.007107 -0.001125 0.011828 0.000000 0.000000 0.000000
# 4 0.000000 0.000000 0.000000 -0.143504 0.000000 0.000000
# 5 0.000000 0.000000 0.000000 0.000000 -0.421878 0.000000
# 6 0.000000 0.000000 0.000000 0.000000 0.000000 0.077533
#
#
# Mechanical properties :
#
#
# Convention : Reuss Voigt Hill
#
# Bulk Modulus (GPa) = 44.33539 54.80098 49.56819
# Shear Modulus (GPa) = -11.66673 17.70946 3.02137
#
# Velocity S-wave (km/s) = -2.32624 2.86605 1.18381
# Velocity P-wave (km/s) = 3.65363 6.03082 4.98597
#
# Compressibility (1/GPa) = 0.02255534
#
# Stress axis : x y z
#
# Youngs Moduli (GPa) = 82.32089 75.85529 84.54802
#
# Poissons Ratio (x) = -0.07060 0.60089
# Poissons Ratio (y) = -0.07662 0.09512
# Poissons Ratio (z) = 0.58506 0.08534
#
# Static dielectric constant tensor:
#      x y z
#    x 1.822030 0.000000 0.000000 
#    y 0.000000 1.871580 0.000000 
#    z 0.000000 0.000000 1.783170 
# 
# From -- ./inp_files/18857.got.cif
#   From: 2010.05.17/outbox.cif.g08.bks.cpg/sg47_10_cif.got.tgz:18857.got - 2010.06.03 20:15:42.
