data_PCOD9386198
_publ_section_title
;
Structure prediction by ZEFSAII (Michael W. Deem and Ramdas Pophale) SiO2 
 PCOD9386198
Probable space group: P M M M
;
_chemical_formula_sum "Si O2"
_cell_formula_units_Z 41
_cell_length_a 21.378568
_cell_length_b 8.985931
_cell_length_c 11.075917
_cell_angle_alpha 90.000000
_cell_angle_beta 90.000000
_cell_angle_gamma 90.000000
_cell_volume 2127.753843
_symmetry_space_group_name_H-M "P M M M"
_symmetry_group_IT_number 47
_symmetry_cell_setting 'orthorhombic'
loop_
_space_group_symop_operation_xyz
x,y,z
-x,-y,z
x,-y,-z
-x,y,-z
-x,-y,-z
x,y,-z
-x,y,z
x,-y,z
loop_
_atom_site_type_symbol
_atom_site_label
_atom_site_fract_x
_atom_site_fract_y
_atom_site_fract_z
Si Si1 0.870617 0.164654 0.000000
Si Si2 0.000000 0.670575 0.647209
Si Si3 0.127101 0.167916 0.643811
Si Si4 0.343470 0.820397 0.863378
Si Si5 0.210622 0.323593 0.194730
Si Si6 0.000000 0.000000 0.000000
Si Si7 0.572767 0.819062 0.364674
O O1 0.844282 0.256508 0.888032
O O2 0.943734 0.127653 0.000000
O O3 0.839374 0.000000 0.000000
O O4 0.937643 0.756757 0.685107
O O5 0.000000 0.500000 0.688699
O O6 0.000000 0.667473 0.500000
O O7 0.122406 0.157907 0.500000
O O8 0.187452 0.264755 0.676296
O O9 0.132223 0.000000 0.693405
O O10 0.275851 0.747068 0.845064
O O11 0.387203 0.771106 0.751487
O O12 0.337693 0.000000 0.856743
O O13 0.366242 0.784955 0.000000
O O14 0.213317 0.500000 0.187155
O O15 0.594277 0.772001 0.500000
O O16 0.500000 0.775458 0.351839
O O17 0.574310 0.000000 0.364614
#
# Coordination Sequence:
#
# PCOD9386198 Si02
#       7
#     4   4   8   8   8   1   8
#     4  10  21  43  63  85 108 145 193 247 303 365
#     4   9  17  32  53  78 109 141 178 230 292 356
#     4  10  21  37  57  81 109 146 190 236 290 356
#     4  10  20  34  56  85 116 159 208 253 304 364
#     4  12  24  38  59  84 117 156 195 247 308 367
#     4   8  24  40  70  88 106 144 192 256 300 362
#     4   8  15  30  54  87 126 162 200 253 310 359
#
# _framework density 19.269145999999999
#
# number of rings (size 3 to 8) (size 9 to 14) (size 15 to 20)
#    0.293    1.854    0.976    3.512    0.000    4.293 
#    0.000    5.854    0.000    0.585    0.000    2.732 
#    0.000    0.000    0.000    0.000    0.000    0.000 
#
# Total GULP energy -228325.893585 kJ/mol
# GULP energy per Si atom -5568.924234 kJ/mol
# Density = 1.922529 g / cm^3
# Si number density = 19.269146 Si / 1000 Ang^3
#
#
#
# Elastic Constant Matrix: (Units=GPa)
#
#
# Indices 1 2 3 4 5 6 
#
# 1 103.3082 30.2067 75.7183 0.0000 0.0000 0.0000
# 2 30.2067 69.1783 37.6111 0.0000 0.0000 0.0000
# 3 75.7183 37.6111 116.9251 0.0000 0.0000 0.0000
# 4 0.0000 0.0000 0.0000 14.0427 0.0000 0.0000
# 5 0.0000 0.0000 0.0000 0.0000 14.0908 0.0000
# 6 0.0000 0.0000 0.0000 0.0000 0.0000 -7.0925
#
#
#
# Elastic Compliance Matrix: (Units=1/GPa)
#
#
# Indices 1 2 3 4 5 6 
#
# 1 0.018631 -0.001910 -0.011451 0.000000 0.000000 0.000000
# 2 -0.001910 0.017715 -0.004462 0.000000 0.000000 0.000000
# 3 -0.011451 -0.004462 0.017403 0.000000 0.000000 0.000000
# 4 0.000000 0.000000 0.000000 0.071212 0.000000 0.000000
# 5 0.000000 0.000000 0.000000 0.000000 0.070968 0.000000
# 6 0.000000 0.000000 0.000000 0.000000 0.000000 -0.140994
#
#
# Mechanical properties :
#
#
# Convention : Reuss Voigt Hill
#
# Bulk Modulus (GPa) = 55.23433 64.05375 59.64404
# Shear Modulus (GPa) = 51.75291 13.93324 32.84307
#
# Velocity S-wave (km/s) = 5.18808 2.69194 4.13296
# Velocity P-wave (km/s) = 8.03836 6.55560 7.33454
#
# Compressibility (1/GPa) = 0.01810468
#
# Stress axis : x y z
#
# Youngs Moduli (GPa) = 53.67493 56.44940 57.46192
#
# Poissons Ratio (x) = 0.10780 0.65797
# Poissons Ratio (y) = 0.10250 0.25638
# Poissons Ratio (z) = 0.61461 0.25186
#
# Static dielectric constant tensor:
#      x y z
#    x 1.639760 0.000000 0.000000 
#    y 0.000000 1.651700 0.000000 
#    z 0.000000 0.000000 1.860590 
# 
# From -- ./inp_files/19004.got.cif
#   From: 2010.05.17/outbox.cif.g08.bks.cpg/sg47_10_cif.got.tgz:19004.got - 2010.06.03 20:15:42.
