data_PCOD9386107
_publ_section_title
;
Structure prediction by ZEFSAII (Michael W. Deem and Ramdas Pophale) SiO2 
 PCOD9386107
Probable space group: P M M M
;
_chemical_formula_sum "Si O2"
_cell_formula_units_Z 64
_cell_length_a 8.066575
_cell_length_b 19.256998
_cell_length_c 20.769003
_cell_angle_alpha 90.000000
_cell_angle_beta 90.000000
_cell_angle_gamma 90.000000
_cell_volume 3226.215775
_symmetry_space_group_name_H-M "P M M M"
_symmetry_group_IT_number 47
_symmetry_cell_setting 'orthorhombic'
loop_
_space_group_symop_operation_xyz
x,y,z
-x,-y,z
x,-y,-z
-x,y,-z
-x,-y,-z
x,y,-z
-x,y,z
x,-y,z
loop_
_atom_site_type_symbol
_atom_site_label
_atom_site_fract_x
_atom_site_fract_y
_atom_site_fract_z
Si Si1 0.302321 0.324981 0.188751
Si Si2 0.302734 0.337771 0.573647
Si Si3 0.198551 0.182313 0.573683
Si Si4 0.804110 0.421342 0.695276
Si Si5 0.698711 0.831499 0.805798
Si Si6 0.702482 0.579465 0.073291
Si Si7 0.699939 0.079108 0.314996
Si Si8 0.200293 0.079643 0.926792
O O1 0.500000 0.318636 0.179337
O O2 0.273761 0.370447 0.252151
O O3 0.234766 0.247063 0.195738
O O4 0.236607 0.367096 0.126923
O O5 0.241856 0.346593 0.500000
O O6 0.500000 0.347257 0.573894
O O7 0.264742 0.258267 0.593200
O O8 0.226551 0.390312 0.624611
O O9 0.254325 0.169589 0.500000
O O10 0.255581 0.123000 0.622030
O O11 0.000000 0.185527 0.574187
O O12 0.738890 0.500000 0.700682
O O13 0.000000 0.422705 0.707230
O O14 0.500000 0.827771 0.797579
O O15 0.763302 0.879038 0.747419
O O16 0.734628 0.868391 0.873304
O O17 0.500000 0.579979 0.074184
O O18 0.752759 0.500000 0.087964
O O19 0.752914 0.596039 0.000000
O O20 0.500000 0.076133 0.310862
O O21 0.762070 0.000000 0.316826
O O22 0.000000 0.080885 0.925521
O O23 0.252362 0.000000 0.912830
O O24 0.252619 0.096457 0.000000
#
# Coordination Sequence:
#
# PCOD9386107 Si02
#       8
#     8   8   8   8   8   8   8   8
#     4  10  20  34  55  81 108 141 182 227 271 320
#     4  10  21  38  61  86 111 142 181 222 265 320
#     4  10  21  37  58  84 113 143 176 219 272 328
#     4  11  24  39  56  81 113 147 183 225 271 319
#     4  10  21  35  53  80 109 137 176 227 277 322
#     4   8  14  26  46  73 104 137 174 217 264 313
#     4  10  21  36  53  75 107 146 187 231 276 324
#     4   9  19  36  56  78 106 142 183 223 266 323
#
# _framework density 19.837482000000001
#
# number of rings (size 3 to 8) (size 9 to 14) (size 15 to 20)
#    0.000    2.250    0.000    3.375    0.000    7.250 
#    0.000    4.375    0.000    0.375    0.000    1.750 
#    0.000    0.000    0.000    0.000    0.000    0.000 
#
# Total GULP energy -357405.314405 kJ/mol
# GULP energy per Si atom -5584.458038 kJ/mol
# Density = 1.979233 g / cm^3
# Si number density = 19.837482 Si / 1000 Ang^3
#
#
#
# Elastic Constant Matrix: (Units=GPa)
#
#
# Indices 1 2 3 4 5 6 
#
# 1 6.8527 -3.1469 -9.5867 0.0000 0.0000 0.0000
# 2 -3.1469 139.7489 76.0879 0.0000 0.0000 0.0000
# 3 -9.5867 76.0879 90.4929 0.0000 0.0000 0.0000
# 4 0.0000 0.0000 0.0000 36.5764 0.0000 0.0000
# 5 0.0000 0.0000 0.0000 0.0000 17.1950 0.0000
# 6 0.0000 0.0000 0.0000 0.0000 0.0000 21.7271
#
#
#
# Elastic Compliance Matrix: (Units=1/GPa)
#
#
# Indices 1 2 3 4 5 6 
#
# 1 0.181211 -0.011751 0.029078 0.000000 0.000000 0.000000
# 2 -0.011751 0.013959 -0.012982 0.000000 0.000000 0.000000
# 3 0.029078 -0.012982 0.025047 0.000000 0.000000 0.000000
# 4 0.000000 0.000000 0.000000 0.027340 0.000000 0.000000
# 5 0.000000 0.000000 0.000000 0.000000 0.058156 0.000000
# 6 0.000000 0.000000 0.000000 0.000000 0.000000 0.046025
#
#
# Mechanical properties :
#
#
# Convention : Reuss Voigt Hill
#
# Bulk Modulus (GPa) = 4.36860 40.42256 22.39558
# Shear Modulus (GPa) = 11.92316 26.68239 19.30277
#
# Velocity S-wave (km/s) = 2.45428 3.67147 3.12275
# Velocity P-wave (km/s) = 3.19973 6.19629 4.93114
#
# Compressibility (1/GPa) = 0.22890614
#
# Stress axis : x y z
#
# Youngs Moduli (GPa) = 5.51842 71.63651 39.92550
#
# Poissons Ratio (x) = 0.84181 -1.16095
# Poissons Ratio (y) = 0.06485 0.51832
# Poissons Ratio (z) = -0.16046 0.93000
#
# Static dielectric constant tensor:
#      x y z
#    x 1.715400 0.000000 0.000000 
#    y 0.000000 1.683370 0.000000 
#    z 0.000000 0.000000 1.680310 
# 
# From -- ./inp_files/27044.got.cif
#   From: 2010.05.17/outbox.cif.g08.bks.cpg/sg47_14_cif.got.tgz:27044.got - 2010.06.03 20:15:42.
