data_PCOD9386544
_publ_section_title
;
Structure prediction by ZEFSAII (Michael W. Deem and Ramdas Pophale) SiO2 
 PCOD9386544
Probable space group: P M M M
;
_chemical_formula_sum "Si O2"
_cell_formula_units_Z 46
_cell_length_a 7.851860
_cell_length_b 12.004323
_cell_length_c 25.135804
_cell_angle_alpha 90.000000
_cell_angle_beta 90.000000
_cell_angle_gamma 90.000000
_cell_volume 2369.206967
_symmetry_space_group_name_H-M "P M M M"
_symmetry_group_IT_number 47
_symmetry_cell_setting 'orthorhombic'
loop_
_space_group_symop_operation_xyz
x,y,z
-x,-y,z
x,-y,-z
-x,y,-z
-x,-y,-z
x,y,-z
-x,y,z
x,-y,z
loop_
_atom_site_type_symbol
_atom_site_label
_atom_site_fract_x
_atom_site_fract_y
_atom_site_fract_z
Si Si1 0.708786 0.000000 0.357662
Si Si2 0.307904 0.629692 0.914092
Si Si3 0.000000 0.658505 0.000000
Si Si4 0.293277 0.627937 0.710314
Si Si5 0.703301 0.000000 0.766150
Si Si6 0.295155 0.760010 0.606066
Si Si7 0.196876 0.764206 0.185611
Si Si8 0.202257 0.373060 0.500000
O O1 0.765055 0.112801 0.386973
O O2 0.500000 0.000000 0.357096
O O3 0.764410 0.000000 0.295549
O O4 0.500000 0.640258 0.936942
O O5 0.289710 0.500000 0.896835
O O6 0.152474 0.653167 0.954092
O O7 0.296090 0.711686 0.863821
O O8 0.500000 0.631608 0.711218
O O9 0.239792 0.500000 0.709412
O O10 0.234463 0.690915 0.657297
O O11 0.229748 0.689803 0.762461
O O12 0.757735 0.110549 0.797222
O O13 0.500000 0.000000 0.763008
O O14 0.500000 0.763679 0.608974
O O15 0.251669 0.696183 0.552245
O O16 0.000000 0.760006 0.171033
O O17 0.273565 0.500000 0.500000
O O18 0.000000 0.382363 0.500000
#
# Coordination Sequence:
#
# PCOD9386544 Si02
#       8
#     4   8   2   8   4   8   8   4
#     4   9  18  36  64  91 116 149 200 259 313 375
#     4  11  23  40  65  97 134 177 222 269 325 385
#     4  12  23  42  68  99 138 177 222 276 325 378
#     4  10  20  35  58  88 120 158 205 257 318 381
#     4  11  21  41  66  88 122 165 211 261 321 385
#     4  10  20  38  63  88 114 153 205 257 307 370
#     4  12  24  38  59  92 130 167 212 263 320 385
#     4  11  25  42  57  80 118 161 204 251 312 379
#
# _framework density 19.415779000000001
#
# number of rings (size 3 to 8) (size 9 to 14) (size 15 to 20)
#    0.000    1.304    2.609    4.174    0.000    5.565 
#    0.000    2.174    0.000    1.043    0.000    1.826 
#    0.000    0.000    0.000    0.000    0.000    0.000 
#
# Total GULP energy -256446.751249 kJ/mol
# GULP energy per Si atom -5574.929375 kJ/mol
# Density = 1.937159 g / cm^3
# Si number density = 19.415779 Si / 1000 Ang^3
#
#
#
# Elastic Constant Matrix: (Units=GPa)
#
#
# Indices 1 2 3 4 5 6 
#
# 1 86.9763 34.2857 33.4839 0.0000 0.0000 0.0000
# 2 34.2857 178.9947 88.8976 0.0000 0.0000 0.0000
# 3 33.4839 88.8976 137.3707 0.0000 0.0000 0.0000
# 4 0.0000 0.0000 0.0000 -14.0756 0.0000 0.0000
# 5 0.0000 0.0000 0.0000 0.0000 38.9358 0.0000
# 6 0.0000 0.0000 0.0000 0.0000 0.0000 10.6459
#
#
#
# Elastic Compliance Matrix: (Units=1/GPa)
#
#
# Indices 1 2 3 4 5 6 
#
# 1 0.012903 -0.001340 -0.002278 0.000000 0.000000 0.000000
# 2 -0.001340 0.008372 -0.005091 0.000000 0.000000 0.000000
# 3 -0.002278 -0.005091 0.011129 0.000000 0.000000 0.000000
# 4 0.000000 0.000000 0.000000 -0.071045 0.000000 0.000000
# 5 0.000000 0.000000 0.000000 0.000000 0.025683 0.000000
# 6 0.000000 0.000000 0.000000 0.000000 0.000000 0.093933
#
#
# Mechanical properties :
#
#
# Convention : Reuss Voigt Hill
#
# Bulk Modulus (GPa) = 66.72950 79.63068 73.18009
# Shear Modulus (GPa) = 48.36106 23.54619 35.95362
#
# Velocity S-wave (km/s) = 4.99622 3.48621 4.30789
# Velocity P-wave (km/s) = 8.22960 7.57016 7.90676
#
# Compressibility (1/GPa) = 0.01498588
#
# Stress axis : x y z
#
# Youngs Moduli (GPa) = 77.50410 119.44610 89.85207
#
# Poissons Ratio (x) = 0.16008 0.20465
# Poissons Ratio (y) = 0.10387 0.45745
# Poissons Ratio (z) = 0.17653 0.60812
#
# Static dielectric constant tensor:
#      x y z
#    x 1.706220 0.000000 0.000000 
#    y 0.000000 1.660820 0.000000 
#    z 0.000000 0.000000 1.647190 
# 
# From -- ./inp_files/31890.got.cif
#   From: 2010.05.17/outbox.cif.g08.bks.cpg/sg47_16_cif.got.tgz:31890.got - 2010.06.03 20:15:42.
