data_PCOD9386794
_publ_section_title
;
Structure prediction by ZEFSAII (Michael W. Deem and Ramdas Pophale) SiO2 
 PCOD9386794
Probable space group: P M M M
;
_chemical_formula_sum "Si O2"
_cell_formula_units_Z 64
_cell_length_a 18.706059
_cell_length_b 14.197122
_cell_length_c 13.570608
_cell_angle_alpha 90.000000
_cell_angle_beta 90.000000
_cell_angle_gamma 90.000000
_cell_volume 3603.976246
_symmetry_space_group_name_H-M "P M M M"
_symmetry_group_IT_number 47
_symmetry_cell_setting 'orthorhombic'
loop_
_space_group_symop_operation_xyz
x,y,z
-x,-y,z
x,-y,-z
-x,y,-z
-x,-y,-z
x,y,-z
-x,y,z
x,-y,z
loop_
_atom_site_type_symbol
_atom_site_label
_atom_site_fract_x
_atom_site_fract_y
_atom_site_fract_z
Si Si1 0.581021 0.392712 0.674501
Si Si2 0.914975 0.890297 0.382951
Si Si3 0.577333 0.863634 0.885959
Si Si4 0.417278 0.637547 0.105409
Si Si5 0.735739 0.105632 0.118434
Si Si6 0.731409 0.386963 0.612252
Si Si7 0.085720 0.608020 0.884438
Si Si8 0.824206 0.748263 0.249057
O O1 0.500000 0.350943 0.670861
O O2 0.573598 0.500000 0.640098
O O3 0.607648 0.395115 0.788401
O O4 0.648499 0.352772 0.617151
O O5 0.902514 0.876917 0.500000
O O6 0.869464 0.817594 0.319303
O O7 0.000000 0.877318 0.365613
O O8 0.897986 0.000000 0.359793
O O9 0.500000 0.888821 0.841085
O O10 0.581896 0.750438 0.889028
O O11 0.653062 0.896016 0.845786
O O12 0.575309 0.894785 0.000000
O O13 0.500000 0.606848 0.101488
O O14 0.383343 0.610783 0.000000
O O15 0.776996 0.185484 0.177727
O O16 0.765679 0.000000 0.132059
O O17 0.735407 0.125166 0.000000
O O18 0.757361 0.377230 0.500000
O O19 0.733342 0.500000 0.636168
O O20 0.776457 0.322787 0.685933
O O21 0.105605 0.500000 0.858635
O O22 0.124718 0.683576 0.817470
O O23 0.000000 0.615699 0.874371
O O24 0.102911 0.622217 0.000000
#
# Coordination Sequence:
#
# PCOD9386794 Si02
#       8
#     8   8   8   8   8   8   8   8
#     4   9  17  29  45  64  88 125 172 214 254 304
#     4   9  19  36  57  81 106 131 165 208 247 289
#     4   8  14  26  43  60  83 123 171 210 242 278
#     4   8  13  22  38  62  90 116 147 196 254 304
#     4  10  21  33  46  72 108 140 171 208 248 294
#     4  10  22  37  51  72 101 130 167 220 273 312
#     4   9  19  36  57  81 107 135 170 207 238 281
#     4  12  20  33  55  79 104 139 169 198 249 313
#
# _framework density 17.758163
#
# number of rings (size 3 to 8) (size 9 to 14) (size 15 to 20)
#    0.000    2.625    0.000    4.125    0.000    0.750 
#    0.000    4.375    0.000    1.500    0.000   10.500 
#    0.000    0.000    0.000   12.000    0.000    1.000 
#
# Total GULP energy -356361.145847 kJ/mol
# GULP energy per Si atom -5568.142904 kJ/mol
# Density = 1.771774 g / cm^3
# Si number density = 17.758163 Si / 1000 Ang^3
#
#
#
# Elastic Constant Matrix: (Units=GPa)
#
#
# Indices 1 2 3 4 5 6 
#
# 1 85.5321 62.1490 51.3029 0.0000 0.0000 0.0000
# 2 62.1490 124.6169 58.0295 0.0000 0.0000 0.0000
# 3 51.3029 58.0295 80.9768 0.0000 0.0000 0.0000
# 4 0.0000 0.0000 0.0000 24.4262 0.0000 0.0000
# 5 0.0000 0.0000 0.0000 0.0000 25.8926 0.0000
# 6 0.0000 0.0000 0.0000 0.0000 0.0000 7.3118
#
#
#
# Elastic Compliance Matrix: (Units=1/GPa)
#
#
# Indices 1 2 3 4 5 6 
#
# 1 0.022090 -0.006753 -0.009156 0.000000 0.000000 0.000000
# 2 -0.006753 0.014108 -0.005832 0.000000 0.000000 0.000000
# 3 -0.009156 -0.005832 0.022329 0.000000 0.000000 0.000000
# 4 0.000000 0.000000 0.000000 0.040940 0.000000 0.000000
# 5 0.000000 0.000000 0.000000 0.000000 0.038621 0.000000
# 6 0.000000 0.000000 0.000000 0.000000 0.000000 0.136765
#
#
# Mechanical properties :
#
#
# Convention : Reuss Voigt Hill
#
# Bulk Modulus (GPa) = 66.46301 70.45430 68.45866
# Shear Modulus (GPa) = 15.46311 19.50240 17.48275
#
# Velocity S-wave (km/s) = 2.95407 3.31754 3.14106
# Velocity P-wave (km/s) = 7.01023 7.37802 7.19648
#
# Compressibility (1/GPa) = 0.01504596
#
# Stress axis : x y z
#
# Youngs Moduli (GPa) = 45.26859 70.88064 44.78506
#
# Poissons Ratio (x) = 0.47869 0.41004
# Poissons Ratio (y) = 0.30572 0.26117
# Poissons Ratio (z) = 0.41447 0.41335
#
# Static dielectric constant tensor:
#      x y z
#    x 1.621940 0.000000 0.000000 
#    y 0.000000 1.621370 0.000000 
#    z 0.000000 0.000000 1.622810 
# 
# From -- ./inp_files/18670.got.cif
#   From: 2010.05.17/outbox.cif.g08.bks.cpg/sg47_10_cif.got.tgz:18670.got - 2010.06.03 20:15:42.
