data_PCOD9386677
_publ_section_title
;
Structure prediction by ZEFSAII (Michael W. Deem and Ramdas Pophale) SiO2 
 PCOD9386677
Probable space group: P M M M
;
_chemical_formula_sum "Si O2"
_cell_formula_units_Z 37
_cell_length_a 10.270004
_cell_length_b 11.955408
_cell_length_c 16.764705
_cell_angle_alpha 90.000000
_cell_angle_beta 90.000000
_cell_angle_gamma 90.000000
_cell_volume 2058.405484
_symmetry_space_group_name_H-M "P M M M"
_symmetry_group_IT_number 47
_symmetry_cell_setting 'orthorhombic'
loop_
_space_group_symop_operation_xyz
x,y,z
-x,-y,z
x,-y,-z
-x,y,-z
-x,-y,-z
x,y,-z
-x,y,z
x,-y,z
loop_
_atom_site_type_symbol
_atom_site_label
_atom_site_fract_x
_atom_site_fract_y
_atom_site_fract_z
Si Si1 0.845074 0.263699 0.845055
Si Si2 0.250338 0.746892 0.332487
Si Si3 0.276148 0.500000 0.136450
Si Si4 0.000000 0.130938 0.595512
Si Si5 0.500000 0.500000 0.000000
Si Si6 0.652937 0.500000 0.321691
Si Si7 0.500000 0.866356 0.594513
Si Si8 0.158326 0.872654 0.000000
O O1 0.772111 0.239503 0.762356
O O2 0.812666 0.390346 0.868654
O O3 0.000000 0.249074 0.832482
O O4 0.800578 0.188035 0.918969
O O5 0.125276 0.801444 0.374073
O O6 0.275984 0.614630 0.348331
O O7 0.374610 0.813069 0.364197
O O8 0.386116 0.500000 0.069763
O O9 0.338430 0.500000 0.225190
O O10 0.000000 0.128666 0.500000
O O11 0.000000 0.000000 0.623000
O O12 0.500000 0.500000 0.345121
O O13 0.500000 0.840720 0.500000
O O14 0.500000 0.000000 0.603152
O O15 0.000000 0.869796 0.000000
O O16 0.201424 0.000000 0.000000
#
# Coordination Sequence:
#
# PCOD9386677 Si02
#       8
#     8   8   4   4   1   4   4   4
#     4  10  20  37  58  87 118 157 203 255 314 376
#     4  11  22  40  66  93 122 168 211 258 323 393
#     4  10  21  32  58  82 117 152 201 256 312 364
#     4  11  24  43  65  94 128 158 206 275 326 370
#     4  12  20  32  50  92 114 160 206 254 304 370
#     4  10  20  40  61  87 128 163 201 254 312 381
#     4  11  24  42  63  89 124 166 215 265 316 386
#     4   9  19  33  50  77 118 157 190 237 295 355
#
# _framework density 17.975078
#
# number of rings (size 3 to 8) (size 9 to 14) (size 15 to 20)
#    0.000    1.622    2.703    2.270    0.000    3.892 
#    0.000    5.405    0.000    0.000    0.000    3.027 
#    0.000    0.000    0.000    0.000    0.000    0.000 
#
# Total GULP energy -206259.249281 kJ/mol
# GULP energy per Si atom -5574.574305 kJ/mol
# Density = 1.793417 g / cm^3
# Si number density = 17.975078 Si / 1000 Ang^3
#
#
#
# Elastic Constant Matrix: (Units=GPa)
#
#
# Indices 1 2 3 4 5 6 
#
# 1 128.8958 68.8126 58.0920 0.0000 0.0000 0.0000
# 2 68.8126 162.2740 85.8582 0.0000 0.0000 0.0000
# 3 58.0920 85.8582 114.9358 0.0000 0.0000 0.0000
# 4 0.0000 0.0000 0.0000 29.1668 0.0000 0.0000
# 5 0.0000 0.0000 0.0000 0.0000 39.9598 0.0000
# 6 0.0000 0.0000 0.0000 0.0000 0.0000 29.3008
#
#
#
# Elastic Compliance Matrix: (Units=1/GPa)
#
#
# Indices 1 2 3 4 5 6 
#
# 1 0.010758 -0.002786 -0.003356 0.000000 0.000000 0.000000
# 2 -0.002786 0.010911 -0.006743 0.000000 0.000000 0.000000
# 3 -0.003356 -0.006743 0.015434 0.000000 0.000000 0.000000
# 4 0.000000 0.000000 0.000000 0.034286 0.000000 0.000000
# 5 0.000000 0.000000 0.000000 0.000000 0.025025 0.000000
# 6 0.000000 0.000000 0.000000 0.000000 0.000000 0.034129
#
#
# Mechanical properties :
#
#
# Convention : Reuss Voigt Hill
#
# Bulk Modulus (GPa) = 88.23714 92.40346 90.32030
# Shear Modulus (GPa) = 31.23223 32.57499 31.90361
#
# Velocity S-wave (km/s) = 4.17289 4.26165 4.21750
# Velocity P-wave (km/s) = 8.50955 8.70250 8.60657
#
# Compressibility (1/GPa) = 0.01133310
#
# Stress axis : x y z
#
# Youngs Moduli (GPa) = 92.95134 91.64646 64.79348
#
# Poissons Ratio (x) = 0.25536 0.21746
# Poissons Ratio (y) = 0.25900 0.43688
# Poissons Ratio (z) = 0.31196 0.61794
#
# Static dielectric constant tensor:
#      x y z
#    x 1.546600 0.000000 0.000000 
#    y 0.000000 1.624320 0.000000 
#    z 0.000000 0.000000 1.602180 
# 
# From -- ./inp_files/26217.got.cif
#   From: 2010.05.17/outbox.cif.g08.bks.cpg/sg47_14_cif.got.tgz:26217.got - 2010.06.03 20:15:42.
