data_PCOD9386943
_publ_section_title
;
Structure prediction by ZEFSAII (Michael W. Deem and Ramdas Pophale) SiO2 
 PCOD9386943
Probable space group: P M M M
;
_chemical_formula_sum "Si O2"
_cell_formula_units_Z 44
_cell_length_a 9.493455
_cell_length_b 7.667448
_cell_length_c 29.984724
_cell_angle_alpha 90.000000
_cell_angle_beta 90.000000
_cell_angle_gamma 90.000000
_cell_volume 2182.605228
_symmetry_space_group_name_H-M "P M M M"
_symmetry_group_IT_number 47
_symmetry_cell_setting 'orthorhombic'
loop_
_space_group_symop_operation_xyz
x,y,z
-x,-y,z
x,-y,-z
-x,y,-z
-x,-y,-z
x,y,-z
-x,y,z
x,-y,z
loop_
_atom_site_type_symbol
_atom_site_label
_atom_site_fract_x
_atom_site_fract_y
_atom_site_fract_z
Si Si1 0.662116 0.213695 0.086935
Si Si2 0.162443 0.213052 0.000000
Si Si3 0.670726 0.792356 0.548002
Si Si4 0.660153 0.790551 0.644132
Si Si5 0.160730 0.207519 0.171236
Si Si6 0.841102 0.292770 0.730443
O O1 0.500000 0.270141 0.084211
O O2 0.753358 0.267446 0.044139
O O3 0.739044 0.273859 0.132113
O O4 0.660562 0.000000 0.087069
O O5 0.000000 0.270450 0.000000
O O6 0.160538 0.000000 0.000000
O O7 0.718874 0.719338 0.500000
O O8 0.500000 0.775953 0.548984
O O9 0.718642 0.724036 0.596292
O O10 0.701276 0.000000 0.546854
O O11 0.500000 0.725564 0.650013
O O12 0.750909 0.753676 0.687470
O O13 0.652582 0.000000 0.639745
O O14 0.215859 0.235825 0.221339
O O15 0.000000 0.278025 0.168817
O O16 0.150746 0.000000 0.164643
O O17 0.849715 0.500000 0.731974
O O18 0.000000 0.219910 0.726442
#
# Coordination Sequence:
#
# PCOD9386943 Si02
#       6
#     8   4   8   8   8   8
#     4   9  16  25  39  62  91 119 147 183 226 269
#     4   9  15  23  37  59  90 125 154 179 214 264
#     4   7  10  19  38  65  94 119 144 180 227 275
#     4   9  17  29  48  74  98 120 151 192 236 281
#     4   9  17  30  47  65  86 115 152 191 230 273
#     4  10  21  35  49  66  91 125 162 197 235 281
#
# _framework density 20.159393999999999
#
# number of rings (size 3 to 8) (size 9 to 14) (size 15 to 20)
#    0.000    3.182    0.000    3.000    0.000    5.455 
#    0.000    1.818    0.000    1.091    0.000    7.000 
#    0.000    5.091    0.000    0.000    0.000    0.000 
#
# Total GULP energy -245175.792492 kJ/mol
# GULP energy per Si atom -5572.177102 kJ/mol
# Density = 2.011351 g / cm^3
# Si number density = 20.159394 Si / 1000 Ang^3
#
#
#
# Elastic Constant Matrix: (Units=GPa)
#
#
# Indices 1 2 3 4 5 6 
#
# 1 97.5077 4.8312 110.9907 0.0000 0.0000 0.0000
# 2 4.8312 35.2306 3.3747 0.0000 0.0000 0.0000
# 3 110.9907 3.3747 255.6339 0.0000 0.0000 0.0000
# 4 0.0000 0.0000 0.0000 -42.6757 0.0000 0.0000
# 5 0.0000 0.0000 0.0000 0.0000 59.6576 0.0000
# 6 0.0000 0.0000 0.0000 0.0000 0.0000 8.2357
#
#
#
# Elastic Compliance Matrix: (Units=1/GPa)
#
#
# Indices 1 2 3 4 5 6 
#
# 1 0.020410 -0.001952 -0.008836 0.000000 0.000000 0.000000
# 2 -0.001952 0.028607 0.000470 0.000000 0.000000 0.000000
# 3 -0.008836 0.000470 0.007742 0.000000 0.000000 0.000000
# 4 0.000000 0.000000 0.000000 -0.023433 0.000000 0.000000
# 5 0.000000 0.000000 0.000000 0.000000 0.016762 0.000000
# 6 0.000000 0.000000 0.000000 0.000000 0.000000 0.121423
#
#
# Mechanical properties :
#
#
# Convention : Reuss Voigt Hill
#
# Bulk Modulus (GPa) = 27.68348 69.64061 48.66204
# Shear Modulus (GPa) = 24.48715 22.98854 23.73784
#
# Velocity S-wave (km/s) = 3.48900 3.38055 3.43521
# Velocity P-wave (km/s) = 5.47658 7.06099 6.31864
#
# Compressibility (1/GPa) = 0.03612263
#
# Stress axis : x y z
#
# Youngs Moduli (GPa) = 48.99588 34.95634 129.16669
#
# Poissons Ratio (x) = 0.06825 1.14129
# Poissons Ratio (y) = 0.09566 -0.06072
# Poissons Ratio (z) = 0.43292 -0.01643
#
# Static dielectric constant tensor:
#      x y z
#    x 5.759590 0.000000 0.000000 
#    y 0.000000 1.736050 0.000000 
#    z 0.000000 0.000000 1.743250 
# 
# From -- ./inp_files/2253.got.cif
#   From: 2010.05.17/outbox.cif.g08.bks.cpg/sg47_2_cif.got.tgz:2253.got - 2010.06.03 20:15:42.
