data_PCOD9386792
_publ_section_title
;
Structure prediction by ZEFSAII (Michael W. Deem and Ramdas Pophale) SiO2 
 PCOD9386792
Probable space group: P M M M
;
_chemical_formula_sum "Si O2"
_cell_formula_units_Z 56
_cell_length_a 14.317968
_cell_length_b 9.884054
_cell_length_c 23.789235
_cell_angle_alpha 90.000000
_cell_angle_beta 90.000000
_cell_angle_gamma 90.000000
_cell_volume 3366.642281
_symmetry_space_group_name_H-M "P M M M"
_symmetry_group_IT_number 47
_symmetry_cell_setting 'orthorhombic'
loop_
_space_group_symop_operation_xyz
x,y,z
-x,-y,z
x,-y,-z
-x,y,-z
-x,-y,-z
x,y,-z
-x,y,z
x,-y,z
loop_
_atom_site_type_symbol
_atom_site_label
_atom_site_fract_x
_atom_site_fract_y
_atom_site_fract_z
Si Si1 0.893219 0.836071 0.500000
Si Si2 0.393252 0.845506 0.727027
Si Si3 0.112780 0.157379 0.063442
Si Si4 0.606386 0.758515 0.855314
Si Si5 0.612981 0.000000 0.062700
Si Si6 0.781629 0.337711 0.712873
Si Si7 0.886982 0.842090 0.376362
Si Si8 0.801460 0.349638 0.843043
O O1 0.852180 0.801134 0.439133
O O2 0.000000 0.784970 0.500000
O O3 0.897727 0.000000 0.500000
O O4 0.500000 0.820926 0.708228
O O5 0.394303 0.833098 0.794958
O O6 0.319303 0.734637 0.706932
O O7 0.366975 0.000000 0.712131
O O8 0.154048 0.246764 0.113124
O O9 0.000000 0.163607 0.065556
O O10 0.139658 0.000000 0.070514
O O11 0.140983 0.200302 0.000000
O O12 0.500000 0.710188 0.865486
O O13 0.635319 0.866413 0.902459
O O14 0.689311 0.652024 0.851780
O O15 0.500000 0.000000 0.059758
O O16 0.651230 0.000000 0.000000
O O17 0.777367 0.500000 0.704778
O O18 0.848118 0.260027 0.669681
O O19 0.814736 0.313427 0.777376
O O20 0.000000 0.838672 0.377336
O O21 0.860848 0.000000 0.365601
O O22 0.838670 0.500000 0.852632
#
# Coordination Sequence:
#
# PCOD9386792 Si02
#       8
#     4   8   8   8   4   8   8   8
#     4   7  12  26  49  75 100 127 164 207 243 280
#     4   9  16  29  50  70  90 122 166 211 248 285
#     4   9  20  39  59  75  89 111 152 206 256 298
#     4   9  17  30  47  68  96 125 154 191 235 284
#     4   9  16  26  42  66  91 115 147 186 232 283
#     4  10  21  33  45  69 106 139 165 198 242 294
#     4   9  17  31  52  76 102 134 170 205 242 285
#     4  10  22  35  49  72  99 130 163 196 240 292
#
# _framework density 16.633783000000001
#
# number of rings (size 3 to 8) (size 9 to 14) (size 15 to 20)
#    0.000    2.857    0.714    1.714    1.000    3.714 
#    0.000    6.786    0.000    1.286    0.000    3.500 
#    0.000    4.000    0.000    0.000    0.000    0.000 
#
# Total GULP energy -311827.292784 kJ/mol
# GULP energy per Si atom -5568.344514 kJ/mol
# Density = 1.659592 g / cm^3
# Si number density = 16.633783 Si / 1000 Ang^3
#
#
#
# Elastic Constant Matrix: (Units=GPa)
#
#
# Indices 1 2 3 4 5 6 
#
# 1 44.1874 35.9293 39.7822 0.0000 0.0000 0.0000
# 2 35.9293 93.1333 68.4066 0.0000 0.0000 0.0000
# 3 39.7822 68.4066 115.6672 0.0000 0.0000 0.0000
# 4 0.0000 0.0000 0.0000 13.4639 0.0000 0.0000
# 5 0.0000 0.0000 0.0000 0.0000 8.5148 0.0000
# 6 0.0000 0.0000 0.0000 0.0000 0.0000 7.2299
#
#
#
# Elastic Compliance Matrix: (Units=1/GPa)
#
#
# Indices 1 2 3 4 5 6 
#
# 1 0.036251 -0.008535 -0.007421 0.000000 0.000000 0.000000
# 2 -0.008535 0.020993 -0.009480 0.000000 0.000000 0.000000
# 3 -0.007421 -0.009480 0.016804 0.000000 0.000000 0.000000
# 4 0.000000 0.000000 0.000000 0.074272 0.000000 0.000000
# 5 0.000000 0.000000 0.000000 0.000000 0.117443 0.000000
# 6 0.000000 0.000000 0.000000 0.000000 0.000000 0.138314
#
#
# Mechanical properties :
#
#
# Convention : Reuss Voigt Hill
#
# Bulk Modulus (GPa) = 43.14461 60.13599 51.64030
# Shear Modulus (GPa) = 10.80672 13.09972 11.95322
#
# Velocity S-wave (km/s) = 2.55166 2.80935 2.68360
# Velocity P-wave (km/s) = 5.88859 6.83774 6.38084
#
# Compressibility (1/GPa) = 0.02317787
#
# Stress axis : x y z
#
# Youngs Moduli (GPa) = 27.58512 47.63514 59.50856
#
# Poissons Ratio (x) = 0.40655 0.44160
# Poissons Ratio (y) = 0.23543 0.56414
# Poissons Ratio (z) = 0.20470 0.45158
#
# Static dielectric constant tensor:
#      x y z
#    x 1.584500 0.000000 0.000000 
#    y 0.000000 1.547690 0.000000 
#    z 0.000000 0.000000 1.562640 
# 
# From -- ./inp_files/31066.got.cif
#   From: 2010.05.17/outbox.cif.g08.bks.cpg/sg47_16_cif.got.tgz:31066.got - 2010.06.03 20:15:42.
