data_PCOD9386994
_publ_section_title
;
Structure prediction by ZEFSAII (Michael W. Deem and Ramdas Pophale) SiO2 
 PCOD9386994
Probable space group: P M M M
;
_chemical_formula_sum "Si O2"
_cell_formula_units_Z 64
_cell_length_a 9.107515
_cell_length_b 14.698000
_cell_length_c 24.967335
_cell_angle_alpha 90.000000
_cell_angle_beta 90.000000
_cell_angle_gamma 90.000000
_cell_volume 3342.183776
_symmetry_space_group_name_H-M "P M M M"
_symmetry_group_IT_number 47
_symmetry_cell_setting 'orthorhombic'
loop_
_space_group_symop_operation_xyz
x,y,z
-x,-y,z
x,-y,-z
-x,y,-z
-x,-y,-z
x,y,-z
-x,y,z
x,-y,z
loop_
_atom_site_type_symbol
_atom_site_label
_atom_site_fract_x
_atom_site_fract_y
_atom_site_fract_z
Si Si1 0.166060 0.108248 0.829624
Si Si2 0.824975 0.734210 0.344920
Si Si3 0.333640 0.609802 0.263049
Si Si4 0.335545 0.362701 0.940039
Si Si5 0.667968 0.144332 0.059644
Si Si6 0.160942 0.606168 0.163345
Si Si7 0.821529 0.602371 0.437947
Si Si8 0.675629 0.108172 0.280323
O O1 0.238549 0.123355 0.887714
O O2 0.258790 0.137996 0.777629
O O3 0.000000 0.144568 0.828124
O O4 0.157970 0.000000 0.823826
O O5 0.781643 0.657247 0.301779
O O6 0.775546 0.686029 0.400393
O O7 0.745839 0.826213 0.325214
O O8 0.000000 0.748799 0.346116
O O9 0.500000 0.639276 0.274907
O O10 0.329845 0.500000 0.267810
O O11 0.285960 0.639818 0.203437
O O12 0.500000 0.393046 0.924162
O O13 0.338317 0.253545 0.942239
O O14 0.215576 0.387738 0.896947
O O15 0.305686 0.395508 0.000000
O O16 0.500000 0.111163 0.066250
O O17 0.720505 0.114116 0.000000
O O18 0.148403 0.500000 0.176298
O O19 0.000000 0.647461 0.170992
O O20 0.778300 0.613579 0.500000
O O21 0.773696 0.500000 0.420238
O O22 0.000000 0.601282 0.436226
O O23 0.500000 0.117824 0.279464
O O24 0.708537 0.000000 0.288527
#
# Coordination Sequence:
#
# PCOD9386994 Si02
#       8
#     8   8   8   8   8   8   8   8
#     4  10  21  36  54  77 104 132 167 218 279 337
#     4  11  21  33  57  89 117 150 190 235 286 332
#     4  10  21  36  53  76 110 149 186 224 269 329
#     4   9  19  35  52  69  91 123 164 209 258 318
#     4   9  19  35  53  73  98 130 168 211 263 330
#     4  10  21  35  50  70  97 128 165 214 269 320
#     4   8  15  30  54  87 127 165 197 230 271 324
#     4  10  22  40  59  79 108 149 195 240 287 342
#
# _framework density 19.149155
#
# number of rings (size 3 to 8) (size 9 to 14) (size 15 to 20)
#    0.000    2.375    0.000    3.375    1.750    5.000 
#    0.000    3.750    0.000    1.875    0.000    7.000 
#    0.000    0.000    0.000    0.000    0.000    0.000 
#
# Total GULP energy -356826.480907 kJ/mol
# GULP energy per Si atom -5575.413764 kJ/mol
# Density = 1.910557 g / cm^3
# Si number density = 19.149155 Si / 1000 Ang^3
#
#
#
# Elastic Constant Matrix: (Units=GPa)
#
#
# Indices 1 2 3 4 5 6 
#
# 1 68.6598 34.3031 41.2117 0.0000 0.0000 0.0000
# 2 34.3031 98.9757 43.8388 0.0000 0.0000 0.0000
# 3 41.2117 43.8388 106.1637 0.0000 0.0000 0.0000
# 4 0.0000 0.0000 0.0000 32.0467 0.0000 0.0000
# 5 0.0000 0.0000 0.0000 0.0000 30.0117 0.0000
# 6 0.0000 0.0000 0.0000 0.0000 0.0000 25.5191
#
#
#
# Elastic Compliance Matrix: (Units=1/GPa)
#
#
# Indices 1 2 3 4 5 6 
#
# 1 0.020422 -0.004365 -0.006125 0.000000 0.000000 0.000000
# 2 -0.004365 0.013298 -0.003797 0.000000 0.000000 0.000000
# 3 -0.006125 -0.003797 0.013365 0.000000 0.000000 0.000000
# 4 0.000000 0.000000 0.000000 0.031204 0.000000 0.000000
# 5 0.000000 0.000000 0.000000 0.000000 0.033320 0.000000
# 6 0.000000 0.000000 0.000000 0.000000 0.000000 0.039186
#
#
# Mechanical properties :
#
#
# Convention : Reuss Voigt Hill
#
# Bulk Modulus (GPa) = 54.02153 56.94516 55.48334
# Shear Modulus (GPa) = 26.94840 27.81188 27.38014
#
# Velocity S-wave (km/s) = 3.75546 3.81515 3.78542
# Velocity P-wave (km/s) = 6.86125 7.01494 6.93852
#
# Compressibility (1/GPa) = 0.01851114
#
# Stress axis : x y z
#
# Youngs Moduli (GPa) = 48.96740 75.19949 74.82237
#
# Poissons Ratio (x) = 0.32823 0.45830
# Poissons Ratio (y) = 0.21373 0.28409
# Poissons Ratio (z) = 0.29993 0.28552
#
# Static dielectric constant tensor:
#      x y z
#    x 1.681550 0.000000 0.000000 
#    y 0.000000 1.707040 0.000000 
#    z 0.000000 0.000000 1.671530 
# 
# From -- ./inp_files/32144.got.cif
#   From: 2010.05.17/outbox.cif.g08.bks.cpg/sg47_17_cif.got.tgz:32144.got - 2010.06.03 20:15:42.
