data_PCOD9386405
_publ_section_title
;
Structure prediction by ZEFSAII (Michael W. Deem and Ramdas Pophale) SiO2 
 PCOD9386405
Probable space group: P M M M
;
_chemical_formula_sum "Si O2"
_cell_formula_units_Z 48
_cell_length_a 9.283060
_cell_length_b 8.038596
_cell_length_c 34.181744
_cell_angle_alpha 90.000000
_cell_angle_beta 90.000000
_cell_angle_gamma 90.000000
_cell_volume 2550.736386
_symmetry_space_group_name_H-M "P M M M"
_symmetry_group_IT_number 47
_symmetry_cell_setting 'orthorhombic'
loop_
_space_group_symop_operation_xyz
x,y,z
-x,-y,z
x,-y,-z
-x,y,-z
-x,-y,-z
x,y,-z
-x,y,z
x,-y,z
loop_
_atom_site_type_symbol
_atom_site_label
_atom_site_fract_x
_atom_site_fract_y
_atom_site_fract_z
Si Si1 0.164364 0.702494 0.180088
Si Si2 0.665508 0.197933 0.339886
Si Si3 0.673564 0.305836 0.900120
Si Si4 0.161996 0.198081 0.500000
Si Si5 0.665420 0.300213 0.256115
Si Si6 0.324812 0.000000 0.044756
Si Si7 0.664291 0.697881 0.423510
O O1 0.161264 0.500000 0.182122
O O2 0.253258 0.740965 0.141010
O O3 0.243332 0.762335 0.219376
O O4 0.000000 0.761039 0.177726
O O5 0.500000 0.264973 0.340431
O O6 0.728671 0.258164 0.298786
O O7 0.729137 0.249373 0.381603
O O8 0.660652 0.000000 0.338687
O O9 0.500000 0.299561 0.895907
O O10 0.710485 0.500000 0.909444
O O11 0.716988 0.168327 0.932174
O O12 0.245973 0.249366 0.461010
O O13 0.000000 0.267695 0.500000
O O14 0.153994 0.000000 0.500000
O O15 0.500000 0.236859 0.254269
O O16 0.659058 0.500000 0.253281
O O17 0.500000 0.000000 0.043999
O O18 0.273931 0.000000 0.000000
O O19 0.500000 0.766410 0.426187
O O20 0.655480 0.500000 0.423579
#
# Coordination Sequence:
#
# PCOD9386405 Si02
#       7
#     8   8   8   4   8   4   8
#     4   9  17  30  49  72  99 132 170 212 256 301
#     4   9  17  30  49  74 102 131 165 207 254 302
#     4   9  17  31  52  76 102 135 173 212 258 311
#     4  11  24  39  54  76 106 137 168 205 254 308
#     4   9  16  28  48  72  98 129 166 208 253 304
#     4   9  18  32  51  79 109 133 167 217 265 310
#     4  10  20  35  57  82 104 130 169 213 254 301
#
# _framework density 18.818095
#
# number of rings (size 3 to 8) (size 9 to 14) (size 15 to 20)
#    0.000    2.667    0.000    2.000    0.000    7.000 
#    1.500    2.917    0.000    4.000    0.000    2.333 
#    0.000    0.000    0.000    0.000    0.000    0.000 
#
# Total GULP energy -267562.801773 kJ/mol
# GULP energy per Si atom -5574.225037 kJ/mol
# Density = 1.877526 g / cm^3
# Si number density = 18.818095 Si / 1000 Ang^3
#
#
#
# Elastic Constant Matrix: (Units=GPa)
#
#
# Indices 1 2 3 4 5 6 
#
# 1 50.3532 22.1469 62.1907 0.0000 0.0000 0.0000
# 2 22.1469 58.3334 58.0575 0.0000 0.0000 0.0000
# 3 62.1907 58.0575 215.7494 0.0000 0.0000 0.0000
# 4 0.0000 0.0000 0.0000 55.1899 0.0000 0.0000
# 5 0.0000 0.0000 0.0000 0.0000 -5.8933 0.0000
# 6 0.0000 0.0000 0.0000 0.0000 0.0000 9.4438
#
#
#
# Elastic Compliance Matrix: (Units=1/GPa)
#
#
# Indices 1 2 3 4 5 6 
#
# 1 0.031505 -0.003992 -0.008007 0.000000 0.000000 0.000000
# 2 -0.003992 0.023919 -0.005286 0.000000 0.000000 0.000000
# 3 -0.008007 -0.005286 0.008366 0.000000 0.000000 0.000000
# 4 0.000000 0.000000 0.000000 0.018119 0.000000 0.000000
# 5 0.000000 0.000000 0.000000 0.000000 -0.169685 0.000000
# 6 0.000000 0.000000 0.000000 0.000000 0.000000 0.105890
#
#
# Mechanical properties :
#
#
# Convention : Reuss Voigt Hill
#
# Bulk Modulus (GPa) = 34.22323 67.69179 50.95751
# Shear Modulus (GPa) = 80.09643 23.88414 51.99029
#
# Velocity S-wave (km/s) = 6.53115 3.56646 5.26192
# Velocity P-wave (km/s) = 8.66605 7.28075 8.00343
#
# Compressibility (1/GPa) = 0.02921992
#
# Stress axis : x y z
#
# Youngs Moduli (GPa) = 31.74078 41.80722 119.53731
#
# Poissons Ratio (x) = 0.16689 0.95717
# Poissons Ratio (y) = 0.12670 0.63187
# Poissons Ratio (z) = 0.25416 0.22099
#
# Static dielectric constant tensor:
#      x y z
#    x 1.651030 0.000000 0.000000 
#    y 0.000000 1.657660 0.000000 
#    z 0.000000 0.000000 1.659530 
# 
# From -- ./inp_files/34112.got.cif
#   From: 2010.05.17/outbox.cif.g08.bks.cpg/sg47_18_cif.got.tgz:34112.got - 2010.06.03 20:15:42.
