data_PCOD9386714
_publ_section_title
;
Structure prediction by ZEFSAII (Michael W. Deem and Ramdas Pophale) SiO2 
 PCOD9386714
Probable space group: P M M M
;
_chemical_formula_sum "Si O2"
_cell_formula_units_Z 17
_cell_length_a 7.301682
_cell_length_b 16.493462
_cell_length_c 7.575261
_cell_angle_alpha 90.000000
_cell_angle_beta 90.000000
_cell_angle_gamma 90.000000
_cell_volume 912.288793
_symmetry_space_group_name_H-M "P M M M"
_symmetry_group_IT_number 47
_symmetry_cell_setting 'orthorhombic'
loop_
_space_group_symop_operation_xyz
x,y,z
-x,-y,z
x,-y,-z
-x,y,-z
-x,-y,-z
x,y,-z
-x,y,z
x,-y,z
loop_
_atom_site_type_symbol
_atom_site_label
_atom_site_fract_x
_atom_site_fract_y
_atom_site_fract_z
Si Si1 0.000000 0.141480 0.702507
Si Si2 0.718707 0.719791 0.205626
Si Si3 0.000000 0.000000 0.000000
Si Si4 0.277876 0.407786 0.500000
O O1 0.826250 0.200458 0.734221
O O2 0.000000 0.113094 0.500000
O O3 0.000000 0.070806 0.845123
O O4 0.500000 0.731415 0.225122
O O5 0.774644 0.644794 0.329183
O O6 0.757846 0.704423 0.000000
O O7 0.212160 0.500000 0.500000
O O8 0.500000 0.411036 0.500000
#
# Coordination Sequence:
#
# PCOD9386714 Si02
#       4
#     4   8   1   4
#     4  12  23  41  65  87 116 153 193 245 302 357
#     4  10  20  37  62  87 119 161 197 237 294 351
#     4  12  26  44  62  94 118 142 202 252 298 358
#     4   9  18  33  57  91 123 156 203 245 281 340
#
# _framework density 18.634449
#
# number of rings (size 3 to 8) (size 9 to 14) (size 15 to 20)
#    0.000    1.647    4.706    0.353    0.000    0.941 
#    0.000    9.412    0.000    5.647    0.000    0.000 
#    0.000    0.000    0.000    0.000    0.000    0.000 
#
# Total GULP energy -94676.035472 kJ/mol
# GULP energy per Si atom -5569.178557 kJ/mol
# Density = 1.859204 g / cm^3
# Si number density = 18.634449 Si / 1000 Ang^3
#
#
#
# Elastic Constant Matrix: (Units=GPa)
#
#
# Indices 1 2 3 4 5 6 
#
# 1 71.9063 34.4244 36.1452 0.0000 0.0000 0.0000
# 2 34.4244 192.6432 109.2692 0.0000 0.0000 0.0000
# 3 36.1452 109.2692 221.1888 0.0000 0.0000 0.0000
# 4 0.0000 0.0000 0.0000 -3.3623 0.0000 0.0000
# 5 0.0000 0.0000 0.0000 0.0000 15.6610 0.0000
# 6 0.0000 0.0000 0.0000 0.0000 0.0000 -1.6754
#
#
#
# Elastic Compliance Matrix: (Units=1/GPa)
#
#
# Indices 1 2 3 4 5 6 
#
# 1 0.015620 -0.001866 -0.001631 0.000000 0.000000 0.000000
# 2 -0.001866 0.007435 -0.003368 0.000000 0.000000 0.000000
# 3 -0.001631 -0.003368 0.006451 0.000000 0.000000 0.000000
# 4 0.000000 0.000000 0.000000 -0.297414 0.000000 0.000000
# 5 0.000000 0.000000 0.000000 0.000000 0.063853 0.000000
# 6 0.000000 0.000000 0.000000 0.000000 0.000000 -0.596858
#
#
# Mechanical properties :
#
#
# Convention : Reuss Voigt Hill
#
# Bulk Modulus (GPa) = 63.38511 93.93511 78.66011
# Shear Modulus (GPa) = -6.39448 22.51794 8.06173
#
# Velocity S-wave (km/s) = -1.85445 3.47998 2.08222
# Velocity P-wave (km/s) = 5.43172 8.16492 6.93431
#
# Compressibility (1/GPa) = 0.01577658
#
# Stress axis : x y z
#
# Youngs Moduli (GPa) = 64.01997 134.50396 155.00975
#
# Poissons Ratio (x) = 0.25104 0.25275
# Poissons Ratio (y) = 0.11949 0.52205
# Poissons Ratio (z) = 0.10439 0.45299
#
# Static dielectric constant tensor:
#      x y z
#    x 1.689490 0.000000 0.000000 
#    y 0.000000 1.590180 0.000000 
#    z 0.000000 0.000000 1.640210 
# 
# From -- ./inp_files/331.got.cif
#   From: 2010.05.17/outbox.cif.g08.bks.cpg/sg47_1_cif.got.tgz:331.got - 2010.06.03 20:15:42.
