data_PCOD9386699
_publ_section_title
;
Structure prediction by ZEFSAII (Michael W. Deem and Ramdas Pophale) SiO2 
 PCOD9386699
Probable space group: P M M M
;
_chemical_formula_sum "Si O2"
_cell_formula_units_Z 48
_cell_length_a 8.667183
_cell_length_b 10.247032
_cell_length_c 29.792590
_cell_angle_alpha 90.000000
_cell_angle_beta 90.000000
_cell_angle_gamma 90.000000
_cell_volume 2645.966363
_symmetry_space_group_name_H-M "P M M M"
_symmetry_group_IT_number 47
_symmetry_cell_setting 'orthorhombic'
loop_
_space_group_symop_operation_xyz
x,y,z
-x,-y,z
x,-y,-z
-x,y,-z
-x,-y,-z
x,y,-z
-x,y,z
x,-y,z
loop_
_atom_site_type_symbol
_atom_site_label
_atom_site_fract_x
_atom_site_fract_y
_atom_site_fract_z
Si Si1 0.315178 0.649896 0.276929
Si Si2 0.187702 0.000000 0.050554
Si Si3 0.813341 0.746433 0.105721
Si Si4 0.186605 0.152999 0.203401
Si Si5 0.686072 0.150749 0.551629
Si Si6 0.684673 0.500000 0.947626
Si Si7 0.815918 0.649688 0.623881
O O1 0.500000 0.654234 0.275067
O O2 0.266297 0.500000 0.265259
O O3 0.247535 0.758777 0.243941
O O4 0.260055 0.674907 0.327728
O O5 0.233744 0.127643 0.077205
O O6 0.000000 0.000000 0.049431
O O7 0.245251 0.000000 0.000000
O O8 0.766411 0.776296 0.156897
O O9 0.743977 0.623436 0.080427
O O10 0.000000 0.735195 0.105242
O O11 0.000000 0.151717 0.204452
O O12 0.235914 0.000000 0.204424
O O13 0.730390 0.179898 0.500000
O O14 0.500000 0.158646 0.554197
O O15 0.758313 0.249730 0.586752
O O16 0.729219 0.000000 0.561023
O O17 0.500000 0.500000 0.948571
O O18 0.738953 0.500000 0.000000
O O19 0.776815 0.500000 0.611149
O O20 0.000000 0.658811 0.628630
#
# Coordination Sequence:
#
# PCOD9386699 Si02
#       7
#     8   4   8   8   8   4   8
#     4  10  22  39  59  83 111 147 190 231 277 334
#     4   9  16  30  57  87 111 137 177 229 274 317
#     4  10  20  37  60  86 111 142 184 228 274 327
#     4  10  21  38  59  85 115 143 179 227 280 334
#     4   9  19  36  57  82 114 153 195 236 280 334
#     4  11  25  41  55  79 117 153 185 225 272 325
#     4  10  21  37  57  83 114 148 189 237 287 335
#
# _framework density 18.140820999999999
#
# number of rings (size 3 to 8) (size 9 to 14) (size 15 to 20)
#    0.000    2.167    0.833    2.250    1.167    6.000 
#    0.000    2.917    0.000    1.500    0.000    0.000 
#    0.000    0.000    0.000    0.000    0.000    0.000 
#
# Total GULP energy -267886.774420 kJ/mol
# GULP energy per Si atom -5580.974467 kJ/mol
# Density = 1.809953 g / cm^3
# Si number density = 18.140821 Si / 1000 Ang^3
#
#
#
# Elastic Constant Matrix: (Units=GPa)
#
#
# Indices 1 2 3 4 5 6 
#
# 1 25.3230 41.2074 38.2432 0.0000 0.0000 0.0000
# 2 41.2074 173.5766 118.5162 0.0000 0.0000 0.0000
# 3 38.2432 118.5162 152.6756 0.0000 0.0000 0.0000
# 4 0.0000 0.0000 0.0000 41.7364 0.0000 0.0000
# 5 0.0000 0.0000 0.0000 0.0000 26.8468 0.0000
# 6 0.0000 0.0000 0.0000 0.0000 0.0000 24.5262
#
#
#
# Elastic Compliance Matrix: (Units=1/GPa)
#
#
# Indices 1 2 3 4 5 6 
#
# 1 0.070839 -0.010004 -0.009978 0.000000 0.000000 0.000000
# 2 -0.010004 0.013671 -0.008107 0.000000 0.000000 0.000000
# 3 -0.009978 -0.008107 0.015342 0.000000 0.000000 0.000000
# 4 0.000000 0.000000 0.000000 0.023960 0.000000 0.000000
# 5 0.000000 0.000000 0.000000 0.000000 0.037248 0.000000
# 6 0.000000 0.000000 0.000000 0.000000 0.000000 0.040773
#
#
# Mechanical properties :
#
#
# Convention : Reuss Voigt Hill
#
# Bulk Modulus (GPa) = 22.89696 83.05651 52.97674
# Shear Modulus (GPa) = 18.34402 28.86246 23.60324
#
# Velocity S-wave (km/s) = 3.18339 3.99309 3.61101
# Velocity P-wave (km/s) = 5.11480 8.19411 6.83025
#
# Compressibility (1/GPa) = 0.04367391
#
# Stress axis : x y z
#
# Youngs Moduli (GPa) = 14.11661 73.14653 65.18046
#
# Poissons Ratio (x) = 0.73177 0.65039
# Poissons Ratio (y) = 0.14122 0.52839
# Poissons Ratio (z) = 0.14086 0.59296
#
# Static dielectric constant tensor:
#      x y z
#    x 1.618020 0.000000 0.000000 
#    y 0.000000 1.603300 0.000000 
#    z 0.000000 0.000000 1.599760 
# 
# From -- ./inp_files/2808.got.cif
#   From: 2010.05.17/outbox.cif.g08.bks.cpg/sg47_2_cif.got.tgz:2808.got - 2010.06.03 20:15:42.
