data_PCOD9386105
_publ_section_title
;
Structure prediction by ZEFSAII (Michael W. Deem and Ramdas Pophale) SiO2 
 PCOD9386105
Probable space group: P M M M
;
_chemical_formula_sum "Si O2"
_cell_formula_units_Z 37
_cell_length_a 23.306365
_cell_length_b 7.651350
_cell_length_c 9.789785
_cell_angle_alpha 90.000000
_cell_angle_beta 90.000000
_cell_angle_gamma 90.000000
_cell_volume 1745.764936
_symmetry_space_group_name_H-M "P M M M"
_symmetry_group_IT_number 47
_symmetry_cell_setting 'orthorhombic'
loop_
_space_group_symop_operation_xyz
x,y,z
-x,-y,z
x,-y,-z
-x,y,-z
-x,-y,-z
x,y,-z
-x,y,z
x,-y,z
loop_
_atom_site_type_symbol
_atom_site_label
_atom_site_fract_x
_atom_site_fract_y
_atom_site_fract_z
Si Si1 0.500000 0.805044 0.217911
Si Si2 0.500000 0.000000 0.500000
Si Si3 0.728762 0.292142 0.345975
Si Si4 0.625103 0.788413 0.151807
Si Si5 0.829848 0.707843 0.845856
Si Si6 0.065567 0.789078 0.653843
O O1 0.560363 0.722636 0.176587
O O2 0.500000 0.000000 0.151583
O O3 0.500000 0.850157 0.378482
O O4 0.728708 0.220255 0.500000
O O5 0.738375 0.500000 0.356936
O O6 0.668867 0.266817 0.268610
O O7 0.779255 0.218894 0.249957
O O8 0.623320 0.000000 0.156858
O O9 0.644936 0.735640 0.000000
O O10 0.820157 0.500000 0.856783
O O11 0.889609 0.732513 0.767376
O O12 0.830022 0.779353 0.000000
O O13 0.082370 0.730804 0.500000
O O14 0.000000 0.731210 0.678948
O O15 0.065189 0.000000 0.652420
#
# Coordination Sequence:
#
# PCOD9386105 Si02
#       6
#     4   1   8   8   8   8
#     4   8  17  30  51  76 108 137 174 213 264 313
#     4   8  16  28  50  80 106 144 170 216 268 312
#     4  10  22  38  56  77 104 140 180 221 267 316
#     4  10  20  34  55  81 108 138 176 217 263 318
#     4  10  21  37  56  78 106 140 178 219 263 313
#     4   9  19  36  57  81 110 142 176 215 260 309
#
# _framework density 21.194147999999998
#
# number of rings (size 3 to 8) (size 9 to 14) (size 15 to 20)
#    0.324    2.162    0.000    2.270    1.514    6.486 
#    0.000    3.784    0.000    2.595    0.000    0.000 
#    0.000    0.000    0.000    0.000    0.000    0.000 
#
# Total GULP energy -206203.221572 kJ/mol
# GULP energy per Si atom -5573.060042 kJ/mol
# Density = 2.114591 g / cm^3
# Si number density = 21.194148 Si / 1000 Ang^3
#
#
#
# Elastic Constant Matrix: (Units=GPa)
#
#
# Indices 1 2 3 4 5 6 
#
# 1 135.8866 -3.0419 107.3552 0.0000 0.0000 0.0000
# 2 -3.0419 37.9247 10.3041 0.0000 0.0000 0.0000
# 3 107.3552 10.3041 229.0350 0.0000 0.0000 0.0000
# 4 0.0000 0.0000 0.0000 19.1738 0.0000 0.0000
# 5 0.0000 0.0000 0.0000 0.0000 18.7519 0.0000
# 6 0.0000 0.0000 0.0000 0.0000 0.0000 24.7688
#
#
#
# Elastic Compliance Matrix: (Units=1/GPa)
#
#
# Indices 1 2 3 4 5 6 
#
# 1 0.011917 0.002504 -0.005699 0.000000 0.000000 0.000000
# 2 0.002504 0.027221 -0.002398 0.000000 0.000000 0.000000
# 3 -0.005699 -0.002398 0.007145 0.000000 0.000000 0.000000
# 4 0.000000 0.000000 0.000000 0.052154 0.000000 0.000000
# 5 0.000000 0.000000 0.000000 0.000000 0.053328 0.000000
# 6 0.000000 0.000000 0.000000 0.000000 0.000000 0.040373
#
#
# Mechanical properties :
#
#
# Convention : Reuss Voigt Hill
#
# Bulk Modulus (GPa) = 28.49226 70.23123 49.36174
# Shear Modulus (GPa) = 23.25328 31.75416 27.50372
#
# Velocity S-wave (km/s) = 3.31593 3.87492 3.60627
# Velocity P-wave (km/s) = 5.30407 7.29583 6.37817
#
# Compressibility (1/GPa) = 0.03509725
#
# Stress axis : x y z
#
# Youngs Moduli (GPa) = 83.91202 36.73695 139.95511
#
# Poissons Ratio (x) = -0.09200 0.79755
# Poissons Ratio (y) = -0.21013 0.33567
# Poissons Ratio (z) = 0.47818 0.08811
#
# Static dielectric constant tensor:
#      x y z
#    x 1.754860 0.000000 0.000000 
#    y 0.000000 1.806300 0.000000 
#    z 0.000000 0.000000 1.750670 
# 
# From -- ./inp_files/12081.got.cif
#   From: 2010.05.17/outbox.cif.g08.bks.cpg/sg47_7_cif.got.tgz:12081.got - 2010.06.03 20:15:42.
