data_PCOD9386720
_publ_section_title
;
Structure prediction by ZEFSAII (Michael W. Deem and Ramdas Pophale) SiO2 
 PCOD9386720
Probable space group: P M M M
;
_chemical_formula_sum "Si O2"
_cell_formula_units_Z 48
_cell_length_a 8.014240
_cell_length_b 32.798947
_cell_length_c 9.296378
_cell_angle_alpha 90.000000
_cell_angle_beta 90.000000
_cell_angle_gamma 90.000000
_cell_volume 2443.633213
_symmetry_space_group_name_H-M "P M M M"
_symmetry_group_IT_number 47
_symmetry_cell_setting 'orthorhombic'
loop_
_space_group_symop_operation_xyz
x,y,z
-x,-y,z
x,-y,-z
-x,y,-z
-x,-y,-z
x,y,-z
-x,y,z
x,-y,z
loop_
_atom_site_type_symbol
_atom_site_label
_atom_site_fract_x
_atom_site_fract_y
_atom_site_fract_z
Si Si1 0.201188 0.919265 0.664125
Si Si2 0.196874 0.320596 0.834298
Si Si3 0.300269 0.240921 0.335939
Si Si4 0.798449 0.839727 0.164389
Si Si5 0.300493 0.000000 0.164129
Si Si6 0.311317 0.589831 0.172729
Si Si7 0.000000 0.451206 0.331136
O O1 0.263415 0.921061 0.500000
O O2 0.262508 0.878934 0.746514
O O3 0.000000 0.916758 0.658271
O O4 0.244939 0.959744 0.751509
O O5 0.233891 0.282349 0.734451
O O6 0.292316 0.361950 0.795112
O O7 0.000000 0.330100 0.829369
O O8 0.239670 0.309968 0.000000
O O9 0.240046 0.236379 0.500000
O O10 0.500000 0.243156 0.337228
O O11 0.248686 0.201956 0.242808
O O12 0.000000 0.841773 0.160393
O O13 0.737706 0.840591 0.000000
O O14 0.500000 0.000000 0.158866
O O15 0.235768 0.000000 0.000000
O O16 0.500000 0.576429 0.208245
O O17 0.165178 0.566504 0.255037
O O18 0.287632 0.585466 0.000000
O O19 0.000000 0.500000 0.318774
O O20 0.000000 0.440157 0.500000
#
# Coordination Sequence:
#
# PCOD9386720 Si02
#       7
#     8   8   8   8   4   8   4
#     4  10  21  38  61  86 111 142 182 229 283 342
#     4  10  20  37  62  89 118 154 198 249 304 361
#     4  11  24  38  53  80 118 157 196 238 288 348
#     4  10  21  38  60  84 109 143 188 235 285 341
#     4  11  24  39  56  82 114 147 184 225 274 334
#     4  10  21  40  67  96 126 164 213 268 322 378
#     4  11  25  43  63  91 131 175 215 261 321 386
#
# _framework density 19.642883999999999
#
# number of rings (size 3 to 8) (size 9 to 14) (size 15 to 20)
#    0.000    1.667    0.833    3.250    0.000   10.667 
#    0.000    1.667    0.000    0.000    0.000    0.000 
#    0.000    0.000    0.000    0.000    0.000    0.000 
#
# Total GULP energy -268308.889828 kJ/mol
# GULP energy per Si atom -5589.768538 kJ/mol
# Density = 1.959818 g / cm^3
# Si number density = 19.642884 Si / 1000 Ang^3
#
#
#
# Elastic Constant Matrix: (Units=GPa)
#
#
# Indices 1 2 3 4 5 6 
#
# 1 77.0362 44.9889 50.4262 0.0000 0.0000 0.0000
# 2 44.9889 112.1997 81.2323 0.0000 0.0000 0.0000
# 3 50.4262 81.2323 155.0870 0.0000 0.0000 0.0000
# 4 0.0000 0.0000 0.0000 52.3966 0.0000 0.0000
# 5 0.0000 0.0000 0.0000 0.0000 24.1775 0.0000
# 6 0.0000 0.0000 0.0000 0.0000 0.0000 -52.5013
#
#
#
# Elastic Compliance Matrix: (Units=1/GPa)
#
#
# Indices 1 2 3 4 5 6 
#
# 1 0.017958 -0.004789 -0.003330 0.000000 0.000000 0.000000
# 2 -0.004789 0.015635 -0.006632 0.000000 0.000000 0.000000
# 3 -0.003330 -0.006632 0.011005 0.000000 0.000000 0.000000
# 4 0.000000 0.000000 0.000000 0.019085 0.000000 0.000000
# 5 0.000000 0.000000 0.000000 0.000000 0.041361 0.000000
# 6 0.000000 0.000000 0.000000 0.000000 0.000000 -0.019047
#
#
# Mechanical properties :
#
#
# Convention : Reuss Voigt Hill
#
# Bulk Modulus (GPa) = 66.25296 77.51310 71.88303
# Shear Modulus (GPa) = 41.48334 15.99293 28.73814
#
# Velocity S-wave (km/s) = 4.60050 2.85649 3.82911
# Velocity P-wave (km/s) = 7.87537 7.10114 7.49825
#
# Compressibility (1/GPa) = 0.01509367
#
# Stress axis : x y z
#
# Youngs Moduli (GPa) = 55.68584 63.96077 90.87174
#
# Poissons Ratio (x) = 0.30634 0.30263
# Poissons Ratio (y) = 0.26671 0.60265
# Poissons Ratio (z) = 0.18545 0.42418
#
# Static dielectric constant tensor:
#      x y z
#    x 1.699580 0.000000 0.000000 
#    y 0.000000 1.642170 0.000000 
#    z 0.000000 0.000000 1.680960 
# 
# From -- ./inp_files/2728.got.cif
#   From: 2010.05.17/outbox.cif.g08.bks.cpg/sg47_2_cif.got.tgz:2728.got - 2010.06.03 20:15:42.
