data_PCOD9386769
_publ_section_title
;
Structure prediction by ZEFSAII (Michael W. Deem and Ramdas Pophale) SiO2 
 PCOD9386769
Probable space group: P M M M
;
_chemical_formula_sum "Si O2"
_cell_formula_units_Z 41
_cell_length_a 7.972436
_cell_length_b 8.186982
_cell_length_c 30.511519
_cell_angle_alpha 90.000000
_cell_angle_beta 90.000000
_cell_angle_gamma 90.000000
_cell_volume 1991.492643
_symmetry_space_group_name_H-M "P M M M"
_symmetry_group_IT_number 47
_symmetry_cell_setting 'orthorhombic'
loop_
_space_group_symop_operation_xyz
x,y,z
-x,-y,z
x,-y,-z
-x,y,-z
-x,-y,-z
x,y,-z
-x,y,z
x,-y,z
loop_
_atom_site_type_symbol
_atom_site_label
_atom_site_fract_x
_atom_site_fract_y
_atom_site_fract_z
Si Si1 0.299750 0.687021 0.720993
Si Si2 0.193998 0.304003 0.815887
Si Si3 0.704471 0.184413 0.628118
Si Si4 0.302168 0.680205 0.000000
Si Si5 0.500000 0.500000 0.500000
Si Si6 0.811552 0.806606 0.906971
Si Si7 0.194487 0.500000 0.572116
O O1 0.500000 0.676481 0.717752
O O2 0.232899 0.500000 0.717833
O O3 0.262364 0.755122 0.769284
O O4 0.243993 0.788546 0.678861
O O5 0.202089 0.500000 0.814366
O O6 0.274663 0.253955 0.862221
O O7 0.000000 0.250674 0.817288
O O8 0.500000 0.195508 0.625395
O O9 0.779292 0.334702 0.600737
O O10 0.750741 0.000000 0.613853
O O11 0.258423 0.765719 0.954501
O O12 0.223707 0.500000 0.000000
O O13 0.500000 0.665575 0.000000
O O14 0.348407 0.500000 0.537728
O O15 0.000000 0.735280 0.906988
O O16 0.819309 0.000000 0.903251
O O17 0.000000 0.500000 0.555852
#
# Coordination Sequence:
#
# PCOD9386769 Si02
#       7
#     8   8   8   4   1   8   4
#     4   9  17  31  54  84 122 166 213 257 309 373
#     4   9  18  32  50  75 110 152 194 239 293 350
#     4  10  20  39  67  97 137 185 227 279 341 398
#     4  11  24  39  56  78 100 127 172 233 292 354
#     4  12  26  52  78 102 148 186 230 292 346 404
#     4  10  21  37  56  77 104 141 183 229 288 356
#     4  12  25  45  75 106 139 183 234 284 344 405
#
# _framework density 20.587569999999999
#
# number of rings (size 3 to 8) (size 9 to 14) (size 15 to 20)
#    0.000    2.049    1.951    1.317    0.000    5.854 
#    0.000    2.927    0.000    1.171    0.000    0.000 
#    0.000    0.000    0.000    0.000    0.000    0.000 
#
# Total GULP energy -228257.534335 kJ/mol
# GULP energy per Si atom -5567.256935 kJ/mol
# Density = 2.054071 g / cm^3
# Si number density = 20.587570 Si / 1000 Ang^3
#
#
#
# Elastic Constant Matrix: (Units=GPa)
#
#
# Indices 1 2 3 4 5 6 
#
# 1 64.1821 21.3510 43.9314 0.0000 0.0000 0.0000
# 2 21.3510 86.6108 52.2202 0.0000 0.0000 0.0000
# 3 43.9314 52.2202 167.0831 0.0000 0.0000 0.0000
# 4 0.0000 0.0000 0.0000 -7.0179 0.0000 0.0000
# 5 0.0000 0.0000 0.0000 0.0000 2.3339 0.0000
# 6 0.0000 0.0000 0.0000 0.0000 0.0000 13.7106
#
#
#
# Elastic Compliance Matrix: (Units=1/GPa)
#
#
# Indices 1 2 3 4 5 6 
#
# 1 0.019303 -0.002093 -0.004421 0.000000 0.000000 0.000000
# 2 -0.002093 0.014454 -0.003967 0.000000 0.000000 0.000000
# 3 -0.004421 -0.003967 0.008387 0.000000 0.000000 0.000000
# 4 0.000000 0.000000 0.000000 -0.142493 0.000000 0.000000
# 5 0.000000 0.000000 0.000000 0.000000 0.428474 0.000000
# 6 0.000000 0.000000 0.000000 0.000000 0.000000 0.072936
#
#
# Mechanical properties :
#
#
# Convention : Reuss Voigt Hill
#
# Bulk Modulus (GPa) = 47.21025 61.43125 54.32075
# Shear Modulus (GPa) = 11.65270 15.16354 13.40812
#
# Velocity S-wave (km/s) = 2.38167 2.71687 2.55477
# Velocity P-wave (km/s) = 5.52669 6.30441 5.92832
#
# Compressibility (1/GPa) = 0.02118184
#
# Stress axis : x y z
#
# Youngs Moduli (GPa) = 51.80494 69.18645 119.22599
#
# Poissons Ratio (x) = 0.14479 0.52714
# Poissons Ratio (y) = 0.10842 0.47298
# Poissons Ratio (z) = 0.22905 0.27447
#
# Static dielectric constant tensor:
#      x y z
#    x 1.763980 0.000000 0.000000 
#    y 0.000000 1.734640 0.000000 
#    z 0.000000 0.000000 1.824790 
# 
# From -- ./inp_files/33111.got.cif
#   From: 2010.05.17/outbox.cif.g08.bks.cpg/sg47_17_cif.got.tgz:33111.got - 2010.06.03 20:15:42.
