data_PCOD9386424
_publ_section_title
;
Structure prediction by ZEFSAII (Michael W. Deem and Ramdas Pophale) SiO2 
 PCOD9386424
Probable space group: P M M M
;
_chemical_formula_sum "Si O2"
_cell_formula_units_Z 44
_cell_length_a 29.389796
_cell_length_b 8.582746
_cell_length_c 9.686737
_cell_angle_alpha 90.000000
_cell_angle_beta 90.000000
_cell_angle_gamma 90.000000
_cell_volume 2443.432467
_symmetry_space_group_name_H-M "P M M M"
_symmetry_group_IT_number 47
_symmetry_cell_setting 'orthorhombic'
loop_
_space_group_symop_operation_xyz
x,y,z
-x,-y,z
x,-y,-z
-x,y,-z
-x,-y,-z
x,y,-z
-x,y,z
x,-y,z
loop_
_atom_site_type_symbol
_atom_site_label
_atom_site_fract_x
_atom_site_fract_y
_atom_site_fract_z
Si Si1 0.550404 0.310019 0.339578
Si Si2 0.365134 0.689933 0.159091
Si Si3 0.737505 0.688233 0.838700
Si Si4 0.820191 0.813504 0.659113
Si Si5 0.000000 0.820876 0.832563
Si Si6 0.902935 0.313763 0.160506
O O1 0.554878 0.266437 0.500000
O O2 0.500000 0.261115 0.290397
O O3 0.550848 0.500000 0.334593
O O4 0.593312 0.253872 0.252242
O O5 0.365359 0.500000 0.163203
O O6 0.313983 0.736961 0.200333
O O7 0.372020 0.735078 0.000000
O O8 0.739708 0.500000 0.832361
O O9 0.775465 0.756848 0.739654
O O10 0.745118 0.731209 0.000000
O O11 0.820439 0.758739 0.500000
O O12 0.863825 0.753190 0.742856
O O13 0.821015 0.000000 0.658967
O O14 0.953033 0.739311 0.791473
O O15 0.000000 0.000000 0.787661
O O16 0.000000 0.817115 0.000000
O O17 0.900655 0.500000 0.161448
O O18 0.896606 0.262052 0.000000
#
# Coordination Sequence:
#
# PCOD9386424 Si02
#       6
#     8   8   8   8   4   8
#     4   8  13  20  30  48  78 116 155 191 228 276
#     4   8  14  24  38  58  84 113 148 192 239 286
#     4   9  18  33  52  73  96 124 162 206 250 299
#     4  11  24  38  51  72 102 133 167 207 250 298
#     4   9  17  31  54  83 112 141 172 206 246 291
#     4  10  20  35  57  83 108 135 170 210 249 292
#
# _framework density 18.007455
#
# number of rings (size 3 to 8) (size 9 to 14) (size 15 to 20)
#    0.000    2.818    0.000    3.545    0.000    7.273 
#    0.000    4.091    0.000    2.727    0.000    0.000 
#    0.000    0.727    0.000    8.000    0.000   13.091 
#
# Total GULP energy -245291.672442 kJ/mol
# GULP energy per Si atom -5574.810737 kJ/mol
# Density = 1.796647 g / cm^3
# Si number density = 18.007455 Si / 1000 Ang^3
#
#
#
# Elastic Constant Matrix: (Units=GPa)
#
#
# Indices 1 2 3 4 5 6 
#
# 1 215.0509 34.0527 116.9679 0.0000 0.0000 0.0000
# 2 34.0527 21.6549 27.6917 0.0000 0.0000 0.0000
# 3 116.9679 27.6917 101.2096 0.0000 0.0000 0.0000
# 4 0.0000 0.0000 0.0000 17.4702 0.0000 0.0000
# 5 0.0000 0.0000 0.0000 0.0000 -23.9031 0.0000
# 6 0.0000 0.0000 0.0000 0.0000 0.0000 -30.5749
#
#
#
# Elastic Compliance Matrix: (Units=1/GPa)
#
#
# Indices 1 2 3 4 5 6 
#
# 1 0.012567 -0.001829 -0.014023 0.000000 0.000000 0.000000
# 2 -0.001829 0.071298 -0.017393 0.000000 0.000000 0.000000
# 3 -0.014023 -0.017393 0.030846 0.000000 0.000000 0.000000
# 4 0.000000 0.000000 0.000000 0.057240 0.000000 0.000000
# 5 0.000000 0.000000 0.000000 0.000000 -0.041836 0.000000
# 6 0.000000 0.000000 0.000000 0.000000 0.000000 -0.032707
#
#
# Mechanical properties :
#
#
# Convention : Reuss Voigt Hill
#
# Bulk Modulus (GPa) = 20.73870 77.26000 48.99935
# Shear Modulus (GPa) = 27.78171 3.21196 15.49683
#
# Velocity S-wave (km/s) = 3.93210 1.33699 2.93674
# Velocity P-wave (km/s) = 5.67071 6.73654 6.22647
#
# Compressibility (1/GPa) = 0.04821903
#
# Stress axis : x y z
#
# Youngs Moduli (GPa) = 79.57268 14.02567 32.41899
#
# Poissons Ratio (x) = 0.02566 0.45462
# Poissons Ratio (y) = 0.14557 0.56387
# Poissons Ratio (z) = 1.11587 0.24395
#
# Static dielectric constant tensor:
#      x y z
#    x 1.615120 0.000000 0.000000 
#    y 0.000000 1.614550 0.000000 
#    z 0.000000 0.000000 1.602170 
# 
# From -- ./inp_files/13545.got.cif
#   From: 2010.05.17/outbox.cif.g08.bks.cpg/sg47_7_cif.got.tgz:13545.got - 2010.06.03 20:15:42.
