data_PCOD9386390
_publ_section_title
;
Structure prediction by ZEFSAII (Michael W. Deem and Ramdas Pophale) SiO2 
 PCOD9386390
Probable space group: P M M M
;
_chemical_formula_sum "Si O2"
_cell_formula_units_Z 40
_cell_length_a 30.173785
_cell_length_b 7.713043
_cell_length_c 9.324473
_cell_angle_alpha 90.000000
_cell_angle_beta 90.000000
_cell_angle_gamma 90.000000
_cell_volume 2170.100464
_symmetry_space_group_name_H-M "P M M M"
_symmetry_group_IT_number 47
_symmetry_cell_setting 'orthorhombic'
loop_
_space_group_symop_operation_xyz
x,y,z
-x,-y,z
x,-y,-z
-x,y,-z
-x,-y,-z
x,y,-z
-x,y,z
x,-y,z
loop_
_atom_site_type_symbol
_atom_site_label
_atom_site_fract_x
_atom_site_fract_y
_atom_site_fract_z
Si Si1 0.635756 0.207129 0.838870
Si Si2 0.947086 0.203361 0.832179
Si Si3 0.894495 0.500000 0.671537
Si Si4 0.800232 0.500000 0.826495
Si Si5 0.451681 0.708720 0.664598
Si Si6 0.732060 0.800772 0.174537
O O1 0.591692 0.241060 0.750718
O O2 0.683346 0.264871 0.777068
O O3 0.640788 0.000000 0.848859
O O4 0.630374 0.277922 0.000000
O O5 0.920623 0.332121 0.730824
O O6 0.000000 0.227639 0.814783
O O7 0.937400 0.000000 0.806108
O O8 0.936677 0.240035 0.000000
O O9 0.892373 0.500000 0.500000
O O10 0.846158 0.500000 0.743361
O O11 0.770895 0.331247 0.788541
O O12 0.807207 0.500000 0.000000
O O13 0.448117 0.768530 0.500000
O O14 0.500000 0.767989 0.721389
O O15 0.452765 0.500000 0.662872
O O16 0.739723 0.000000 0.221140
O O17 0.729307 0.803063 0.000000
#
# Coordination Sequence:
#
# PCOD9386390 Si02
#       6
#     8   8   4   4   8   8
#     4   9  18  32  51  76 101 123 155 206 263 312
#     4   9  19  38  64  90 115 150 199 247 284 324
#     4  12  25  37  52  83 126 161 189 230 287 345
#     4  10  20  35  57  78  99 142 192 227 271 324
#     4   9  19  34  48  66  96 132 167 201 240 296
#     4   8  16  32  53  78 103 126 166 225 275 318
#
# _framework density 18.432327000000001
#
# number of rings (size 3 to 8) (size 9 to 14) (size 15 to 20)
#    0.000    2.800    0.000    3.600    1.400    4.400 
#    0.000    7.000    0.000    1.200    0.000    0.000 
#    0.000    0.000    0.000    0.000    0.000    0.000 
#
# Total GULP energy -222984.118307 kJ/mol
# GULP energy per Si atom -5574.602958 kJ/mol
# Density = 1.839037 g / cm^3
# Si number density = 18.432327 Si / 1000 Ang^3
#
#
#
# Elastic Constant Matrix: (Units=GPa)
#
#
# Indices 1 2 3 4 5 6 
#
# 1 148.3105 72.8477 79.3120 0.0000 0.0000 0.0000
# 2 72.8477 82.9617 46.7224 0.0000 0.0000 0.0000
# 3 79.3120 46.7224 73.6347 0.0000 0.0000 0.0000
# 4 0.0000 0.0000 0.0000 16.2500 0.0000 0.0000
# 5 0.0000 0.0000 0.0000 0.0000 -63.3509 0.0000
# 6 0.0000 0.0000 0.0000 0.0000 0.0000 -229.9928
#
#
#
# Elastic Compliance Matrix: (Units=1/GPa)
#
#
# Indices 1 2 3 4 5 6 
#
# 1 0.018738 -0.007916 -0.015160 0.000000 0.000000 0.000000
# 2 -0.007916 0.022100 -0.005497 0.000000 0.000000 0.000000
# 3 -0.015160 -0.005497 0.033397 0.000000 0.000000 0.000000
# 4 0.000000 0.000000 0.000000 0.061538 0.000000 0.000000
# 5 0.000000 0.000000 0.000000 0.000000 -0.015785 0.000000
# 6 0.000000 0.000000 0.000000 0.000000 0.000000 -0.004348
#
#
# Mechanical properties :
#
#
# Convention : Reuss Voigt Hill
#
# Bulk Modulus (GPa) = 58.51315 78.07457 68.29386
# Shear Modulus (GPa) = 28.01410 -48.35041 -10.16816
#
# Velocity S-wave (km/s) = 3.90274 -5.12721 -2.35127
# Velocity P-wave (km/s) = 7.21957 2.71999 5.45530
#
# Compressibility (1/GPa) = 0.01709017
#
# Stress axis : x y z
#
# Youngs Moduli (GPa) = 53.36861 45.24850 29.94278
#
# Poissons Ratio (x) = 0.35817 0.45392
# Poissons Ratio (y) = 0.42245 0.16459
# Poissons Ratio (z) = 0.80905 0.24873
#
# Static dielectric constant tensor:
#      x y z
#    x 1.648850 0.000000 0.000000 
#    y 0.000000 1.656510 0.000000 
#    z 0.000000 0.000000 1.615770 
# 
# From -- ./inp_files/1718.got.cif
#   From: 2010.05.17/outbox.cif.g08.bks.cpg/sg47_1_cif.got.tgz:1718.got - 2010.06.03 20:15:42.
