data_PCOD9386393
_publ_section_title
;
Structure prediction by ZEFSAII (Michael W. Deem and Ramdas Pophale) SiO2 
 PCOD9386393
Probable space group: P M M M
;
_chemical_formula_sum "Si O2"
_cell_formula_units_Z 40
_cell_length_a 7.658570
_cell_length_b 30.658476
_cell_length_c 7.932997
_cell_angle_alpha 90.000000
_cell_angle_beta 90.000000
_cell_angle_gamma 90.000000
_cell_volume 1862.668366
_symmetry_space_group_name_H-M "P M M M"
_symmetry_group_IT_number 47
_symmetry_cell_setting 'orthorhombic'
loop_
_space_group_symop_operation_xyz
x,y,z
-x,-y,z
x,-y,-z
-x,y,-z
-x,-y,-z
x,y,-z
-x,y,z
x,-y,z
loop_
_atom_site_type_symbol
_atom_site_label
_atom_site_fract_x
_atom_site_fract_y
_atom_site_fract_z
Si Si1 0.715420 0.196167 0.500000
Si Si2 0.789275 0.047778 0.302691
Si Si3 0.706903 0.704560 0.500000
Si Si4 0.794685 0.453163 0.794989
Si Si5 0.293710 0.857689 0.819214
Si Si6 0.790309 0.358249 0.192570
O O1 0.500000 0.195528 0.500000
O O2 0.775463 0.246047 0.500000
O O3 0.776977 0.169633 0.663311
O O4 0.739025 0.051144 0.500000
O O5 0.725632 0.090700 0.210545
O O6 0.000000 0.048186 0.295504
O O7 0.731055 0.000000 0.240265
O O8 0.500000 0.708052 0.500000
O O9 0.755333 0.678071 0.668289
O O10 0.719331 0.500000 0.739203
O O11 0.721778 0.405866 0.746895
O O12 0.000000 0.453793 0.746995
O O13 0.788512 0.452852 0.000000
O O14 0.500000 0.848510 0.824108
O O15 0.216617 0.845930 0.000000
O O16 0.000000 0.362698 0.181431
O O17 0.728246 0.349216 0.000000
#
# Coordination Sequence:
#
# PCOD9386393 Si02
#       6
#     4   8   4   8   8   8
#     4   9  20  39  56  73 100 134 173 219 268 309
#     4   9  18  33  53  78 110 146 176 201 240 299
#     4  11  23  37  56  79 104 140 183 223 270 329
#     4   7  10  20  43  74 103 132 169 212 257 306
#     4  10  20  35  57  81 102 129 171 219 262 303
#     4   9  18  34  56  81 109 139 174 221 272 318
#
# _framework density 21.474568999999999
#
# number of rings (size 3 to 8) (size 9 to 14) (size 15 to 20)
#    0.000    3.000    1.000    2.700    0.000    2.400 
#    0.000    7.500    0.000    3.600    0.000    2.800 
#    0.000    0.000    0.000    0.000    0.000    0.000 
#
# Total GULP energy -223027.910731 kJ/mol
# GULP energy per Si atom -5575.697768 kJ/mol
# Density = 2.142569 g / cm^3
# Si number density = 21.474569 Si / 1000 Ang^3
#
#
#
# Elastic Constant Matrix: (Units=GPa)
#
#
# Indices 1 2 3 4 5 6 
#
# 1 38.5638 1.6310 8.5407 0.0000 0.0000 0.0000
# 2 1.6310 192.9383 107.0989 0.0000 0.0000 0.0000
# 3 8.5407 107.0989 144.8693 0.0000 0.0000 0.0000
# 4 0.0000 0.0000 0.0000 -24.5178 0.0000 0.0000
# 5 0.0000 0.0000 0.0000 0.0000 15.0867 0.0000
# 6 0.0000 0.0000 0.0000 0.0000 0.0000 19.3513
#
#
#
# Elastic Compliance Matrix: (Units=1/GPa)
#
#
# Indices 1 2 3 4 5 6 
#
# 1 0.026408 0.001087 -0.002361 0.000000 0.000000 0.000000
# 2 0.001087 0.008835 -0.006596 0.000000 0.000000 0.000000
# 3 -0.002361 -0.006596 0.011918 0.000000 0.000000 0.000000
# 4 0.000000 0.000000 0.000000 -0.040787 0.000000 0.000000
# 5 0.000000 0.000000 0.000000 0.000000 0.066283 0.000000
# 6 0.000000 0.000000 0.000000 0.000000 0.000000 0.051676
#
#
# Mechanical properties :
#
#
# Convention : Reuss Voigt Hill
#
# Bulk Modulus (GPa) = 31.82413 67.87919 49.85166
# Shear Modulus (GPa) = 33.21244 19.25743 26.23493
#
# Velocity S-wave (km/s) = 3.93694 2.99784 3.49904
# Velocity P-wave (km/s) = 5.95967 6.60760 6.29198
#
# Compressibility (1/GPa) = 0.03142270
#
# Stress axis : x y z
#
# Youngs Moduli (GPa) = 37.86746 113.18603 83.90702
#
# Poissons Ratio (x) = -0.12304 0.19806
# Poissons Ratio (y) = -0.04116 0.55342
# Poissons Ratio (z) = 0.08939 0.74653
#
# Static dielectric constant tensor:
#      x y z
#    x 1.814430 0.000000 0.000000 
#    y 0.000000 1.791120 0.000000 
#    z 0.000000 0.000000 1.844780 
# 
# From -- ./inp_files/1801.got.cif
#   From: 2010.05.17/outbox.cif.g08.bks.cpg/sg47_1_cif.got.tgz:1801.got - 2010.06.03 20:15:42.
