data_PCOD9386877
_publ_section_title
;
Structure prediction by ZEFSAII (Michael W. Deem and Ramdas Pophale) SiO2 
 PCOD9386877
Probable space group: P M M M
;
_chemical_formula_sum "Si O2"
_cell_formula_units_Z 64
_cell_length_a 14.029764
_cell_length_b 7.635909
_cell_length_c 25.344735
_cell_angle_alpha 90.000000
_cell_angle_beta 90.000000
_cell_angle_gamma 90.000000
_cell_volume 2715.181491
_symmetry_space_group_name_H-M "P M M M"
_symmetry_group_IT_number 47
_symmetry_cell_setting 'orthorhombic'
loop_
_space_group_symop_operation_xyz
x,y,z
-x,-y,z
x,-y,-z
-x,y,-z
-x,-y,-z
x,y,-z
-x,y,z
x,-y,z
loop_
_atom_site_type_symbol
_atom_site_label
_atom_site_fract_x
_atom_site_fract_y
_atom_site_fract_z
Si Si1 0.389303 0.790559 0.776484
Si Si2 0.796824 0.295285 0.943014
Si Si3 0.883818 0.296389 0.721658
Si Si4 0.610435 0.787882 0.107766
Si Si5 0.107648 0.202746 0.396289
Si Si6 0.112119 0.286549 0.164296
Si Si7 0.608796 0.289844 0.336940
Si Si8 0.701889 0.297464 0.557116
O O1 0.500000 0.728315 0.773898
O O2 0.355007 0.727075 0.833668
O O3 0.344566 0.745830 0.720097
O O4 0.391163 0.000000 0.779519
O O5 0.824413 0.500000 0.943655
O O6 0.683500 0.282015 0.934895
O O7 0.840239 0.218920 0.889210
O O8 0.824206 0.219701 0.000000
O O9 0.855573 0.500000 0.717694
O O10 0.861751 0.213153 0.665307
O O11 0.850914 0.222726 0.778408
O O12 0.000000 0.291095 0.725194
O O13 0.500000 0.736995 0.101141
O O14 0.613436 0.000000 0.106198
O O15 0.185440 0.294457 0.432058
O O16 0.000000 0.273686 0.399935
O O17 0.105966 0.000000 0.411581
O O18 0.121117 0.500000 0.166288
O O19 0.000000 0.247105 0.160813
O O20 0.500000 0.224166 0.335317
O O21 0.607163 0.500000 0.340757
O O22 0.656674 0.218603 0.389921
O O23 0.679722 0.217870 0.500000
O O24 0.670630 0.500000 0.555026
#
# Coordination Sequence:
#
# PCOD9386877 Si02
#       8
#     8   8   8   8   8   8   8   8
#     4   8  15  30  52  77 103 130 163 203 249 303
#     4  10  21  34  49  74 104 132 168 213 255 294
#     4   8  14  28  52  78 102 130 165 203 245 299
#     4   9  19  36  55  73  97 133 172 207 248 301
#     4  10  21  36  54  77 105 134 164 206 259 305
#     4   8  15  30  52  76 102 133 167 203 246 298
#     4   9  18  33  54  80 107 133 163 203 251 299
#     4  10  22  38  54  74 101 136 177 212 243 289
#
# _framework density 23.571166999999999
#
# number of rings (size 3 to 8) (size 9 to 14) (size 15 to 20)
#    0.000    3.000    0.000    1.875    0.000    4.500 
#    0.000   10.625    0.000    1.125    0.000    3.500 
#    0.000    0.000    0.000    0.000    0.000    0.000 
#
# Total GULP energy -357172.088406 kJ/mol
# GULP energy per Si atom -5580.813881 kJ/mol
# Density = 2.351752 g / cm^3
# Si number density = 23.571167 Si / 1000 Ang^3
#
#
#
# Elastic Constant Matrix: (Units=GPa)
#
#
# Indices 1 2 3 4 5 6 
#
# 1 42.0307 -9.8630 25.6120 0.0000 0.0000 0.0000
# 2 -9.8630 47.9753 2.4217 0.0000 0.0000 0.0000
# 3 25.6120 2.4217 136.5120 0.0000 0.0000 0.0000
# 4 0.0000 0.0000 0.0000 30.2518 0.0000 0.0000
# 5 0.0000 0.0000 0.0000 0.0000 18.9905 0.0000
# 6 0.0000 0.0000 0.0000 0.0000 0.0000 2.2094
#
#
#
# Elastic Compliance Matrix: (Units=1/GPa)
#
#
# Indices 1 2 3 4 5 6 
#
# 1 0.028568 0.006149 -0.005469 0.000000 0.000000 0.000000
# 2 0.006149 0.022186 -0.001547 0.000000 0.000000 0.000000
# 3 -0.005469 -0.001547 0.008379 0.000000 0.000000 0.000000
# 4 0.000000 0.000000 0.000000 0.033056 0.000000 0.000000
# 5 0.000000 0.000000 0.000000 0.000000 0.052658 0.000000
# 6 0.000000 0.000000 0.000000 0.000000 0.000000 0.452618
#
#
# Mechanical properties :
#
#
# Convention : Reuss Voigt Hill
#
# Bulk Modulus (GPa) = 17.42197 29.20660 23.31428
# Shear Modulus (GPa) = 8.08628 24.18015 16.13321
#
# Velocity S-wave (km/s) = 1.85419 3.20634 2.61903
# Velocity P-wave (km/s) = 3.46285 5.11128 4.36558
#
# Compressibility (1/GPa) = 0.05739880
#
# Stress axis : x y z
#
# Youngs Moduli (GPa) = 35.00468 45.07282 119.34795
#
# Poissons Ratio (x) = -0.27716 0.65270
# Poissons Ratio (y) = -0.21525 0.18466
# Poissons Ratio (z) = 0.19144 0.06974
#
# Static dielectric constant tensor:
#      x y z
#    x 1.922330 0.000000 0.000000 
#    y 0.000000 1.877200 0.000000 
#    z 0.000000 0.000000 1.924790 
# 
# From -- ./inp_files/32796.got.cif
#   From: 2010.05.17/outbox.cif.g08.bks.cpg/sg47_17_cif.got.tgz:32796.got - 2010.06.03 20:15:42.
