data_PCOD9386628
_publ_section_title
;
Structure prediction by ZEFSAII (Michael W. Deem and Ramdas Pophale) SiO2 
 PCOD9386628
Probable space group: P M M M
;
_chemical_formula_sum "Si O2"
_cell_formula_units_Z 56
_cell_length_a 15.632344
_cell_length_b 23.681862
_cell_length_c 7.545818
_cell_angle_alpha 90.000000
_cell_angle_beta 90.000000
_cell_angle_gamma 90.000000
_cell_volume 2793.484562
_symmetry_space_group_name_H-M "P M M M"
_symmetry_group_IT_number 47
_symmetry_cell_setting 'orthorhombic'
loop_
_space_group_symop_operation_xyz
x,y,z
-x,-y,z
x,-y,-z
-x,y,-z
-x,-y,-z
x,y,-z
-x,y,z
x,-y,z
loop_
_atom_site_type_symbol
_atom_site_label
_atom_site_fract_x
_atom_site_fract_y
_atom_site_fract_z
Si Si1 0.847619 0.735259 0.286420
Si Si2 0.906070 0.857415 0.712143
Si Si3 0.353202 0.272542 0.713750
Si Si4 0.595519 0.361860 0.000000
Si Si5 0.903062 0.387683 0.713515
Si Si6 0.406763 0.146773 0.288080
Si Si7 0.771194 0.566497 0.000000
Si Si8 0.747906 0.936980 0.209113
O O1 0.853510 0.738287 0.500000
O O2 0.880141 0.795389 0.217454
O O3 0.747966 0.726762 0.245211
O O4 0.897549 0.678803 0.236340
O O5 0.910985 0.851803 0.500000
O O6 0.833458 0.903237 0.743773
O O7 0.000000 0.873556 0.778538
O O8 0.364649 0.279083 0.500000
O O9 0.385788 0.210543 0.769749
O O10 0.396315 0.321272 0.828064
O O11 0.679692 0.401571 0.000000
O O12 0.500000 0.388166 0.000000
O O13 0.888160 0.392512 0.500000
O O14 0.829840 0.417055 0.829710
O O15 0.000000 0.408146 0.749296
O O16 0.410631 0.150520 0.500000
O O17 0.500000 0.129256 0.220271
O O18 0.332637 0.102505 0.250812
O O19 0.756140 0.500000 0.000000
O O20 0.743162 0.000000 0.287870
O O21 0.748710 0.942751 0.000000
#
# Coordination Sequence:
#
# PCOD9386628 Si02
#       8
#     8   8   8   4   8   8   4   8
#     4   9  16  32  61  92 123 155 185 236 307 370
#     4  10  20  36  60  87 114 147 191 245 300 355
#     4  10  20  38  64  95 129 159 195 251 314 376
#     4  12  26  42  67  96 123 169 215 254 313 371
#     4  10  21  40  67  97 131 170 207 250 313 380
#     4  10  21  38  62  90 117 145 182 241 311 369
#     4  12  27  45  64  91 131 171 217 270 302 346
#     4  11  25  41  55  74 109 157 203 247 293 350
#
# _framework density 20.046648000000001
#
# number of rings (size 3 to 8) (size 9 to 14) (size 15 to 20)
#    0.000    1.714    2.857    1.500    1.000    5.857 
#    1.286    3.571    0.000    0.000    0.000    2.000 
#    0.000    0.000    0.000    0.000    0.000    0.000 
#
# Total GULP energy -312679.394552 kJ/mol
# GULP energy per Si atom -5583.560617 kJ/mol
# Density = 2.000102 g / cm^3
# Si number density = 20.046648 Si / 1000 Ang^3
#
#
#
# Elastic Constant Matrix: (Units=GPa)
#
#
# Indices 1 2 3 4 5 6 
#
# 1 182.2012 81.2139 37.8520 0.0000 0.0000 0.0000
# 2 81.2139 129.8531 28.5782 0.0000 0.0000 0.0000
# 3 37.8520 28.5782 73.9299 0.0000 0.0000 0.0000
# 4 0.0000 0.0000 0.0000 18.7149 0.0000 0.0000
# 5 0.0000 0.0000 0.0000 0.0000 17.3822 0.0000
# 6 0.0000 0.0000 0.0000 0.0000 0.0000 -1.7380
#
#
#
# Elastic Compliance Matrix: (Units=1/GPa)
#
#
# Indices 1 2 3 4 5 6 
#
# 1 0.007968 -0.004465 -0.002353 0.000000 0.000000 0.000000
# 2 -0.004465 0.010920 -0.001935 0.000000 0.000000 0.000000
# 3 -0.002353 -0.001935 0.015479 0.000000 0.000000 0.000000
# 4 0.000000 0.000000 0.000000 0.053433 0.000000 0.000000
# 5 0.000000 0.000000 0.000000 0.000000 0.057530 0.000000
# 6 0.000000 0.000000 0.000000 0.000000 0.000000 -0.575358
#
#
# Mechanical properties :
#
#
# Convention : Reuss Voigt Hill
#
# Bulk Modulus (GPa) = 59.31380 75.69692 67.50536
# Shear Modulus (GPa) = -12.28798 22.76115 5.23658
#
# Velocity S-wave (km/s) = -2.47851 3.37324 1.61798
# Velocity P-wave (km/s) = 4.63265 7.28107 6.10227
#
# Compressibility (1/GPa) = 0.01685948
#
# Stress axis : x y z
#
# Youngs Moduli (GPa) = 125.50686 91.57884 64.60299
#
# Poissons Ratio (x) = 0.40893 0.15203
# Poissons Ratio (y) = 0.56043 0.12499
# Poissons Ratio (z) = 0.29536 0.17719
#
# Static dielectric constant tensor:
#      x y z
#    x 1.705890 0.000000 0.000000 
#    y 0.000000 1.706990 0.000000 
#    z 0.000000 0.000000 1.738720 
# 
# From -- ./inp_files/7386.got.cif
#   From: 2010.05.17/outbox.cif.g08.bks.cpg/sg47_4_cif.got.tgz:7386.got - 2010.06.03 20:15:42.
