data_PCOD9386522
_publ_section_title
;
Structure prediction by ZEFSAII (Michael W. Deem and Ramdas Pophale) SiO2 
 PCOD9386522
Probable space group: P M M M
;
_chemical_formula_sum "Si O2"
_cell_formula_units_Z 44
_cell_length_a 9.456295
_cell_length_b 30.557083
_cell_length_c 8.157894
_cell_angle_alpha 90.000000
_cell_angle_beta 90.000000
_cell_angle_gamma 90.000000
_cell_volume 2357.278873
_symmetry_space_group_name_H-M "P M M M"
_symmetry_group_IT_number 47
_symmetry_cell_setting 'orthorhombic'
loop_
_space_group_symop_operation_xyz
x,y,z
-x,-y,z
x,-y,-z
-x,y,-z
-x,-y,-z
x,y,-z
-x,y,z
x,-y,z
loop_
_atom_site_type_symbol
_atom_site_label
_atom_site_fract_x
_atom_site_fract_y
_atom_site_fract_z
Si Si1 0.338156 0.632185 0.694693
Si Si2 0.835548 0.190408 0.306928
Si Si3 0.330567 0.107608 0.814874
Si Si4 0.835204 0.451661 0.802214
Si Si5 0.671803 0.949951 0.500000
Si Si6 0.335732 0.272941 0.806130
O O1 0.338311 0.638492 0.500000
O O2 0.500000 0.625787 0.751589
O O3 0.250109 0.589329 0.736541
O O4 0.286022 0.677511 0.773056
O O5 0.828297 0.179735 0.500000
O O6 0.750562 0.153089 0.210875
O O7 0.760600 0.236823 0.278359
O O8 0.000000 0.191914 0.257900
O O9 0.500000 0.114956 0.800080
O O10 0.287117 0.075497 0.666369
O O11 0.304372 0.090826 0.000000
O O12 0.783856 0.500000 0.748604
O O13 0.000000 0.448105 0.755439
O O14 0.828621 0.450763 0.000000
O O15 0.500000 0.950860 0.500000
O O16 0.721999 0.000000 0.500000
O O17 0.500000 0.269954 0.749079
O O18 0.334046 0.264710 0.000000
#
# Coordination Sequence:
#
# PCOD9386522 Si02
#       6
#     8   8   8   8   4   8
#     4  10  21  36  54  78 107 138 173 216 267 322
#     4  11  23  37  55  81 113 149 188 230 278 332
#     4  10  20  35  58  86 115 152 194 234 284 341
#     4   9  19  36  56  77 102 135 175 217 263 317
#     4   9  18  34  57  87 121 153 189 239 290 333
#     4  10  21  37  57  80 106 140 182 225 273 330
#
# _framework density 18.665590000000002
#
# number of rings (size 3 to 8) (size 9 to 14) (size 15 to 20)
#    0.000    2.091    0.909    2.727    0.000    8.000 
#    0.000    4.545    0.000    1.091    0.000    1.273 
#    0.000    0.000    0.000    0.000    0.000    0.000 
#
# Total GULP energy -245587.985051 kJ/mol
# GULP energy per Si atom -5581.545115 kJ/mol
# Density = 1.862311 g / cm^3
# Si number density = 18.665590 Si / 1000 Ang^3
#
#
#
# Elastic Constant Matrix: (Units=GPa)
#
#
# Indices 1 2 3 4 5 6 
#
# 1 46.8588 49.8327 31.3914 0.0000 0.0000 0.0000
# 2 49.8327 128.5156 43.0488 0.0000 0.0000 0.0000
# 3 31.3914 43.0488 78.2958 0.0000 0.0000 0.0000
# 4 0.0000 0.0000 0.0000 21.3610 0.0000 0.0000
# 5 0.0000 0.0000 0.0000 0.0000 20.0458 0.0000
# 6 0.0000 0.0000 0.0000 0.0000 0.0000 -94.6656
#
#
#
# Elastic Compliance Matrix: (Units=1/GPa)
#
#
# Indices 1 2 3 4 5 6 
#
# 1 0.041402 -0.012863 -0.009527 0.000000 0.000000 0.000000
# 2 -0.012863 0.013534 -0.002284 0.000000 0.000000 0.000000
# 3 -0.009527 -0.002284 0.017848 0.000000 0.000000 0.000000
# 4 0.000000 0.000000 0.000000 0.046814 0.000000 0.000000
# 5 0.000000 0.000000 0.000000 0.000000 0.049886 0.000000
# 6 0.000000 0.000000 0.000000 0.000000 0.000000 -0.010563
#
#
# Mechanical properties :
#
#
# Convention : Reuss Voigt Hill
#
# Bulk Modulus (GPa) = 42.67022 55.80177 49.23599
# Shear Modulus (GPa) = 23.13954 -2.02528 10.55713
#
# Velocity S-wave (km/s) = 3.52474 -1.04278 2.38080
# Velocity P-wave (km/s) = 6.28292 5.33953 5.83034
#
# Compressibility (1/GPa) = 0.02343555
#
# Stress axis : x y z
#
# Youngs Moduli (GPa) = 24.15337 73.88908 56.02922
#
# Poissons Ratio (x) = 0.95040 0.53381
# Poissons Ratio (y) = 0.31067 0.12798
# Poissons Ratio (z) = 0.23012 0.16878
#
# Static dielectric constant tensor:
#      x y z
#    x 1.627380 0.000000 0.000000 
#    y 0.000000 1.622620 0.000000 
#    z 0.000000 0.000000 1.663230 
# 
# From -- ./inp_files/2134.got.cif
#   From: 2010.05.17/outbox.cif.g08.bks.cpg/sg47_2_cif.got.tgz:2134.got - 2010.06.03 20:15:42.
