data_PCOD9386567
_publ_section_title
;
Structure prediction by ZEFSAII (Michael W. Deem and Ramdas Pophale) SiO2 
 PCOD9386567
Probable space group: P M M M
;
_chemical_formula_sum "Si O2"
_cell_formula_units_Z 48
_cell_length_a 13.969822
_cell_length_b 20.105170
_cell_length_c 8.815345
_cell_angle_alpha 90.000000
_cell_angle_beta 90.000000
_cell_angle_gamma 90.000000
_cell_volume 2475.927570
_symmetry_space_group_name_H-M "P M M M"
_symmetry_group_IT_number 47
_symmetry_cell_setting 'orthorhombic'
loop_
_space_group_symop_operation_xyz
x,y,z
-x,-y,z
x,-y,-z
-x,y,-z
-x,-y,-z
x,y,-z
-x,y,z
x,-y,z
loop_
_atom_site_type_symbol
_atom_site_label
_atom_site_fract_x
_atom_site_fract_y
_atom_site_fract_z
Si Si1 0.189614 0.356999 0.316475
Si Si2 0.000000 0.272889 0.317283
Si Si3 0.110265 0.500000 0.315463
Si Si4 0.333668 0.842754 0.177569
Si Si5 0.000000 0.873169 0.174902
Si Si6 0.181006 0.926106 0.676107
Si Si7 0.500000 0.078466 0.674615
Si Si8 0.608825 0.309157 0.819070
O O1 0.193196 0.353557 0.500000
O O2 0.099324 0.309920 0.267836
O O3 0.161693 0.432002 0.269761
O O4 0.295361 0.339756 0.254738
O O5 0.000000 0.276011 0.500000
O O6 0.000000 0.196597 0.265218
O O7 0.108278 0.500000 0.500000
O O8 0.000000 0.500000 0.264362
O O9 0.245189 0.862871 0.281507
O O10 0.411011 0.895590 0.231031
O O11 0.376796 0.770001 0.202641
O O12 0.309220 0.848989 0.000000
O O13 0.090165 0.917171 0.219503
O O14 0.000000 0.855704 0.000000
O O15 0.154055 0.922589 0.500000
O O16 0.225474 0.000000 0.699815
O O17 0.500000 0.104396 0.500000
O O18 0.500000 0.000000 0.665391
O O19 0.500000 0.327372 0.766168
O O20 0.611671 0.322071 0.000000
#
# Coordination Sequence:
#
# PCOD9386567 Si02
#       8
#     8   4   4   8   4   8   4   8
#     4  10  20  35  62  95 122 157 199 241 292 352
#     4  10  20  36  59  90 124 154 192 241 302 365
#     4   9  16  34  62  93 130 160 189 236 293 348
#     4  11  22  39  61  84 111 150 198 246 299 355
#     4  12  25  39  57  82 113 153 198 241 292 356
#     4  11  24  41  59  81 112 149 190 244 308 365
#     4  11  23  37  55  83 117 150 189 244 305 357
#     4  10  22  41  59  81 119 163 203 247 299 349
#
# _framework density 19.386672999999998
#
# number of rings (size 3 to 8) (size 9 to 14) (size 15 to 20)
#    0.000    1.500    1.667    3.750    0.000   10.000 
#    0.000    0.833    0.000    3.000    0.000    0.000 
#    0.000    0.000    0.000    0.000    0.000    0.000 
#
# Total GULP energy -267750.689996 kJ/mol
# GULP energy per Si atom -5578.139375 kJ/mol
# Density = 1.934255 g / cm^3
# Si number density = 19.386673 Si / 1000 Ang^3
#
#
#
# Elastic Constant Matrix: (Units=GPa)
#
#
# Indices 1 2 3 4 5 6 
#
# 1 124.0988 34.1624 19.5240 0.0000 0.0000 0.0000
# 2 34.1624 91.1136 25.5819 0.0000 0.0000 0.0000
# 3 19.5240 25.5819 21.9286 0.0000 0.0000 0.0000
# 4 0.0000 0.0000 0.0000 -40.1275 0.0000 0.0000
# 5 0.0000 0.0000 0.0000 0.0000 31.5816 0.0000
# 6 0.0000 0.0000 0.0000 0.0000 0.0000 43.4696
#
#
#
# Elastic Compliance Matrix: (Units=1/GPa)
#
#
# Indices 1 2 3 4 5 6 
#
# 1 0.009560 -0.001777 -0.006439 0.000000 0.000000 0.000000
# 2 -0.001777 0.016651 -0.017844 0.000000 0.000000 0.000000
# 3 -0.006439 -0.017844 0.072152 0.000000 0.000000 0.000000
# 4 0.000000 0.000000 0.000000 -0.024921 0.000000 0.000000
# 5 0.000000 0.000000 0.000000 0.000000 0.031664 0.000000
# 6 0.000000 0.000000 0.000000 0.000000 0.000000 0.023005
#
#
# Mechanical properties :
#
#
# Convention : Reuss Voigt Hill
#
# Bulk Modulus (GPa) = 21.62420 43.96418 32.79419
# Shear Modulus (GPa) = 25.55643 17.50959 21.53301
#
# Velocity S-wave (km/s) = 3.63471 3.00855 3.33635
# Velocity P-wave (km/s) = 5.36593 5.89875 5.63864
#
# Compressibility (1/GPa) = 0.04624448
#
# Stress axis : x y z
#
# Youngs Moduli (GPa) = 104.60001 60.05514 13.85964
#
# Poissons Ratio (x) = 0.10669 0.08925
# Poissons Ratio (y) = 0.18583 0.24731
# Poissons Ratio (z) = 0.67355 1.07160
#
# Static dielectric constant tensor:
#      x y z
#    x 1.725180 0.000000 0.000000 
#    y 0.000000 1.670820 0.000000 
#    z 0.000000 0.000000 1.654860 
# 
# From -- ./inp_files/6582.got.cif
#   From: 2010.05.17/outbox.cif.g08.bks.cpg/sg47_4_cif.got.tgz:6582.got - 2010.06.03 20:15:42.
