data_PCOD9386754
_publ_section_title
;
Structure prediction by ZEFSAII (Michael W. Deem and Ramdas Pophale) SiO2 
 PCOD9386754
Probable space group: P M M M
;
_chemical_formula_sum "Si O2"
_cell_formula_units_Z 44
_cell_length_a 30.018088
_cell_length_b 10.172558
_cell_length_c 7.903783
_cell_angle_alpha 90.000000
_cell_angle_beta 90.000000
_cell_angle_gamma 90.000000
_cell_volume 2413.505035
_symmetry_space_group_name_H-M "P M M M"
_symmetry_group_IT_number 47
_symmetry_cell_setting 'orthorhombic'
loop_
_space_group_symop_operation_xyz
x,y,z
-x,-y,z
x,-y,-z
-x,y,-z
-x,-y,-z
x,y,-z
-x,y,z
x,-y,z
loop_
_atom_site_type_symbol
_atom_site_label
_atom_site_fract_x
_atom_site_fract_y
_atom_site_fract_z
Si Si1 0.080392 0.152647 0.299074
Si Si2 0.448753 0.500000 0.703621
Si Si3 0.448966 0.000000 0.297293
Si Si4 0.700288 0.344895 0.687962
Si Si5 0.608531 0.249837 0.195695
Si Si6 0.848594 0.151550 0.000000
Si Si7 0.764984 0.657024 0.000000
Si Si8 0.000000 0.348089 0.295291
O O1 0.091488 0.170113 0.500000
O O2 0.120963 0.167750 0.168067
O O3 0.043011 0.259865 0.251114
O O4 0.064402 0.000000 0.282158
O O5 0.500000 0.500000 0.760204
O O6 0.448311 0.500000 0.500000
O O7 0.422435 0.374023 0.766822
O O8 0.421174 0.125235 0.239426
O O9 0.500000 0.000000 0.233505
O O10 0.450993 0.000000 0.500000
O O11 0.719276 0.327551 0.500000
O O12 0.688252 0.500000 0.708008
O O13 0.654648 0.264495 0.704603
O O14 0.735052 0.313683 0.834898
O O15 0.621122 0.248507 0.000000
O O16 0.808898 0.255402 0.000000
O O17 0.832276 0.000000 0.000000
O O18 0.774712 0.500000 0.000000
O O19 0.000000 0.500000 0.233109
O O20 0.000000 0.355049 0.500000
#
# Coordination Sequence:
#
# PCOD9386754 Si02
#       8
#     8   4   4   8   8   4   4   4
#     4   9  18  34  56  79 113 160 201 238 285 340
#     4  11  23  37  57  87 119 155 197 236 277 333
#     4  11  25  43  59  81 119 161 195 230 281 345
#     4  10  20  38  63  88 114 146 187 235 287 348
#     4  12  23  38  61  87 117 151 193 237 283 343
#     4  10  22  39  57  84 115 147 193 244 293 351
#     4  10  22  40  61  85 111 143 186 236 298 357
#     4   9  17  30  51  84 121 157 202 249 287 330
#
# _framework density 18.230746
#
# number of rings (size 3 to 8) (size 9 to 14) (size 15 to 20)
#    0.000    1.727    1.818    3.000    0.000    6.545 
#    1.636    1.818    0.000    0.000    0.000    0.000 
#    0.000    0.000    0.000    0.000    0.000    0.000 
#
# Total GULP energy -245623.763104 kJ/mol
# GULP energy per Si atom -5582.358252 kJ/mol
# Density = 1.818925 g / cm^3
# Si number density = 18.230746 Si / 1000 Ang^3
#
#
#
# Elastic Constant Matrix: (Units=GPa)
#
#
# Indices 1 2 3 4 5 6 
#
# 1 121.1657 80.9069 50.1737 0.0000 0.0000 0.0000
# 2 80.9069 137.3765 36.8165 0.0000 0.0000 0.0000
# 3 50.1737 36.8165 105.7606 0.0000 0.0000 0.0000
# 4 0.0000 0.0000 0.0000 54.4816 0.0000 0.0000
# 5 0.0000 0.0000 0.0000 0.0000 37.3868 0.0000
# 6 0.0000 0.0000 0.0000 0.0000 0.0000 39.8850
#
#
#
# Elastic Compliance Matrix: (Units=1/GPa)
#
#
# Indices 1 2 3 4 5 6 
#
# 1 0.015372 -0.007829 -0.004567 0.000000 0.000000 0.000000
# 2 -0.007829 0.012016 -0.000469 0.000000 0.000000 0.000000
# 3 -0.004567 -0.000469 0.011785 0.000000 0.000000 0.000000
# 4 0.000000 0.000000 0.000000 0.018355 0.000000 0.000000
# 5 0.000000 0.000000 0.000000 0.000000 0.026747 0.000000
# 6 0.000000 0.000000 0.000000 0.000000 0.000000 0.025072
#
#
# Mechanical properties :
#
#
# Convention : Reuss Voigt Hill
#
# Bulk Modulus (GPa) = 74.38815 77.78855 76.08835
# Shear Modulus (GPa) = 35.82699 39.44438 37.63569
#
# Velocity S-wave (km/s) = 4.43786 4.65652 4.54850
# Velocity P-wave (km/s) = 8.19462 8.46595 8.33139
#
# Compressibility (1/GPa) = 0.01344300
#
# Stress axis : x y z
#
# Youngs Moduli (GPa) = 65.05128 83.22271 84.85231
#
# Poissons Ratio (x) = 0.65159 0.38755
# Poissons Ratio (y) = 0.50932 0.03975
# Poissons Ratio (z) = 0.29711 0.03899
#
# Static dielectric constant tensor:
#      x y z
#    x 1.588630 0.000000 0.000000 
#    y 0.000000 1.596560 0.000000 
#    z 0.000000 0.000000 1.644860 
# 
# From -- ./inp_files/13787.got.cif
#   From: 2010.05.17/outbox.cif.g08.bks.cpg/sg47_7_cif.got.tgz:13787.got - 2010.06.03 20:15:42.
