data_PCOD9386067
_publ_section_title
;
Structure prediction by ZEFSAII (Michael W. Deem and Ramdas Pophale) SiO2 
 PCOD9386067
Probable space group: P M M M
;
_chemical_formula_sum "Si O2"
_cell_formula_units_Z 52
_cell_length_a 15.196231
_cell_length_b 8.300585
_cell_length_c 21.267826
_cell_angle_alpha 90.000000
_cell_angle_beta 90.000000
_cell_angle_gamma 90.000000
_cell_volume 2682.672680
_symmetry_space_group_name_H-M "P M M M"
_symmetry_group_IT_number 47
_symmetry_cell_setting 'orthorhombic'
loop_
_space_group_symop_operation_xyz
x,y,z
-x,-y,z
x,-y,-z
-x,y,-z
-x,-y,-z
x,y,-z
-x,y,z
x,-y,z
loop_
_atom_site_type_symbol
_atom_site_label
_atom_site_fract_x
_atom_site_fract_y
_atom_site_fract_z
Si Si1 0.241012 0.809581 0.296832
Si Si2 0.103327 0.304651 0.195008
Si Si3 0.597345 0.186240 0.911367
Si Si4 0.206950 0.692791 0.068563
Si Si5 0.000000 0.680035 0.575575
Si Si6 0.191247 0.303582 0.571881
Si Si7 0.595348 0.316462 0.776848
O O1 0.154795 0.755521 0.257097
O O2 0.244740 0.761619 0.369958
O O3 0.322556 0.719829 0.265500
O O4 0.249695 0.000000 0.290056
O O5 0.106426 0.500000 0.196036
O O6 0.156076 0.249108 0.131594
O O7 0.000000 0.257487 0.193683
O O8 0.500000 0.250767 0.930540
O O9 0.688692 0.269187 0.929885
O O10 0.597549 0.200212 0.836151
O O11 0.601459 0.000000 0.930050
O O12 0.196862 0.500000 0.069268
O O13 0.173443 0.752119 0.000000
O O14 0.092715 0.758579 0.588432
O O15 0.000000 0.500000 0.604359
O O16 0.000000 0.660971 0.500000
O O17 0.213642 0.257475 0.500000
O O18 0.188904 0.500000 0.572858
O O19 0.500000 0.300385 0.744990
O O20 0.601694 0.500000 0.801396
#
# Coordination Sequence:
#
# PCOD9386067 Si02
#       7
#     8   8   8   8   4   8   8
#     4  12  24  36  56  86 121 154 185 229 284 342
#     4  10  22  40  60  81 109 149 197 244 286 332
#     4  10  20  34  54  82 115 148 181 223 283 347
#     4  10  21  37  58  83 111 147 192 240 287 336
#     4   7  12  26  49  75 101 135 182 229 268 313
#     4   9  18  34  56  81 111 150 195 237 279 332
#     4  10  20  36  60  86 111 143 187 236 282 333
#
# _framework density 19.383655000000001
#
# number of rings (size 3 to 8) (size 9 to 14) (size 15 to 20)
#    0.000    2.077    1.538    3.231    1.077    3.385 
#    0.000    3.077    0.000    1.846    0.000    5.385 
#    0.000    0.000    0.000    0.000    0.000    0.000 
#
# Total GULP energy -289739.869116 kJ/mol
# GULP energy per Si atom -5571.920560 kJ/mol
# Density = 1.933954 g / cm^3
# Si number density = 19.383655 Si / 1000 Ang^3
#
#
#
# Elastic Constant Matrix: (Units=GPa)
#
#
# Indices 1 2 3 4 5 6 
#
# 1 90.3940 10.1850 38.6337 0.0000 0.0000 0.0000
# 2 10.1850 34.1908 12.2640 0.0000 0.0000 0.0000
# 3 38.6337 12.2640 106.7082 0.0000 0.0000 0.0000
# 4 0.0000 0.0000 0.0000 211.6017 0.0000 0.0000
# 5 0.0000 0.0000 0.0000 0.0000 10.9795 0.0000
# 6 0.0000 0.0000 0.0000 0.0000 0.0000 -0.9547
#
#
#
# Elastic Compliance Matrix: (Units=1/GPa)
#
#
# Indices 1 2 3 4 5 6 
#
# 1 0.013263 -0.002324 -0.004535 0.000000 0.000000 0.000000
# 2 -0.002324 0.030913 -0.002711 0.000000 0.000000 0.000000
# 3 -0.004535 -0.002711 0.011325 0.000000 0.000000 0.000000
# 4 0.000000 0.000000 0.000000 0.004726 0.000000 0.000000
# 5 0.000000 0.000000 0.000000 0.000000 0.091079 0.000000
# 6 0.000000 0.000000 0.000000 0.000000 0.000000 -1.047450
#
#
# Mechanical properties :
#
#
# Convention : Reuss Voigt Hill
#
# Bulk Modulus (GPa) = 27.50306 39.27314 33.38810
# Shear Modulus (GPa) = -5.78111 55.67267 24.94578
#
# Velocity S-wave (km/s) = -1.72886 5.36505 3.59130
# Velocity P-wave (km/s) = 3.19912 7.66051 5.87017
#
# Compressibility (1/GPa) = 0.03635959
#
# Stress axis : x y z
#
# Youngs Moduli (GPa) = 75.39995 32.34935 88.30249
#
# Poissons Ratio (x) = 0.07519 0.40042
# Poissons Ratio (y) = 0.17525 0.23941
# Poissons Ratio (z) = 0.34191 0.08771
#
# Static dielectric constant tensor:
#      x y z
#    x 1.724700 0.000000 0.000000 
#    y 0.000000 1.683290 0.000000 
#    z 0.000000 0.000000 1.692730 
# 
# From -- ./inp_files/30884.got.cif
#   From: 2010.05.17/outbox.cif.g08.bks.cpg/sg47_16_cif.got.tgz:30884.got - 2010.06.03 20:15:42.
