data_PCOD9386167
_publ_section_title
;
Structure prediction by ZEFSAII (Michael W. Deem and Ramdas Pophale) SiO2 
 PCOD9386167
Probable space group: P M M M
;
_chemical_formula_sum "Si O2"
_cell_formula_units_Z 56
_cell_length_a 20.175254
_cell_length_b 8.462034
_cell_length_c 16.028026
_cell_angle_alpha 90.000000
_cell_angle_beta 90.000000
_cell_angle_gamma 90.000000
_cell_volume 2736.363667
_symmetry_space_group_name_H-M "P M M M"
_symmetry_group_IT_number 47
_symmetry_cell_setting 'orthorhombic'
loop_
_space_group_symop_operation_xyz
x,y,z
-x,-y,z
x,-y,-z
-x,y,-z
-x,-y,-z
x,y,-z
-x,y,z
x,-y,z
loop_
_atom_site_type_symbol
_atom_site_label
_atom_site_fract_x
_atom_site_fract_y
_atom_site_fract_z
Si Si1 0.074287 0.691328 0.230636
Si Si2 0.717856 0.311276 0.594269
Si Si3 0.707718 0.311550 0.091375
Si Si4 0.575177 0.813542 0.648202
Si Si5 0.790907 0.815417 0.239590
Si Si6 0.426807 0.685133 0.832326
Si Si7 0.079790 0.319022 0.586734
O O1 0.071991 0.500000 0.234134
O O2 0.143542 0.742779 0.193322
O O3 0.088702 0.756965 0.324218
O O4 0.000000 0.741716 0.203780
O O5 0.737183 0.258256 0.500000
O O6 0.722448 0.500000 0.596456
O O7 0.640792 0.263737 0.608716
O O8 0.763893 0.251106 0.671133
O O9 0.721503 0.500000 0.100070
O O10 0.735816 0.222368 0.170936
O O11 0.629226 0.288813 0.100121
O O12 0.731542 0.260548 0.000000
O O13 0.500000 0.757106 0.624395
O O14 0.581316 0.783677 0.747495
O O15 0.577739 0.000000 0.630416
O O16 0.801050 0.000000 0.250314
O O17 0.500000 0.713095 0.865670
O O18 0.421739 0.500000 0.806282
O O19 0.102158 0.244121 0.500000
O O20 0.105742 0.500000 0.589187
O O21 0.000000 0.332525 0.582913
#
# Coordination Sequence:
#
# PCOD9386167 Si02
#       7
#     8   8   8   8   8   8   8
#     4   9  18  34  58  85 112 147 191 237 287 349
#     4  11  24  41  61  84 113 156 211 261 301 348
#     4  10  21  38  62  90 120 157 201 246 292 350
#     4  10  20  34  55  84 119 158 198 245 304 361
#     4  12  25  40  60  86 122 161 193 240 302 360
#     4   9  17  31  55  86 120 157 195 239 291 347
#     4   7  10  19  39  69 101 130 165 211 260 312
#
# _framework density 20.465115000000001
#
# number of rings (size 3 to 8) (size 9 to 14) (size 15 to 20)
#    0.000    2.286    1.429    3.429    0.000    3.714 
#    0.000    4.286    0.000    0.429    0.000    9.000 
#    0.000    0.000    0.000    0.000    0.000    0.000 
#
# Total GULP energy -311741.027921 kJ/mol
# GULP energy per Si atom -5566.804070 kJ/mol
# Density = 2.041854 g / cm^3
# Si number density = 20.465115 Si / 1000 Ang^3
#
#
#
# Elastic Constant Matrix: (Units=GPa)
#
#
# Indices 1 2 3 4 5 6 
#
# 1 131.0901 33.0809 19.7812 0.0000 0.0000 0.0000
# 2 33.0809 42.6169 19.6896 0.0000 0.0000 0.0000
# 3 19.7812 19.6896 58.2884 0.0000 0.0000 0.0000
# 4 0.0000 0.0000 0.0000 -38.3138 0.0000 0.0000
# 5 0.0000 0.0000 0.0000 0.0000 -0.6797 0.0000
# 6 0.0000 0.0000 0.0000 0.0000 0.0000 -32.7981
#
#
#
# Elastic Compliance Matrix: (Units=1/GPa)
#
#
# Indices 1 2 3 4 5 6 
#
# 1 0.009524 -0.006990 -0.000871 0.000000 0.000000 0.000000
# 2 -0.006990 0.032935 -0.008753 0.000000 0.000000 0.000000
# 3 -0.000871 -0.008753 0.020408 0.000000 0.000000 0.000000
# 4 0.000000 0.000000 0.000000 -0.026100 0.000000 0.000000
# 5 0.000000 0.000000 0.000000 0.000000 -1.471254 0.000000
# 6 0.000000 0.000000 0.000000 0.000000 0.000000 -0.030490
#
#
# Mechanical properties :
#
#
# Convention : Reuss Voigt Hill
#
# Bulk Modulus (GPa) = 33.73954 41.89987 37.81970
# Shear Modulus (GPa) = -3.51650 -3.72873 -3.62262
#
# Velocity S-wave (km/s) = -1.31226 -1.35128 -1.33191
# Velocity P-wave (km/s) = 3.77175 4.25249 4.01931
#
# Compressibility (1/GPa) = 0.02963882
#
# Stress axis : x y z
#
# Youngs Moduli (GPa) = 105.00025 30.36274 48.99969
#
# Poissons Ratio (x) = 0.21225 0.04266
# Poissons Ratio (y) = 0.73400 0.42890
# Poissons Ratio (z) = 0.09143 0.26577
#
# Static dielectric constant tensor:
#      x y z
#    x 1.813240 0.000000 0.000000 
#    y 0.000000 1.743680 0.000000 
#    z 0.000000 0.000000 1.779580 
# 
# From -- ./inp_files/25131.got.cif
#   From: 2010.05.17/outbox.cif.g08.bks.cpg/sg47_13_cif.got.tgz:25131.got - 2010.06.03 20:15:42.
