data_PCOD9386646
_publ_section_title
;
Structure prediction by ZEFSAII (Michael W. Deem and Ramdas Pophale) SiO2 
 PCOD9386646
Probable space group: P M M M
;
_chemical_formula_sum "Si O2"
_cell_formula_units_Z 48
_cell_length_a 19.477146
_cell_length_b 15.468029
_cell_length_c 8.671859
_cell_angle_alpha 90.000000
_cell_angle_beta 90.000000
_cell_angle_gamma 90.000000
_cell_volume 2612.597490
_symmetry_space_group_name_H-M "P M M M"
_symmetry_group_IT_number 47
_symmetry_cell_setting 'orthorhombic'
loop_
_space_group_symop_operation_xyz
x,y,z
-x,-y,z
x,-y,-z
-x,y,-z
-x,-y,-z
x,y,-z
-x,y,z
x,-y,z
loop_
_atom_site_type_symbol
_atom_site_label
_atom_site_fract_x
_atom_site_fract_y
_atom_site_fract_z
Si Si1 0.677434 0.899688 0.684641
Si Si2 0.679619 0.400932 0.186001
Si Si3 0.827819 0.347250 0.316265
Si Si4 0.824763 0.841871 0.814611
Si Si5 0.579324 0.754152 0.813607
Si Si6 0.921444 0.000000 0.187804
Si Si7 0.080142 0.500000 0.815123
O O1 0.682682 0.892675 0.500000
O O2 0.749389 0.869786 0.757935
O O3 0.618258 0.836584 0.744799
O O4 0.664838 0.000000 0.724712
O O5 0.662560 0.500000 0.226369
O O6 0.751936 0.374748 0.259998
O O7 0.621728 0.331783 0.230988
O O8 0.687419 0.396586 0.000000
O O9 0.829757 0.347896 0.500000
O O10 0.841815 0.251524 0.253309
O O11 0.881392 0.416185 0.250143
O O12 0.879057 0.915077 0.765425
O O13 0.824197 0.837025 0.000000
O O14 0.500000 0.749883 0.766053
O O15 0.581591 0.759881 0.000000
O O16 0.000000 0.000000 0.241489
O O17 0.922469 0.000000 0.000000
O O18 0.000000 0.500000 0.773587
O O19 0.086224 0.500000 0.000000
#
# Coordination Sequence:
#
# PCOD9386646 Si02
#       7
#     8   8   8   8   8   4   4
#     4  11  23  38  59  87 120 158 203 253 310 369
#     4  10  20  36  61  89 120 158 202 247 296 361
#     4  12  24  38  61  93 127 161 201 251 307 366
#     4  11  21  37  63  91 120 159 207 252 300 364
#     4  10  22  39  60  89 123 159 202 253 306 361
#     4   9  20  38  61  91 122 153 196 251 303 352
#     4  11  25  45  67  91 122 163 210 257 305 360
#
# _framework density 18.372519
#
# number of rings (size 3 to 8) (size 9 to 14) (size 15 to 20)
#    0.000    1.333    3.333    2.750    0.000    3.333 
#    0.000    5.000    0.000    3.500    0.000    2.333 
#    0.000    0.000    0.000    0.000    0.000    0.000 
#
# Total GULP energy -268314.216899 kJ/mol
# GULP energy per Si atom -5589.879519 kJ/mol
# Density = 1.833070 g / cm^3
# Si number density = 18.372519 Si / 1000 Ang^3
#
#
#
# Elastic Constant Matrix: (Units=GPa)
#
#
# Indices 1 2 3 4 5 6 
#
# 1 189.6814 120.6196 56.2388 0.0000 0.0000 0.0000
# 2 120.6196 219.2338 61.2014 0.0000 0.0000 0.0000
# 3 56.2388 61.2014 46.7350 0.0000 0.0000 0.0000
# 4 0.0000 0.0000 0.0000 19.8699 0.0000 0.0000
# 5 0.0000 0.0000 0.0000 0.0000 -22.7101 0.0000
# 6 0.0000 0.0000 0.0000 0.0000 0.0000 35.0741
#
#
#
# Elastic Compliance Matrix: (Units=1/GPa)
#
#
# Indices 1 2 3 4 5 6 
#
# 1 0.009421 -0.003182 -0.007171 0.000000 0.000000 0.000000
# 2 -0.003182 0.008264 -0.006994 0.000000 0.000000 0.000000
# 3 -0.007171 -0.006994 0.039184 0.000000 0.000000 0.000000
# 4 0.000000 0.000000 0.000000 0.050327 0.000000 0.000000
# 5 0.000000 0.000000 0.000000 0.000000 -0.044033 0.000000
# 6 0.000000 0.000000 0.000000 0.000000 0.000000 0.028511
#
#
# Mechanical properties :
#
#
# Convention : Reuss Voigt Hill
#
# Bulk Modulus (GPa) = 45.08952 103.52995 74.30974
# Shear Modulus (GPa) = 37.38058 20.95281 29.16669
#
# Velocity S-wave (km/s) = 4.51554 3.38071 3.98869
# Velocity P-wave (km/s) = 7.19596 8.46828 7.85791
#
# Compressibility (1/GPa) = 0.02217810
#
# Stress axis : x y z
#
# Youngs Moduli (GPa) = 106.14271 121.00355 25.52046
#
# Poissons Ratio (x) = 0.38500 0.18299
# Poissons Ratio (y) = 0.33772 0.17848
# Poissons Ratio (z) = 0.76110 0.84625
#
# Static dielectric constant tensor:
#      x y z
#    x 1.597440 0.000000 0.000000 
#    y 0.000000 1.618220 0.000000 
#    z 0.000000 0.000000 1.616540 
# 
# From -- ./inp_files/9148.got.cif
#   From: 2010.05.17/outbox.cif.g08.bks.cpg/sg47_5_cif.got.tgz:9148.got - 2010.06.03 20:15:42.
