data_PCOD9386987
_publ_section_title
;
Structure prediction by ZEFSAII (Michael W. Deem and Ramdas Pophale) SiO2 
 PCOD9386987
Probable space group: P M M M
;
_chemical_formula_sum "Si O2"
_cell_formula_units_Z 64
_cell_length_a 14.469251
_cell_length_b 18.966419
_cell_length_c 13.593880
_cell_angle_alpha 90.000000
_cell_angle_beta 90.000000
_cell_angle_gamma 90.000000
_cell_volume 3730.566817
_symmetry_space_group_name_H-M "P M M M"
_symmetry_group_IT_number 47
_symmetry_cell_setting 'orthorhombic'
loop_
_space_group_symop_operation_xyz
x,y,z
-x,-y,z
x,-y,-z
-x,y,-z
-x,-y,-z
x,y,-z
-x,y,z
x,-y,z
loop_
_atom_site_type_symbol
_atom_site_label
_atom_site_fract_x
_atom_site_fract_y
_atom_site_fract_z
Si Si1 0.887489 0.580151 0.614072
Si Si2 0.759216 0.205648 0.114400
Si Si3 0.387672 0.420458 0.111211
Si Si4 0.265108 0.080427 0.257913
Si Si5 0.611251 0.817747 0.613565
Si Si6 0.107361 0.137260 0.385261
Si Si7 0.389462 0.286558 0.779092
Si Si8 0.889964 0.719353 0.269108
O O1 0.859498 0.592440 0.500000
O O2 0.859059 0.500000 0.641875
O O3 0.859604 0.644609 0.684681
O O4 0.000000 0.580828 0.614452
O O5 0.755128 0.128218 0.162636
O O6 0.659465 0.238938 0.138922
O O7 0.831285 0.253763 0.176050
O O8 0.779775 0.204854 0.000000
O O9 0.500000 0.421996 0.110543
O O10 0.355301 0.500000 0.128094
O O11 0.359775 0.365530 0.194474
O O12 0.359559 0.398688 0.000000
O O13 0.342567 0.119746 0.323926
O O14 0.173118 0.087257 0.323360
O O15 0.288512 0.000000 0.236654
O O16 0.641368 0.817022 0.500000
O O17 0.500000 0.824186 0.615006
O O18 0.636744 0.746680 0.673873
O O19 0.127531 0.131893 0.500000
O O20 0.122483 0.217656 0.348557
O O21 0.000000 0.120837 0.368775
O O22 0.500000 0.282581 0.786675
O O23 0.000000 0.715580 0.246926
#
# Coordination Sequence:
#
# PCOD9386987 Si02
#       8
#     8   8   8   8   8   8   8   8
#     4   8  13  23  44  74 103 131 163 197 236 281
#     4  10  21  35  51  71  90 116 159 199 235 284
#     4   8  13  22  40  67  94 119 149 187 234 279
#     4  10  21  35  50  70  95 120 148 188 236 282
#     4   9  18  32  50  72  97 127 159 185 216 269
#     4   9  17  29  47  71  96 122 152 187 230 277
#     4   9  17  31  51  72  95 121 151 194 240 278
#     4   9  17  30  47  67  96 131 163 197 231 268
#
# _framework density 17.155570000000001
#
# number of rings (size 3 to 8) (size 9 to 14) (size 15 to 20)
#    0.000    3.000    0.000    1.875    0.000    4.250 
#    0.000    2.500    0.000    1.500    0.000   11.375 
#    0.000    0.000    0.000    0.000    0.000    0.000 
#
# Total GULP energy -356443.471918 kJ/mol
# GULP energy per Si atom -5569.429249 kJ/mol
# Density = 1.711652 g / cm^3
# Si number density = 17.155570 Si / 1000 Ang^3
#
#
#
# Elastic Constant Matrix: (Units=GPa)
#
#
# Indices 1 2 3 4 5 6 
#
# 1 27.0159 17.9563 20.7480 0.0000 0.0000 0.0000
# 2 17.9563 126.4683 63.8627 0.0000 0.0000 0.0000
# 3 20.7480 63.8627 107.6372 0.0000 0.0000 0.0000
# 4 0.0000 0.0000 0.0000 9.2484 0.0000 0.0000
# 5 0.0000 0.0000 0.0000 0.0000 15.5150 0.0000
# 6 0.0000 0.0000 0.0000 0.0000 0.0000 16.9163
#
#
#
# Elastic Compliance Matrix: (Units=1/GPa)
#
#
# Indices 1 2 3 4 5 6 
#
# 1 0.044137 -0.002813 -0.006839 0.000000 0.000000 0.000000
# 2 -0.002813 0.011469 -0.006262 0.000000 0.000000 0.000000
# 3 -0.006839 -0.006262 0.014324 0.000000 0.000000 0.000000
# 4 0.000000 0.000000 0.000000 0.108127 0.000000 0.000000
# 5 0.000000 0.000000 0.000000 0.000000 0.064454 0.000000
# 6 0.000000 0.000000 0.000000 0.000000 0.000000 0.059114
#
#
# Mechanical properties :
#
#
# Convention : Reuss Voigt Hill
#
# Bulk Modulus (GPa) = 26.24564 51.80616 39.02590
# Shear Modulus (GPa) = 14.44442 18.90624 16.67533
#
# Velocity S-wave (km/s) = 2.90481 3.32331 3.12108
# Velocity P-wave (km/s) = 5.15581 6.70740 5.98213
#
# Compressibility (1/GPa) = 0.03810156
#
# Stress axis : x y z
#
# Youngs Moduli (GPa) = 22.65663 87.19259 69.81200
#
# Poissons Ratio (x) = 0.24531 0.47741
# Poissons Ratio (y) = 0.06374 0.43719
# Poissons Ratio (z) = 0.15494 0.54603
#
# Static dielectric constant tensor:
#      x y z
#    x 1.604510 0.000000 0.000000 
#    y 0.000000 1.598840 0.000000 
#    z 0.000000 0.000000 1.566120 
# 
# From -- ./inp_files/24125.got.cif
#   From: 2010.05.17/outbox.cif.g08.bks.cpg/sg47_13_cif.got.tgz:24125.got - 2010.06.03 20:15:42.
