data_PCOD9386948
_publ_section_title
;
Structure prediction by ZEFSAII (Michael W. Deem and Ramdas Pophale) SiO2 
 PCOD9386948
Probable space group: P M M M
;
_chemical_formula_sum "Si O2"
_cell_formula_units_Z 44
_cell_length_a 9.757660
_cell_length_b 7.569088
_cell_length_c 29.419721
_cell_angle_alpha 90.000000
_cell_angle_beta 90.000000
_cell_angle_gamma 90.000000
_cell_volume 2172.840190
_symmetry_space_group_name_H-M "P M M M"
_symmetry_group_IT_number 47
_symmetry_cell_setting 'orthorhombic'
loop_
_space_group_symop_operation_xyz
x,y,z
-x,-y,z
x,-y,-z
-x,y,-z
-x,-y,-z
x,y,-z
-x,y,z
x,-y,z
loop_
_atom_site_type_symbol
_atom_site_label
_atom_site_fract_x
_atom_site_fract_y
_atom_site_fract_z
Si Si1 0.345584 0.210130 0.229053
Si Si2 0.844632 0.287022 0.313545
Si Si3 0.159959 0.287424 0.951131
Si Si4 0.156234 0.209547 0.148506
Si Si5 0.657236 0.716432 0.500000
Si Si6 0.843245 0.715436 0.416521
O O1 0.500000 0.282005 0.230723
O O2 0.263922 0.234145 0.275859
O O3 0.253424 0.283196 0.187777
O O4 0.356614 0.000000 0.221534
O O5 0.847941 0.500000 0.314379
O O6 0.811305 0.227942 0.364943
O O7 0.000000 0.226637 0.302320
O O8 0.161367 0.500000 0.951590
O O9 0.216025 0.232652 0.902272
O O10 0.000000 0.230213 0.950631
O O11 0.218675 0.227352 0.000000
O O12 0.000000 0.282412 0.150071
O O13 0.144436 0.000000 0.155993
O O14 0.658208 0.500000 0.500000
O O15 0.500000 0.772917 0.500000
O O16 0.738738 0.774335 0.455074
O O17 0.841247 0.500000 0.416608
O O18 0.000000 0.767528 0.426947
#
# Coordination Sequence:
#
# PCOD9386948 Si02
#       6
#     8   8   8   8   4   8
#     4  10  21  35  49  67  94 127 160 194 235 284
#     4   9  18  32  50  72  95 120 155 198 240 282
#     4   8  14  25  42  66  94 119 144 180 227 274
#     4   9  17  29  46  67  89 115 150 191 230 269
#     4   9  15  21  33  57  88 121 154 185 220 266
#     4   8  14  25  40  59  86 118 149 184 228 275
#
# _framework density 20.249994000000001
#
# number of rings (size 3 to 8) (size 9 to 14) (size 15 to 20)
#    0.000    3.182    0.000    2.455    0.000    4.364 
#    0.000    5.455    0.000    0.545    0.000    4.455 
#    0.000    5.091    0.000    0.000    0.000    0.000 
#
# Total GULP energy -245255.565283 kJ/mol
# GULP energy per Si atom -5573.990120 kJ/mol
# Density = 2.020390 g / cm^3
# Si number density = 20.249994 Si / 1000 Ang^3
#
#
#
# Elastic Constant Matrix: (Units=GPa)
#
#
# Indices 1 2 3 4 5 6 
#
# 1 134.1043 6.1127 129.6227 0.0000 0.0000 0.0000
# 2 6.1127 43.4970 0.0447 0.0000 0.0000 0.0000
# 3 129.6227 0.0447 194.8787 0.0000 0.0000 0.0000
# 4 0.0000 0.0000 0.0000 22.7339 0.0000 0.0000
# 5 0.0000 0.0000 0.0000 0.0000 -6.2716 0.0000
# 6 0.0000 0.0000 0.0000 0.0000 0.0000 7.8807
#
#
#
# Elastic Compliance Matrix: (Units=1/GPa)
#
#
# Indices 1 2 3 4 5 6 
#
# 1 0.021260 -0.002973 -0.014141 0.000000 0.000000 0.000000
# 2 -0.002973 0.023406 0.001972 0.000000 0.000000 0.000000
# 3 -0.014141 0.001972 0.014537 0.000000 0.000000 0.000000
# 4 0.000000 0.000000 0.000000 0.043987 0.000000 0.000000
# 5 0.000000 0.000000 0.000000 0.000000 -0.159449 0.000000
# 6 0.000000 0.000000 0.000000 0.000000 0.000000 0.126892
#
#
# Mechanical properties :
#
#
# Convention : Reuss Voigt Hill
#
# Bulk Modulus (GPa) = 34.57852 71.56004 53.06928
# Shear Modulus (GPa) = 45.22599 20.64860 32.93730
#
# Velocity S-wave (km/s) = 4.73100 3.19671 4.03741
# Velocity P-wave (km/s) = 6.85244 7.00288 6.92807
#
# Compressibility (1/GPa) = 0.02891969
#
# Stress axis : x y z
#
# Youngs Moduli (GPa) = 47.03559 42.72430 68.79220
#
# Poissons Ratio (x) = 0.12703 0.97277
# Poissons Ratio (y) = 0.13985 -0.13568
# Poissons Ratio (z) = 0.66511 -0.08426
#
# Static dielectric constant tensor:
#      x y z
#    x 1.694830 0.000000 0.000000 
#    y 0.000000 1.768100 0.000000 
#    z 0.000000 0.000000 1.728920 
# 
# From -- ./inp_files/2020.got.cif
#   From: 2010.05.17/outbox.cif.g08.bks.cpg/sg47_2_cif.got.tgz:2020.got - 2010.06.03 20:15:42.
