data_PCOD9386967
_publ_section_title
;
Structure prediction by ZEFSAII (Michael W. Deem and Ramdas Pophale) SiO2 
 PCOD9386967
Probable space group: P M M M
;
_chemical_formula_sum "Si O2"
_cell_formula_units_Z 64
_cell_length_a 14.622572
_cell_length_b 8.324710
_cell_length_c 27.278784
_cell_angle_alpha 90.000000
_cell_angle_beta 90.000000
_cell_angle_gamma 90.000000
_cell_volume 3320.610132
_symmetry_space_group_name_H-M "P M M M"
_symmetry_group_IT_number 47
_symmetry_cell_setting 'orthorhombic'
loop_
_space_group_symop_operation_xyz
x,y,z
-x,-y,z
x,-y,-z
-x,y,-z
-x,-y,-z
x,y,-z
-x,y,z
x,-y,z
loop_
_atom_site_type_symbol
_atom_site_label
_atom_site_fract_x
_atom_site_fract_y
_atom_site_fract_z
Si Si1 0.893950 0.195868 0.054844
Si Si2 0.893951 0.806404 0.349814
Si Si3 0.389022 0.182868 0.292592
Si Si4 0.105518 0.308598 0.755132
Si Si5 0.395812 0.310918 0.812536
Si Si6 0.213195 0.809630 0.850286
Si Si7 0.212127 0.803789 0.553496
Si Si8 0.603703 0.196178 0.400807
O O1 0.832195 0.253585 0.099675
O O2 0.000000 0.240885 0.062825
O O3 0.891081 0.000000 0.054671
O O4 0.866763 0.248558 0.000000
O O5 0.856379 0.753156 0.296955
O O6 0.842880 0.748620 0.398642
O O7 0.000000 0.754296 0.351693
O O8 0.891385 0.000000 0.350485
O O9 0.500000 0.175214 0.294838
O O10 0.367358 0.280877 0.244104
O O11 0.364128 0.246712 0.346224
O O12 0.354581 0.000000 0.286784
O O13 0.103599 0.500000 0.752957
O O14 0.162395 0.257686 0.802409
O O15 0.000000 0.248961 0.759783
O O16 0.500000 0.249542 0.818370
O O17 0.395906 0.500000 0.821610
O O18 0.320018 0.229620 0.845904
O O19 0.200794 0.000000 0.849332
O O20 0.178777 0.750532 0.500000
O O21 0.318198 0.758511 0.561269
O O22 0.208089 0.000000 0.553862
O O23 0.500000 0.250820 0.410545
O O24 0.600787 0.000000 0.398935
#
# Coordination Sequence:
#
# PCOD9386967 Si02
#       8
#     8   8   8   8   8   8   8   8
#     4   8  15  30  53  82 114 143 173 214 262 309
#     4   9  18  32  49  69  94 126 165 207 252 304
#     4   8  14  26  44  65  89 121 164 209 252 301
#     4  10  21  36  53  76 108 140 169 208 261 319
#     4  10  21  35  49  70 105 145 183 222 264 309
#     4  11  21  32  54  84 111 142 179 218 260 310
#     4   9  17  27  41  64  91 120 159 206 255 307
#     4   8  14  24  39  61  89 119 152 195 247 301
#
# _framework density 19.273565999999999
#
# number of rings (size 3 to 8) (size 9 to 14) (size 15 to 20)
#    0.000    2.875    0.000    2.625    1.750    2.500 
#    0.000    2.500    0.000    2.250    0.000    8.750 
#    0.000    0.000    0.000    6.000    0.000    6.250 
#
# Total GULP energy -356901.808829 kJ/mol
# GULP energy per Si atom -5576.590763 kJ/mol
# Density = 1.922970 g / cm^3
# Si number density = 19.273566 Si / 1000 Ang^3
#
#
#
# Elastic Constant Matrix: (Units=GPa)
#
#
# Indices 1 2 3 4 5 6 
#
# 1 75.7164 5.7980 74.0722 0.0000 0.0000 0.0000
# 2 5.7980 8.0565 12.9221 0.0000 0.0000 0.0000
# 3 74.0722 12.9221 162.6837 0.0000 0.0000 0.0000
# 4 0.0000 0.0000 0.0000 -22.4049 0.0000 0.0000
# 5 0.0000 0.0000 0.0000 0.0000 31.3096 0.0000
# 6 0.0000 0.0000 0.0000 0.0000 0.0000 15.0121
#
#
#
# Elastic Compliance Matrix: (Units=1/GPa)
#
#
# Indices 1 2 3 4 5 6 
#
# 1 0.023816 0.000290 -0.010867 0.000000 0.000000 0.000000
# 2 0.000290 0.142248 -0.011431 0.000000 0.000000 0.000000
# 3 -0.010867 -0.011431 0.012003 0.000000 0.000000 0.000000
# 4 0.000000 0.000000 0.000000 -0.044633 0.000000 0.000000
# 5 0.000000 0.000000 0.000000 0.000000 0.031939 0.000000
# 6 0.000000 0.000000 0.000000 0.000000 0.000000 0.066613
#
#
# Mechanical properties :
#
#
# Convention : Reuss Voigt Hill
#
# Bulk Modulus (GPa) = 7.45983 48.00459 27.73221
# Shear Modulus (GPa) = 15.59164 15.02763 15.30964
#
# Velocity S-wave (km/s) = 2.84732 2.79534 2.82145
# Velocity P-wave (km/s) = 3.83256 5.94808 5.00341
#
# Compressibility (1/GPa) = 0.13405140
#
# Stress axis : x y z
#
# Youngs Moduli (GPa) = 41.98918 7.02995 83.31523
#
# Poissons Ratio (x) = -0.00204 0.90536
# Poissons Ratio (y) = -0.01217 0.95237
# Poissons Ratio (z) = 0.45628 0.08036
#
# Static dielectric constant tensor:
#      x y z
#    x 1.705220 0.000000 0.000000 
#    y 0.000000 1.661590 0.000000 
#    z 0.000000 0.000000 1.675300 
# 
# From -- ./inp_files/32804.got.cif
#   From: 2010.05.17/outbox.cif.g08.bks.cpg/sg47_17_cif.got.tgz:32804.got - 2010.06.03 20:15:42.
