data_PCOD9386141
_publ_section_title
;
Structure prediction by ZEFSAII (Michael W. Deem and Ramdas Pophale) SiO2 
 PCOD9386141
Probable space group: P M M M
;
_chemical_formula_sum "Si O2"
_cell_formula_units_Z 48
_cell_length_a 9.690752
_cell_length_b 8.164561
_cell_length_c 33.181308
_cell_angle_alpha 90.000000
_cell_angle_beta 90.000000
_cell_angle_gamma 90.000000
_cell_volume 2625.329505
_symmetry_space_group_name_H-M "P M M M"
_symmetry_group_IT_number 47
_symmetry_cell_setting 'orthorhombic'
loop_
_space_group_symop_operation_xyz
x,y,z
-x,-y,z
x,-y,-z
-x,y,-z
-x,-y,-z
x,y,-z
-x,y,z
x,-y,z
loop_
_atom_site_type_symbol
_atom_site_label
_atom_site_fract_x
_atom_site_fract_y
_atom_site_fract_z
Si Si1 0.658063 0.694355 0.239496
Si Si2 0.343748 0.695190 0.000000
Si Si3 0.841594 0.802313 0.074446
Si Si4 0.834712 0.314931 0.400923
Si Si5 0.167600 0.000000 0.453902
Si Si6 0.662086 0.193198 0.672857
Si Si7 0.839833 0.197587 0.835116
O O1 0.500000 0.749263 0.232643
O O2 0.658123 0.500000 0.245930
O O3 0.707060 0.775402 0.281129
O O4 0.747982 0.735160 0.200715
O O5 0.259950 0.747874 0.960476
O O6 0.350715 0.500000 0.000000
O O7 0.500000 0.761688 0.000000
O O8 0.799650 0.748667 0.119583
O O9 0.000000 0.747402 0.067017
O O10 0.844312 0.000000 0.074692
O O11 0.808723 0.500000 0.416320
O O12 0.753904 0.288578 0.359256
O O13 0.000000 0.300182 0.394456
O O14 0.792091 0.166280 0.430484
O O15 0.216589 0.000000 0.500000
O O16 0.000000 0.000000 0.454750
O O17 0.500000 0.241123 0.670115
O O18 0.672458 0.000000 0.664190
O O19 0.000000 0.243464 0.829432
O O20 0.832021 0.000000 0.834163
#
# Coordination Sequence:
#
# PCOD9386141 Si02
#       7
#     8   4   8   8   4   8   8
#     4  10  21  35  51  75 107 141 177 217 262 315
#     4  11  24  37  50  76 110 137 166 207 256 310
#     4   9  19  37  59  79 100 130 171 215 258 309
#     4  10  20  34  55  83 112 144 184 229 279 332
#     4   9  18  34  55  81 115 149 183 229 281 332
#     4  10  20  35  56  79 105 143 187 228 274 326
#     4   9  19  36  56  78 103 133 171 215 262 311
#
# _framework density 18.283421000000001
#
# number of rings (size 3 to 8) (size 9 to 14) (size 15 to 20)
#    0.000    2.333    0.833    2.500    0.000    6.667 
#    0.000    6.667    0.000    1.000    0.000    1.167 
#    0.000    0.000    0.000    0.000    0.000    0.000 
#
# Total GULP energy -267790.250638 kJ/mol
# GULP energy per Si atom -5578.963555 kJ/mol
# Density = 1.824181 g / cm^3
# Si number density = 18.283421 Si / 1000 Ang^3
#
#
#
# Elastic Constant Matrix: (Units=GPa)
#
#
# Indices 1 2 3 4 5 6 
#
# 1 49.3363 30.9041 61.8023 0.0000 0.0000 0.0000
# 2 30.9041 72.7835 49.7811 0.0000 0.0000 0.0000
# 3 61.8023 49.7811 143.5508 0.0000 0.0000 0.0000
# 4 0.0000 0.0000 0.0000 2.3148 0.0000 0.0000
# 5 0.0000 0.0000 0.0000 0.0000 973.8114 0.0000
# 6 0.0000 0.0000 0.0000 0.0000 0.0000 22.8119
#
#
#
# Elastic Compliance Matrix: (Units=1/GPa)
#
#
# Indices 1 2 3 4 5 6 
#
# 1 0.047364 -0.008081 -0.017589 0.000000 0.000000 0.000000
# 2 -0.008081 0.019390 -0.003245 0.000000 0.000000 0.000000
# 3 -0.017589 -0.003245 0.015664 0.000000 0.000000 0.000000
# 4 0.000000 0.000000 0.000000 0.432000 0.000000 0.000000
# 5 0.000000 0.000000 0.000000 0.000000 0.001027 0.000000
# 6 0.000000 0.000000 0.000000 0.000000 0.000000 0.043837
#
#
# Mechanical properties :
#
#
# Convention : Reuss Voigt Hill
#
# Bulk Modulus (GPa) = 40.66977 61.18286 50.92632
# Shear Modulus (GPa) = 7.99604 207.99984 107.99794
#
# Velocity S-wave (km/s) = 2.09353 10.67760 7.69396
# Velocity P-wave (km/s) = 5.30436 13.62171 10.33652
#
# Compressibility (1/GPa) = 0.02458829
#
# Stress axis : x y z
#
# Youngs Moduli (GPa) = 21.11286 51.57280 63.83953
#
# Poissons Ratio (x) = 0.41674 1.12290
# Poissons Ratio (y) = 0.17060 0.20718
# Poissons Ratio (z) = 0.37136 0.16737
#
# Static dielectric constant tensor:
#      x y z
#    x 1.614080 0.000000 0.000000 
#    y 0.000000 1.648430 0.000000 
#    z 0.000000 0.000000 1.609590 
# 
# From -- ./inp_files/34210.got.cif
#   From: 2010.05.17/outbox.cif.g08.bks.cpg/sg47_18_cif.got.tgz:34210.got - 2010.06.03 20:15:42.
