data_PCOD9386709
_publ_section_title
;
Structure prediction by ZEFSAII (Michael W. Deem and Ramdas Pophale) SiO2 
 PCOD9386709
Probable space group: P M M M
;
_chemical_formula_sum "Si O2"
_cell_formula_units_Z 33
_cell_length_a 9.711012
_cell_length_b 7.889996
_cell_length_c 21.348691
_cell_angle_alpha 90.000000
_cell_angle_beta 90.000000
_cell_angle_gamma 90.000000
_cell_volume 1635.733413
_symmetry_space_group_name_H-M "P M M M"
_symmetry_group_IT_number 47
_symmetry_cell_setting 'orthorhombic'
loop_
_space_group_symop_operation_xyz
x,y,z
-x,-y,z
x,-y,-z
-x,y,-z
-x,-y,-z
x,y,-z
-x,y,z
x,-y,z
loop_
_atom_site_type_symbol
_atom_site_label
_atom_site_fract_x
_atom_site_fract_y
_atom_site_fract_z
Si Si1 0.164632 0.692739 0.875066
Si Si2 0.840040 0.207008 0.500000
Si Si3 0.158350 0.796620 0.736691
Si Si4 0.500000 0.500000 0.000000
Si Si5 0.709797 0.814655 0.000000
Si Si6 0.340463 0.207477 0.620085
O O1 0.213934 0.500000 0.883070
O O2 0.209439 0.755556 0.806626
O O3 0.206528 0.798897 0.935297
O O4 0.000000 0.692124 0.872712
O O5 0.753376 0.259135 0.438895
O O6 0.000000 0.262933 0.500000
O O7 0.843566 0.000000 0.500000
O O8 0.262163 0.735873 0.683094
O O9 0.000000 0.733142 0.728657
O O10 0.151401 0.000000 0.731278
O O11 0.615586 0.650702 0.000000
O O12 0.645039 0.000000 0.000000
O O13 0.500000 0.262423 0.616105
O O14 0.342846 0.000000 0.620142
#
# Coordination Sequence:
#
# PCOD9386709 Si02
#       6
#     8   4   8   1   4   8
#     4  10  20  37  61  88 116 146 188 250 308 359
#     4   9  15  23  39  63  94 135 176 223 288 348
#     4   9  17  30  48  73 105 140 182 230 283 348
#     4  12  26  48  58  86 128 164 206 248 292 370
#     4  12  24  42  66  89 119 162 204 250 305 359
#     4   9  16  26  40  64  98 136 179 228 280 345
#
# _framework density 20.174437999999999
#
# number of rings (size 3 to 8) (size 9 to 14) (size 15 to 20)
#    0.000    2.303    1.212    2.364    0.000    7.273 
#    2.182    0.000    0.000    0.000    0.000    0.848 
#    0.000    6.788    0.000    0.000    0.000    0.000 
#
# Total GULP energy -183757.305670 kJ/mol
# GULP energy per Si atom -5568.403202 kJ/mol
# Density = 2.012852 g / cm^3
# Si number density = 20.174438 Si / 1000 Ang^3
#
#
#
# Elastic Constant Matrix: (Units=GPa)
#
#
# Indices 1 2 3 4 5 6 
#
# 1 132.3242 22.6240 104.3762 0.0000 0.0000 0.0000
# 2 22.6240 68.1836 21.8139 0.0000 0.0000 0.0000
# 3 104.3762 21.8139 211.7081 0.0000 0.0000 0.0000
# 4 0.0000 0.0000 0.0000 -160.3161 0.0000 0.0000
# 5 0.0000 0.0000 0.0000 0.0000 4.7484 0.0000
# 6 0.0000 0.0000 0.0000 0.0000 0.0000 79.0056
#
#
#
# Elastic Compliance Matrix: (Units=1/GPa)
#
#
# Indices 1 2 3 4 5 6 
#
# 1 0.012702 -0.002287 -0.006027 0.000000 0.000000 0.000000
# 2 -0.002287 0.015578 -0.000478 0.000000 0.000000 0.000000
# 3 -0.006027 -0.000478 0.007744 0.000000 0.000000 0.000000
# 4 0.000000 0.000000 0.000000 -0.006238 0.000000 0.000000
# 5 0.000000 0.000000 0.000000 0.000000 0.210598 0.000000
# 6 0.000000 0.000000 0.000000 0.000000 0.000000 0.012657
#
#
# Mechanical properties :
#
#
# Convention : Reuss Voigt Hill
#
# Bulk Modulus (GPa) = 54.22487 78.87156 66.54821
# Shear Modulus (GPa) = 18.06552 2.24769 10.15660
#
# Velocity S-wave (km/s) = 2.99568 1.05667 2.24618
# Velocity P-wave (km/s) = 6.23713 6.37718 6.30754
#
# Compressibility (1/GPa) = 0.01844172
#
# Stress axis : x y z
#
# Youngs Moduli (GPa) = 78.72813 64.19375 129.13224
#
# Poissons Ratio (x) = 0.14678 0.77824
# Poissons Ratio (y) = 0.18001 0.06170
# Poissons Ratio (z) = 0.47447 0.03067
#
# Static dielectric constant tensor:
#      x y z
#    x 1.691280 0.000000 0.000000 
#    y 0.000000 1.729360 0.000000 
#    z 0.000000 0.000000 1.727640 
# 
# From -- ./inp_files/10479.got.cif
#   From: 2010.05.17/outbox.cif.g08.bks.cpg/sg47_6_cif.got.tgz:10479.got - 2010.06.03 20:15:42.
