data_PCOD9386983
_publ_section_title
;
Structure prediction by ZEFSAII (Michael W. Deem and Ramdas Pophale) SiO2 
 PCOD9386983
Probable space group: P M M M
;
_chemical_formula_sum "Si O2"
_cell_formula_units_Z 48
_cell_length_a 19.447107
_cell_length_b 13.148706
_cell_length_c 7.550100
_cell_angle_alpha 90.000000
_cell_angle_beta 90.000000
_cell_angle_gamma 90.000000
_cell_volume 1930.592979
_symmetry_space_group_name_H-M "P M M M"
_symmetry_group_IT_number 47
_symmetry_cell_setting 'orthorhombic'
loop_
_space_group_symop_operation_xyz
x,y,z
-x,-y,z
x,-y,-z
-x,y,-z
-x,-y,-z
x,y,-z
-x,y,z
x,-y,z
loop_
_atom_site_type_symbol
_atom_site_label
_atom_site_fract_x
_atom_site_fract_y
_atom_site_fract_z
Si Si1 0.574115 0.326863 0.285649
Si Si2 0.077295 0.838116 0.702361
Si Si3 0.273862 0.389989 0.792646
Si Si4 0.375173 0.890395 0.283596
Si Si5 0.081969 0.390068 0.796882
Si Si6 0.775592 0.166922 0.707662
O O1 0.574681 0.330939 0.500000
O O2 0.500000 0.366321 0.225577
O O3 0.643991 0.379246 0.226808
O O4 0.583155 0.209015 0.230182
O O5 0.074101 0.875070 0.500000
O O6 0.089418 0.715987 0.698175
O O7 0.150911 0.869687 0.784298
O O8 0.000000 0.856552 0.779627
O O9 0.254859 0.500000 0.716539
O O10 0.237837 0.289054 0.718498
O O11 0.258675 0.390066 0.000000
O O12 0.373883 0.887990 0.500000
O O13 0.295896 0.878395 0.222109
O O14 0.402503 0.000000 0.229317
O O15 0.106288 0.500000 0.727874
O O16 0.000000 0.398790 0.807055
O O17 0.106772 0.378249 0.000000
O O18 0.778653 0.140514 0.500000
#
# Coordination Sequence:
#
# PCOD9386983 Si02
#       6
#     8   8   8   8   8   8
#     4   9  18  32  51  77 105 130 158 192 231 277
#     4   9  17  28  42  61  86 116 149 189 239 289
#     4  10  21  35  50  69  95 130 169 203 235 273
#     4   8  14  27  49  74  97 123 157 195 233 276
#     4   8  14  24  36  51  74 104 138 177 220 267
#     4   9  18  32  49  69  93 123 161 202 242 287
#
# _framework density 24.862826999999999
#
# number of rings (size 3 to 8) (size 9 to 14) (size 15 to 20)
#    0.000    3.167    0.000    2.000    0.000    4.000 
#    0.000    8.333    0.000    8.500    0.000    8.167 
#    0.000    0.000    0.000   10.167    0.000   11.000 
#
# Total GULP energy -267637.642905 kJ/mol
# GULP energy per Si atom -5575.784227 kJ/mol
# Density = 2.480624 g / cm^3
# Si number density = 24.862827 Si / 1000 Ang^3
#
#
#
# Elastic Constant Matrix: (Units=GPa)
#
#
# Indices 1 2 3 4 5 6 
#
# 1 204.3374 -1.7075 2.0243 0.0000 0.0000 0.0000
# 2 -1.7075 88.0766 -2.9081 0.0000 0.0000 0.0000
# 3 2.0243 -2.9081 61.0082 0.0000 0.0000 0.0000
# 4 0.0000 0.0000 0.0000 -2.8667 0.0000 0.0000
# 5 0.0000 0.0000 0.0000 0.0000 1516.2338 0.0000
# 6 0.0000 0.0000 0.0000 0.0000 0.0000 -61.3846
#
#
#
# Elastic Compliance Matrix: (Units=1/GPa)
#
#
# Indices 1 2 3 4 5 6 
#
# 1 0.004896 0.000090 -0.000158 0.000000 0.000000 0.000000
# 2 0.000090 0.011373 0.000539 0.000000 0.000000 0.000000
# 3 -0.000158 0.000539 0.016422 0.000000 0.000000 0.000000
# 4 0.000000 0.000000 0.000000 -0.348827 0.000000 0.000000
# 5 0.000000 0.000000 0.000000 0.000000 0.000660 0.000000
# 6 0.000000 0.000000 0.000000 0.000000 0.000000 -0.016291
#
#
# Mechanical properties :
#
#
# Convention : Reuss Voigt Hill
#
# Bulk Modulus (GPa) = 29.73270 38.69330 34.21300
# Shear Modulus (GPa) = -15.55224 314.13071 149.28923
#
# Velocity S-wave (km/s) = -2.50376 11.25255 7.75729
# Velocity P-wave (km/s) = 1.90427 13.58024 9.69663
#
# Compressibility (1/GPa) = 0.03363300
#
# Stress axis : x y z
#
# Youngs Moduli (GPa) = 204.24070 87.92524 60.89325
#
# Poissons Ratio (x) = -0.00789 0.00963
# Poissons Ratio (y) = -0.01832 -0.03283
# Poissons Ratio (z) = 0.03231 -0.04741
#
# Static dielectric constant tensor:
#      x y z
#    x 1.998820 0.000000 0.000000 
#    y 0.000000 1.973080 0.000000 
#    z 0.000000 0.000000 1.951790 
# 
# From -- ./inp_files/6823.got.cif
#   From: 2010.05.17/outbox.cif.g08.bks.cpg/sg47_4_cif.got.tgz:6823.got - 2010.06.03 20:15:42.
