data_PCOD9386736
_publ_section_title
;
Structure prediction by ZEFSAII (Michael W. Deem and Ramdas Pophale) SiO2 
 PCOD9386736
Probable space group: P M M M
;
_chemical_formula_sum "Si O2"
_cell_formula_units_Z 32
_cell_length_a 23.149247
_cell_length_b 9.190394
_cell_length_c 7.836692
_cell_angle_alpha 90.000000
_cell_angle_beta 90.000000
_cell_angle_gamma 90.000000
_cell_volume 1667.261714
_symmetry_space_group_name_H-M "P M M M"
_symmetry_group_IT_number 47
_symmetry_cell_setting 'orthorhombic'
loop_
_space_group_symop_operation_xyz
x,y,z
-x,-y,z
x,-y,-z
-x,y,-z
-x,-y,-z
x,y,-z
-x,y,z
x,-y,z
loop_
_atom_site_type_symbol
_atom_site_label
_atom_site_fract_x
_atom_site_fract_y
_atom_site_fract_z
Si Si1 0.260355 0.169472 0.702539
Si Si2 0.135425 0.175104 0.806451
Si Si3 0.385354 0.832737 0.205867
Si Si4 0.931373 0.672893 0.500000
Si Si5 0.500000 0.666784 0.209001
O O1 0.251054 0.173257 0.500000
O O2 0.202118 0.226671 0.787835
O O3 0.323303 0.232831 0.742699
O O4 0.264742 0.000000 0.758367
O O5 0.097260 0.254133 0.665815
O O6 0.135048 0.000000 0.774646
O O7 0.115695 0.199951 0.000000
O O8 0.441569 0.746509 0.265383
O O9 0.388717 0.000000 0.267888
O O10 0.386611 0.835979 0.000000
O O11 0.920561 0.500000 0.500000
O O12 0.000000 0.697261 0.500000
O O13 0.500000 0.500000 0.262179
O O14 0.500000 0.670586 0.000000
#
# Coordination Sequence:
#
# PCOD9386736 Si02
#       5
#     8   8   8   4   4
#     4   9  16  29  52  81 110 138 173 226 287 340
#     4  10  20  37  64  94 121 152 194 245 297 346
#     4   9  16  27  46  71  96 127 171 219 270 333
#     4  11  25  43  61  85 123 166 201 236 281 339
#     4   9  17  29  44  63  92 130 172 221 274 325
#
# _framework density 19.193147
#
# number of rings (size 3 to 8) (size 9 to 14) (size 15 to 20)
#    0.000    2.500    1.250    1.500    0.000    6.500 
#    0.000    4.375    0.000    6.750    0.000    0.000 
#    0.000    0.000    0.000    0.000    0.000    0.000 
#
# Total GULP energy -178486.570835 kJ/mol
# GULP energy per Si atom -5577.705339 kJ/mol
# Density = 1.914946 g / cm^3
# Si number density = 19.193147 Si / 1000 Ang^3
#
#
#
# Elastic Constant Matrix: (Units=GPa)
#
#
# Indices 1 2 3 4 5 6 
#
# 1 155.5935 68.8971 70.8790 0.0000 0.0000 0.0000
# 2 68.8971 62.4277 43.5124 0.0000 0.0000 0.0000
# 3 70.8790 43.5124 82.9081 0.0000 0.0000 0.0000
# 4 0.0000 0.0000 0.0000 8.0763 0.0000 0.0000
# 5 0.0000 0.0000 0.0000 0.0000 29.6941 0.0000
# 6 0.0000 0.0000 0.0000 0.0000 0.0000 -37.3095
#
#
#
# Elastic Compliance Matrix: (Units=1/GPa)
#
#
# Indices 1 2 3 4 5 6 
#
# 1 0.014364 -0.011500 -0.006244 0.000000 0.000000 0.000000
# 2 -0.011500 0.034465 -0.008257 0.000000 0.000000 0.000000
# 3 -0.006244 -0.008257 0.021733 0.000000 0.000000 0.000000
# 4 0.000000 0.000000 0.000000 0.123819 0.000000 0.000000
# 5 0.000000 0.000000 0.000000 0.000000 0.033677 0.000000
# 6 0.000000 0.000000 0.000000 0.000000 0.000000 -0.026803
#
#
# Mechanical properties :
#
#
# Convention : Reuss Voigt Hill
#
# Bulk Modulus (GPa) = 53.87888 74.16738 64.02313
# Shear Modulus (GPa) = 19.27200 7.93491 13.60346
#
# Velocity S-wave (km/s) = 3.17220 2.03549 2.66515
# Velocity P-wave (km/s) = 6.44593 6.65213 6.54984
#
# Compressibility (1/GPa) = 0.01856015
#
# Stress axis : x y z
#
# Youngs Moduli (GPa) = 69.62006 29.01469 46.01260
#
# Poissons Ratio (x) = 0.33367 0.28731
# Poissons Ratio (y) = 0.80063 0.37992
# Poissons Ratio (z) = 0.43472 0.23957
#
# Static dielectric constant tensor:
#      x y z
#    x 1.683480 0.000000 0.000000 
#    y 0.000000 1.648190 0.000000 
#    z 0.000000 0.000000 1.674320 
# 
# From -- ./inp_files/12016.got.cif
#   From: 2010.05.17/outbox.cif.g08.bks.cpg/sg47_7_cif.got.tgz:12016.got - 2010.06.03 20:15:42.
