data_PCOD9386116
_publ_section_title
;
Structure prediction by ZEFSAII (Michael W. Deem and Ramdas Pophale) SiO2 
 PCOD9386116
Probable space group: P M M M
;
_chemical_formula_sum "Si O2"
_cell_formula_units_Z 44
_cell_length_a 28.899659
_cell_length_b 8.432259
_cell_length_c 9.602526
_cell_angle_alpha 90.000000
_cell_angle_beta 90.000000
_cell_angle_gamma 90.000000
_cell_volume 2340.033893
_symmetry_space_group_name_H-M "P M M M"
_symmetry_group_IT_number 47
_symmetry_cell_setting 'orthorhombic'
loop_
_space_group_symop_operation_xyz
x,y,z
-x,-y,z
x,-y,-z
-x,y,-z
-x,-y,-z
x,y,-z
-x,y,z
x,-y,z
loop_
_atom_site_type_symbol
_atom_site_label
_atom_site_fract_x
_atom_site_fract_y
_atom_site_fract_z
Si Si1 0.053252 0.308488 0.339868
Si Si2 0.500000 0.810684 0.341827
Si Si3 0.584941 0.691448 0.160721
Si Si4 0.310342 0.306711 0.160088
Si Si5 0.776482 0.308184 0.659588
Si Si6 0.862485 0.810502 0.159754
O O1 0.064214 0.262129 0.500000
O O2 0.055654 0.500000 0.334110
O O3 0.089779 0.238614 0.233164
O O4 0.000000 0.262624 0.311324
O O5 0.500000 0.749410 0.500000
O O6 0.545506 0.754865 0.260490
O O7 0.500000 0.000000 0.345087
O O8 0.583880 0.500000 0.164783
O O9 0.637349 0.742357 0.197306
O O10 0.576202 0.738781 0.000000
O O11 0.310162 0.500000 0.161043
O O12 0.270387 0.252645 0.263959
O O13 0.300897 0.258459 0.000000
O O14 0.779495 0.252656 0.500000
O O15 0.775512 0.500000 0.657188
O O16 0.820423 0.256834 0.749476
O O17 0.859131 0.000000 0.158725
O O18 0.860299 0.752896 0.000000
#
# Coordination Sequence:
#
# PCOD9386116 Si02
#       6
#     8   4   8   8   8   8
#     4   9  19  37  60  84 108 135 171 215 262 314
#     4  11  24  37  48  70 106 143 178 215 256 306
#     4   9  18  34  57  82 104 130 170 216 260 311
#     4   8  15  30  53  80 107 133 165 210 261 310
#     4  10  20  34  55  82 108 136 173 215 259 310
#     4  11  24  38  52  75 108 144 181 219 258 304
#
# _framework density 18.803145000000001
#
# number of rings (size 3 to 8) (size 9 to 14) (size 15 to 20)
#    0.000    2.455    0.000    3.818    0.000    8.727 
#    0.000    5.455    0.000    1.091    0.000    0.000 
#    0.000    0.000    0.000    0.000    0.000    0.000 
#
# Total GULP energy -245599.869087 kJ/mol
# GULP energy per Si atom -5581.815207 kJ/mol
# Density = 1.876035 g / cm^3
# Si number density = 18.803145 Si / 1000 Ang^3
#
#
#
# Elastic Constant Matrix: (Units=GPa)
#
#
# Indices 1 2 3 4 5 6 
#
# 1 159.6457 21.3179 134.1326 0.0000 0.0000 0.0000
# 2 21.3179 9.6110 25.9981 0.0000 0.0000 0.0000
# 3 134.1326 25.9981 178.9994 0.0000 0.0000 0.0000
# 4 0.0000 0.0000 0.0000 19.2969 0.0000 0.0000
# 5 0.0000 0.0000 0.0000 0.0000 71.3686 0.0000
# 6 0.0000 0.0000 0.0000 0.0000 0.0000 -45.1277
#
#
#
# Elastic Compliance Matrix: (Units=1/GPa)
#
#
# Indices 1 2 3 4 5 6 
#
# 1 0.017078 -0.005374 -0.012017 0.000000 0.000000 0.000000
# 2 -0.005374 0.173070 -0.021110 0.000000 0.000000 0.000000
# 3 -0.012017 -0.021110 0.017657 0.000000 0.000000 0.000000
# 4 0.000000 0.000000 0.000000 0.051822 0.000000 0.000000
# 5 0.000000 0.000000 0.000000 0.000000 0.014012 0.000000
# 6 0.000000 0.000000 0.000000 0.000000 0.000000 -0.022159
#
#
# Mechanical properties :
#
#
# Convention : Reuss Voigt Hill
#
# Bulk Modulus (GPa) = 7.64502 79.01704 43.33103
# Shear Modulus (GPa) = 13.43790 20.22806 16.83298
#
# Velocity S-wave (km/s) = 2.67622 3.28347 2.99527
# Velocity P-wave (km/s) = 3.69109 7.51594 5.92088
#
# Compressibility (1/GPa) = 0.13080408
#
# Stress axis : x y z
#
# Youngs Moduli (GPa) = 58.55600 5.77799 56.63427
#
# Poissons Ratio (x) = 0.03105 0.68055
# Poissons Ratio (y) = 0.31470 1.19553
# Poissons Ratio (z) = 0.70364 0.12197
#
# Static dielectric constant tensor:
#      x y z
#    x 1.631060 0.000000 0.000000 
#    y 0.000000 1.647800 0.000000 
#    z 0.000000 0.000000 1.639700 
# 
# From -- ./inp_files/13571.got.cif
#   From: 2010.05.17/outbox.cif.g08.bks.cpg/sg47_7_cif.got.tgz:13571.got - 2010.06.03 20:15:42.
