data_PCOD9386637
_publ_section_title
;
Structure prediction by ZEFSAII (Michael W. Deem and Ramdas Pophale) SiO2 
 PCOD9386637
Probable space group: P M M M
;
_chemical_formula_sum "Si O2"
_cell_formula_units_Z 44
_cell_length_a 7.978057
_cell_length_b 20.395032
_cell_length_c 14.203536
_cell_angle_alpha 90.000000
_cell_angle_beta 90.000000
_cell_angle_gamma 90.000000
_cell_volume 2311.096087
_symmetry_space_group_name_H-M "P M M M"
_symmetry_group_IT_number 47
_symmetry_cell_setting 'orthorhombic'
loop_
_space_group_symop_operation_xyz
x,y,z
-x,-y,z
x,-y,-z
-x,y,-z
-x,-y,-z
x,y,-z
-x,y,z
x,-y,z
loop_
_atom_site_type_symbol
_atom_site_label
_atom_site_fract_x
_atom_site_fract_y
_atom_site_fract_z
Si Si1 0.698933 0.629805 0.281696
Si Si2 0.000000 0.924451 0.801457
Si Si3 0.196799 0.701538 0.892847
Si Si4 0.199281 0.500000 0.606884
Si Si5 0.307383 0.763232 0.612368
Si Si6 0.311128 0.155141 0.113707
Si Si7 0.000000 0.138915 0.611209
O O1 0.500000 0.629090 0.272557
O O2 0.773111 0.642459 0.178562
O O3 0.750735 0.564735 0.335992
O O4 0.744420 0.694745 0.340853
O O5 0.164308 0.887390 0.840825
O O6 0.000000 0.917813 0.688267
O O7 0.000000 0.000000 0.830690
O O8 0.289093 0.768011 0.860399
O O9 0.000000 0.717681 0.893490
O O10 0.249058 0.686735 0.000000
O O11 0.269630 0.500000 0.500000
O O12 0.000000 0.500000 0.599708
O O13 0.309671 0.753718 0.500000
O O14 0.500000 0.780088 0.640801
O O15 0.166155 0.817467 0.630923
O O16 0.500000 0.133756 0.138089
O O17 0.292992 0.152453 0.000000
O O18 0.000000 0.121304 0.500000
#
# Coordination Sequence:
#
# PCOD9386637 Si02
#       7
#     8   4   8   4   8   8   4
#     4  11  22  36  57  84 116 153 192 236 289 348
#     4  12  25  39  58  85 120 160 200 240 287 352
#     4  10  20  36  60  89 119 150 189 238 288 340
#     4  11  25  41  58  81 114 157 199 240 292 355
#     4   9  19  35  57  86 114 142 186 245 301 349
#     4  10  21  39  63  91 122 154 192 241 297 355
#     4  10  22  38  59  83 112 152 195 245 298 346
#
# _framework density 19.038584
#
# number of rings (size 3 to 8) (size 9 to 14) (size 15 to 20)
#    0.000    1.727    0.909    3.273    2.545    6.000 
#    0.000    1.364    0.000    2.727    0.000    3.818 
#    0.000    0.000    0.000    0.000    0.000    0.000 
#
# Total GULP energy -245772.331647 kJ/mol
# GULP energy per Si atom -5585.734810 kJ/mol
# Density = 1.899525 g / cm^3
# Si number density = 19.038584 Si / 1000 Ang^3
#
#
#
# Elastic Constant Matrix: (Units=GPa)
#
#
# Indices 1 2 3 4 5 6 
#
# 1 81.9781 29.7867 41.8202 0.0000 0.0000 0.0000
# 2 29.7867 77.7213 60.4585 0.0000 0.0000 0.0000
# 3 41.8202 60.4585 91.1852 0.0000 0.0000 0.0000
# 4 0.0000 0.0000 0.0000 20.2341 0.0000 0.0000
# 5 0.0000 0.0000 0.0000 0.0000 18.4764 0.0000
# 6 0.0000 0.0000 0.0000 0.0000 0.0000 -80.8608
#
#
#
# Elastic Compliance Matrix: (Units=1/GPa)
#
#
# Indices 1 2 3 4 5 6 
#
# 1 0.015953 -0.000873 -0.006738 0.000000 0.000000 0.000000
# 2 -0.000873 0.026618 -0.017249 0.000000 0.000000 0.000000
# 3 -0.006738 -0.017249 0.025493 0.000000 0.000000 0.000000
# 4 0.000000 0.000000 0.000000 0.049421 0.000000 0.000000
# 5 0.000000 0.000000 0.000000 0.000000 0.054123 0.000000
# 6 0.000000 0.000000 0.000000 0.000000 0.000000 -0.012367
#
#
# Mechanical properties :
#
#
# Convention : Reuss Voigt Hill
#
# Bulk Modulus (GPa) = 54.50707 57.22396 55.86552
# Shear Modulus (GPa) = 23.24766 -0.50879 11.36943
#
# Velocity S-wave (km/s) = 3.49819 -0.51752 2.44637
# Velocity P-wave (km/s) = 6.70883 5.45573 6.11447
#
# Compressibility (1/GPa) = 0.01834624
#
# Stress axis : x y z
#
# Youngs Moduli (GPa) = 62.68554 37.56795 39.22615
#
# Poissons Ratio (x) = 0.03278 0.26430
# Poissons Ratio (y) = 0.05470 0.67660
# Poissons Ratio (z) = 0.42236 0.64800
#
# Static dielectric constant tensor:
#      x y z
#    x 1.666330 0.000000 0.000000 
#    y 0.000000 1.478680 0.000000 
#    z 0.000000 0.000000 1.700840 
# 
# From -- ./inp_files/20967.got.cif
#   From: 2010.05.17/outbox.cif.g08.bks.cpg/sg47_11_cif.got.tgz:20967.got - 2010.06.03 20:15:42.
