data_PCOD9386701
_publ_section_title
;
Structure prediction by ZEFSAII (Michael W. Deem and Ramdas Pophale) SiO2 
 PCOD9386701
Probable space group: P M M M
;
_chemical_formula_sum "Si O2"
_cell_formula_units_Z 30
_cell_length_a 13.705360
_cell_length_b 7.781396
_cell_length_c 12.577865
_cell_angle_alpha 90.000000
_cell_angle_beta 90.000000
_cell_angle_gamma 90.000000
_cell_volume 1341.389474
_symmetry_space_group_name_H-M "P M M M"
_symmetry_group_IT_number 47
_symmetry_cell_setting 'orthorhombic'
loop_
_space_group_symop_operation_xyz
x,y,z
-x,-y,z
x,-y,-z
-x,y,-z
-x,-y,-z
x,y,-z
-x,y,z
x,-y,z
loop_
_atom_site_type_symbol
_atom_site_label
_atom_site_fract_x
_atom_site_fract_y
_atom_site_fract_z
Si Si1 0.382642 0.797452 0.884252
Si Si2 0.884338 0.295291 0.000000
Si Si3 0.658915 0.000000 0.500000
Si Si4 0.888101 0.202681 0.764108
Si Si5 0.301217 0.310638 0.662141
O O1 0.500000 0.787144 0.884208
O O2 0.345115 0.705426 0.780126
O O3 0.357132 0.000000 0.877387
O O4 0.348611 0.731582 0.000000
O O5 0.850648 0.226947 0.114435
O O6 0.874323 0.500000 0.000000
O O7 0.000000 0.250109 0.000000
O O8 0.662061 0.847374 0.591862
O O9 0.814910 0.289590 0.681954
O O10 0.000000 0.266181 0.758782
O O11 0.888052 0.000000 0.741752
O O12 0.323485 0.500000 0.620252
#
# Coordination Sequence:
#
# PCOD9386701 Si02
#       5
#     8   4   2   8   8
#     4   9  19  40  71 105 140 174 208 256 323 397
#     4   9  17  29  49  83 124 159 200 254 311 383
#     4  12  26  52  64  92 130 170 230 290 316 380
#     4  10  20  37  60  89 127 171 216 265 325 391
#     4  12  25  43  70  96 128 175 221 271 333 385
#
# _framework density 22.364868999999999
#
# number of rings (size 3 to 8) (size 9 to 14) (size 15 to 20)
#    0.000    1.733    2.667    2.400    1.867    4.267 
#    0.000    4.000    0.000    3.200    0.000    0.000 
#    0.000    0.000    0.000    0.000    0.000    0.000 
#
# Total GULP energy -167186.775942 kJ/mol
# GULP energy per Si atom -5572.892531 kJ/mol
# Density = 2.231397 g / cm^3
# Si number density = 22.364869 Si / 1000 Ang^3
#
#
#
# Elastic Constant Matrix: (Units=GPa)
#
#
# Indices 1 2 3 4 5 6 
#
# 1 36.4115 6.1058 15.3541 0.0000 0.0000 0.0000
# 2 6.1058 149.3549 61.3444 0.0000 0.0000 0.0000
# 3 15.3541 61.3444 125.8481 0.0000 0.0000 0.0000
# 4 0.0000 0.0000 0.0000 -70.8421 0.0000 0.0000
# 5 0.0000 0.0000 0.0000 0.0000 -27.4707 0.0000
# 6 0.0000 0.0000 0.0000 0.0000 0.0000 7.1892
#
#
#
# Elastic Compliance Matrix: (Units=1/GPa)
#
#
# Indices 1 2 3 4 5 6 
#
# 1 0.028967 0.000334 -0.003697 0.000000 0.000000 0.000000
# 2 0.000334 0.008375 -0.004123 0.000000 0.000000 0.000000
# 3 -0.003697 -0.004123 0.010407 0.000000 0.000000 0.000000
# 4 0.000000 0.000000 0.000000 -0.014116 0.000000 0.000000
# 5 0.000000 0.000000 0.000000 0.000000 -0.036402 0.000000
# 6 0.000000 0.000000 0.000000 0.000000 0.000000 0.139097
#
#
# Mechanical properties :
#
#
# Convention : Reuss Voigt Hill
#
# Bulk Modulus (GPa) = 30.50916 53.02480 41.76698
# Shear Modulus (GPa) = 30.82123 -2.97070 13.92527
#
# Velocity S-wave (km/s) = 3.71632 -1.15376 2.49798
# Velocity P-wave (km/s) = 5.66444 4.68887 5.19959
#
# Compressibility (1/GPa) = 0.03277705
#
# Stress axis : x y z
#
# Youngs Moduli (GPa) = 34.52227 119.39768 96.08862
#
# Poissons Ratio (x) = -0.03991 0.35524
# Poissons Ratio (y) = -0.01154 0.39621
# Poissons Ratio (z) = 0.12763 0.49232
#
# Static dielectric constant tensor:
#      x y z
#    x 1.899140 0.000000 0.000000 
#    y 0.000000 1.783150 0.000000 
#    z 0.000000 0.000000 1.789740 
# 
# From -- ./inp_files/3253.got.cif
#   From: 2010.05.17/outbox.cif.g08.bks.cpg/sg47_2_cif.got.tgz:3253.got - 2010.06.03 20:15:42.
