data_PCOD9386616
_publ_section_title
;
Structure prediction by ZEFSAII (Michael W. Deem and Ramdas Pophale) SiO2 
 PCOD9386616
Probable space group: P M M M
;
_chemical_formula_sum "Si O2"
_cell_formula_units_Z 37
_cell_length_a 17.839574
_cell_length_b 11.840738
_cell_length_c 9.531845
_cell_angle_alpha 90.000000
_cell_angle_beta 90.000000
_cell_angle_gamma 90.000000
_cell_volume 2013.447095
_symmetry_space_group_name_H-M "P M M M"
_symmetry_group_IT_number 47
_symmetry_cell_setting 'orthorhombic'
loop_
_space_group_symop_operation_xyz
x,y,z
-x,-y,z
x,-y,-z
-x,y,-z
-x,-y,-z
x,y,-z
-x,y,z
x,-y,z
loop_
_atom_site_type_symbol
_atom_site_label
_atom_site_fract_x
_atom_site_fract_y
_atom_site_fract_z
Si Si1 0.845069 0.500000 0.830658
Si Si2 0.500000 0.000000 0.000000
Si Si3 0.087672 0.259873 0.831155
Si Si4 0.668442 0.500000 0.831709
Si Si5 0.212370 0.869499 0.667188
Si Si6 0.357127 0.719178 0.337918
Si Si7 0.500000 0.874397 0.288361
O O1 0.885616 0.614838 0.785039
O O2 0.757404 0.500000 0.793496
O O3 0.848955 0.500000 0.000000
O O4 0.500000 0.097145 0.876389
O O5 0.140559 0.171461 0.753132
O O6 0.000000 0.244365 0.801068
O O7 0.097824 0.251744 0.000000
O O8 0.634550 0.612163 0.762839
O O9 0.661791 0.500000 0.000000
O O10 0.198836 0.860209 0.500000
O O11 0.282538 0.789217 0.701941
O O12 0.230587 0.000000 0.698132
O O13 0.349272 0.681752 0.500000
O O14 0.427025 0.803362 0.327671
O O15 0.500000 0.000000 0.352804
#
# Coordination Sequence:
#
# PCOD9386616 Si02
#       7
#     4   1   8   4   8   8   4
#     4   9  17  35  57  86 114 152 192 240 300 356
#     4   8  24  44  62 102 132 156 196 264 306 344
#     4  10  20  36  59  86 115 150 198 250 300 358
#     4  11  23  37  64  91 124 160 198 249 309 365
#     4  10  22  39  58  83 116 157 199 244 298 357
#     4  11  23  41  65  91 123 159 206 251 298 360
#     4  10  23  43  67  92 126 161 202 248 297 351
#
# _framework density 18.376446000000001
#
# number of rings (size 3 to 8) (size 9 to 14) (size 15 to 20)
#    0.324    1.514    2.162    1.622    1.514    4.757 
#    0.000    4.324    0.000    1.297    0.000    0.000 
#    0.000    0.000    0.000    0.000    0.000    0.000 
#
# Total GULP energy -206242.449035 kJ/mol
# GULP energy per Si atom -5574.120244 kJ/mol
# Density = 1.833462 g / cm^3
# Si number density = 18.376446 Si / 1000 Ang^3
#
#
#
# Elastic Constant Matrix: (Units=GPa)
#
#
# Indices 1 2 3 4 5 6 
#
# 1 91.4513 47.8759 22.7418 0.0000 0.0000 0.0000
# 2 47.8759 136.9589 47.0818 0.0000 0.0000 0.0000
# 3 22.7418 47.0818 60.3702 0.0000 0.0000 0.0000
# 4 0.0000 0.0000 0.0000 17.8117 0.0000 0.0000
# 5 0.0000 0.0000 0.0000 0.0000 -18.2441 0.0000
# 6 0.0000 0.0000 0.0000 0.0000 0.0000 14.2975
#
#
#
# Elastic Compliance Matrix: (Units=1/GPa)
#
#
# Indices 1 2 3 4 5 6 
#
# 1 0.013546 -0.004073 -0.001926 0.000000 0.000000 0.000000
# 2 -0.004073 0.011201 -0.007201 0.000000 0.000000 0.000000
# 3 -0.001926 -0.007201 0.022906 0.000000 0.000000 0.000000
# 4 0.000000 0.000000 0.000000 0.056143 0.000000 0.000000
# 5 0.000000 0.000000 0.000000 0.000000 -0.054812 0.000000
# 6 0.000000 0.000000 0.000000 0.000000 0.000000 0.069942
#
#
# Mechanical properties :
#
#
# Convention : Reuss Voigt Hill
#
# Bulk Modulus (GPa) = 47.05408 58.24215 52.64811
# Shear Modulus (GPa) = 32.80614 14.17841 23.49228
#
# Velocity S-wave (km/s) = 4.22978 2.78070 3.57934
# Velocity P-wave (km/s) = 7.03676 6.48633 6.76714
#
# Compressibility (1/GPa) = 0.02125214
#
# Stress axis : x y z
#
# Youngs Moduli (GPa) = 73.82195 89.28043 43.65664
#
# Poissons Ratio (x) = 0.36364 0.08410
# Poissons Ratio (y) = 0.30068 0.31437
# Poissons Ratio (z) = 0.14221 0.64290
#
# Static dielectric constant tensor:
#      x y z
#    x 1.613360 0.000000 0.000000 
#    y 0.000000 1.626390 0.000000 
#    z 0.000000 0.000000 1.617180 
# 
# From -- ./inp_files/8710.got.cif
#   From: 2010.05.17/outbox.cif.g08.bks.cpg/sg47_5_cif.got.tgz:8710.got - 2010.06.03 20:15:42.
