data_PCOD9386232
_publ_section_title
;
Structure prediction by ZEFSAII (Michael W. Deem and Ramdas Pophale) SiO2 
 PCOD9386232
Probable space group: P M M M
;
_chemical_formula_sum "Si O2"
_cell_formula_units_Z 64
_cell_length_a 8.242670
_cell_length_b 25.721250
_cell_length_c 15.245755
_cell_angle_alpha 90.000000
_cell_angle_beta 90.000000
_cell_angle_gamma 90.000000
_cell_volume 3232.279590
_symmetry_space_group_name_H-M "P M M M"
_symmetry_group_IT_number 47
_symmetry_cell_setting 'orthorhombic'
loop_
_space_group_symop_operation_xyz
x,y,z
-x,-y,z
x,-y,-z
-x,y,-z
-x,-y,-z
x,y,-z
-x,y,z
x,-y,z
loop_
_atom_site_type_symbol
_atom_site_label
_atom_site_fract_x
_atom_site_fract_y
_atom_site_fract_z
Si Si1 0.304782 0.558022 0.899128
Si Si2 0.808246 0.921931 0.904658
Si Si3 0.196439 0.942844 0.709394
Si Si4 0.192568 0.366547 0.750209
Si Si5 0.311400 0.749734 0.273149
Si Si6 0.696089 0.158212 0.398674
Si Si7 0.190692 0.796935 0.097014
Si Si8 0.801944 0.441058 0.400972
O O1 0.500000 0.556830 0.899363
O O2 0.248799 0.500000 0.868760
O O3 0.252690 0.605508 0.838329
O O4 0.250583 0.564458 0.000000
O O5 0.743276 0.939971 0.810670
O O6 0.798821 0.859377 0.902355
O O7 0.000000 0.935833 0.905828
O O8 0.740285 0.938597 0.000000
O O9 0.255489 0.894254 0.652593
O O10 0.000000 0.939590 0.712394
O O11 0.240597 0.000000 0.673735
O O12 0.233656 0.306781 0.733908
O O13 0.259358 0.400737 0.669856
O O14 0.000000 0.371352 0.751078
O O15 0.500000 0.742430 0.293249
O O16 0.244264 0.791337 0.343902
O O17 0.289871 0.775040 0.177488
O O18 0.751618 0.158021 0.500000
O O19 0.500000 0.160267 0.398933
O O20 0.000000 0.783584 0.108659
O O21 0.241799 0.778791 0.000000
O O22 0.750672 0.428856 0.500000
O O23 0.752862 0.500000 0.379806
O O24 0.000000 0.440233 0.400577
#
# Coordination Sequence:
#
# PCOD9386232 Si02
#       8
#     8   8   8   8   8   8   8   8
#     4   9  19  37  59  82 113 155 197 235 278 326
#     4   8  14  27  50  80 113 145 173 206 255 314
#     4  10  20  34  57  89 119 144 177 225 276 329
#     4  11  22  34  54  84 114 144 182 228 277 330
#     4  11  23  38  56  78 106 143 185 230 279 329
#     4  10  23  43  62  78 102 143 191 234 281 338
#     4   9  17  32  56  81 105 137 176 217 261 314
#     4   8  15  30  52  78 108 138 168 208 261 320
#
# _framework density 19.800267999999999
#
# number of rings (size 3 to 8) (size 9 to 14) (size 15 to 20)
#    0.000    2.500    1.250    2.625    0.000    3.750 
#    0.000    3.125    0.000    1.500    0.000    5.250 
#    0.000    0.000    0.000    0.000    0.000    0.000 
#
# Total GULP energy -356903.132667 kJ/mol
# GULP energy per Si atom -5576.611448 kJ/mol
# Density = 1.975520 g / cm^3
# Si number density = 19.800268 Si / 1000 Ang^3
#
#
#
# Elastic Constant Matrix: (Units=GPa)
#
#
# Indices 1 2 3 4 5 6 
#
# 1 12.7847 15.9445 13.8004 0.0000 0.0000 0.0000
# 2 15.9445 139.2679 91.1983 0.0000 0.0000 0.0000
# 3 13.8004 91.1983 141.4208 0.0000 0.0000 0.0000
# 4 0.0000 0.0000 0.0000 20.7756 0.0000 0.0000
# 5 0.0000 0.0000 0.0000 0.0000 14.1771 0.0000
# 6 0.0000 0.0000 0.0000 0.0000 0.0000 -43.3435
#
#
#
# Elastic Compliance Matrix: (Units=1/GPa)
#
#
# Indices 1 2 3 4 5 6 
#
# 1 0.092412 -0.008092 -0.003800 0.000000 0.000000 0.000000
# 2 -0.008092 0.013138 -0.007682 0.000000 0.000000 0.000000
# 3 -0.003800 -0.007682 0.012396 0.000000 0.000000 0.000000
# 4 0.000000 0.000000 0.000000 0.048133 0.000000 0.000000
# 5 0.000000 0.000000 0.000000 0.000000 0.070536 0.000000
# 6 0.000000 0.000000 0.000000 0.000000 0.000000 -0.023071
#
#
# Mechanical properties :
#
#
# Convention : Reuss Voigt Hill
#
# Bulk Modulus (GPa) = 12.69071 59.48441 36.08756
# Shear Modulus (GPa) = 17.92384 9.82383 13.87383
#
# Velocity S-wave (km/s) = 3.01197 2.22985 2.64993
# Velocity P-wave (km/s) = 4.30340 6.06111 5.25625
#
# Compressibility (1/GPa) = 0.07879779
#
# Stress axis : x y z
#
# Youngs Moduli (GPa) = 10.82109 76.11735 80.67064
#
# Poissons Ratio (x) = 0.61593 0.30652
# Poissons Ratio (y) = 0.08756 0.61975
# Poissons Ratio (z) = 0.04112 0.58477
#
# Static dielectric constant tensor:
#      x y z
#    x 1.702330 0.000000 0.000000 
#    y 0.000000 1.696660 0.000000 
#    z 0.000000 0.000000 1.714730 
# 
# From -- ./inp_files/7889.got.cif
#   From: 2010.05.17/outbox.cif.g08.bks.cpg/sg47_4_cif.got.tgz:7889.got - 2010.06.03 20:15:42.
