data_PCOD9386975
_publ_section_title
;
Structure prediction by ZEFSAII (Michael W. Deem and Ramdas Pophale) SiO2 
 PCOD9386975
Probable space group: P M M M
;
_chemical_formula_sum "Si O2"
_cell_formula_units_Z 64
_cell_length_a 14.785951
_cell_length_b 32.482782
_cell_length_c 8.975112
_cell_angle_alpha 90.000000
_cell_angle_beta 90.000000
_cell_angle_gamma 90.000000
_cell_volume 4310.645979
_symmetry_space_group_name_H-M "P M M M"
_symmetry_group_IT_number 47
_symmetry_cell_setting 'orthorhombic'
loop_
_space_group_symop_operation_xyz
x,y,z
-x,-y,z
x,-y,-z
-x,y,-z
-x,-y,-z
x,y,-z
-x,y,z
x,-y,z
loop_
_atom_site_type_symbol
_atom_site_label
_atom_site_fract_x
_atom_site_fract_y
_atom_site_fract_z
Si Si1 0.708562 0.796166 0.820549
Si Si2 0.609118 0.455271 0.176431
Si Si3 0.393284 0.280530 0.680339
Si Si4 0.099625 0.827967 0.819399
Si Si5 0.609824 0.371904 0.326566
Si Si6 0.283438 0.954752 0.320674
Si Si7 0.102018 0.924809 0.179263
Si Si8 0.606741 0.873712 0.679336
O O1 0.664415 0.755276 0.753892
O O2 0.812809 0.802714 0.771164
O O3 0.653430 0.835535 0.760883
O O4 0.705176 0.795272 0.000000
O O5 0.500000 0.455242 0.197485
O O6 0.641688 0.500000 0.234102
O O7 0.643853 0.413055 0.247096
O O8 0.625159 0.454114 0.000000
O O9 0.386474 0.278808 0.500000
O O10 0.500000 0.275190 0.716365
O O11 0.363546 0.326522 0.729332
O O12 0.111002 0.876273 0.781369
O O13 0.000000 0.814523 0.766421
O O14 0.098178 0.826496 0.000000
O O15 0.633492 0.374556 0.500000
O O16 0.500000 0.371895 0.317267
O O17 0.279130 0.953612 0.500000
O O18 0.183309 0.948446 0.256074
O O19 0.345523 0.916373 0.274069
O O20 0.318086 0.000000 0.276366
O O21 0.000000 0.937981 0.220294
O O22 0.109725 0.928213 0.000000
O O23 0.618064 0.868911 0.500000
O O24 0.500000 0.874759 0.710080
#
# Coordination Sequence:
#
# PCOD9386975 Si02
#       8
#     8   8   8   8   8   8   8   8
#     4  11  20  30  49  72  88 105 136 175 208 244
#     4   8  13  20  30  46  69  97 130 173 224 264
#     4   9  18  31  43  57  84 119 147 174 214 257
#     4   8  15  29  48  68  89 110 131 160 200 243
#     4   8  14  24  36  49  68 100 141 178 209 245
#     4  10  21  35  50  69  91 113 139 172 206 239
#     4   9  17  32  53  72  91 116 140 161 195 246
#     4  10  21  36  51  65  85 114 142 169 205 246
#
# _framework density 14.846963000000001
#
# number of rings (size 3 to 8) (size 9 to 14) (size 15 to 20)
#    0.000    2.875    1.250    2.625    0.000    3.750 
#    0.000    5.000    0.000    1.500    0.000    1.750 
#    0.000    0.000    0.000    0.000    0.000    0.625 
#
# Total GULP energy -356350.858404 kJ/mol
# GULP energy per Si atom -5567.982163 kJ/mol
# Density = 1.481317 g / cm^3
# Si number density = 14.846963 Si / 1000 Ang^3
#
#
#
# Elastic Constant Matrix: (Units=GPa)
#
#
# Indices 1 2 3 4 5 6 
#
# 1 68.9826 54.5400 19.2999 0.0000 0.0000 0.0000
# 2 54.5400 149.1358 37.7876 0.0000 0.0000 0.0000
# 3 19.2999 37.7876 12.8449 0.0000 0.0000 0.0000
# 4 0.0000 0.0000 0.0000 17.6384 0.0000 0.0000
# 5 0.0000 0.0000 0.0000 0.0000 15.5866 0.0000
# 6 0.0000 0.0000 0.0000 0.0000 0.0000 3.2726
#
#
#
# Elastic Compliance Matrix: (Units=1/GPa)
#
#
# Indices 1 2 3 4 5 6 
#
# 1 0.025093 0.001478 -0.042051 0.000000 0.000000 0.000000
# 2 0.001478 0.026423 -0.079953 0.000000 0.000000 0.000000
# 3 -0.042051 -0.079953 0.376242 0.000000 0.000000 0.000000
# 4 0.000000 0.000000 0.000000 0.056694 0.000000 0.000000
# 5 0.000000 0.000000 0.000000 0.000000 0.064158 0.000000
# 6 0.000000 0.000000 0.000000 0.000000 0.000000 0.305569
#
#
# Mechanical properties :
#
#
# Convention : Reuss Voigt Hill
#
# Bulk Modulus (GPa) = 5.35601 50.46871 27.91236
# Shear Modulus (GPa) = 4.31979 15.25526 9.78752
#
# Velocity S-wave (km/s) = 1.70759 3.20894 2.57033
# Velocity P-wave (km/s) = 2.73918 6.91348 5.25829
#
# Compressibility (1/GPa) = 0.18670599
#
# Stress axis : x y z
#
# Youngs Moduli (GPa) = 39.85218 37.84604 2.65787
#
# Poissons Ratio (x) = -0.05595 0.11177
# Poissons Ratio (y) = -0.05891 0.21250
# Poissons Ratio (z) = 1.67584 3.02589
#
# Static dielectric constant tensor:
#      x y z
#    x 1.478450 0.000000 0.000000 
#    y 0.000000 1.513080 0.000000 
#    z 0.000000 0.000000 1.498010 
# 
# From -- ./inp_files/8285.got.cif
#   From: 2010.05.17/outbox.cif.g08.bks.cpg/sg47_5_cif.got.tgz:8285.got - 2010.06.03 20:15:42.
