data_PCOD9386184
_publ_section_title
;
Structure prediction by ZEFSAII (Michael W. Deem and Ramdas Pophale) SiO2 
 PCOD9386184
Probable space group: P M M M
;
_chemical_formula_sum "Si O2"
_cell_formula_units_Z 40
_cell_length_a 17.683799
_cell_length_b 7.734984
_cell_length_c 13.750854
_cell_angle_alpha 90.000000
_cell_angle_beta 90.000000
_cell_angle_gamma 90.000000
_cell_volume 1880.895470
_symmetry_space_group_name_H-M "P M M M"
_symmetry_group_IT_number 47
_symmetry_cell_setting 'orthorhombic'
loop_
_space_group_symop_operation_xyz
x,y,z
-x,-y,z
x,-y,-z
-x,y,-z
-x,-y,-z
x,y,-z
-x,y,z
x,-y,z
loop_
_atom_site_type_symbol
_atom_site_label
_atom_site_fract_x
_atom_site_fract_y
_atom_site_fract_z
Si Si1 0.500000 0.787737 0.886216
Si Si2 0.249598 0.291263 0.389051
Si Si3 0.808919 0.803053 0.883361
Si Si4 0.344897 0.206049 0.208981
Si Si5 0.085039 0.500000 0.881409
Si Si6 0.082483 0.706370 0.381940
O O1 0.424583 0.727078 0.830302
O O2 0.500000 0.000000 0.885111
O O3 0.500000 0.737646 0.000000
O O4 0.261424 0.233920 0.500000
O O5 0.245332 0.500000 0.389138
O O6 0.317824 0.240852 0.318465
O O7 0.166419 0.226386 0.354122
O O8 0.726854 0.733064 0.853642
O O9 0.872090 0.670898 0.848612
O O10 0.818675 0.000000 0.849235
O O11 0.812442 0.807302 0.000000
O O12 0.348095 0.000000 0.195404
O O13 0.000000 0.500000 0.848472
O O14 0.085563 0.500000 0.000000
O O15 0.082581 0.723379 0.500000
O O16 0.082181 0.500000 0.361914
O O17 0.000000 0.775956 0.348287
#
# Coordination Sequence:
#
# PCOD9386184 Si02
#       6
#     4   8   8   8   4   8
#     4   9  18  36  62  87 108 132 173 227 282 348
#     4   9  18  32  51  75 107 149 189 225 271 327
#     4   9  18  33  54  80 110 145 185 231 286 346
#     4  10  20  34  56  82 106 138 178 227 288 342
#     4   9  18  32  52  79 110 150 195 233 276 332
#     4   7  10  20  41  67  92 123 171 223 260 296
#
# _framework density 21.266468
#
# number of rings (size 3 to 8) (size 9 to 14) (size 15 to 20)
#    0.000    3.200    0.000    2.400    1.400    3.200 
#    0.000    4.000    0.000    5.400    0.000    2.800 
#    0.000    0.000    0.000    0.000    0.000    0.000 
#
# Total GULP energy -223152.542014 kJ/mol
# GULP energy per Si atom -5578.813550 kJ/mol
# Density = 2.121806 g / cm^3
# Si number density = 21.266468 Si / 1000 Ang^3
#
#
#
# Elastic Constant Matrix: (Units=GPa)
#
#
# Indices 1 2 3 4 5 6 
#
# 1 232.8368 48.6770 72.7005 0.0000 0.0000 0.0000
# 2 48.6770 45.7210 10.2734 0.0000 0.0000 0.0000
# 3 72.7005 10.2734 100.6520 0.0000 0.0000 0.0000
# 4 0.0000 0.0000 0.0000 20.3371 0.0000 0.0000
# 5 0.0000 0.0000 0.0000 0.0000 137.2200 0.0000
# 6 0.0000 0.0000 0.0000 0.0000 0.0000 20.8390
#
#
#
# Elastic Compliance Matrix: (Units=1/GPa)
#
#
# Indices 1 2 3 4 5 6 
#
# 1 0.007031 -0.006494 -0.004416 0.000000 0.000000 0.000000
# 2 -0.006494 0.028382 0.001793 0.000000 0.000000 0.000000
# 3 -0.004416 0.001793 0.012942 0.000000 0.000000 0.000000
# 4 0.000000 0.000000 0.000000 0.049171 0.000000 0.000000
# 5 0.000000 0.000000 0.000000 0.000000 0.007288 0.000000
# 6 0.000000 0.000000 0.000000 0.000000 0.000000 0.047987
#
#
# Mechanical properties :
#
#
# Convention : Reuss Voigt Hill
#
# Bulk Modulus (GPa) = 33.19718 71.39019 52.29368
# Shear Modulus (GPa) = 27.61303 52.18314 39.89809
#
# Velocity S-wave (km/s) = 3.60728 4.95893 4.33610
# Velocity P-wave (km/s) = 5.74404 8.15048 7.05068
#
# Compressibility (1/GPa) = 0.03012304
#
# Stress axis : x y z
#
# Youngs Moduli (GPa) = 142.22351 35.23334 77.26959
#
# Poissons Ratio (x) = 0.22879 0.34121
# Poissons Ratio (y) = 0.92354 -0.13857
# Poissons Ratio (z) = 0.62803 -0.06319
#
# Static dielectric constant tensor:
#      x y z
#    x 1.768200 0.000000 0.000000 
#    y 0.000000 1.780290 0.000000 
#    z 0.000000 0.000000 1.815330 
# 
# From -- ./inp_files/23367.got.cif
#   From: 2010.05.17/outbox.cif.g08.bks.cpg/sg47_12_cif.got.tgz:23367.got - 2010.06.03 20:15:42.
