data_PCOD9386497
_publ_section_title
;
Structure prediction by ZEFSAII (Michael W. Deem and Ramdas Pophale) SiO2 
 PCOD9386497
Probable space group: P M M M
;
_chemical_formula_sum "Si O2"
_cell_formula_units_Z 48
_cell_length_a 18.250576
_cell_length_b 15.955824
_cell_length_c 8.381984
_cell_angle_alpha 90.000000
_cell_angle_beta 90.000000
_cell_angle_gamma 90.000000
_cell_volume 2440.858707
_symmetry_space_group_name_H-M "P M M M"
_symmetry_group_IT_number 47
_symmetry_cell_setting 'orthorhombic'
loop_
_space_group_symop_operation_xyz
x,y,z
-x,-y,z
x,-y,-z
-x,y,-z
-x,-y,-z
x,y,-z
-x,y,z
x,-y,z
loop_
_atom_site_type_symbol
_atom_site_label
_atom_site_fract_x
_atom_site_fract_y
_atom_site_fract_z
Si Si1 0.917299 0.000000 0.694176
Si Si2 0.000000 0.402959 0.194821
Si Si3 0.644908 0.093966 0.809855
Si Si4 0.845160 0.326962 0.806797
Si Si5 0.194727 0.142331 0.308797
Si Si6 0.694225 0.592774 0.192272
Si Si7 0.581758 0.733033 0.690346
O O1 0.870963 0.918864 0.741453
O O2 0.920052 0.000000 0.500000
O O3 0.000000 0.000000 0.754390
O O4 0.075074 0.358332 0.247031
O O5 0.000000 0.500000 0.243680
O O6 0.000000 0.401813 0.000000
O O7 0.729806 0.111508 0.768510
O O8 0.600971 0.171906 0.738238
O O9 0.625256 0.000000 0.752529
O O10 0.635580 0.095731 0.000000
O O11 0.824765 0.236041 0.741156
O O12 0.778078 0.387601 0.760233
O O13 0.846245 0.323276 0.000000
O O14 0.203426 0.137439 0.500000
O O15 0.672089 0.500000 0.249438
O O16 0.641636 0.667508 0.247022
O O17 0.692477 0.592261 0.000000
O O18 0.582665 0.728117 0.500000
O O19 0.500000 0.711897 0.749136
#
# Coordination Sequence:
#
# PCOD9386497 Si02
#       7
#     4   4   8   8   8   8   8
#     4   9  20  36  53  79 116 159 200 239 289 352
#     4   9  18  34  57  84 117 156 196 242 294 349
#     4  11  23  40  64  91 120 154 195 244 298 358
#     4  10  20  35  57  86 119 155 199 246 296 350
#     4  11  21  35  58  84 114 155 200 243 292 351
#     4  10  21  38  62  90 120 160 207 250 296 355
#     4  11  25  43  63  90 124 160 199 246 300 359
#
# _framework density 19.665212
#
# number of rings (size 3 to 8) (size 9 to 14) (size 15 to 20)
#    0.000    1.667    2.500    2.000    1.167    5.333 
#    0.000    3.333    0.000    4.000    0.000    0.000 
#    0.000    0.000    0.000    0.000    0.000    0.000 
#
# Total GULP energy -268135.235885 kJ/mol
# GULP energy per Si atom -5586.150748 kJ/mol
# Density = 1.962045 g / cm^3
# Si number density = 19.665212 Si / 1000 Ang^3
#
#
#
# Elastic Constant Matrix: (Units=GPa)
#
#
# Indices 1 2 3 4 5 6 
#
# 1 112.5765 39.7409 14.3605 0.0000 0.0000 0.0000
# 2 39.7409 140.9202 15.0073 0.0000 0.0000 0.0000
# 3 14.3605 15.0073 12.2723 0.0000 0.0000 0.0000
# 4 0.0000 0.0000 0.0000 -2.3420 0.0000 0.0000
# 5 0.0000 0.0000 0.0000 0.0000 21.2731 0.0000
# 6 0.0000 0.0000 0.0000 0.0000 0.0000 6.9728
#
#
#
# Elastic Compliance Matrix: (Units=1/GPa)
#
#
# Indices 1 2 3 4 5 6 
#
# 1 0.010898 -0.001972 -0.010341 0.000000 0.000000 0.000000
# 2 -0.001972 0.008516 -0.008106 0.000000 0.000000 0.000000
# 3 -0.010341 -0.008106 0.103497 0.000000 0.000000 0.000000
# 4 0.000000 0.000000 0.000000 -0.426994 0.000000 0.000000
# 5 0.000000 0.000000 0.000000 0.000000 0.047008 0.000000
# 6 0.000000 0.000000 0.000000 0.000000 0.000000 0.143414
#
#
# Mechanical properties :
#
#
# Convention : Reuss Voigt Hill
#
# Bulk Modulus (GPa) = 12.18424 44.88741 28.53582
# Shear Modulus (GPa) = -109.97233 18.29146 -45.84044
#
# Velocity S-wave (km/s) = -7.48623 3.05313 -4.83332
# Velocity P-wave (km/s) = 8.27742 5.94173 4.07501
#
# Compressibility (1/GPa) = 0.08207322
#
# Stress axis : x y z
#
# Youngs Moduli (GPa) = 91.75865 117.43166 9.66212
#
# Poissons Ratio (x) = 0.23159 0.09992
# Poissons Ratio (y) = 0.18096 0.07832
# Poissons Ratio (z) = 0.94887 0.95186
#
# Static dielectric constant tensor:
#      x y z
#    x 1.680390 0.000000 0.000000 
#    y 0.000000 1.683980 0.000000 
#    z 0.000000 0.000000 1.675380 
# 
# From -- ./inp_files/9146.got.cif
#   From: 2010.05.17/outbox.cif.g08.bks.cpg/sg47_5_cif.got.tgz:9146.got - 2010.06.03 20:15:42.
