data_PCOD9386121
_publ_section_title
;
Structure prediction by ZEFSAII (Michael W. Deem and Ramdas Pophale) SiO2 
 PCOD9386121
Probable space group: P M M M
;
_chemical_formula_sum "Si O2"
_cell_formula_units_Z 48
_cell_length_a 8.950775
_cell_length_b 20.953675
_cell_length_c 14.613258
_cell_angle_alpha 90.000000
_cell_angle_beta 90.000000
_cell_angle_gamma 90.000000
_cell_volume 2740.740363
_symmetry_space_group_name_H-M "P M M M"
_symmetry_group_IT_number 47
_symmetry_cell_setting 'orthorhombic'
loop_
_space_group_symop_operation_xyz
x,y,z
-x,-y,z
x,-y,-z
-x,y,-z
-x,-y,-z
x,y,-z
-x,y,z
x,-y,z
loop_
_atom_site_type_symbol
_atom_site_label
_atom_site_fract_x
_atom_site_fract_y
_atom_site_fract_z
Si Si1 0.177560 0.311923 0.216918
Si Si2 0.821416 0.874648 0.397926
Si Si3 0.678110 0.574170 0.892249
Si Si4 0.179713 0.071489 0.203048
Si Si5 0.322094 0.193722 0.891647
Si Si6 0.677683 0.264947 0.604564
O O1 0.232293 0.376168 0.168266
O O2 0.244837 0.251911 0.161322
O O3 0.241225 0.306505 0.319269
O O4 0.000000 0.307355 0.217446
O O5 0.786701 0.900100 0.500000
O O6 0.786733 0.918320 0.310995
O O7 0.737391 0.807517 0.386306
O O8 0.000000 0.862414 0.395232
O O9 0.500000 0.583678 0.879027
O O10 0.711665 0.500000 0.872231
O O11 0.708701 0.585085 0.000000
O O12 0.259108 0.127341 0.147323
O O13 0.000000 0.077615 0.192322
O O14 0.223151 0.000000 0.174882
O O15 0.500000 0.197066 0.876766
O O16 0.293192 0.198616 0.000000
O O17 0.708425 0.284975 0.500000
O O18 0.500000 0.265695 0.619270
#
# Coordination Sequence:
#
# PCOD9386121 Si02
#       6
#     8   8   8   8   8   8
#     4  12  23  35  57  87 117 148 182 225 278 329
#     4   9  17  31  52  78 108 140 175 218 271 331
#     4   9  19  37  60  86 118 155 191 226 268 321
#     4  10  21  36  54  78 108 143 181 224 280 340
#     4  11  24  40  57  77 103 140 188 236 280 329
#     4  10  20  34  55  82 111 144 183 227 273 323
#
# _framework density 17.513517
#
# number of rings (size 3 to 8) (size 9 to 14) (size 15 to 20)
#    0.000    1.833    1.667    3.500    0.000    6.000 
#    0.000    4.167    0.000    0.500    0.000    7.000 
#    0.000    0.000    0.000    0.000    0.000    0.000 
#
# Total GULP energy -268060.025584 kJ/mol
# GULP energy per Si atom -5584.583866 kJ/mol
# Density = 1.747366 g / cm^3
# Si number density = 17.513517 Si / 1000 Ang^3
#
#
#
# Elastic Constant Matrix: (Units=GPa)
#
#
# Indices 1 2 3 4 5 6 
#
# 1 72.4487 57.5633 70.1235 0.0000 0.0000 0.0000
# 2 57.5633 93.1046 66.7116 0.0000 0.0000 0.0000
# 3 70.1235 66.7116 107.0586 0.0000 0.0000 0.0000
# 4 0.0000 0.0000 0.0000 14.7035 0.0000 0.0000
# 5 0.0000 0.0000 0.0000 0.0000 25.7129 0.0000
# 6 0.0000 0.0000 0.0000 0.0000 0.0000 29.5820
#
#
#
# Elastic Compliance Matrix: (Units=1/GPa)
#
#
# Indices 1 2 3 4 5 6 
#
# 1 0.043886 -0.011809 -0.021387 0.000000 0.000000 0.000000
# 2 -0.011809 0.022582 -0.006337 0.000000 0.000000 0.000000
# 3 -0.021387 -0.006337 0.027298 0.000000 0.000000 0.000000
# 4 0.000000 0.000000 0.000000 0.068011 0.000000 0.000000
# 5 0.000000 0.000000 0.000000 0.000000 0.038891 0.000000
# 6 0.000000 0.000000 0.000000 0.000000 0.000000 0.033804
#
#
# Mechanical properties :
#
#
# Convention : Reuss Voigt Hill
#
# Bulk Modulus (GPa) = 68.02394 73.48988 70.75691
# Shear Modulus (GPa) = 15.70166 19.21391 17.45779
#
# Velocity S-wave (km/s) = 2.99749 3.31583 3.16067
# Velocity P-wave (km/s) = 7.13478 7.53077 7.33545
#
# Compressibility (1/GPa) = 0.01470071
#
# Stress axis : x y z
#
# Youngs Moduli (GPa) = 22.78630 44.28290 36.63310
#
# Poissons Ratio (x) = 0.52294 0.78347
# Poissons Ratio (y) = 0.26908 0.23213
# Poissons Ratio (z) = 0.48733 0.28061
#
# Static dielectric constant tensor:
#      x y z
#    x 1.581730 0.000000 0.000000 
#    y 0.000000 1.564920 0.000000 
#    z 0.000000 0.000000 1.606520 
# 
# From -- ./inp_files/6811.got.cif
#   From: 2010.05.17/outbox.cif.g08.bks.cpg/sg47_4_cif.got.tgz:6811.got - 2010.06.03 20:15:42.
