data_PCOD9386577
_publ_section_title
;
Structure prediction by ZEFSAII (Michael W. Deem and Ramdas Pophale) SiO2 
 PCOD9386577
Probable space group: P M M M
;
_chemical_formula_sum "Si O2"
_cell_formula_units_Z 52
_cell_length_a 11.975057
_cell_length_b 29.005271
_cell_length_c 9.042072
_cell_angle_alpha 90.000000
_cell_angle_beta 90.000000
_cell_angle_gamma 90.000000
_cell_volume 3140.671241
_symmetry_space_group_name_H-M "P M M M"
_symmetry_group_IT_number 47
_symmetry_cell_setting 'orthorhombic'
loop_
_space_group_symop_operation_xyz
x,y,z
-x,-y,z
x,-y,-z
-x,y,-z
-x,-y,-z
x,y,-z
-x,y,z
x,-y,z
loop_
_atom_site_type_symbol
_atom_site_label
_atom_site_fract_x
_atom_site_fract_y
_atom_site_fract_z
Si Si1 0.136172 0.500000 0.670591
Si Si2 0.130826 0.130191 0.324130
Si Si3 0.864132 0.593676 0.829773
Si Si4 0.500000 0.089873 0.677330
Si Si5 0.274892 0.221904 0.322580
Si Si6 0.500000 0.191355 0.823269
Si Si7 0.129905 0.311243 0.322404
Si Si8 0.276784 0.053301 0.174871
O O1 0.169468 0.500000 0.500000
O O2 0.173455 0.453103 0.749958
O O3 0.000000 0.500000 0.675092
O O4 0.143131 0.120869 0.500000
O O5 0.199292 0.176834 0.292682
O O6 0.183828 0.088388 0.233471
O O7 0.000000 0.136457 0.292930
O O8 0.831261 0.640962 0.749829
O O9 0.000000 0.593006 0.825689
O O10 0.829487 0.593746 0.000000
O O11 0.500000 0.092549 0.500000
O O12 0.500000 0.141061 0.746384
O O13 0.610034 0.064480 0.736711
O O14 0.296849 0.222635 0.500000
O O15 0.389286 0.216845 0.234013
O O16 0.205748 0.267642 0.283225
O O17 0.500000 0.186542 0.000000
O O18 0.132084 0.316223 0.500000
O O19 0.000000 0.302987 0.280002
O O20 0.245196 0.000000 0.197464
O O21 0.296547 0.060493 0.000000
#
# Coordination Sequence:
#
# PCOD9386577 Si02
#       8
#     4   8   8   4   8   4   8   8
#     4   9  15  23  37  57  85 126 175 220 259 301
#     4  10  21  37  58  82 107 139 178 214 250 300
#     4   9  16  25  38  60  93 132 172 213 257 303
#     4  12  23  39  62  85 106 132 169 213 259 308
#     4  10  20  36  57  79 104 135 172 213 257 305
#     4  12  24  37  57  82 108 134 165 208 259 312
#     4   9  17  30  49  73 102 136 173 211 252 301
#     4  11  24  40  58  82 111 140 170 209 258 309
#
# _framework density 16.55697
#
# number of rings (size 3 to 8) (size 9 to 14) (size 15 to 20)
#    0.000    1.923    1.538    3.231    0.000    8.000 
#    0.000    1.538    0.000    2.769    0.000    0.000 
#    0.000    0.615    0.000    6.462    0.000    4.923 
#
# Total GULP energy -290256.077749 kJ/mol
# GULP energy per Si atom -5581.847649 kJ/mol
# Density = 1.651929 g / cm^3
# Si number density = 16.556970 Si / 1000 Ang^3
#
#
#
# Elastic Constant Matrix: (Units=GPa)
#
#
# Indices 1 2 3 4 5 6 
#
# 1 86.6833 59.1254 56.5686 0.0000 0.0000 0.0000
# 2 59.1254 161.1866 84.7735 0.0000 0.0000 0.0000
# 3 56.5686 84.7735 92.9823 0.0000 0.0000 0.0000
# 4 0.0000 0.0000 0.0000 -13.6878 0.0000 0.0000
# 5 0.0000 0.0000 0.0000 0.0000 13.9157 0.0000
# 6 0.0000 0.0000 0.0000 0.0000 0.0000 16.4843
#
#
#
# Elastic Compliance Matrix: (Units=1/GPa)
#
#
# Indices 1 2 3 4 5 6 
#
# 1 0.019384 -0.001745 -0.010202 0.000000 0.000000 0.000000
# 2 -0.001745 0.012076 -0.009949 0.000000 0.000000 0.000000
# 3 -0.010202 -0.009949 0.026032 0.000000 0.000000 0.000000
# 4 0.000000 0.000000 0.000000 -0.073058 0.000000 0.000000
# 5 0.000000 0.000000 0.000000 0.000000 0.071862 0.000000
# 6 0.000000 0.000000 0.000000 0.000000 0.000000 0.060664
#
#
# Mechanical properties :
#
#
# Convention : Reuss Voigt Hill
#
# Bulk Modulus (GPa) = 72.98685 82.42079 77.70382
# Shear Modulus (GPa) = 30.24459 12.70142 21.47300
#
# Velocity S-wave (km/s) = 4.27863 2.77272 3.60518
# Velocity P-wave (km/s) = 8.28171 7.75492 8.02264
#
# Compressibility (1/GPa) = 0.01370110
#
# Stress axis : x y z
#
# Youngs Moduli (GPa) = 51.58844 82.80641 38.41397
#
# Poissons Ratio (x) = 0.14446 0.39191
# Poissons Ratio (y) = 0.09000 0.38217
# Poissons Ratio (z) = 0.52633 0.82383
#
# Static dielectric constant tensor:
#      x y z
#    x 1.534870 0.000000 0.000000 
#    y 0.000000 1.545260 0.000000 
#    z 0.000000 0.000000 1.554160 
# 
# From -- ./inp_files/4617.got.cif
#   From: 2010.05.17/outbox.cif.g08.bks.cpg/sg47_3_cif.got.tgz:4617.got - 2010.06.03 20:15:42.
