data_PCOD9386549
_publ_section_title
;
Structure prediction by ZEFSAII (Michael W. Deem and Ramdas Pophale) SiO2 
 PCOD9386549
Probable space group: P M M M
;
_chemical_formula_sum "Si O2"
_cell_formula_units_Z 38
_cell_length_a 23.229637
_cell_length_b 7.492846
_cell_length_c 10.198409
_cell_angle_alpha 90.000000
_cell_angle_beta 90.000000
_cell_angle_gamma 90.000000
_cell_volume 1775.095222
_symmetry_space_group_name_H-M "P M M M"
_symmetry_group_IT_number 47
_symmetry_cell_setting 'orthorhombic'
loop_
_space_group_symop_operation_xyz
x,y,z
-x,-y,z
x,-y,-z
-x,y,-z
-x,-y,-z
x,y,-z
-x,y,z
x,-y,z
loop_
_atom_site_type_symbol
_atom_site_label
_atom_site_fract_x
_atom_site_fract_y
_atom_site_fract_z
Si Si1 0.292605 0.000000 0.500000
Si Si2 0.065576 0.782379 0.350575
Si Si3 0.500000 0.218238 0.651206
Si Si4 0.836726 0.216643 0.850622
Si Si5 0.714295 0.301353 0.725777
Si Si6 0.596875 0.215995 0.854532
O O1 0.291833 0.154345 0.385702
O O2 0.079529 0.728353 0.500000
O O3 0.112768 0.722316 0.246839
O O4 0.000000 0.727156 0.320964
O O5 0.065884 0.000000 0.349617
O O6 0.500000 0.277740 0.500000
O O7 0.555274 0.274212 0.736366
O O8 0.500000 0.000000 0.647360
O O9 0.774993 0.276805 0.798517
O O10 0.836725 0.000000 0.848212
O O11 0.846343 0.273517 0.000000
O O12 0.711546 0.500000 0.670646
O O13 0.661397 0.276336 0.825606
O O14 0.595744 0.000000 0.853358
O O15 0.577781 0.272915 0.000000
#
# Coordination Sequence:
#
# PCOD9386549 Si02
#       6
#     2   8   4   8   8   8
#     4  12  26  48  66  95 137 168 208 272 322 392
#     4   8  15  28  50  81 119 167 222 272 319 378
#     4   9  19  33  60  93 130 178 227 273 323 380
#     4  10  20  35  58  89 128 173 217 268 326 379
#     4  12  26  42  68  98 129 171 215 264 323 386
#     4  10  20  38  64  94 133 178 222 269 324 384
#
# _framework density 21.407302000000001
#
# number of rings (size 3 to 8) (size 9 to 14) (size 15 to 20)
#    0.000    2.000    2.105    1.895    2.947    5.053 
#    0.000    2.632    0.000    2.526    0.000    2.947 
#    0.000    0.000    0.000    0.000    0.000    0.000 
#
# Total GULP energy -211886.681774 kJ/mol
# GULP energy per Si atom -5575.965310 kJ/mol
# Density = 2.135858 g / cm^3
# Si number density = 21.407302 Si / 1000 Ang^3
#
#
#
# Elastic Constant Matrix: (Units=GPa)
#
#
# Indices 1 2 3 4 5 6 
#
# 1 139.7243 6.7516 93.6055 0.0000 0.0000 0.0000
# 2 6.7516 108.9627 37.8472 0.0000 0.0000 0.0000
# 3 93.6055 37.8472 183.8607 0.0000 0.0000 0.0000
# 4 0.0000 0.0000 0.0000 -74.7911 0.0000 0.0000
# 5 0.0000 0.0000 0.0000 0.0000 3.0857 0.0000
# 6 0.0000 0.0000 0.0000 0.0000 0.0000 12.9819
#
#
#
# Elastic Compliance Matrix: (Units=1/GPa)
#
#
# Indices 1 2 3 4 5 6 
#
# 1 0.011047 0.001367 -0.005906 0.000000 0.000000 0.000000
# 2 0.001367 0.010053 -0.002765 0.000000 0.000000 0.000000
# 3 -0.005906 -0.002765 0.009015 0.000000 0.000000 0.000000
# 4 0.000000 0.000000 0.000000 -0.013371 0.000000 0.000000
# 5 0.000000 0.000000 0.000000 0.000000 0.324073 0.000000
# 6 0.000000 0.000000 0.000000 0.000000 0.000000 0.077030
#
#
# Mechanical properties :
#
#
# Convention : Reuss Voigt Hill
#
# Bulk Modulus (GPa) = 64.48706 78.77292 71.62999
# Shear Modulus (GPa) = 11.42529 7.87819 9.65174
#
# Velocity S-wave (km/s) = 2.31272 1.92045 2.12565
# Velocity P-wave (km/s) = 6.10908 6.46488 6.28949
#
# Compressibility (1/GPa) = 0.01550699
#
# Stress axis : x y z
#
# Youngs Moduli (GPa) = 90.52019 99.47026 110.92943
#
# Poissons Ratio (x) = -0.13595 0.65511
# Poissons Ratio (y) = -0.12372 0.30675
# Poissons Ratio (z) = 0.53458 0.27506
#
# Static dielectric constant tensor:
#      x y z
#    x 1.741040 0.000000 0.000000 
#    y 0.000000 1.806280 0.000000 
#    z 0.000000 0.000000 1.726610 
# 
# From -- ./inp_files/12087.got.cif
#   From: 2010.05.17/outbox.cif.g08.bks.cpg/sg47_7_cif.got.tgz:12087.got - 2010.06.03 20:15:42.
