data_PCOD9386609
_publ_section_title
;
Structure prediction by ZEFSAII (Michael W. Deem and Ramdas Pophale) SiO2 
 PCOD9386609
Probable space group: P M M M
;
_chemical_formula_sum "Si O2"
_cell_formula_units_Z 37
_cell_length_a 11.779252
_cell_length_b 18.447270
_cell_length_c 9.509396
_cell_angle_alpha 90.000000
_cell_angle_beta 90.000000
_cell_angle_gamma 90.000000
_cell_volume 2066.344604
_symmetry_space_group_name_H-M "P M M M"
_symmetry_group_IT_number 47
_symmetry_cell_setting 'orthorhombic'
loop_
_space_group_symop_operation_xyz
x,y,z
-x,-y,z
x,-y,-z
-x,y,-z
-x,-y,-z
x,y,-z
-x,y,z
x,-y,z
loop_
_atom_site_type_symbol
_atom_site_label
_atom_site_fract_x
_atom_site_fract_y
_atom_site_fract_z
Si Si1 0.500000 0.000000 0.000000
Si Si2 0.132288 0.210992 0.832861
Si Si3 0.756399 0.919540 0.660377
Si Si4 0.500000 0.897860 0.729601
Si Si5 0.367400 0.500000 0.831010
Si Si6 0.295652 0.341527 0.168242
Si Si7 0.500000 0.268355 0.330516
O O1 0.500000 0.062642 0.122087
O O2 0.198068 0.147145 0.751753
O O3 0.186596 0.290472 0.807965
O O4 0.000000 0.209826 0.794296
O O5 0.142384 0.197067 0.000000
O O6 0.796834 0.912076 0.500000
O O7 0.619452 0.917879 0.659167
O O8 0.790214 0.000000 0.714091
O O9 0.500000 0.811668 0.732949
O O10 0.500000 0.500000 0.778329
O O11 0.298923 0.573168 0.795918
O O12 0.377335 0.500000 0.000000
O O13 0.391737 0.308009 0.266617
O O14 0.323250 0.335417 0.000000
O O15 0.500000 0.265346 0.500000
#
# Coordination Sequence:
#
# PCOD9386609 Si02
#       7
#     1   8   8   4   4   8   4
#     4  12  28  36  58  92 126 162 194 232 296 362
#     4  10  23  40  58  81 110 148 200 252 291 337
#     4  11  23  39  59  83 116 152 188 237 294 351
#     4  12  24  37  56  88 123 150 189 231 289 352
#     4   9  16  30  55  89 121 148 187 232 285 353
#     4  10  20  36  59  84 117 155 192 233 290 354
#     4  12  23  34  56  89 121 151 189 235 292 346
#
# _framework density 17.906016000000001
#
# number of rings (size 3 to 8) (size 9 to 14) (size 15 to 20)
#    0.000    1.405    4.324    1.297    3.027    2.162 
#    0.000    3.784    0.000    3.243    0.000    0.000 
#    0.000    3.459    0.000    0.000    0.000    0.000 
#
# Total GULP energy -205985.246338 kJ/mol
# GULP energy per Si atom -5567.168820 kJ/mol
# Density = 1.786526 g / cm^3
# Si number density = 17.906016 Si / 1000 Ang^3
#
#
#
# Elastic Constant Matrix: (Units=GPa)
#
#
# Indices 1 2 3 4 5 6 
#
# 1 98.2131 59.1932 33.2307 0.0000 0.0000 0.0000
# 2 59.1932 200.0037 50.8679 0.0000 0.0000 0.0000
# 3 33.2307 50.8679 65.0170 0.0000 0.0000 0.0000
# 4 0.0000 0.0000 0.0000 15.2296 0.0000 0.0000
# 5 0.0000 0.0000 0.0000 0.0000 -55.0218 0.0000
# 6 0.0000 0.0000 0.0000 0.0000 0.0000 4.1294
#
#
#
# Elastic Compliance Matrix: (Units=1/GPa)
#
#
# Indices 1 2 3 4 5 6 
#
# 1 0.013450 -0.002787 -0.004694 0.000000 0.000000 0.000000
# 2 -0.002787 0.006819 -0.003911 0.000000 0.000000 0.000000
# 3 -0.004694 -0.003911 0.020840 0.000000 0.000000 0.000000
# 4 0.000000 0.000000 0.000000 0.065661 0.000000 0.000000
# 5 0.000000 0.000000 0.000000 0.000000 -0.018175 0.000000
# 6 0.000000 0.000000 0.000000 0.000000 0.000000 0.242165
#
#
# Mechanical properties :
#
#
# Convention : Reuss Voigt Hill
#
# Bulk Modulus (GPa) = 54.56947 72.20192 63.38569
# Shear Modulus (GPa) = 13.90232 7.53026 10.71629
#
# Velocity S-wave (km/s) = 2.78943 2.05294 2.44903
# Velocity P-wave (km/s) = 6.39658 6.78452 6.59340
#
# Compressibility (1/GPa) = 0.01832527
#
# Stress axis : x y z
#
# Youngs Moduli (GPa) = 74.35086 146.64099 47.98550
#
# Poissons Ratio (x) = 0.40865 0.22524
# Poissons Ratio (y) = 0.20720 0.18767
# Poissons Ratio (z) = 0.34900 0.57351
#
# Static dielectric constant tensor:
#      x y z
#    x 1.618550 0.000000 0.000000 
#    y 0.000000 1.664310 0.000000 
#    z 0.000000 0.000000 1.589560 
# 
# From -- ./inp_files/3805.got.cif
#   From: 2010.05.17/outbox.cif.g08.bks.cpg/sg47_2_cif.got.tgz:3805.got - 2010.06.03 20:15:42.
