data_PCOD9386224
_publ_section_title
;
Structure prediction by ZEFSAII (Michael W. Deem and Ramdas Pophale) SiO2 
 PCOD9386224
Probable space group: P M M M
;
_chemical_formula_sum "Si O2"
_cell_formula_units_Z 64
_cell_length_a 14.875103
_cell_length_b 8.883081
_cell_length_c 25.548343
_cell_angle_alpha 90.000000
_cell_angle_beta 90.000000
_cell_angle_gamma 90.000000
_cell_volume 3375.874880
_symmetry_space_group_name_H-M "P M M M"
_symmetry_group_IT_number 47
_symmetry_cell_setting 'orthorhombic'
loop_
_space_group_symop_operation_xyz
x,y,z
-x,-y,z
x,-y,-z
-x,y,-z
-x,-y,-z
x,y,-z
-x,y,z
x,-y,z
loop_
_atom_site_type_symbol
_atom_site_label
_atom_site_fract_x
_atom_site_fract_y
_atom_site_fract_z
Si Si1 0.393678 0.327851 0.561762
Si Si2 0.746355 0.822846 0.367632
Si Si3 0.394548 0.319749 0.156254
Si Si4 0.282796 0.820948 0.250166
Si Si5 0.104873 0.318800 0.559537
Si Si6 0.098866 0.826010 0.809215
Si Si7 0.899237 0.322061 0.920005
Si Si8 0.289591 0.820383 0.057710
O O1 0.377807 0.308568 0.500000
O O2 0.500000 0.314293 0.570811
O O3 0.366461 0.500000 0.575154
O O4 0.337045 0.212043 0.594851
O O5 0.719705 0.765787 0.309847
O O6 0.831486 0.747949 0.396060
O O7 0.763791 0.000000 0.362770
O O8 0.500000 0.278772 0.154191
O O9 0.386874 0.500000 0.154982
O O10 0.349082 0.258942 0.209426
O O11 0.342064 0.253331 0.106084
O O12 0.181775 0.801181 0.228526
O O13 0.303355 0.000000 0.249570
O O14 0.131610 0.272035 0.500000
O O15 0.110831 0.500000 0.560977
O O16 0.000000 0.277897 0.566696
O O17 0.103720 0.714810 0.858172
O O18 0.000000 0.810808 0.784464
O O19 0.105768 0.000000 0.828825
O O20 0.889683 0.500000 0.929578
O O21 0.813605 0.235199 0.941828
O O22 0.000000 0.276341 0.937679
O O23 0.291515 0.000000 0.064190
O O24 0.327788 0.782665 0.000000
#
# Coordination Sequence:
#
# PCOD9386224 Si02
#       8
#     8   8   8   8   8   8   8   8
#     4   9  19  37  59  80 105 143 190 237 287 345
#     4  11  23  35  53  86 122 152 188 238 293 347
#     4  11  25  44  66  90 115 147 191 245 301 351
#     4  10  22  39  58  83 117 157 194 231 283 347
#     4   9  19  37  59  82 113 158 208 251 293 346
#     4   9  17  32  56  81 107 146 192 230 270 329
#     4  10  20  34  56  88 123 156 191 234 282 329
#     4  11  24  41  63  91 122 157 196 237 284 345
#
# _framework density 18.958048000000002
#
# number of rings (size 3 to 8) (size 9 to 14) (size 15 to 20)
#    0.000    2.000    1.250    2.625    0.000    7.750 
#    0.000    7.500    0.000    1.500    0.000    0.000 
#    0.000    0.000    0.000    0.000    0.000    0.000 
#
# Total GULP energy -357227.681934 kJ/mol
# GULP energy per Si atom -5581.682530 kJ/mol
# Density = 1.891490 g / cm^3
# Si number density = 18.958048 Si / 1000 Ang^3
#
#
#
# Elastic Constant Matrix: (Units=GPa)
#
#
# Indices 1 2 3 4 5 6 
#
# 1 106.1715 38.8800 67.8862 0.0000 0.0000 0.0000
# 2 38.8800 41.1012 42.4597 0.0000 0.0000 0.0000
# 3 67.8862 42.4597 112.6084 0.0000 0.0000 0.0000
# 4 0.0000 0.0000 0.0000 72.5946 0.0000 0.0000
# 5 0.0000 0.0000 0.0000 0.0000 27.3314 0.0000
# 6 0.0000 0.0000 0.0000 0.0000 0.0000 -10.0615
#
#
#
# Elastic Compliance Matrix: (Units=1/GPa)
#
#
# Indices 1 2 3 4 5 6 
#
# 1 0.017178 -0.009094 -0.006927 0.000000 0.000000 0.000000
# 2 -0.009094 0.044668 -0.011360 0.000000 0.000000 0.000000
# 3 -0.006927 -0.011360 0.017340 0.000000 0.000000 0.000000
# 4 0.000000 0.000000 0.000000 0.013775 0.000000 0.000000
# 5 0.000000 0.000000 0.000000 0.000000 0.036588 0.000000
# 6 0.000000 0.000000 0.000000 0.000000 0.000000 -0.099388
#
#
# Mechanical properties :
#
#
# Convention : Reuss Voigt Hill
#
# Bulk Modulus (GPa) = 40.94329 62.03699 51.49014
# Shear Modulus (GPa) = 53.72670 25.34989 39.53830
#
# Velocity S-wave (km/s) = 5.32929 3.66068 4.57176
# Velocity P-wave (km/s) = 7.71441 7.11771 7.42206
#
# Compressibility (1/GPa) = 0.02442403
#
# Stress axis : x y z
#
# Youngs Moduli (GPa) = 58.21430 22.38729 57.67125
#
# Poissons Ratio (x) = 0.20358 0.39948
# Poissons Ratio (y) = 0.52939 0.65516
# Poissons Ratio (z) = 0.40324 0.25433
#
# Static dielectric constant tensor:
#      x y z
#    x 1.654530 0.000000 0.000000 
#    y 0.000000 1.648200 0.000000 
#    z 0.000000 0.000000 1.655680 
# 
# From -- ./inp_files/32802.got.cif
#   From: 2010.05.17/outbox.cif.g08.bks.cpg/sg47_17_cif.got.tgz:32802.got - 2010.06.03 20:15:42.
