data_PCOD9386755
_publ_section_title
;
Structure prediction by ZEFSAII (Michael W. Deem and Ramdas Pophale) SiO2 
 PCOD9386755
Probable space group: P M M M
;
_chemical_formula_sum "Si O2"
_cell_formula_units_Z 37
_cell_length_a 7.613290
_cell_length_b 18.627078
_cell_length_c 12.567051
_cell_angle_alpha 90.000000
_cell_angle_beta 90.000000
_cell_angle_gamma 90.000000
_cell_volume 1782.175560
_symmetry_space_group_name_H-M "P M M M"
_symmetry_group_IT_number 47
_symmetry_cell_setting 'orthorhombic'
loop_
_space_group_symop_operation_xyz
x,y,z
-x,-y,z
x,-y,-z
-x,y,-z
-x,-y,-z
x,y,-z
-x,y,z
x,-y,z
loop_
_atom_site_type_symbol
_atom_site_label
_atom_site_fract_x
_atom_site_fract_y
_atom_site_fract_z
Si Si1 0.285975 0.916693 0.500000
Si Si2 0.000000 0.500000 0.500000
Si Si3 0.707816 0.292966 0.279877
Si Si4 0.788510 0.578991 0.878379
Si Si5 0.711426 0.135045 0.269878
Si Si6 0.282360 0.367408 0.500000
Si Si7 0.792812 0.000000 0.880051
O O1 0.500000 0.912385 0.500000
O O2 0.225246 0.882860 0.389325
O O3 0.237979 0.000000 0.500000
O O4 0.157597 0.437188 0.500000
O O5 0.500000 0.283822 0.289698
O O6 0.738440 0.355804 0.195743
O O7 0.777912 0.215224 0.244286
O O8 0.764187 0.321306 0.395179
O O9 0.728717 0.500000 0.839660
O O10 0.000000 0.576914 0.880480
O O11 0.727483 0.588035 0.000000
O O12 0.500000 0.136241 0.274160
O O13 0.750682 0.071353 0.187740
O O14 0.500000 0.380875 0.500000
O O15 0.000000 0.000000 0.891253
O O16 0.715327 0.000000 0.000000
#
# Coordination Sequence:
#
# PCOD9386755 Si02
#       7
#     4   1   8   8   8   4   4
#     4   9  15  29  60  89 107 134 182 231 279 340
#     4  12  26  40  68  94 126 190 222 248 320 392
#     4  10  22  38  60  88 124 159 195 253 313 366
#     4   9  20  38  59  82 111 151 201 253 300 357
#     4  10  20  38  63  89 115 154 198 242 303 369
#     4  10  24  43  61  97 137 168 215 268 313 376
#     4  11  25  42  57  82 122 161 198 251 314 367
#
# _framework density 20.761140999999999
#
# number of rings (size 3 to 8) (size 9 to 14) (size 15 to 20)
#    0.000    2.162    1.081    1.784    3.027    6.054 
#    0.000    6.486    0.000    0.000    0.000    0.000 
#    0.000    0.000    0.000    0.000    0.000    0.000 
#
# Total GULP energy -206157.148899 kJ/mol
# GULP energy per Si atom -5571.814835 kJ/mol
# Density = 2.071389 g / cm^3
# Si number density = 20.761141 Si / 1000 Ang^3
#
#
#
# Elastic Constant Matrix: (Units=GPa)
#
#
# Indices 1 2 3 4 5 6 
#
# 1 60.0992 22.2606 8.9567 0.0000 0.0000 0.0000
# 2 22.2606 240.3206 123.2487 0.0000 0.0000 0.0000
# 3 8.9567 123.2487 147.0310 0.0000 0.0000 0.0000
# 4 0.0000 0.0000 0.0000 61.8932 0.0000 0.0000
# 5 0.0000 0.0000 0.0000 0.0000 25.9441 0.0000
# 6 0.0000 0.0000 0.0000 0.0000 0.0000 75.3856
#
#
#
# Elastic Compliance Matrix: (Units=1/GPa)
#
#
# Indices 1 2 3 4 5 6 
#
# 1 0.017252 -0.001858 0.000506 0.000000 0.000000 0.000000
# 2 -0.001858 0.007499 -0.006173 0.000000 0.000000 0.000000
# 3 0.000506 -0.006173 0.011945 0.000000 0.000000 0.000000
# 4 0.000000 0.000000 0.000000 0.016157 0.000000 0.000000
# 5 0.000000 0.000000 0.000000 0.000000 0.038544 0.000000
# 6 0.000000 0.000000 0.000000 0.000000 0.000000 0.013265
#
#
# Mechanical properties :
#
#
# Convention : Reuss Voigt Hill
#
# Bulk Modulus (GPa) = 46.19557 84.04252 65.11904
# Shear Modulus (GPa) = 39.39307 52.17692 45.78500
#
# Velocity S-wave (km/s) = 4.36069 5.01862 4.70118
# Velocity P-wave (km/s) = 6.90315 8.61108 7.80398
#
# Compressibility (1/GPa) = 0.02164710
#
# Stress axis : x y z
#
# Youngs Moduli (GPa) = 57.96500 133.35292 83.71857
#
# Poissons Ratio (x) = 0.24772 -0.04238
# Poissons Ratio (y) = 0.10768 0.51678
# Poissons Ratio (z) = -0.02934 0.82316
#
# Static dielectric constant tensor:
#      x y z
#    x 1.789590 0.000000 0.000000 
#    y 0.000000 1.542600 0.000000 
#    z 0.000000 0.000000 1.724690 
# 
# From -- ./inp_files/14909.got.cif
#   From: 2010.05.17/outbox.cif.g08.bks.cpg/sg47_8_cif.got.tgz:14909.got - 2010.06.03 20:15:42.
