data_PCOD9386231
_publ_section_title
;
Structure prediction by ZEFSAII (Michael W. Deem and Ramdas Pophale) SiO2 
 PCOD9386231
Probable space group: P M M M
;
_chemical_formula_sum "Si O2"
_cell_formula_units_Z 64
_cell_length_a 25.609450
_cell_length_b 15.168245
_cell_length_c 8.627473
_cell_angle_alpha 90.000000
_cell_angle_beta 90.000000
_cell_angle_gamma 90.000000
_cell_volume 3351.345441
_symmetry_space_group_name_H-M "P M M M"
_symmetry_group_IT_number 47
_symmetry_cell_setting 'orthorhombic'
loop_
_space_group_symop_operation_xyz
x,y,z
-x,-y,z
x,-y,-z
-x,y,-z
-x,-y,-z
x,y,-z
-x,y,z
x,-y,z
loop_
_atom_site_type_symbol
_atom_site_label
_atom_site_fract_x
_atom_site_fract_y
_atom_site_fract_z
Si Si1 0.580041 0.904176 0.316650
Si Si2 0.134956 0.745485 0.318454
Si Si3 0.342893 0.602303 0.187747
Si Si4 0.248983 0.726336 0.817363
Si Si5 0.705698 0.097955 0.682047
Si Si6 0.059338 0.101737 0.310952
Si Si7 0.061169 0.603493 0.182301
Si Si8 0.442225 0.708425 0.312368
O O1 0.566523 0.905773 0.500000
O O2 0.642902 0.900603 0.306187
O O3 0.560588 0.810397 0.255802
O O4 0.563423 0.000000 0.251691
O O5 0.142706 0.759951 0.500000
O O6 0.190892 0.723496 0.248028
O O7 0.103921 0.831442 0.255300
O O8 0.096614 0.664456 0.286476
O O9 0.342225 0.500000 0.236179
O O10 0.291392 0.655352 0.243216
O O11 0.394549 0.652294 0.246346
O O12 0.343293 0.604720 0.000000
O O13 0.271028 0.822879 0.778349
O O14 0.245927 0.713312 0.000000
O O15 0.718657 0.110120 0.500000
O O16 0.723531 0.000000 0.728849
O O17 0.059451 0.104398 0.500000
O O18 0.000000 0.126818 0.262767
O O19 0.068371 0.000000 0.265955
O O20 0.070854 0.500000 0.208152
O O21 0.000000 0.620100 0.210914
O O22 0.071406 0.621655 0.000000
O O23 0.437211 0.710135 0.500000
O O24 0.500000 0.673169 0.274229
#
# Coordination Sequence:
#
# PCOD9386231 Si02
#       8
#     8   8   8   8   8   8   8   8
#     4   8  14  27  50  80 113 146 176 208 254 314
#     4  11  22  34  54  85 116 145 184 234 285 337
#     4  10  23  43  62  77  99 140 190 234 280 337
#     4  11  23  38  56  79 108 145 189 235 283 335
#     4   9  17  32  56  81 106 141 182 222 267 322
#     4   8  15  30  52  78 110 148 187 225 267 316
#     4   9  19  37  59  81 109 147 185 223 276 339
#     4  10  20  34  57  89 119 143 174 222 275 328
#
# _framework density 19.096809
#
# number of rings (size 3 to 8) (size 9 to 14) (size 15 to 20)
#    0.000    2.500    1.250    2.625    0.000    3.750 
#    0.000    5.625    0.000    1.500    0.000    5.250 
#    0.000    0.000    0.000    0.000    0.000    0.000 
#
# Total GULP energy -356923.988697 kJ/mol
# GULP energy per Si atom -5576.937323 kJ/mol
# Density = 1.905334 g / cm^3
# Si number density = 19.096809 Si / 1000 Ang^3
#
#
#
# Elastic Constant Matrix: (Units=GPa)
#
#
# Indices 1 2 3 4 5 6 
#
# 1 87.4653 68.7413 24.7899 0.0000 0.0000 0.0000
# 2 68.7413 113.1416 21.1758 0.0000 0.0000 0.0000
# 3 24.7899 21.1758 10.4632 0.0000 0.0000 0.0000
# 4 0.0000 0.0000 0.0000 15.8714 0.0000 0.0000
# 5 0.0000 0.0000 0.0000 0.0000 31.1038 0.0000
# 6 0.0000 0.0000 0.0000 0.0000 0.0000 -27.0111
#
#
#
# Elastic Compliance Matrix: (Units=1/GPa)
#
#
# Indices 1 2 3 4 5 6 
#
# 1 0.041972 -0.011090 -0.076998 0.000000 0.000000 0.000000
# 2 -0.011090 0.017158 -0.008450 0.000000 0.000000 0.000000
# 3 -0.076998 -0.008450 0.295101 0.000000 0.000000 0.000000
# 4 0.000000 0.000000 0.000000 0.063007 0.000000 0.000000
# 5 0.000000 0.000000 0.000000 0.000000 0.032150 0.000000
# 6 0.000000 0.000000 0.000000 0.000000 0.000000 -0.037022
#
#
# Mechanical properties :
#
#
# Convention : Reuss Voigt Hill
#
# Bulk Modulus (GPa) = 6.20520 48.94267 27.57393
# Shear Modulus (GPa) = 7.58540 10.41701 9.00121
#
# Velocity S-wave (km/s) = 1.99517 2.33809 2.17341
# Velocity P-wave (km/s) = 2.92643 5.74224 4.55726
#
# Compressibility (1/GPa) = 0.16115527
#
# Stress axis : x y z
#
# Youngs Moduli (GPa) = 23.82529 58.28229 3.38867
#
# Poissons Ratio (x) = 0.64634 0.26092
# Poissons Ratio (y) = 0.26422 0.02863
# Poissons Ratio (z) = 1.83450 0.49249
#
# Static dielectric constant tensor:
#      x y z
#    x 1.666100 0.000000 0.000000 
#    y 0.000000 1.677520 0.000000 
#    z 0.000000 0.000000 1.663140 
# 
# From -- ./inp_files/12755.got.cif
#   From: 2010.05.17/outbox.cif.g08.bks.cpg/sg47_7_cif.got.tgz:12755.got - 2010.06.03 20:15:42.
