data_PCOD9386028
_publ_section_title
;
Structure prediction by ZEFSAII (Michael W. Deem and Ramdas Pophale) SiO2 
 PCOD9386028
Probable space group: P M M M
;
_chemical_formula_sum "Si O2"
_cell_formula_units_Z 37
_cell_length_a 9.096574
_cell_length_b 11.719572
_cell_length_c 18.230478
_cell_angle_alpha 90.000000
_cell_angle_beta 90.000000
_cell_angle_gamma 90.000000
_cell_volume 1943.513959
_symmetry_space_group_name_H-M "P M M M"
_symmetry_group_IT_number 47
_symmetry_cell_setting 'orthorhombic'
loop_
_space_group_symop_operation_xyz
x,y,z
-x,-y,z
x,-y,-z
-x,y,-z
-x,-y,-z
x,y,-z
-x,y,z
x,-y,z
loop_
_atom_site_type_symbol
_atom_site_label
_atom_site_fract_x
_atom_site_fract_y
_atom_site_fract_z
Si Si1 0.667243 0.749248 0.080296
Si Si2 0.176973 0.000000 0.705688
Si Si3 0.322815 0.636324 0.500000
Si Si4 0.000000 0.000000 0.000000
Si Si5 0.739042 0.000000 0.121820
Si Si6 0.327676 0.364363 0.774847
Si Si7 0.823555 0.244345 0.359678
O O1 0.500000 0.705984 0.075214
O O2 0.734661 0.683220 0.148488
O O3 0.661667 0.881790 0.101619
O O4 0.737681 0.736404 0.000000
O O5 0.231112 0.000000 0.790388
O O6 0.219535 0.114139 0.661333
O O7 0.000000 0.000000 0.710740
O O8 0.286064 0.500000 0.500000
O O9 0.500000 0.644354 0.500000
O O10 0.255779 0.700659 0.429660
O O11 0.875197 0.000000 0.065708
O O12 0.500000 0.326765 0.766106
O O13 0.327746 0.500000 0.775325
O O14 0.229865 0.317249 0.709605
O O15 0.000000 0.248521 0.369162
#
# Coordination Sequence:
#
# PCOD9386028 Si02
#       7
#     8   4   4   1   4   8   8
#     4  10  20  34  54  80 112 152 201 255 301 350
#     4  10  22  38  59  88 125 159 193 242 302 359
#     4  11  25  46  69  94 126 159 196 245 298 357
#     4  12  24  28  62  84 122 166 204 254 312 370
#     4  12  19  35  53  85 115 156 203 245 301 362
#     4  10  21  37  57  84 119 159 203 252 307 360
#     4  11  23  41  66  92 122 158 199 245 299 366
#
# _framework density 19.037682
#
# number of rings (size 3 to 8) (size 9 to 14) (size 15 to 20)
#    0.000    1.405    3.784    1.946    0.000    5.622 
#    0.000    6.486    0.000    0.000    0.000    2.270 
#    0.000    0.000    0.000    0.000    0.000    0.000 
#
# Total GULP energy -206099.338886 kJ/mol
# GULP energy per Si atom -5570.252402 kJ/mol
# Density = 1.899435 g / cm^3
# Si number density = 19.037682 Si / 1000 Ang^3
#
#
#
# Elastic Constant Matrix: (Units=GPa)
#
#
# Indices 1 2 3 4 5 6 
#
# 1 59.8764 33.5106 49.6321 0.0000 0.0000 0.0000
# 2 33.5106 91.5389 84.6648 0.0000 0.0000 0.0000
# 3 49.6321 84.6648 208.7694 0.0000 0.0000 0.0000
# 4 0.0000 0.0000 0.0000 296.3320 0.0000 0.0000
# 5 0.0000 0.0000 0.0000 0.0000 25.0608 0.0000
# 6 0.0000 0.0000 0.0000 0.0000 0.0000 21.2757
#
#
#
# Elastic Compliance Matrix: (Units=1/GPa)
#
#
# Indices 1 2 3 4 5 6 
#
# 1 0.022249 -0.005205 -0.003178 0.000000 0.000000 0.000000
# 2 -0.005205 0.018699 -0.006346 0.000000 0.000000 0.000000
# 3 -0.003178 -0.006346 0.008119 0.000000 0.000000 0.000000
# 4 0.000000 0.000000 0.000000 0.003375 0.000000 0.000000
# 5 0.000000 0.000000 0.000000 0.000000 0.039903 0.000000
# 6 0.000000 0.000000 0.000000 0.000000 0.000000 0.047002
#
#
# Mechanical properties :
#
#
# Convention : Reuss Voigt Hill
#
# Bulk Modulus (GPa) = 50.99891 77.31108 64.15500
# Shear Modulus (GPa) = 28.51580 81.35884 54.93732
#
# Velocity S-wave (km/s) = 3.87442 6.54435 5.37771
# Velocity P-wave (km/s) = 6.84554 9.88950 8.50481
#
# Compressibility (1/GPa) = 0.01960826
#
# Stress axis : x y z
#
# Youngs Moduli (GPa) = 44.94623 53.47864 123.16605
#
# Poissons Ratio (x) = 0.27836 0.39148
# Poissons Ratio (y) = 0.23395 0.78159
# Poissons Ratio (z) = 0.14286 0.33937
#
# Static dielectric constant tensor:
#      x y z
#    x 1.675780 0.000000 0.000000 
#    y 0.000000 1.654980 0.000000 
#    z 0.000000 0.000000 1.687140 
# 
# From -- ./inp_files/26197.got.cif
#   From: 2010.05.17/outbox.cif.g08.bks.cpg/sg47_14_cif.got.tgz:26197.got - 2010.06.03 20:15:42.
