data_PCOD9386989
_publ_section_title
;
Structure prediction by ZEFSAII (Michael W. Deem and Ramdas Pophale) SiO2 
 PCOD9386989
Probable space group: P M M M
;
_chemical_formula_sum "Si O2"
_cell_formula_units_Z 64
_cell_length_a 14.752424
_cell_length_b 9.387582
_cell_length_c 24.775635
_cell_angle_alpha 90.000000
_cell_angle_beta 90.000000
_cell_angle_gamma 90.000000
_cell_volume 3431.167533
_symmetry_space_group_name_H-M "P M M M"
_symmetry_group_IT_number 47
_symmetry_cell_setting 'orthorhombic'
loop_
_space_group_symop_operation_xyz
x,y,z
-x,-y,z
x,-y,-z
-x,y,-z
-x,-y,-z
x,y,-z
-x,y,z
x,-y,z
loop_
_atom_site_type_symbol
_atom_site_label
_atom_site_fract_x
_atom_site_fract_y
_atom_site_fract_z
Si Si1 0.394090 0.342414 0.837905
Si Si2 0.892055 0.339127 0.832611
Si Si3 0.854597 0.162669 0.940256
Si Si4 0.636926 0.841136 0.939184
Si Si5 0.603796 0.832111 0.564701
Si Si6 0.895321 0.326649 0.713688
Si Si7 0.390214 0.163270 0.261537
Si Si8 0.281005 0.328985 0.351062
O O1 0.500000 0.355130 0.824957
O O2 0.353531 0.500000 0.832423
O O3 0.388206 0.280189 0.897581
O O4 0.358766 0.225648 0.796100
O O5 0.856562 0.500000 0.839883
O O6 0.876658 0.251046 0.886937
O O7 0.862627 0.280208 0.773867
O O8 0.000000 0.348676 0.826028
O O9 0.745698 0.156901 0.941618
O O10 0.887845 0.000000 0.935073
O O11 0.884211 0.217007 0.000000
O O12 0.607267 0.000000 0.921430
O O13 0.604089 0.817376 0.000000
O O14 0.610082 0.818944 0.500000
O O15 0.500000 0.790226 0.580280
O O16 0.680244 0.741557 0.594641
O O17 0.613340 0.000000 0.578405
O O18 0.896828 0.500000 0.716187
O O19 0.820570 0.287995 0.668845
O O20 0.000000 0.280648 0.703768
O O21 0.500000 0.164056 0.264656
O O22 0.348327 0.266963 0.305756
O O23 0.360928 0.000000 0.269081
O O24 0.285551 0.500000 0.353775
#
# Coordination Sequence:
#
# PCOD9386989 Si02
#       8
#     8   8   8   8   8   8   8   8
#     4  10  21  35  50  70  96 124 160 211 263 307
#     4   9  18  33  52  72  95 126 166 210 258 319
#     4   9  19  34  49  68  95 124 157 203 259 319
#     4   9  19  35  51  67  90 123 162 201 248 314
#     4   9  19  37  59  83 117 161 199 226 261 318
#     4   8  17  35  54  75 108 146 181 222 275 330
#     4  10  21  36  52  73 107 147 180 211 258 326
#     4  11  21  32  55  88 114 143 185 232 277 316
#
# _framework density 18.652543000000001
#
# number of rings (size 3 to 8) (size 9 to 14) (size 15 to 20)
#    0.000    2.625    0.000    3.375    1.750    5.250 
#    0.000    5.000    0.000    3.375    0.000    2.625 
#    0.000    0.000    0.000    0.000    0.000    0.000 
#
# Total GULP energy -356697.572252 kJ/mol
# GULP energy per Si atom -5573.399566 kJ/mol
# Density = 1.861009 g / cm^3
# Si number density = 18.652543 Si / 1000 Ang^3
#
#
#
# Elastic Constant Matrix: (Units=GPa)
#
#
# Indices 1 2 3 4 5 6 
#
# 1 88.4711 31.1362 38.5045 0.0000 0.0000 0.0000
# 2 31.1362 65.9063 44.1429 0.0000 0.0000 0.0000
# 3 38.5045 44.1429 85.5424 0.0000 0.0000 0.0000
# 4 0.0000 0.0000 0.0000 32.4123 0.0000 0.0000
# 5 0.0000 0.0000 0.0000 0.0000 31.0338 0.0000
# 6 0.0000 0.0000 0.0000 0.0000 0.0000 18.0625
#
#
#
# Elastic Compliance Matrix: (Units=1/GPa)
#
#
# Indices 1 2 3 4 5 6 
#
# 1 0.014664 -0.003831 -0.004624 0.000000 0.000000 0.000000
# 2 -0.003831 0.024188 -0.010758 0.000000 0.000000 0.000000
# 3 -0.004624 -0.010758 0.019323 0.000000 0.000000 0.000000
# 4 0.000000 0.000000 0.000000 0.030853 0.000000 0.000000
# 5 0.000000 0.000000 0.000000 0.000000 0.032223 0.000000
# 6 0.000000 0.000000 0.000000 0.000000 0.000000 0.055363
#
#
# Mechanical properties :
#
#
# Convention : Reuss Voigt Hill
#
# Bulk Modulus (GPa) = 50.63194 51.94300 51.28747
# Shear Modulus (GPa) = 22.56108 24.71078 23.63593
#
# Velocity S-wave (km/s) = 3.48162 3.64372 3.56359
# Velocity P-wave (km/s) = 6.58529 6.75355 6.66995
#
# Compressibility (1/GPa) = 0.01975038
#
# Stress axis : x y z
#
# Youngs Moduli (GPa) = 68.19613 41.34266 51.75288
#
# Poissons Ratio (x) = 0.15837 0.23928
# Poissons Ratio (y) = 0.26124 0.55674
# Poissons Ratio (z) = 0.31531 0.44475
#
# Static dielectric constant tensor:
#      x y z
#    x 1.682440 0.000000 0.000000 
#    y 0.000000 1.650220 0.000000 
#    z 0.000000 0.000000 1.666270 
# 
# From -- ./inp_files/32794.got.cif
#   From: 2010.05.17/outbox.cif.g08.bks.cpg/sg47_17_cif.got.tgz:32794.got - 2010.06.03 20:15:42.
