data_PCOD9386738
_publ_section_title
;
Structure prediction by ZEFSAII (Michael W. Deem and Ramdas Pophale) SiO2 
 PCOD9386738
Probable space group: P M M M
;
_chemical_formula_sum "Si O2"
_cell_formula_units_Z 37
_cell_length_a 19.586509
_cell_length_b 9.598583
_cell_length_c 10.242971
_cell_angle_alpha 90.000000
_cell_angle_beta 90.000000
_cell_angle_gamma 90.000000
_cell_volume 1925.706535
_symmetry_space_group_name_H-M "P M M M"
_symmetry_group_IT_number 47
_symmetry_cell_setting 'orthorhombic'
loop_
_space_group_symop_operation_xyz
x,y,z
-x,-y,z
x,-y,-z
-x,y,-z
-x,-y,-z
x,y,-z
-x,y,z
x,-y,z
loop_
_atom_site_type_symbol
_atom_site_label
_atom_site_fract_x
_atom_site_fract_y
_atom_site_fract_z
Si Si1 0.080478 0.845026 0.208864
Si Si2 0.631868 0.161730 0.273961
Si Si3 0.500000 0.660711 0.342965
Si Si4 0.293791 0.159248 0.000000
Si Si5 0.740724 0.833747 0.500000
Si Si6 0.000000 0.500000 0.500000
Si Si7 0.891760 0.755442 0.500000
Si Si8 0.158038 0.333746 0.000000
O O1 0.091463 0.831460 0.363750
O O2 0.000000 0.831110 0.182147
O O3 0.102850 0.000000 0.167772
O O4 0.120172 0.729294 0.127042
O O5 0.567548 0.259776 0.296422
O O6 0.693280 0.192921 0.374582
O O7 0.612040 0.000000 0.297586
O O8 0.660881 0.174424 0.128830
O O9 0.500000 0.500000 0.300274
O O10 0.500000 0.663926 0.500000
O O11 0.233509 0.270251 0.000000
O O12 0.265952 0.000000 0.000000
O O13 0.809475 0.743888 0.500000
O O14 0.759245 0.000000 0.500000
O O15 0.060256 0.379309 0.500000
O O16 0.156729 0.500000 0.000000
#
# Coordination Sequence:
#
# PCOD9386738 Si02
#       8
#     8   8   4   4   4   1   4   4
#     4  11  23  42  67  92 119 163 221 275 327 396
#     4  10  21  40  67  96 127 166 215 266 316 374
#     4  11  23  40  63  96 136 172 209 256 316 383
#     4  10  22  42  64  92 127 164 216 269 314 374
#     4  10  20  37  64  95 119 163 223 271 317 379
#     4  12  28  44  58  98 144 178 206 274 356 420
#     4  12  24  43  67  92 134 168 218 275 344 397
#     4  12  27  41  63  92 132 173 209 265 340 401
#
# _framework density 19.213726999999999
#
# number of rings (size 3 to 8) (size 9 to 14) (size 15 to 20)
#    0.000    1.189    2.162    3.892    1.514    6.054 
#    1.946    2.162    0.000    0.000    0.000    0.000 
#    0.000    0.000    0.000    0.000    0.000    0.000 
#
# Total GULP energy -206548.011935 kJ/mol
# GULP energy per Si atom -5582.378701 kJ/mol
# Density = 1.917000 g / cm^3
# Si number density = 19.213727 Si / 1000 Ang^3
#
#
#
# Elastic Constant Matrix: (Units=GPa)
#
#
# Indices 1 2 3 4 5 6 
#
# 1 149.5608 103.7298 43.2407 0.0000 0.0000 0.0000
# 2 103.7298 170.4409 55.5891 0.0000 0.0000 0.0000
# 3 43.2407 55.5891 109.7309 0.0000 0.0000 0.0000
# 4 0.0000 0.0000 0.0000 0.4805 0.0000 0.0000
# 5 0.0000 0.0000 0.0000 0.0000 21.9467 0.0000
# 6 0.0000 0.0000 0.0000 0.0000 0.0000 31.5153
#
#
#
# Elastic Compliance Matrix: (Units=1/GPa)
#
#
# Indices 1 2 3 4 5 6 
#
# 1 0.011701 -0.006729 -0.001202 0.000000 0.000000 0.000000
# 2 -0.006729 0.010898 -0.002869 0.000000 0.000000 0.000000
# 3 -0.001202 -0.002869 0.011040 0.000000 0.000000 0.000000
# 4 0.000000 0.000000 0.000000 2.081320 0.000000 0.000000
# 5 0.000000 0.000000 0.000000 0.000000 0.045565 0.000000
# 6 0.000000 0.000000 0.000000 0.000000 0.000000 0.031731
#
#
# Mechanical properties :
#
#
# Convention : Reuss Voigt Hill
#
# Bulk Modulus (GPa) = 83.06456 92.76131 87.91293
# Shear Modulus (GPa) = 2.25442 25.93336 14.09389
#
# Velocity S-wave (km/s) = 1.08438 3.67785 2.71132
# Velocity P-wave (km/s) = 6.70027 8.14978 7.46031
#
# Compressibility (1/GPa) = 0.01203883
#
# Stress axis : x y z
#
# Youngs Moduli (GPa) = 85.46463 91.75794 90.57628
#
# Poissons Ratio (x) = 0.61744 0.10886
# Poissons Ratio (y) = 0.57509 0.25989
# Poissons Ratio (z) = 0.10272 0.26328
#
# Static dielectric constant tensor:
#      x y z
#    x 1.640380 0.000000 0.000000 
#    y 0.000000 1.648370 0.000000 
#    z 0.000000 0.000000 1.627660 
# 
# From -- ./inp_files/18282.got.cif
#   From: 2010.05.17/outbox.cif.g08.bks.cpg/sg47_10_cif.got.tgz:18282.got - 2010.06.03 20:15:42.
