data_PCOD9386093
_publ_section_title
;
Structure prediction by ZEFSAII (Michael W. Deem and Ramdas Pophale) SiO2 
 PCOD9386093
Probable space group: P M M M
;
_chemical_formula_sum "Si O2"
_cell_formula_units_Z 52
_cell_length_a 7.972896
_cell_length_b 15.019002
_cell_length_c 20.893663
_cell_angle_alpha 90.000000
_cell_angle_beta 90.000000
_cell_angle_gamma 90.000000
_cell_volume 2501.910443
_symmetry_space_group_name_H-M "P M M M"
_symmetry_group_IT_number 47
_symmetry_cell_setting 'orthorhombic'
loop_
_space_group_symop_operation_xyz
x,y,z
-x,-y,z
x,-y,-z
-x,y,-z
-x,-y,-z
x,y,-z
-x,y,z
x,-y,z
loop_
_atom_site_type_symbol
_atom_site_label
_atom_site_fract_x
_atom_site_fract_y
_atom_site_fract_z
Si Si1 0.688666 0.607872 0.500000
Si Si2 0.797187 0.788724 0.926791
Si Si3 0.298107 0.900002 0.808136
Si Si4 0.801518 0.595369 0.922293
Si Si5 0.295390 0.103610 0.571692
Si Si6 0.700651 0.218156 0.691708
Si Si7 0.197296 0.399651 0.358900
O O1 0.683796 0.500000 0.500000
O O2 0.500000 0.644163 0.500000
O O3 0.770815 0.630294 0.432444
O O4 0.745773 0.864471 0.878069
O O5 0.733238 0.691606 0.902563
O O6 0.000000 0.783807 0.928325
O O7 0.740595 0.802879 0.000000
O O8 0.500000 0.902386 0.803175
O O9 0.233734 0.831204 0.754718
O O10 0.235453 0.000000 0.796904
O O11 0.729080 0.500000 0.900571
O O12 0.000000 0.594021 0.906284
O O13 0.791997 0.596463 0.000000
O O14 0.240729 0.129813 0.500000
O O15 0.500000 0.106156 0.571652
O O16 0.234933 0.166933 0.628400
O O17 0.249264 0.000000 0.582542
O O18 0.500000 0.207802 0.691225
O O19 0.735792 0.322562 0.686437
O O20 0.268913 0.500000 0.350862
O O21 0.000000 0.405429 0.349336
#
# Coordination Sequence:
#
# PCOD9386093 Si02
#       7
#     4   8   8   8   8   8   8
#     4   9  17  31  53  79 106 141 186 229 267 312
#     4   9  18  33  55  83 110 137 178 230 275 320
#     4  10  22  39  56  76 106 143 180 220 273 338
#     4   7  10  20  42  72 103 131 159 197 248 303
#     4   8  14  26  47  76 104 127 162 217 270 311
#     4  10  20  34  55  79 104 138 182 225 266 322
#     4  10  21  36  53  77 112 149 183 224 275 326
#
# _framework density 20.784115
#
# number of rings (size 3 to 8) (size 9 to 14) (size 15 to 20)
#    0.000    3.000    0.000    3.000    1.077    5.231 
#    0.000    2.308    0.000    4.615    0.000    3.231 
#    0.000    0.000    0.000    0.000    0.000    0.000 
#
# Total GULP energy -289884.296267 kJ/mol
# GULP energy per Si atom -5574.698005 kJ/mol
# Density = 2.073681 g / cm^3
# Si number density = 20.784115 Si / 1000 Ang^3
#
#
#
# Elastic Constant Matrix: (Units=GPa)
#
#
# Indices 1 2 3 4 5 6 
#
# 1 14.7335 7.9339 7.9777 0.0000 0.0000 0.0000
# 2 7.9339 134.4456 77.2236 0.0000 0.0000 0.0000
# 3 7.9777 77.2236 91.5692 0.0000 0.0000 0.0000
# 4 0.0000 0.0000 0.0000 37.7549 0.0000 0.0000
# 5 0.0000 0.0000 0.0000 0.0000 19.4468 0.0000
# 6 0.0000 0.0000 0.0000 0.0000 0.0000 10.3078
#
#
#
# Elastic Compliance Matrix: (Units=1/GPa)
#
#
# Indices 1 2 3 4 5 6 
#
# 1 0.071339 -0.001241 -0.005169 0.000000 0.000000 0.000000
# 2 -0.001241 0.014447 -0.012076 0.000000 0.000000 0.000000
# 3 -0.005169 -0.012076 0.021555 0.000000 0.000000 0.000000
# 4 0.000000 0.000000 0.000000 0.026487 0.000000 0.000000
# 5 0.000000 0.000000 0.000000 0.000000 0.051422 0.000000
# 6 0.000000 0.000000 0.000000 0.000000 0.000000 0.097014
#
#
# Mechanical properties :
#
#
# Convention : Reuss Voigt Hill
#
# Bulk Modulus (GPa) = 14.21048 47.44652 30.82850
# Shear Modulus (GPa) = 14.59035 23.34279 18.96657
#
# Velocity S-wave (km/s) = 2.65239 3.35491 3.02412
# Velocity P-wave (km/s) = 4.02893 6.15509 5.20180
#
# Compressibility (1/GPa) = 0.07037059
#
# Stress axis : x y z
#
# Youngs Moduli (GPa) = 14.01752 69.21659 46.39290
#
# Poissons Ratio (x) = 0.08590 0.23979
# Poissons Ratio (y) = 0.01740 0.56024
# Poissons Ratio (z) = 0.07245 0.83585
#
# Static dielectric constant tensor:
#      x y z
#    x 1.764030 0.000000 0.000000 
#    y 0.000000 1.793320 0.000000 
#    z 0.000000 0.000000 1.705160 
# 
# From -- ./inp_files/29581.got.cif
#   From: 2010.05.17/outbox.cif.g08.bks.cpg/sg47_15_cif.got.tgz:29581.got - 2010.06.03 20:15:42.
