data_PCOD9386366
_publ_section_title
;
Structure prediction by ZEFSAII (Michael W. Deem and Ramdas Pophale) SiO2 
 PCOD9386366
Probable space group: P M M M
;
_chemical_formula_sum "Si O2"
_cell_formula_units_Z 36
_cell_length_a 25.361108
_cell_length_b 7.694055
_cell_length_c 9.408371
_cell_angle_alpha 90.000000
_cell_angle_beta 90.000000
_cell_angle_gamma 90.000000
_cell_volume 1835.853173
_symmetry_space_group_name_H-M "P M M M"
_symmetry_group_IT_number 47
_symmetry_cell_setting 'orthorhombic'
loop_
_space_group_symop_operation_xyz
x,y,z
-x,-y,z
x,-y,-z
-x,y,-z
-x,-y,-z
x,y,-z
-x,y,z
x,-y,z
loop_
_atom_site_type_symbol
_atom_site_label
_atom_site_fract_x
_atom_site_fract_y
_atom_site_fract_z
Si Si1 0.442052 0.787957 0.834812
Si Si2 0.878481 0.802345 0.832907
Si Si3 0.659440 0.210218 0.663212
Si Si4 0.063113 0.500000 0.665869
Si Si5 0.777087 0.294621 0.664845
O O1 0.500000 0.732955 0.780909
O O2 0.390995 0.726721 0.750336
O O3 0.441628 0.000000 0.829660
O O4 0.438215 0.738870 0.000000
O O5 0.913726 0.667654 0.745516
O O6 0.820252 0.791940 0.764615
O O7 0.897984 0.000000 0.819713
O O8 0.876829 0.756771 0.000000
O O9 0.654979 0.268434 0.500000
O O10 0.717135 0.265958 0.714967
O O11 0.658763 0.000000 0.665026
O O12 0.079541 0.500000 0.500000
O O13 0.000000 0.500000 0.672110
O O14 0.780527 0.232551 0.500000
O O15 0.788032 0.500000 0.664647
#
# Coordination Sequence:
#
# PCOD9386366 Si02
#       5
#     8   8   8   4   8
#     4   8  14  25  41  62  90 125 167 219 280 345
#     4  11  24  41  64  95 129 165 205 251 304 359
#     4   9  17  28  44  70 101 132 173 227 284 345
#     4  11  25  45  69  97 129 167 210 253 296 347
#     4  10  20  35  56  81 112 152 195 240 294 355
#
# _framework density 19.609411000000001
#
# number of rings (size 3 to 8) (size 9 to 14) (size 15 to 20)
#    0.000    2.333    1.111    2.333    0.000    5.333 
#    0.000    6.667    0.000    0.667    0.000    4.667 
#    0.000    0.000    0.000    0.000    0.000    0.000 
#
# Total GULP energy -200983.909946 kJ/mol
# GULP energy per Si atom -5582.886387 kJ/mol
# Density = 1.956478 g / cm^3
# Si number density = 19.609411 Si / 1000 Ang^3
#
#
#
# Elastic Constant Matrix: (Units=GPa)
#
#
# Indices 1 2 3 4 5 6 
#
# 1 132.4695 38.2919 77.3862 0.0000 0.0000 0.0000
# 2 38.2919 71.9422 47.3529 0.0000 0.0000 0.0000
# 3 77.3862 47.3529 110.4159 0.0000 0.0000 0.0000
# 4 0.0000 0.0000 0.0000 10.2060 0.0000 0.0000
# 5 0.0000 0.0000 0.0000 0.0000 815.6985 0.0000
# 6 0.0000 0.0000 0.0000 0.0000 0.0000 23.7781
#
#
#
# Elastic Compliance Matrix: (Units=1/GPa)
#
#
# Indices 1 2 3 4 5 6 
#
# 1 0.012865 -0.001272 -0.008471 0.000000 0.000000 0.000000
# 2 -0.001272 0.019493 -0.007468 0.000000 0.000000 0.000000
# 3 -0.008471 -0.007468 0.018197 0.000000 0.000000 0.000000
# 4 0.000000 0.000000 0.000000 0.097982 0.000000 0.000000
# 5 0.000000 0.000000 0.000000 0.000000 0.001226 0.000000
# 6 0.000000 0.000000 0.000000 0.000000 0.000000 0.042056
#
#
# Mechanical properties :
#
#
# Convention : Reuss Voigt Hill
#
# Bulk Modulus (GPa) = 61.98905 71.20994 66.59950
# Shear Modulus (GPa) = 21.58725 180.05629 100.82177
#
# Velocity S-wave (km/s) = 3.32152 9.59274 7.17820
# Velocity P-wave (km/s) = 6.81106 12.61298 10.13602
#
# Compressibility (1/GPa) = 0.01613188
#
# Stress axis : x y z
#
# Youngs Moduli (GPa) = 77.72800 51.30148 54.95468
#
# Poissons Ratio (x) = 0.06524 0.46555
# Poissons Ratio (y) = 0.09885 0.41042
# Poissons Ratio (z) = 0.65847 0.38313
#
# Static dielectric constant tensor:
#      x y z
#    x 1.680620 0.000000 0.000000 
#    y 0.000000 1.715950 0.000000 
#    z 0.000000 0.000000 1.660730 
# 
# From -- ./inp_files/12067.got.cif
#   From: 2010.05.17/outbox.cif.g08.bks.cpg/sg47_7_cif.got.tgz:12067.got - 2010.06.03 20:15:42.
