data_PCOD9386778
_publ_section_title
;
Structure prediction by ZEFSAII (Michael W. Deem and Ramdas Pophale) SiO2 
 PCOD9386778
Probable space group: P M M M
;
_chemical_formula_sum "Si O2"
_cell_formula_units_Z 54
_cell_length_a 14.466257
_cell_length_b 16.067230
_cell_length_c 13.665135
_cell_angle_alpha 90.000000
_cell_angle_beta 90.000000
_cell_angle_gamma 90.000000
_cell_volume 3176.223930
_symmetry_space_group_name_H-M "P M M M"
_symmetry_group_IT_number 47
_symmetry_cell_setting 'orthorhombic'
loop_
_space_group_symop_operation_xyz
x,y,z
-x,-y,z
x,-y,-z
-x,y,-z
-x,-y,-z
x,y,-z
-x,y,z
x,-y,z
loop_
_atom_site_type_symbol
_atom_site_label
_atom_site_fract_x
_atom_site_fract_y
_atom_site_fract_z
Si Si1 0.350840 0.638560 0.612214
Si Si2 0.104442 0.302977 0.196285
Si Si3 0.110963 0.593351 0.000000
Si Si4 0.388803 0.094998 0.886501
Si Si5 0.610744 0.593681 0.116797
Si Si6 0.302628 0.752093 0.224520
Si Si7 0.500000 0.500000 0.671461
Si Si8 0.863940 0.404128 0.608681
O O1 0.380012 0.648146 0.500000
O O2 0.339593 0.725934 0.668618
O O3 0.419899 0.573442 0.661338
O O4 0.247331 0.601628 0.613581
O O5 0.131096 0.357389 0.100160
O O6 0.191620 0.243166 0.215415
O O7 0.101268 0.357564 0.295273
O O8 0.000000 0.269454 0.179792
O O9 0.151488 0.500000 0.000000
O O10 0.000000 0.585451 0.000000
O O11 0.500000 0.099743 0.881799
O O12 0.346573 0.165358 0.818673
O O13 0.362044 0.000000 0.862000
O O14 0.362701 0.110730 0.000000
O O15 0.500000 0.597046 0.137528
O O16 0.641381 0.500000 0.144989
O O17 0.663310 0.670431 0.164229
O O18 0.620489 0.599996 0.000000
O O19 0.890235 0.371344 0.500000
O O20 0.891583 0.500000 0.613243
#
# Coordination Sequence:
#
# PCOD9386778 Si02
#       8
#     8   8   4   8   8   8   2   8
#     4  10  21  32  45  70 104 143 182 218 256 304
#     4  10  22  35  46  68  97 131 173 216 268 313
#     4   9  18  32  46  60  90 133 174 214 250 311
#     4   9  19  37  60  85 109 130 161 209 261 316
#     4   9  19  32  44  66 101 132 162 203 247 296
#     4  11  22  32  55  75  97 136 173 217 255 306
#     4  12  21  32  48  68 109 156 187 218 258 312
#     4   9  17  32  49  66  92 127 181 238 270 297
#
# _framework density 17.001321000000001
#
# number of rings (size 3 to 8) (size 9 to 14) (size 15 to 20)
#    0.000    2.296    0.741    2.889    5.185    3.556 
#    0.000    0.741    0.000    0.889    0.000    2.074 
#    0.000    0.000    0.000    7.407    0.000    0.000 
#
# Total GULP energy -300679.308490 kJ/mol
# GULP energy per Si atom -5568.135342 kJ/mol
# Density = 1.696262 g / cm^3
# Si number density = 17.001321 Si / 1000 Ang^3
#
#
#
# Elastic Constant Matrix: (Units=GPa)
#
#
# Indices 1 2 3 4 5 6 
#
# 1 80.0773 27.6995 12.0644 0.0000 0.0000 0.0000
# 2 27.6995 77.2586 31.7546 0.0000 0.0000 0.0000
# 3 12.0644 31.7546 98.0069 0.0000 0.0000 0.0000
# 4 0.0000 0.0000 0.0000 17.7401 0.0000 0.0000
# 5 0.0000 0.0000 0.0000 0.0000 70.9462 0.0000
# 6 0.0000 0.0000 0.0000 0.0000 0.0000 -1.2233
#
#
#
# Elastic Compliance Matrix: (Units=1/GPa)
#
#
# Indices 1 2 3 4 5 6 
#
# 1 0.014257 -0.005065 -0.000114 0.000000 0.000000 0.000000
# 2 -0.005065 0.016731 -0.004798 0.000000 0.000000 0.000000
# 3 -0.000114 -0.004798 0.011772 0.000000 0.000000 0.000000
# 4 0.000000 0.000000 0.000000 0.056369 0.000000 0.000000
# 5 0.000000 0.000000 0.000000 0.000000 0.014095 0.000000
# 6 0.000000 0.000000 0.000000 0.000000 0.000000 -0.817469
#
#
# Mechanical properties :
#
#
# Convention : Reuss Voigt Hill
#
# Bulk Modulus (GPa) = 43.84507 44.26444 44.05475
# Shear Modulus (GPa) = -7.38891 29.74756 11.17932
#
# Velocity S-wave (km/s) = -2.08699 4.18750 2.56707
# Velocity P-wave (km/s) = 4.47637 7.03368 5.89536
#
# Compressibility (1/GPa) = 0.02280758
#
# Stress axis : x y z
#
# Youngs Moduli (GPa) = 70.14071 59.76828 84.94865
#
# Poissons Ratio (x) = 0.30271 0.00969
# Poissons Ratio (y) = 0.35524 0.40755
# Poissons Ratio (z) = 0.00800 0.28674
#
# Static dielectric constant tensor:
#      x y z
#    x 1.620990 0.000000 0.000000 
#    y 0.000000 1.523020 0.000000 
#    z 0.000000 0.000000 1.654470 
# 
# From -- ./inp_files/23893.got.cif
#   From: 2010.05.17/outbox.cif.g08.bks.cpg/sg47_12_cif.got.tgz:23893.got - 2010.06.03 20:15:42.
