data_PCOD9386000
_publ_section_title
;
Structure prediction by ZEFSAII (Michael W. Deem and Ramdas Pophale) SiO2 
 PCOD9386000
Probable space group: P M M M
;
_chemical_formula_sum "Si O2"
_cell_formula_units_Z 48
_cell_length_a 8.007700
_cell_length_b 33.012234
_cell_length_c 9.396053
_cell_angle_alpha 90.000000
_cell_angle_beta 90.000000
_cell_angle_gamma 90.000000
_cell_volume 2483.866025
_symmetry_space_group_name_H-M "P M M M"
_symmetry_group_IT_number 47
_symmetry_cell_setting 'orthorhombic'
loop_
_space_group_symop_operation_xyz
x,y,z
-x,-y,z
x,-y,-z
-x,y,-z
-x,-y,-z
x,y,-z
-x,y,z
x,-y,z
loop_
_atom_site_type_symbol
_atom_site_label
_atom_site_fract_x
_atom_site_fract_y
_atom_site_fract_z
Si Si1 0.299565 0.334499 0.661067
Si Si2 0.000000 0.048529 0.166719
Si Si3 0.198626 0.412852 0.163198
Si Si4 0.702296 0.743277 0.162965
Si Si5 0.699050 0.500000 0.163416
Si Si6 0.310150 0.911814 0.329541
Si Si7 0.801935 0.821974 0.663675
O O1 0.233891 0.335325 0.500000
O O2 0.500000 0.330644 0.653830
O O3 0.262105 0.375726 0.744072
O O4 0.236806 0.295464 0.747652
O O5 0.834769 0.065567 0.244110
O O6 0.000000 0.000000 0.175912
O O7 0.000000 0.060264 0.000000
O O8 0.244264 0.457061 0.224904
O O9 0.000000 0.410259 0.156263
O O10 0.265622 0.410327 0.000000
O O11 0.500000 0.742580 0.163167
O O12 0.758045 0.784822 0.235658
O O13 0.759022 0.740682 0.000000
O O14 0.500000 0.500000 0.159774
O O15 0.765602 0.500000 0.000000
O O16 0.284554 0.917160 0.500000
O O17 0.500000 0.924637 0.295205
O O18 0.290382 0.863772 0.300804
O O19 0.759481 0.811096 0.500000
O O20 0.000000 0.830197 0.670156
#
# Coordination Sequence:
#
# PCOD9386000 Si02
#       7
#     8   4   8   8   4   8   8
#     4  10  21  37  56  77 104 142 187 232 279 332
#     4  11  25  43  63  91 131 173 211 259 317 376
#     4  10  20  34  54  80 109 139 173 217 270 329
#     4  10  21  36  55  81 112 147 189 235 284 341
#     4   9  17  31  54  81 106 135 172 214 264 323
#     4  10  21  40  67  95 124 163 212 263 314 371
#     4  10  20  36  59  86 118 155 195 242 296 353
#
# _framework density 19.324715000000001
#
# number of rings (size 3 to 8) (size 9 to 14) (size 15 to 20)
#    0.000    2.000    0.833    2.500    0.000    7.667 
#    0.000    2.083    0.000    2.500    0.000    0.000 
#    0.000    0.000    0.000    0.000    0.000    0.000 
#
# Total GULP energy -268052.265518 kJ/mol
# GULP energy per Si atom -5584.422198 kJ/mol
# Density = 1.928073 g / cm^3
# Si number density = 19.324715 Si / 1000 Ang^3
#
#
#
# Elastic Constant Matrix: (Units=GPa)
#
#
# Indices 1 2 3 4 5 6 
#
# 1 75.4059 43.6994 49.7015 0.0000 0.0000 0.0000
# 2 43.6994 113.8570 78.6272 0.0000 0.0000 0.0000
# 3 49.7015 78.6272 113.9009 0.0000 0.0000 0.0000
# 4 0.0000 0.0000 0.0000 46.4919 0.0000 0.0000
# 5 0.0000 0.0000 0.0000 0.0000 22.2831 0.0000
# 6 0.0000 0.0000 0.0000 0.0000 0.0000 28.8843
#
#
#
# Elastic Compliance Matrix: (Units=1/GPa)
#
#
# Indices 1 2 3 4 5 6 
#
# 1 0.019143 -0.003017 -0.006271 0.000000 0.000000 0.000000
# 2 -0.003017 0.017260 -0.010598 0.000000 0.000000 0.000000
# 3 -0.006271 -0.010598 0.018832 0.000000 0.000000 0.000000
# 4 0.000000 0.000000 0.000000 0.021509 0.000000 0.000000
# 5 0.000000 0.000000 0.000000 0.000000 0.044877 0.000000
# 6 0.000000 0.000000 0.000000 0.000000 0.000000 0.034621
#
#
# Mechanical properties :
#
#
# Convention : Reuss Voigt Hill
#
# Bulk Modulus (GPa) = 64.66949 71.91331 68.29140
# Shear Modulus (GPa) = 24.85495 28.27424 26.56460
#
# Velocity S-wave (km/s) = 3.59022 3.82922 3.71164
# Velocity P-wave (km/s) = 7.12204 7.53953 7.33376
#
# Compressibility (1/GPa) = 0.01546324
#
# Stress axis : x y z
#
# Youngs Moduli (GPa) = 52.23843 57.93834 53.10174
#
# Poissons Ratio (x) = 0.17480 0.33298
# Poissons Ratio (y) = 0.15760 0.56278
# Poissons Ratio (z) = 0.32756 0.61404
#
# Static dielectric constant tensor:
#      x y z
#    x 1.679080 0.000000 0.000000 
#    y 0.000000 1.648650 0.000000 
#    z 0.000000 0.000000 1.674050 
# 
# From -- ./inp_files/2544.got.cif
#   From: 2010.05.17/outbox.cif.g08.bks.cpg/sg47_2_cif.got.tgz:2544.got - 2010.06.03 20:15:42.
