data_PCOD9386226
_publ_section_title
;
Structure prediction by ZEFSAII (Michael W. Deem and Ramdas Pophale) SiO2 
 PCOD9386226
Probable space group: P M M M
;
_chemical_formula_sum "Si O2"
_cell_formula_units_Z 37
_cell_length_a 12.816970
_cell_length_b 7.351330
_cell_length_c 18.220391
_cell_angle_alpha 90.000000
_cell_angle_beta 90.000000
_cell_angle_gamma 90.000000
_cell_volume 1716.757601
_symmetry_space_group_name_H-M "P M M M"
_symmetry_group_IT_number 47
_symmetry_cell_setting 'orthorhombic'
loop_
_space_group_symop_operation_xyz
x,y,z
-x,-y,z
x,-y,-z
-x,y,-z
-x,-y,-z
x,y,-z
-x,y,z
x,-y,z
loop_
_atom_site_type_symbol
_atom_site_label
_atom_site_fract_x
_atom_site_fract_y
_atom_site_fract_z
Si Si1 0.500000 0.719164 0.635607
Si Si2 0.500000 0.000000 0.500000
Si Si3 0.774728 0.789047 0.126183
Si Si4 0.000000 0.214532 0.912195
Si Si5 0.879588 0.721434 0.582739
Si Si6 0.719848 0.718368 0.707510
Si Si7 0.619887 0.777438 0.000000
O O1 0.500000 0.500000 0.620119
O O2 0.603887 0.762666 0.681310
O O3 0.500000 0.840433 0.563655
O O4 0.890409 0.708173 0.116207
O O5 0.742726 0.781199 0.210600
O O6 0.686148 0.717103 0.071271
O O7 0.785065 0.000000 0.103831
O O8 0.000000 0.000000 0.891359
O O9 0.000000 0.228091 0.000000
O O10 0.848025 0.777755 0.500000
O O11 0.877956 0.500000 0.582814
O O12 0.802639 0.784384 0.646499
O O13 0.000000 0.775635 0.594648
O O14 0.728441 0.500000 0.708759
O O15 0.500000 0.715711 0.000000
O O16 0.615059 0.000000 0.000000
#
# Coordination Sequence:
#
# PCOD9386226 Si02
#       7
#     4   1   8   4   8   8   4
#     4  10  25  45  65  95 130 166 207 259 316 376
#     4  12  26  44  76  98 122 166 218 264 312 372
#     4  10  20  34  57  82 112 152 199 252 309 373
#     4   9  16  32  55  81 112 151 204 259 319 372
#     4   8  15  30  53  78 104 143 193 235 279 346
#     4  10  22  38  57  83 121 158 193 243 305 366
#     4   9  18  33  54  82 105 143 200 254 299 362
#
# _framework density 21.552257999999998
#
# number of rings (size 3 to 8) (size 9 to 14) (size 15 to 20)
#    0.000    2.595    1.081    0.811    6.054    0.000 
#    0.000    0.541    0.000    1.297    0.000    2.270 
#    0.000    0.000    0.000    0.000    0.000    0.000 
#
# Total GULP energy -206362.633869 kJ/mol
# GULP energy per Si atom -5577.368483 kJ/mol
# Density = 2.150320 g / cm^3
# Si number density = 21.552258 Si / 1000 Ang^3
#
#
#
# Elastic Constant Matrix: (Units=GPa)
#
#
# Indices 1 2 3 4 5 6 
#
# 1 212.2362 22.2231 126.0521 0.0000 0.0000 0.0000
# 2 22.2231 80.1827 7.4440 0.0000 0.0000 0.0000
# 3 126.0521 7.4440 154.2691 0.0000 0.0000 0.0000
# 4 0.0000 0.0000 0.0000 25.4303 0.0000 0.0000
# 5 0.0000 0.0000 0.0000 0.0000 -51.6180 0.0000
# 6 0.0000 0.0000 0.0000 0.0000 0.0000 -10.6460
#
#
#
# Elastic Compliance Matrix: (Units=1/GPa)
#
#
# Indices 1 2 3 4 5 6 
#
# 1 0.009436 -0.001908 -0.007618 0.000000 0.000000 0.000000
# 2 -0.001908 0.012913 0.000936 0.000000 0.000000 0.000000
# 3 -0.007618 0.000936 0.012662 0.000000 0.000000 0.000000
# 4 0.000000 0.000000 0.000000 0.039323 0.000000 0.000000
# 5 0.000000 0.000000 0.000000 0.000000 -0.019373 0.000000
# 6 0.000000 0.000000 0.000000 0.000000 0.000000 -0.093932
#
#
# Mechanical properties :
#
#
# Convention : Reuss Voigt Hill
#
# Bulk Modulus (GPa) = 56.08257 84.23627 70.15942
# Shear Modulus (GPa) = -315.52890 12.03116 -151.74887
#
# Velocity S-wave (km/s) = -12.11279 2.36526 -8.40015
# Velocity P-wave (km/s) = 13.02106 6.82853 7.83962
#
# Compressibility (1/GPa) = 0.01783085
#
# Stress axis : x y z
#
# Youngs Moduli (GPa) = 105.97615 77.43862 78.97829
#
# Poissons Ratio (x) = 0.14775 0.60166
# Poissons Ratio (y) = 0.20221 -0.07392
# Poissons Ratio (z) = 0.80734 -0.07248
#
# Static dielectric constant tensor:
#      x y z
#    x 1.770680 0.000000 0.000000 
#    y 0.000000 1.833730 0.000000 
#    z 0.000000 0.000000 1.711490 
# 
# From -- ./inp_files/27321.got.cif
#   From: 2010.05.17/outbox.cif.g08.bks.cpg/sg47_14_cif.got.tgz:27321.got - 2010.06.03 20:15:42.
