data_PCOD9386859
_publ_section_title
;
Structure prediction by ZEFSAII (Michael W. Deem and Ramdas Pophale) SiO2 
 PCOD9386859
Probable space group: P M M M
;
_chemical_formula_sum "Si O2"
_cell_formula_units_Z 52
_cell_length_a 8.849865
_cell_length_b 14.727214
_cell_length_c 20.624655
_cell_angle_alpha 90.000000
_cell_angle_beta 90.000000
_cell_angle_gamma 90.000000
_cell_volume 2688.090809
_symmetry_space_group_name_H-M "P M M M"
_symmetry_group_IT_number 47
_symmetry_cell_setting 'orthorhombic'
loop_
_space_group_symop_operation_xyz
x,y,z
-x,-y,z
x,-y,-z
-x,y,-z
-x,-y,-z
x,y,-z
-x,y,z
x,-y,z
loop_
_atom_site_type_symbol
_atom_site_label
_atom_site_fract_x
_atom_site_fract_y
_atom_site_fract_z
Si Si1 0.677749 0.606266 0.230512
Si Si2 0.318742 0.605790 0.000000
Si Si3 0.821636 0.717318 0.881947
Si Si4 0.177075 0.892530 0.696415
Si Si5 0.680484 0.397017 0.615680
Si Si6 0.818260 0.784638 0.570445
Si Si7 0.680136 0.895277 0.835942
O O1 0.500000 0.626761 0.219350
O O2 0.701219 0.500000 0.213800
O O3 0.777950 0.670124 0.186138
O O4 0.707415 0.615658 0.307129
O O5 0.256482 0.657509 0.062721
O O6 0.272183 0.500000 0.000000
O O7 0.500000 0.608811 0.000000
O O8 0.758371 0.819575 0.879824
O O9 0.000000 0.717884 0.891154
O O10 0.235402 0.839001 0.633721
O O11 0.269709 0.875951 0.761811
O O12 0.000000 0.868804 0.708165
O O13 0.182935 0.000000 0.682784
O O14 0.500000 0.389000 0.605388
O O15 0.724705 0.500000 0.598522
O O16 0.766464 0.318800 0.578337
O O17 0.766654 0.819626 0.500000
O O18 0.000000 0.790076 0.571509
O O19 0.500000 0.887899 0.841286
O O20 0.724124 0.000000 0.850013
#
# Coordination Sequence:
#
# PCOD9386859 Si02
#       7
#     8   4   8   8   8   8   8
#     4   9  18  34  56  81 109 142 182 228 278 333
#     4  11  25  45  66  87 118 161 201 232 266 315
#     4  12  24  37  58  88 121 153 186 229 277 325
#     4   9  18  34  56  81 109 140 176 223 278 332
#     4   9  19  35  53  73  98 132 177 227 276 326
#     4  10  21  34  48  71 103 139 179 221 270 331
#     4  10  21  38  61  87 114 146 186 231 278 330
#
# _framework density 19.344584000000001
#
# number of rings (size 3 to 8) (size 9 to 14) (size 15 to 20)
#    0.000    2.077    0.000    4.385    0.000    8.615 
#    0.000    5.000    0.000    2.308    0.000    3.231 
#    0.000    0.000    0.000    0.000    0.000    0.000 
#
# Total GULP energy -290481.276431 kJ/mol
# GULP energy per Si atom -5586.178393 kJ/mol
# Density = 1.930056 g / cm^3
# Si number density = 19.344584 Si / 1000 Ang^3
#
#
#
# Elastic Constant Matrix: (Units=GPa)
#
#
# Indices 1 2 3 4 5 6 
#
# 1 49.5933 41.0465 26.6530 0.0000 0.0000 0.0000
# 2 41.0465 105.0479 57.5824 0.0000 0.0000 0.0000
# 3 26.6530 57.5824 43.6396 0.0000 0.0000 0.0000
# 4 0.0000 0.0000 0.0000 12.2909 0.0000 0.0000
# 5 0.0000 0.0000 0.0000 0.0000 20.2839 0.0000
# 6 0.0000 0.0000 0.0000 0.0000 0.0000 27.1867
#
#
#
# Elastic Compliance Matrix: (Units=1/GPa)
#
#
# Indices 1 2 3 4 5 6 
#
# 1 0.031127 -0.006294 -0.010706 0.000000 0.000000 0.000000
# 2 -0.006294 0.035675 -0.043229 0.000000 0.000000 0.000000
# 3 -0.010706 -0.043229 0.086494 0.000000 0.000000 0.000000
# 4 0.000000 0.000000 0.000000 0.081361 0.000000 0.000000
# 5 0.000000 0.000000 0.000000 0.000000 0.049300 0.000000
# 6 0.000000 0.000000 0.000000 0.000000 0.000000 0.036783
#
#
# Mechanical properties :
#
#
# Convention : Reuss Voigt Hill
#
# Bulk Modulus (GPa) = 30.45222 49.87162 40.16192
# Shear Modulus (GPa) = 11.05845 16.81888 13.93867
#
# Velocity S-wave (km/s) = 2.39353 2.95182 2.68721
# Velocity P-wave (km/s) = 4.83888 6.11999 5.51675
#
# Compressibility (1/GPa) = 0.03283833
#
# Stress axis : x y z
#
# Youngs Moduli (GPa) = 32.12633 28.03103 11.56154
#
# Poissons Ratio (x) = 0.17643 0.12378
# Poissons Ratio (y) = 0.20221 0.49979
# Poissons Ratio (z) = 0.34394 1.21174
#
# Static dielectric constant tensor:
#      x y z
#    x 1.649900 0.000000 0.000000 
#    y 0.000000 1.677210 0.000000 
#    z 0.000000 0.000000 1.686490 
# 
# From -- ./inp_files/29613.got.cif
#   From: 2010.05.17/outbox.cif.g08.bks.cpg/sg47_15_cif.got.tgz:29613.got - 2010.06.03 20:15:42.
