data_PCOD9386940
_publ_section_title
;
Structure prediction by ZEFSAII (Michael W. Deem and Ramdas Pophale) SiO2 
 PCOD9386940
Probable space group: P M M M
;
_chemical_formula_sum "Si O2"
_cell_formula_units_Z 52
_cell_length_a 35.494908
_cell_length_b 9.624075
_cell_length_c 7.488589
_cell_angle_alpha 90.000000
_cell_angle_beta 90.000000
_cell_angle_gamma 90.000000
_cell_volume 2558.144363
_symmetry_space_group_name_H-M "P M M M"
_symmetry_group_IT_number 47
_symmetry_cell_setting 'orthorhombic'
loop_
_space_group_symop_operation_xyz
x,y,z
-x,-y,z
x,-y,-z
-x,y,-z
-x,-y,-z
x,y,-z
-x,y,z
x,-y,z
loop_
_atom_site_type_symbol
_atom_site_label
_atom_site_fract_x
_atom_site_fract_y
_atom_site_fract_z
Si Si1 0.000000 0.840550 0.718916
Si Si2 0.929720 0.341627 0.286178
Si Si3 0.621624 0.668708 0.711203
Si Si4 0.776285 0.156452 0.786925
Si Si5 0.540581 0.665065 0.282771
Si Si6 0.844760 0.658097 0.213738
Si Si7 0.703603 0.340934 0.284811
O O1 0.037237 0.758173 0.778490
O O2 0.000000 0.840688 0.500000
O O3 0.000000 0.000000 0.776166
O O4 0.933575 0.348729 0.500000
O O5 0.933408 0.500000 0.217226
O O6 0.887289 0.292682 0.248483
O O7 0.621380 0.701925 0.500000
O O8 0.621481 0.500000 0.725307
O O9 0.581148 0.719283 0.782977
O O10 0.662608 0.710641 0.782543
O O11 0.812013 0.242698 0.715844
O O12 0.738138 0.242256 0.758728
O O13 0.773967 0.000000 0.715558
O O14 0.781461 0.146344 0.000000
O O15 0.541029 0.674849 0.500000
O O16 0.500000 0.722910 0.222316
O O17 0.540146 0.500000 0.241720
O O18 0.841356 0.500000 0.283578
O O19 0.840410 0.650460 0.000000
O O20 0.700862 0.347381 0.500000
O O21 0.710136 0.500000 0.222371
#
# Coordination Sequence:
#
# PCOD9386940 Si02
#       7
#     4   8   8   8   8   8   8
#     4   9  17  29  46  69  96 124 152 181 214 252
#     4   9  17  30  49  71  93 118 149 183 216 253
#     4   7  10  17  29  48  76 107 137 170 209 253
#     4  10  21  35  49  66  90 120 152 187 229 275
#     4   7   8  10  19  38  67 103 136 162 195 246
#     4   9  18  33  51  69  90 117 148 183 225 270
#     4   9  17  29  46  67  90 117 149 185 224 267
#
# _framework density 20.327235000000002
#
# number of rings (size 3 to 8) (size 9 to 14) (size 15 to 20)
#    0.000    3.462    0.000    3.000    0.000    3.385 
#    0.000    1.923    0.000    2.308    0.000    0.000 
#    0.000    1.231    0.000   13.692    0.000   12.308 
#
# Total GULP energy -289633.090423 kJ/mol
# GULP energy per Si atom -5569.867124 kJ/mol
# Density = 2.028097 g / cm^3
# Si number density = 20.327235 Si / 1000 Ang^3
#
#
#
# Elastic Constant Matrix: (Units=GPa)
#
#
# Indices 1 2 3 4 5 6 
#
# 1 261.1147 110.6945 2.3846 0.0000 0.0000 0.0000
# 2 110.6945 80.7003 5.0737 0.0000 0.0000 0.0000
# 3 2.3846 5.0737 55.2823 0.0000 0.0000 0.0000
# 4 0.0000 0.0000 0.0000 6.9115 0.0000 0.0000
# 5 0.0000 0.0000 0.0000 0.0000 25.9391 0.0000
# 6 0.0000 0.0000 0.0000 0.0000 0.0000 -11.9999
#
#
#
# Elastic Compliance Matrix: (Units=1/GPa)
#
#
# Indices 1 2 3 4 5 6 
#
# 1 0.009183 -0.012644 0.000764 0.000000 0.000000 0.000000
# 2 -0.012644 0.029873 -0.002196 0.000000 0.000000 0.000000
# 3 0.000764 -0.002196 0.018258 0.000000 0.000000 0.000000
# 4 0.000000 0.000000 0.000000 0.144686 0.000000 0.000000
# 5 0.000000 0.000000 0.000000 0.000000 0.038552 0.000000
# 6 0.000000 0.000000 0.000000 0.000000 0.000000 -0.083334
#
#
# Mechanical properties :
#
#
# Convention : Reuss Voigt Hill
#
# Bulk Modulus (GPa) = 34.29160 70.37811 52.33486
# Shear Modulus (GPa) = 25.62911 22.76643 24.19777
#
# Velocity S-wave (km/s) = 3.55466 3.35027 3.45398
# Velocity P-wave (km/s) = 5.80981 7.04723 6.45823
#
# Compressibility (1/GPa) = 0.02916166
#
# Stress axis : x y z
#
# Youngs Moduli (GPa) = 108.89703 33.47479 54.77176
#
# Poissons Ratio (x) = 0.42326 -0.04186
# Poissons Ratio (y) = 1.37691 0.12029
# Poissons Ratio (z) = -0.08323 0.07352
#
# Static dielectric constant tensor:
#      x y z
#    x 1.761870 0.000000 0.000000 
#    y 0.000000 1.680190 0.000000 
#    z 0.000000 0.000000 1.786190 
# 
# From -- ./inp_files/20021.got.cif
#   From: 2010.05.17/outbox.cif.g08.bks.cpg/sg47_11_cif.got.tgz:20021.got - 2010.06.03 20:15:42.
