data_PCOD9386045
_publ_section_title
;
Structure prediction by ZEFSAII (Michael W. Deem and Ramdas Pophale) SiO2 
 PCOD9386045
Probable space group: P M M M
;
_chemical_formula_sum "Si O2"
_cell_formula_units_Z 52
_cell_length_a 21.561795
_cell_length_b 15.197981
_cell_length_c 8.154106
_cell_angle_alpha 90.000000
_cell_angle_beta 90.000000
_cell_angle_gamma 90.000000
_cell_volume 2672.065887
_symmetry_space_group_name_H-M "P M M M"
_symmetry_group_IT_number 47
_symmetry_cell_setting 'orthorhombic'
loop_
_space_group_symop_operation_xyz
x,y,z
-x,-y,z
x,-y,-z
-x,y,-z
-x,-y,-z
x,y,-z
-x,y,z
x,-y,z
loop_
_atom_site_type_symbol
_atom_site_label
_atom_site_fract_x
_atom_site_fract_y
_atom_site_fract_z
Si Si1 0.430323 0.309726 0.806725
Si Si2 0.298284 0.733641 0.803200
Si Si3 0.773676 0.903899 0.692252
Si Si4 0.911136 0.903001 0.190454
Si Si5 0.932585 0.293445 0.304236
Si Si6 0.574159 0.500000 0.683906
Si Si7 0.809205 0.397668 0.301645
O O1 0.500000 0.294458 0.737189
O O2 0.368892 0.264929 0.736942
O O3 0.412974 0.411995 0.781945
O O4 0.434349 0.290590 0.000000
O O5 0.267061 0.823182 0.746077
O O6 0.253306 0.654076 0.747948
O O7 0.301109 0.729805 0.000000
O O8 0.790335 0.894648 0.500000
O O9 0.836986 0.902323 0.792981
O O10 0.743987 0.000000 0.714430
O O11 0.930500 0.811486 0.272079
O O12 0.930492 0.000000 0.256533
O O13 0.928837 0.899565 0.000000
O O14 0.932272 0.306220 0.500000
O O15 0.870581 0.343424 0.242306
O O16 0.000000 0.325676 0.241031
O O17 0.500000 0.500000 0.665565
O O18 0.601699 0.500000 0.500000
O O19 0.811066 0.397534 0.500000
O O20 0.809886 0.500000 0.247658
#
# Coordination Sequence:
#
# PCOD9386045 Si02
#       7
#     8   8   8   8   8   4   8
#     4   9  19  35  52  73 107 149 186 221 269 327
#     4  11  22  35  57  85 111 143 183 228 273 322
#     4  10  20  35  57  83 111 143 178 220 273 331
#     4  10  20  34  54  81 112 144 178 220 273 330
#     4  10  21  37  57  80 108 146 189 229 272 325
#     4   9  17  29  47  73 103 137 180 225 266 313
#     4  10  22  39  57  79 109 146 186 230 277 323
#
# _framework density 19.460598000000001
#
# number of rings (size 3 to 8) (size 9 to 14) (size 15 to 20)
#    0.000    2.077    1.538    1.615    1.077    5.231 
#    0.000    3.077    0.000    0.462    0.000    5.385 
#    0.000    0.000    0.000    0.000    0.000    0.000 
#
# Total GULP energy -289786.408114 kJ/mol
# GULP energy per Si atom -5572.815541 kJ/mol
# Density = 1.941630 g / cm^3
# Si number density = 19.460598 Si / 1000 Ang^3
#
#
#
# Elastic Constant Matrix: (Units=GPa)
#
#
# Indices 1 2 3 4 5 6 
#
# 1 153.2948 67.3281 17.8244 0.0000 0.0000 0.0000
# 2 67.3281 109.8805 10.5145 0.0000 0.0000 0.0000
# 3 17.8244 10.5145 18.8150 0.0000 0.0000 0.0000
# 4 0.0000 0.0000 0.0000 0.3659 0.0000 0.0000
# 5 0.0000 0.0000 0.0000 0.0000 13.0572 0.0000
# 6 0.0000 0.0000 0.0000 0.0000 0.0000 -15.0718
#
#
#
# Elastic Compliance Matrix: (Units=1/GPa)
#
#
# Indices 1 2 3 4 5 6 
#
# 1 0.009545 -0.005265 -0.006100 0.000000 0.000000 0.000000
# 2 -0.005265 0.012519 -0.002008 0.000000 0.000000 0.000000
# 3 -0.006100 -0.002008 0.060050 0.000000 0.000000 0.000000
# 4 0.000000 0.000000 0.000000 2.732937 0.000000 0.000000
# 5 0.000000 0.000000 0.000000 0.000000 0.076586 0.000000
# 6 0.000000 0.000000 0.000000 0.000000 0.000000 -0.066349
#
#
# Mechanical properties :
#
#
# Convention : Reuss Voigt Hill
#
# Bulk Modulus (GPa) = 18.06118 52.59160 35.32639
# Shear Modulus (GPa) = 1.74186 12.09182 6.91684
#
# Velocity S-wave (km/s) = 0.94711 2.49539 1.88732
# Velocity P-wave (km/s) = 3.23992 5.94861 4.78973
#
# Compressibility (1/GPa) = 0.05536738
#
# Stress axis : x y z
#
# Youngs Moduli (GPa) = 104.76621 79.87870 16.65266
#
# Poissons Ratio (x) = 0.42055 0.10159
# Poissons Ratio (y) = 0.55158 0.03345
# Poissons Ratio (z) = 0.63910 0.16043
#
# Static dielectric constant tensor:
#      x y z
#    x 1.730250 0.000000 0.000000 
#    y 0.000000 1.678630 0.000000 
#    z 0.000000 0.000000 1.702660 
# 
# From -- ./inp_files/11063.got.cif
#   From: 2010.05.17/outbox.cif.g08.bks.cpg/sg47_6_cif.got.tgz:11063.got - 2010.06.03 20:15:42.
