data_PCOD9386447
_publ_section_title
;
Structure prediction by ZEFSAII (Michael W. Deem and Ramdas Pophale) SiO2 
 PCOD9386447
Probable space group: P M M M
;
_chemical_formula_sum "Si O2"
_cell_formula_units_Z 44
_cell_length_a 7.666433
_cell_length_b 16.023290
_cell_length_c 15.877953
_cell_angle_alpha 90.000000
_cell_angle_beta 90.000000
_cell_angle_gamma 90.000000
_cell_volume 1950.471234
_symmetry_space_group_name_H-M "P M M M"
_symmetry_group_IT_number 47
_symmetry_cell_setting 'orthorhombic'
loop_
_space_group_symop_operation_xyz
x,y,z
-x,-y,z
x,-y,-z
-x,y,-z
-x,-y,-z
x,y,-z
-x,y,z
x,-y,z
loop_
_atom_site_type_symbol
_atom_site_label
_atom_site_fract_x
_atom_site_fract_y
_atom_site_fract_z
Si Si1 0.697885 0.315038 0.838802
Si Si2 0.799181 0.861944 0.904504
Si Si3 0.790015 0.910132 0.274801
Si Si4 0.286673 0.595556 0.330927
Si Si5 0.709211 0.233431 0.591662
Si Si6 0.197385 0.402534 0.000000
O O1 0.500000 0.288785 0.817687
O O2 0.795415 0.233799 0.872909
O O3 0.767494 0.367020 0.759832
O O4 0.701852 0.375100 0.917851
O O5 0.720551 0.904802 0.821340
O O6 0.000000 0.889683 0.911335
O O7 0.724351 0.868976 0.000000
O O8 0.749043 0.830682 0.332956
O O9 0.000000 0.910090 0.268423
O O10 0.734764 0.000000 0.311463
O O11 0.500000 0.592119 0.332065
O O12 0.227360 0.500000 0.345184
O O13 0.231603 0.671110 0.392012
O O14 0.773621 0.204296 0.500000
O O15 0.500000 0.237084 0.588888
O O16 0.180758 0.500000 0.000000
O O17 0.000000 0.366120 0.000000
#
# Coordination Sequence:
#
# PCOD9386447 Si02
#       6
#     8   8   8   8   8   4
#     4  11  20  32  53  78 108 148 192 238 286 337
#     4  10  20  35  57  83 113 148 189 234 285 346
#     4  10  22  40  62  87 116 152 192 236 288 348
#     4   9  18  33  54  82 114 147 186 233 285 340
#     4  10  21  38  61  88 117 150 191 241 294 345
#     4  11  23  35  47  71 110 151 194 241 287 338
#
# _framework density 22.558651999999999
#
# number of rings (size 3 to 8) (size 9 to 14) (size 15 to 20)
#    0.000    1.909    2.727    1.364    0.000    3.273 
#    0.000    5.455    0.000    1.636    0.000    3.818 
#    0.000    0.000    0.000    0.000    0.000    0.000 
#
# Total GULP energy -245337.037513 kJ/mol
# GULP energy per Si atom -5575.841762 kJ/mol
# Density = 2.250731 g / cm^3
# Si number density = 22.558652 Si / 1000 Ang^3
#
#
#
# Elastic Constant Matrix: (Units=GPa)
#
#
# Indices 1 2 3 4 5 6 
#
# 1 49.5940 4.8438 7.0933 0.0000 0.0000 0.0000
# 2 4.8438 151.8030 64.9486 0.0000 0.0000 0.0000
# 3 7.0933 64.9486 152.7791 0.0000 0.0000 0.0000
# 4 0.0000 0.0000 0.0000 27.7646 0.0000 0.0000
# 5 0.0000 0.0000 0.0000 0.0000 12.7857 0.0000
# 6 0.0000 0.0000 0.0000 0.0000 0.0000 13.9398
#
#
#
# Elastic Compliance Matrix: (Units=1/GPa)
#
#
# Indices 1 2 3 4 5 6 
#
# 1 0.020310 -0.000299 -0.000816 0.000000 0.000000 0.000000
# 2 -0.000299 0.008056 -0.003411 0.000000 0.000000 0.000000
# 3 -0.000816 -0.003411 0.008033 0.000000 0.000000 0.000000
# 4 0.000000 0.000000 0.000000 0.036017 0.000000 0.000000
# 5 0.000000 0.000000 0.000000 0.000000 0.078213 0.000000
# 6 0.000000 0.000000 0.000000 0.000000 0.000000 0.071737
#
#
# Mechanical properties :
#
#
# Convention : Reuss Voigt Hill
#
# Bulk Modulus (GPa) = 36.56616 56.43861 46.50239
# Shear Modulus (GPa) = 20.78712 29.38404 25.08558
#
# Velocity S-wave (km/s) = 3.03887 3.61302 3.33831
# Velocity P-wave (km/s) = 5.34392 6.51752 5.95968
#
# Compressibility (1/GPa) = 0.02734769
#
# Stress axis : x y z
#
# Youngs Moduli (GPa) = 49.23774 124.12455 124.48106
#
# Poissons Ratio (x) = 0.03711 0.10156
# Poissons Ratio (y) = 0.01472 0.42461
# Poissons Ratio (z) = 0.04017 0.42339
#
# Static dielectric constant tensor:
#      x y z
#    x 1.898890 0.000000 0.000000 
#    y 0.000000 1.844230 0.000000 
#    z 0.000000 0.000000 1.837860 
# 
# From -- ./inp_files/20928.got.cif
#   From: 2010.05.17/outbox.cif.g08.bks.cpg/sg47_11_cif.got.tgz:20928.got - 2010.06.03 20:15:42.
