data_PCOD9386528
_publ_section_title
;
Structure prediction by ZEFSAII (Michael W. Deem and Ramdas Pophale) SiO2 
 PCOD9386528
Probable space group: P M M M
;
_chemical_formula_sum "Si O2"
_cell_formula_units_Z 40
_cell_length_a 8.027859
_cell_length_b 28.358088
_cell_length_c 9.198095
_cell_angle_alpha 90.000000
_cell_angle_beta 90.000000
_cell_angle_gamma 90.000000
_cell_volume 2093.989852
_symmetry_space_group_name_H-M "P M M M"
_symmetry_group_IT_number 47
_symmetry_cell_setting 'orthorhombic'
loop_
_space_group_symop_operation_xyz
x,y,z
-x,-y,z
x,-y,-z
-x,y,-z
-x,-y,-z
x,y,-z
-x,y,z
x,-y,z
loop_
_atom_site_type_symbol
_atom_site_label
_atom_site_fract_x
_atom_site_fract_y
_atom_site_fract_z
Si Si1 0.299868 0.398863 0.167047
Si Si2 0.801787 0.789248 0.168767
Si Si3 0.297907 0.694482 0.332844
Si Si4 0.198341 0.500000 0.832815
Si Si5 0.313238 0.882602 0.674611
Si Si6 0.000000 0.945977 0.677096
O O1 0.500000 0.396356 0.161399
O O2 0.240268 0.354106 0.258245
O O3 0.254745 0.450077 0.230902
O O4 0.236603 0.396270 0.000000
O O5 0.761730 0.739775 0.244442
O O6 0.713579 0.832208 0.250695
O O7 0.000000 0.797467 0.176628
O O8 0.751688 0.787712 0.000000
O O9 0.243472 0.697198 0.500000
O O10 0.500000 0.694599 0.330881
O O11 0.000000 0.500000 0.837445
O O12 0.265032 0.500000 0.000000
O O13 0.299485 0.876599 0.500000
O O14 0.500000 0.900282 0.705967
O O15 0.165862 0.917716 0.721669
O O16 0.000000 0.946770 0.500000
O O17 0.000000 0.000000 0.727189
#
# Coordination Sequence:
#
# PCOD9386528 Si02
#       6
#     8   8   8   4   8   4
#     4   9  17  31  51  73  99 133 173 216 265 322
#     4  11  23  37  55  80 110 146 187 230 279 335
#     4  10  21  36  54  78 107 139 177 222 275 333
#     4   9  17  29  48  73  98 126 166 217 266 315
#     4  10  20  35  58  86 116 153 194 235 283 336
#     4   9  18  34  57  87 123 157 191 236 283 328
#
# _framework density 19.102288000000001
#
# number of rings (size 3 to 8) (size 9 to 14) (size 15 to 20)
#    0.000    2.200    1.000    2.100    0.000    7.600 
#    0.000    4.500    0.000    4.200    0.000    1.400 
#    0.000    0.000    0.000    0.000    0.000    0.000 
#
# Total GULP energy -223264.603486 kJ/mol
# GULP energy per Si atom -5581.615087 kJ/mol
# Density = 1.905881 g / cm^3
# Si number density = 19.102288 Si / 1000 Ang^3
#
#
#
# Elastic Constant Matrix: (Units=GPa)
#
#
# Indices 1 2 3 4 5 6 
#
# 1 77.2407 59.1822 36.9130 0.0000 0.0000 0.0000
# 2 59.1822 172.4382 49.2029 0.0000 0.0000 0.0000
# 3 36.9130 49.2029 56.8541 0.0000 0.0000 0.0000
# 4 0.0000 0.0000 0.0000 27.9587 0.0000 0.0000
# 5 0.0000 0.0000 0.0000 0.0000 16.4827 0.0000
# 6 0.0000 0.0000 0.0000 0.0000 0.0000 33.0671
#
#
#
# Elastic Compliance Matrix: (Units=1/GPa)
#
#
# Indices 1 2 3 4 5 6 
#
# 1 0.021025 -0.004410 -0.009834 0.000000 0.000000 0.000000
# 2 -0.004410 0.008626 -0.004602 0.000000 0.000000 0.000000
# 3 -0.009834 -0.004602 0.027956 0.000000 0.000000 0.000000
# 4 0.000000 0.000000 0.000000 0.035767 0.000000 0.000000
# 5 0.000000 0.000000 0.000000 0.000000 0.060670 0.000000
# 6 0.000000 0.000000 0.000000 0.000000 0.000000 0.030242
#
#
# Mechanical properties :
#
#
# Convention : Reuss Voigt Hill
#
# Bulk Modulus (GPa) = 50.21260 66.34769 58.28015
# Shear Modulus (GPa) = 21.87073 26.25069 24.06071
#
# Velocity S-wave (km/s) = 3.38735 3.71107 3.55290
# Velocity P-wave (km/s) = 6.45307 7.29184 6.88524
#
# Compressibility (1/GPa) = 0.01991532
#
# Stress axis : x y z
#
# Youngs Moduli (GPa) = 47.56183 115.93187 35.77000
#
# Poissons Ratio (x) = 0.51125 0.35177
# Poissons Ratio (y) = 0.20975 0.16460
# Poissons Ratio (z) = 0.46774 0.53349
#
# Static dielectric constant tensor:
#      x y z
#    x 1.680870 0.000000 0.000000 
#    y 0.000000 1.640240 0.000000 
#    z 0.000000 0.000000 1.652970 
# 
# From -- ./inp_files/1869.got.cif
#   From: 2010.05.17/outbox.cif.g08.bks.cpg/sg47_1_cif.got.tgz:1869.got - 2010.06.03 20:15:42.
