data_PCOD9386951
_publ_section_title
;
Structure prediction by ZEFSAII (Michael W. Deem and Ramdas Pophale) SiO2 
 PCOD9386951
Probable space group: P M M M
;
_chemical_formula_sum "Si O2"
_cell_formula_units_Z 36
_cell_length_a 9.342104
_cell_length_b 7.576524
_cell_length_c 26.528454
_cell_angle_alpha 90.000000
_cell_angle_beta 90.000000
_cell_angle_gamma 90.000000
_cell_volume 1877.701885
_symmetry_space_group_name_H-M "P M M M"
_symmetry_group_IT_number 47
_symmetry_cell_setting 'orthorhombic'
loop_
_space_group_symop_operation_xyz
x,y,z
-x,-y,z
x,-y,-z
-x,y,-z
-x,-y,-z
x,y,-z
-x,y,z
x,-y,z
loop_
_atom_site_type_symbol
_atom_site_label
_atom_site_fract_x
_atom_site_fract_y
_atom_site_fract_z
Si Si1 0.338622 0.711262 0.263572
Si Si2 0.836456 0.787690 0.163308
Si Si3 0.173339 0.789819 0.054237
Si Si4 0.171180 0.708145 0.362998
Si Si5 0.826008 0.000000 0.442669
O O1 0.500000 0.781614 0.263330
O O2 0.345676 0.500000 0.268262
O O3 0.258961 0.747506 0.211325
O O4 0.249543 0.771325 0.312251
O O5 0.779300 0.721137 0.108929
O O6 0.000000 0.723828 0.170862
O O7 0.843783 0.000000 0.159031
O O8 0.000000 0.772465 0.055117
O O9 0.203941 0.000000 0.053148
O O10 0.223092 0.716777 0.000000
O O11 0.200520 0.500000 0.371313
O O12 0.000000 0.726549 0.355856
O O13 0.214943 0.828123 0.410237
O O14 0.773000 0.000000 0.500000
O O15 0.000000 0.000000 0.444834
#
# Coordination Sequence:
#
# PCOD9386951 Si02
#       5
#     8   8   8   8   4
#     4  10  21  35  49  67  95 131 168 206 248 293
#     4   9  17  28  46  73  98 121 155 201 250 299
#     4   7  10  19  37  62  91 119 148 188 240 294
#     4   9  18  33  53  76 103 136 171 208 251 297
#     4   9  18  32  53  83 111 133 164 207 250 295
#
# _framework density 19.172373
#
# number of rings (size 3 to 8) (size 9 to 14) (size 15 to 20)
#    0.000    3.222    0.000    2.667    1.556    2.222 
#    0.000    2.222    0.000    2.667    0.000   10.889 
#    0.000    0.000    0.000    0.000    0.000    0.000 
#
# Total GULP energy -200507.920481 kJ/mol
# GULP energy per Si atom -5569.664458 kJ/mol
# Density = 1.912874 g / cm^3
# Si number density = 19.172373 Si / 1000 Ang^3
#
#
#
# Elastic Constant Matrix: (Units=GPa)
#
#
# Indices 1 2 3 4 5 6 
#
# 1 47.8873 24.5037 68.6068 0.0000 0.0000 0.0000
# 2 24.5037 58.8563 50.1143 0.0000 0.0000 0.0000
# 3 68.6068 50.1143 244.1797 0.0000 0.0000 0.0000
# 4 0.0000 0.0000 0.0000 87.6919 0.0000 0.0000
# 5 0.0000 0.0000 0.0000 0.0000 -5.7819 0.0000
# 6 0.0000 0.0000 0.0000 0.0000 0.0000 10.6366
#
#
#
# Elastic Compliance Matrix: (Units=1/GPa)
#
#
# Indices 1 2 3 4 5 6 
#
# 1 0.037916 -0.008137 -0.008983 0.000000 0.000000 0.000000
# 2 -0.008137 0.022334 -0.002298 0.000000 0.000000 0.000000
# 3 -0.008983 -0.002298 0.007091 0.000000 0.000000 0.000000
# 4 0.000000 0.000000 0.000000 0.011404 0.000000 0.000000
# 5 0.000000 0.000000 0.000000 0.000000 -0.172954 0.000000
# 6 0.000000 0.000000 0.000000 0.000000 0.000000 0.094015
#
#
# Mechanical properties :
#
#
# Convention : Reuss Voigt Hill
#
# Bulk Modulus (GPa) = 35.08016 70.81923 52.94969
# Shear Modulus (GPa) = 103.85658 32.35590 68.10624
#
# Velocity S-wave (km/s) = 7.36801 4.11254 5.96659
# Velocity P-wave (km/s) = 9.52472 7.71809 8.66860
#
# Compressibility (1/GPa) = 0.02850614
#
# Stress axis : x y z
#
# Youngs Moduli (GPa) = 26.37420 44.77383 141.02551
#
# Poissons Ratio (x) = 0.36431 1.26687
# Poissons Ratio (y) = 0.21460 0.32403
# Poissons Ratio (z) = 0.23693 0.10288
#
# Static dielectric constant tensor:
#      x y z
#    x 1.640430 0.000000 0.000000 
#    y 0.000000 1.728200 0.000000 
#    z 0.000000 0.000000 1.691320 
# 
# From -- ./inp_files/31658.got.cif
#   From: 2010.05.17/outbox.cif.g08.bks.cpg/sg47_16_cif.got.tgz:31658.got - 2010.06.03 20:15:42.
