data_PCOD9386298
_publ_section_title
;
Structure prediction by ZEFSAII (Michael W. Deem and Ramdas Pophale) SiO2 
 PCOD9386298
Probable space group: P M M M
;
_chemical_formula_sum "Si O2"
_cell_formula_units_Z 60
_cell_length_a 13.127772
_cell_length_b 13.739839
_cell_length_c 19.613504
_cell_angle_alpha 90.000000
_cell_angle_beta 90.000000
_cell_angle_gamma 90.000000
_cell_volume 3537.755848
_symmetry_space_group_name_H-M "P M M M"
_symmetry_group_IT_number 47
_symmetry_cell_setting 'orthorhombic'
loop_
_space_group_symop_operation_xyz
x,y,z
-x,-y,z
x,-y,-z
-x,y,-z
-x,-y,-z
x,y,-z
-x,y,z
x,-y,z
loop_
_atom_site_type_symbol
_atom_site_label
_atom_site_fract_x
_atom_site_fract_y
_atom_site_fract_z
Si Si1 0.500000 0.609157 0.082640
Si Si2 0.758278 0.112011 0.307004
Si Si3 0.384940 0.189554 0.580423
Si Si4 0.880562 0.384960 0.841638
Si Si5 0.296550 0.273867 0.081573
Si Si6 0.119337 0.307076 0.310729
Si Si7 0.381251 0.884879 0.824672
Si Si8 0.275667 0.388558 0.420111
O O1 0.500000 0.500000 0.109273
O O2 0.604366 0.662102 0.101636
O O3 0.500000 0.606610 0.000000
O O4 0.695264 0.128789 0.376240
O O5 0.844135 0.194962 0.305295
O O6 0.678934 0.132676 0.245646
O O7 0.793086 0.000000 0.301345
O O8 0.375859 0.169677 0.500000
O O9 0.500000 0.168075 0.602266
O O10 0.359701 0.304301 0.590431
O O11 0.863040 0.500000 0.851640
O O12 0.803961 0.323095 0.887739
O O13 0.862587 0.357140 0.762599
O O14 0.000000 0.364829 0.856346
O O15 0.321428 0.171229 0.116279
O O16 0.290848 0.268026 0.000000
O O17 0.185071 0.359928 0.368976
O O18 0.000000 0.312934 0.326047
O O19 0.500000 0.854265 0.820777
O O20 0.380323 0.000000 0.837109
O O21 0.244691 0.381862 0.500000
O O22 0.308999 0.500000 0.407988
#
# Coordination Sequence:
#
# PCOD9386298 Si02
#       8
#     4   8   8   8   8   8   8   8
#     4   9  18  32  51  77 107 139 171 206 256 318
#     4  10  20  35  55  77 103 136 174 216 261 310
#     4   9  18  32  51  77 108 141 176 213 253 300
#     4  10  21  37  57  80 106 140 180 220 264 314
#     4  11  21  35  55  79 108 140 174 216 267 323
#     4  10  20  35  55  77 103 135 173 218 263 308
#     4  10  20  35  56  81 108 139 175 216 265 318
#     4   9  18  32  51  77 108 141 176 213 254 302
#
# _framework density 16.959904000000002
#
# number of rings (size 3 to 8) (size 9 to 14) (size 15 to 20)
#    0.000    2.200    2.000    1.200    0.000    4.000 
#    0.000    4.000    0.000    0.400    0.000    4.667 
#    0.000    0.000    0.000    0.000    0.000    0.000 
#
# Total GULP energy -334553.819636 kJ/mol
# GULP energy per Si atom -5575.896994 kJ/mol
# Density = 1.692130 g / cm^3
# Si number density = 16.959904 Si / 1000 Ang^3
#
#
#
# Elastic Constant Matrix: (Units=GPa)
#
#
# Indices 1 2 3 4 5 6 
#
# 1 33.6625 -12.3267 9.6945 0.0000 0.0000 0.0000
# 2 -12.3267 29.8645 0.6300 0.0000 0.0000 0.0000
# 3 9.6945 0.6300 38.8624 0.0000 0.0000 0.0000
# 4 0.0000 0.0000 0.0000 18.7454 0.0000 0.0000
# 5 0.0000 0.0000 0.0000 0.0000 26.6823 0.0000
# 6 0.0000 0.0000 0.0000 0.0000 0.0000 20.9199
#
#
#
# Elastic Compliance Matrix: (Units=1/GPa)
#
#
# Indices 1 2 3 4 5 6 
#
# 1 0.038426 0.016068 -0.009846 0.000000 0.000000 0.000000
# 2 0.016068 0.040215 -0.004660 0.000000 0.000000 0.000000
# 3 -0.009846 -0.004660 0.028264 0.000000 0.000000 0.000000
# 4 0.000000 0.000000 0.000000 0.053346 0.000000 0.000000
# 5 0.000000 0.000000 0.000000 0.000000 0.037478 0.000000
# 6 0.000000 0.000000 0.000000 0.000000 0.000000 0.047801
#
#
# Mechanical properties :
#
#
# Convention : Reuss Voigt Hill
#
# Bulk Modulus (GPa) = 9.08855 10.93167 10.01011
# Shear Modulus (GPa) = 17.91580 20.22896 19.07238
#
# Velocity S-wave (km/s) = 3.25370 3.45737 3.35708
# Velocity P-wave (km/s) = 4.41428 4.73260 4.57621
#
# Compressibility (1/GPa) = 0.11002855
#
# Stress axis : x y z
#
# Youngs Moduli (GPa) = 26.02391 24.86627 35.38124
#
# Poissons Ratio (x) = -0.39956 0.34837
# Poissons Ratio (y) = -0.41816 0.16489
# Poissons Ratio (z) = 0.25624 0.11588
#
# Static dielectric constant tensor:
#      x y z
#    x 1.549270 0.000000 0.000000 
#    y 0.000000 1.579740 0.000000 
#    z 0.000000 0.000000 1.557280 
# 
# From -- ./inp_files/30563.got.cif
#   From: 2010.05.17/outbox.cif.g08.bks.cpg/sg47_16_cif.got.tgz:30563.got - 2010.06.03 20:15:42.
