data_PCOD9386753
_publ_section_title
;
Structure prediction by ZEFSAII (Michael W. Deem and Ramdas Pophale) SiO2 
 PCOD9386753
Probable space group: P M M M
;
_chemical_formula_sum "Si O2"
_cell_formula_units_Z 44
_cell_length_a 8.169229
_cell_length_b 35.112840
_cell_length_c 7.449647
_cell_angle_alpha 90.000000
_cell_angle_beta 90.000000
_cell_angle_gamma 90.000000
_cell_volume 2136.892733
_symmetry_space_group_name_H-M "P M M M"
_symmetry_group_IT_number 47
_symmetry_cell_setting 'orthorhombic'
loop_
_space_group_symop_operation_xyz
x,y,z
-x,-y,z
x,-y,-z
-x,y,-z
-x,-y,-z
x,y,-z
-x,y,z
x,-y,z
loop_
_atom_site_type_symbol
_atom_site_label
_atom_site_fract_x
_atom_site_fract_y
_atom_site_fract_z
Si Si1 0.806376 0.327200 0.708751
Si Si2 0.803892 0.876961 0.703478
Si Si3 0.198906 0.818230 0.000000
Si Si4 0.318380 0.409067 0.281136
Si Si5 0.306068 0.731176 0.000000
Si Si6 0.000000 0.543951 0.280557
Si Si7 0.305407 0.958889 0.716218
O O1 0.766033 0.320361 0.500000
O O2 0.713134 0.365213 0.770658
O O3 0.000000 0.335485 0.720201
O O4 0.764684 0.291108 0.828607
O O5 0.738299 0.874430 0.500000
O O6 0.745164 0.842838 0.828503
O O7 0.765216 0.918906 0.780032
O O8 0.000000 0.874180 0.694806
O O9 0.259339 0.775303 0.000000
O O10 0.000000 0.817506 0.000000
O O11 0.315587 0.409627 0.500000
O O12 0.500000 0.421506 0.224458
O O13 0.165161 0.434523 0.221754
O O14 0.500000 0.727161 0.000000
O O15 0.000000 0.500000 0.226145
O O16 0.000000 0.544950 0.500000
O O17 0.279318 0.958985 0.500000
O O18 0.500000 0.958237 0.747826
O O19 0.242184 0.000000 0.782618
#
# Coordination Sequence:
#
# PCOD9386753 Si02
#       7
#     8   8   4   8   4   4   8
#     4  10  20  38  63  87 115 152 193 240 296 353
#     4   9  18  33  54  76  99 135 178 217 265 321
#     4  10  22  40  55  73 106 139 175 225 272 329
#     4   9  16  28  48  75 109 150 196 244 293 347
#     4  12  26  40  58  89 119 145 187 238 293 356
#     4   9  16  26  42  71 113 157 200 243 291 348
#     4   8  14  26  46  73 103 133 168 211 257 309
#
# _framework density 20.590646
#
# number of rings (size 3 to 8) (size 9 to 14) (size 15 to 20)
#    0.000    2.636    0.909    1.909    0.000    3.273 
#    0.000    5.909    0.000    2.727    0.000    1.273 
#    0.000    2.182    0.000    0.182    0.000    0.000 
#
# Total GULP energy -245627.285899 kJ/mol
# GULP energy per Si atom -5582.438316 kJ/mol
# Density = 2.054378 g / cm^3
# Si number density = 20.590646 Si / 1000 Ang^3
#
#
#
# Elastic Constant Matrix: (Units=GPa)
#
#
# Indices 1 2 3 4 5 6 
#
# 1 77.3999 55.3146 25.7076 0.0000 0.0000 0.0000
# 2 55.3146 182.2911 50.5249 0.0000 0.0000 0.0000
# 3 25.7076 50.5249 81.4220 0.0000 0.0000 0.0000
# 4 0.0000 0.0000 0.0000 -0.5097 0.0000 0.0000
# 5 0.0000 0.0000 0.0000 0.0000 6.3159 0.0000
# 6 0.0000 0.0000 0.0000 0.0000 0.0000 -20.3907
#
#
#
# Elastic Compliance Matrix: (Units=1/GPa)
#
#
# Indices 1 2 3 4 5 6 
#
# 1 0.016944 -0.004419 -0.002608 0.000000 0.000000 0.000000
# 2 -0.004419 0.007778 -0.003431 0.000000 0.000000 0.000000
# 3 -0.002608 -0.003431 0.015234 0.000000 0.000000 0.000000
# 4 0.000000 0.000000 0.000000 -1.961876 0.000000 0.000000
# 5 0.000000 0.000000 0.000000 0.000000 0.158330 0.000000
# 6 0.000000 0.000000 0.000000 0.000000 0.000000 -0.049042
#
#
# Mechanical properties :
#
#
# Convention : Reuss Voigt Hill
#
# Bulk Modulus (GPa) = 52.51975 67.13414 59.82694
# Shear Modulus (GPa) = -2.80054 11.05415 4.12681
#
# Velocity S-wave (km/s) = -1.16750 2.31952 1.41724
# Velocity P-wave (km/s) = 4.87284 6.31257 5.63884
#
# Compressibility (1/GPa) = 0.01904046
#
# Stress axis : x y z
#
# Youngs Moduli (GPa) = 59.01813 128.57564 65.64201
#
# Poissons Ratio (x) = 0.56814 0.17118
# Poissons Ratio (y) = 0.26078 0.22522
# Poissons Ratio (z) = 0.15391 0.44115
#
# Static dielectric constant tensor:
#      x y z
#    x 1.723010 0.000000 0.000000 
#    y 0.000000 1.680080 0.000000 
#    z 0.000000 0.000000 1.782810 
# 
# From -- ./inp_files/2330.got.cif
#   From: 2010.05.17/outbox.cif.g08.bks.cpg/sg47_2_cif.got.tgz:2330.got - 2010.06.03 20:15:42.
