data_PCOD9386908
_publ_section_title
;
Structure prediction by ZEFSAII (Michael W. Deem and Ramdas Pophale) SiO2 
 PCOD9386908
Probable space group: P M M M
;
_chemical_formula_sum "Si O2"
_cell_formula_units_Z 48
_cell_length_a 9.322447
_cell_length_b 34.809542
_cell_length_c 7.646812
_cell_angle_alpha 90.000000
_cell_angle_beta 90.000000
_cell_angle_gamma 90.000000
_cell_volume 2481.467806
_symmetry_space_group_name_H-M "P M M M"
_symmetry_group_IT_number 47
_symmetry_cell_setting 'orthorhombic'
loop_
_space_group_symop_operation_xyz
x,y,z
-x,-y,z
x,-y,-z
-x,y,-z
-x,-y,-z
x,y,-z
-x,y,z
x,-y,z
loop_
_atom_site_type_symbol
_atom_site_label
_atom_site_fract_x
_atom_site_fract_y
_atom_site_fract_z
Si Si1 0.827494 0.825786 0.000000
Si Si2 0.160083 0.618262 0.791195
Si Si3 0.664486 0.542314 0.710658
Si Si4 0.330001 0.778770 0.298666
Si Si5 0.167040 0.045864 0.705899
Si Si6 0.665669 0.308137 0.788011
Si Si7 0.671660 0.092116 0.000000
O O1 0.767630 0.802896 0.831729
O O2 0.752819 0.867272 0.000000
O O3 0.000000 0.828181 0.000000
O O4 0.243048 0.578684 0.762365
O O5 0.242302 0.655876 0.724383
O O6 0.000000 0.615815 0.719505
O O7 0.151878 0.623384 0.000000
O O8 0.662056 0.541499 0.500000
O O9 0.500000 0.547016 0.770964
O O10 0.715887 0.500000 0.769973
O O11 0.314478 0.790841 0.500000
O O12 0.500000 0.782205 0.250542
O O13 0.292472 0.733641 0.281944
O O14 0.190034 0.053864 0.500000
O O15 0.000000 0.055295 0.746989
O O16 0.183393 0.000000 0.731412
O O17 0.272991 0.068686 0.830989
O O18 0.500000 0.314884 0.740583
O O19 0.673567 0.305985 0.000000
O O20 0.500000 0.096574 0.000000
#
# Coordination Sequence:
#
# PCOD9386908 Si02
#       7
#     4   8   8   8   8   8   4
#     4  12  26  43  63  86 122 165 205 255 306 364
#     4  10  21  34  50  78 113 143 173 213 265 322
#     4   9  19  36  55  73  96 131 177 225 269 318
#     4  10  21  40  66  92 118 151 195 247 304 363
#     4   9  19  38  64  93 127 167 210 258 312 370
#     4   9  17  33  57  82 112 146 182 225 276 337
#     4  12  25  39  60  89 124 166 212 259 311 366
#
# _framework density 19.343391
#
# number of rings (size 3 to 8) (size 9 to 14) (size 15 to 20)
#    0.000    2.167    0.833    3.250    0.000    6.000 
#    0.000    5.000    0.000    0.000    0.000    0.000 
#    0.000    0.000    0.000    0.000    0.000    0.000 
#
# Total GULP energy -268051.730270 kJ/mol
# GULP energy per Si atom -5584.411047 kJ/mol
# Density = 1.929936 g / cm^3
# Si number density = 19.343391 Si / 1000 Ang^3
#
#
#
# Elastic Constant Matrix: (Units=GPa)
#
#
# Indices 1 2 3 4 5 6 
#
# 1 138.2433 98.7240 58.7964 0.0000 0.0000 0.0000
# 2 98.7240 127.3741 52.9619 0.0000 0.0000 0.0000
# 3 58.7964 52.9619 74.2564 0.0000 0.0000 0.0000
# 4 0.0000 0.0000 0.0000 451.2948 0.0000 0.0000
# 5 0.0000 0.0000 0.0000 0.0000 5.5642 0.0000
# 6 0.0000 0.0000 0.0000 0.0000 0.0000 124.5912
#
#
#
# Elastic Compliance Matrix: (Units=1/GPa)
#
#
# Indices 1 2 3 4 5 6 
#
# 1 0.017955 -0.011380 -0.006100 0.000000 0.000000 0.000000
# 2 -0.011380 0.018373 -0.004094 0.000000 0.000000 0.000000
# 3 -0.006100 -0.004094 0.021217 0.000000 0.000000 0.000000
# 4 0.000000 0.000000 0.000000 0.002216 0.000000 0.000000
# 5 0.000000 0.000000 0.000000 0.000000 0.179720 0.000000
# 6 0.000000 0.000000 0.000000 0.000000 0.000000 0.008026
#
#
# Mechanical properties :
#
#
# Convention : Reuss Voigt Hill
#
# Bulk Modulus (GPa) = 69.45784 84.53760 76.99772
# Shear Modulus (GPa) = 16.92314 124.91615 70.91965
#
# Velocity S-wave (km/s) = 2.96105 8.04477 6.06161
# Velocity P-wave (km/s) = 6.90479 11.40569 9.42777
#
# Compressibility (1/GPa) = 0.01439722
#
# Stress axis : x y z
#
# Youngs Moduli (GPa) = 55.69551 54.42707 47.13235
#
# Poissons Ratio (x) = 0.61937 0.28752
# Poissons Ratio (y) = 0.63380 0.19295
# Poissons Ratio (z) = 0.33976 0.22281
#
# Static dielectric constant tensor:
#      x y z
#    x 1.659490 0.000000 0.000000 
#    y 0.000000 1.656090 0.000000 
#    z 0.000000 0.000000 1.703060 
# 
# From -- ./inp_files/2588.got.cif
#   From: 2010.05.17/outbox.cif.g08.bks.cpg/sg47_2_cif.got.tgz:2588.got - 2010.06.03 20:15:42.
