data_PCOD9386804
_publ_section_title
;
Structure prediction by ZEFSAII (Michael W. Deem and Ramdas Pophale) SiO2 
 PCOD9386804
Probable space group: P M M M
;
_chemical_formula_sum "Si O2"
_cell_formula_units_Z 44
_cell_length_a 23.720580
_cell_length_b 13.882870
_cell_length_c 7.631450
_cell_angle_alpha 90.000000
_cell_angle_beta 90.000000
_cell_angle_gamma 90.000000
_cell_volume 2513.110727
_symmetry_space_group_name_H-M "P M M M"
_symmetry_group_IT_number 47
_symmetry_cell_setting 'orthorhombic'
loop_
_space_group_symop_operation_xyz
x,y,z
-x,-y,z
x,-y,-z
-x,y,-z
-x,-y,-z
x,y,-z
-x,y,z
x,-y,z
loop_
_atom_site_type_symbol
_atom_site_label
_atom_site_fract_x
_atom_site_fract_y
_atom_site_fract_z
Si Si1 0.348839 0.883931 0.296470
Si Si2 0.890412 0.893228 0.287669
Si Si3 0.772219 0.805401 0.285907
Si Si4 0.061870 0.688174 0.205445
Si Si5 0.435560 0.882768 0.000000
Si Si6 0.180775 0.394432 0.295406
O O1 0.357734 0.856498 0.500000
O O2 0.288825 0.842850 0.233665
O O3 0.399726 0.853781 0.170667
O O4 0.344849 0.000000 0.290569
O O5 0.892461 0.891540 0.500000
O O6 0.825556 0.871231 0.234768
O O7 0.926640 0.802533 0.225341
O O8 0.907623 0.000000 0.229499
O O9 0.772601 0.805479 0.500000
O O10 0.786136 0.697614 0.221734
O O11 0.114800 0.633506 0.287145
O O12 0.000000 0.664730 0.276984
O O13 0.062593 0.664922 0.000000
O O14 0.500000 0.848811 0.000000
O O15 0.437154 0.000000 0.000000
O O16 0.196240 0.399155 0.500000
O O17 0.190179 0.500000 0.217186
#
# Coordination Sequence:
#
# PCOD9386804 Si02
#       6
#     8   8   8   8   4   8
#     4   9  16  27  45  67  94 130 163 192 230 271
#     4   9  17  30  48  67  87 113 146 187 232 273
#     4   8  14  27  46  67  91 114 141 181 229 281
#     4  10  21  34  45  60  86 118 149 183 225 276
#     4   9  18  30  42  64  99 133 168 201 221 253
#     4   9  18  33  52  70  87 110 142 186 238 284
#
# _framework density 17.508179999999999
#
# number of rings (size 3 to 8) (size 9 to 14) (size 15 to 20)
#    0.000    3.000    0.000    2.182    0.000    5.455 
#    6.545    5.455    0.000    0.000    0.000    0.000 
#    0.000    1.455    0.000    7.091    0.000    0.182 
#
# Total GULP energy -245255.097616 kJ/mol
# GULP energy per Si atom -5573.979491 kJ/mol
# Density = 1.746833 g / cm^3
# Si number density = 17.508180 Si / 1000 Ang^3
#
#
#
# Elastic Constant Matrix: (Units=GPa)
#
#
# Indices 1 2 3 4 5 6 
#
# 1 87.0025 -12.1947 18.9924 0.0000 0.0000 0.0000
# 2 -12.1947 39.5430 0.1243 0.0000 0.0000 0.0000
# 3 18.9924 0.1243 48.6351 0.0000 0.0000 0.0000
# 4 0.0000 0.0000 0.0000 -3.6260 0.0000 0.0000
# 5 0.0000 0.0000 0.0000 0.0000 22.7911 0.0000
# 6 0.0000 0.0000 0.0000 0.0000 0.0000 5.5809
#
#
#
# Elastic Compliance Matrix: (Units=1/GPa)
#
#
# Indices 1 2 3 4 5 6 
#
# 1 0.013193 0.004085 -0.005163 0.000000 0.000000 0.000000
# 2 0.004085 0.026554 -0.001663 0.000000 0.000000 0.000000
# 3 -0.005163 -0.001663 0.022582 0.000000 0.000000 0.000000
# 4 0.000000 0.000000 0.000000 -0.275787 0.000000 0.000000
# 5 0.000000 0.000000 0.000000 0.000000 0.043877 0.000000
# 6 0.000000 0.000000 0.000000 0.000000 0.000000 0.179183
#
#
# Mechanical properties :
#
#
# Convention : Reuss Voigt Hill
#
# Bulk Modulus (GPa) = 17.59092 21.00274 19.29683
# Shear Modulus (GPa) = 146.92020 16.16645 81.54332
#
# Velocity S-wave (km/s) = 9.17046 3.04199 6.83195
# Velocity P-wave (km/s) = 11.05436 4.93561 8.56035
#
# Compressibility (1/GPa) = 0.05684751
#
# Stress axis : x y z
#
# Youngs Moduli (GPa) = 75.79513 37.65922 44.28387
#
# Poissons Ratio (x) = -0.15384 0.22862
# Poissons Ratio (y) = -0.30962 0.07365
# Poissons Ratio (z) = 0.39130 0.06263
#
# Static dielectric constant tensor:
#      x y z
#    x 1.575310 0.000000 0.000000 
#    y 0.000000 1.608940 0.000000 
#    z 0.000000 0.000000 1.656910 
# 
# From -- ./inp_files/10871.got.cif
#   From: 2010.05.17/outbox.cif.g08.bks.cpg/sg47_6_cif.got.tgz:10871.got - 2010.06.03 20:15:42.
