data_PCOD9386112
_publ_section_title
;
Structure prediction by ZEFSAII (Michael W. Deem and Ramdas Pophale) SiO2 
 PCOD9386112
Probable space group: P M M M
;
_chemical_formula_sum "Si O2"
_cell_formula_units_Z 36
_cell_length_a 7.904549
_cell_length_b 24.115763
_cell_length_c 9.599420
_cell_angle_alpha 90.000000
_cell_angle_beta 90.000000
_cell_angle_gamma 90.000000
_cell_volume 1829.882049
_symmetry_space_group_name_H-M "P M M M"
_symmetry_group_IT_number 47
_symmetry_cell_setting 'orthorhombic'
loop_
_space_group_symop_operation_xyz
x,y,z
-x,-y,z
x,-y,-z
-x,y,-z
-x,-y,-z
x,y,-z
-x,y,z
x,-y,z
loop_
_atom_site_type_symbol
_atom_site_label
_atom_site_fract_x
_atom_site_fract_y
_atom_site_fract_z
Si Si1 0.203776 0.106833 0.840995
Si Si2 0.703539 0.560774 0.159494
Si Si3 0.793408 0.789256 0.661810
Si Si4 0.203177 0.334328 0.657696
Si Si5 0.297948 0.000000 0.340526
O O1 0.266650 0.162287 0.763373
O O2 0.244111 0.054057 0.745737
O O3 0.000000 0.110716 0.848408
O O4 0.266747 0.101233 0.000000
O O5 0.500000 0.559205 0.156708
O O6 0.761810 0.500000 0.212219
O O7 0.752477 0.613813 0.247981
O O8 0.763095 0.566483 0.000000
O O9 0.744155 0.798593 0.500000
O O10 0.738814 0.727073 0.703825
O O11 0.000000 0.790273 0.663813
O O12 0.265883 0.343018 0.500000
O O13 0.000000 0.331378 0.652400
O O14 0.500000 0.000000 0.347979
O O15 0.231490 0.000000 0.500000
#
# Coordination Sequence:
#
# PCOD9386112 Si02
#       5
#     8   8   8   8   4
#     4  10  20  34  55  82 106 130 166 208 248 295
#     4   9  19  35  51  68  95 132 172 211 250 296
#     4   8  15  30  51  74 102 134 165 200 244 293
#     4   9  18  32  51  77 105 130 161 204 251 298
#     4  11  24  39  54  74 102 137 174 209 248 294
#
# _framework density 19.673400000000001
#
# number of rings (size 3 to 8) (size 9 to 14) (size 15 to 20)
#    0.000    2.778    0.000    3.333    0.000    6.222 
#    0.000    6.667    0.000    1.333    0.000    0.000 
#    0.000    0.000    0.000    0.000    0.000    0.000 
#
# Total GULP energy -200767.584752 kJ/mol
# GULP energy per Si atom -5576.877354 kJ/mol
# Density = 1.962862 g / cm^3
# Si number density = 19.673400 Si / 1000 Ang^3
#
#
#
# Elastic Constant Matrix: (Units=GPa)
#
#
# Indices 1 2 3 4 5 6 
#
# 1 16.4560 9.7549 10.0108 0.0000 0.0000 0.0000
# 2 9.7549 232.4316 137.2498 0.0000 0.0000 0.0000
# 3 10.0108 137.2498 146.8612 0.0000 0.0000 0.0000
# 4 0.0000 0.0000 0.0000 106.8064 0.0000 0.0000
# 5 0.0000 0.0000 0.0000 0.0000 23.7435 0.0000
# 6 0.0000 0.0000 0.0000 0.0000 0.0000 71.9001
#
#
#
# Elastic Compliance Matrix: (Units=1/GPa)
#
#
# Indices 1 2 3 4 5 6 
#
# 1 0.063403 -0.000243 -0.004095 0.000000 0.000000 0.000000
# 2 -0.000243 0.009601 -0.008956 0.000000 0.000000 0.000000
# 3 -0.004095 -0.008956 0.015458 0.000000 0.000000 0.000000
# 4 0.000000 0.000000 0.000000 0.009363 0.000000 0.000000
# 5 0.000000 0.000000 0.000000 0.000000 0.042117 0.000000
# 6 0.000000 0.000000 0.000000 0.000000 0.000000 0.013908
#
#
# Mechanical properties :
#
#
# Convention : Reuss Voigt Hill
#
# Bulk Modulus (GPa) = 16.16175 78.86443 47.51309
# Shear Modulus (GPa) = 24.86782 56.40554 40.63668
#
# Velocity S-wave (km/s) = 3.55918 5.36034 4.54978
# Velocity P-wave (km/s) = 5.01231 8.85916 7.19750
#
# Compressibility (1/GPa) = 0.06187448
#
# Stress axis : x y z
#
# Youngs Moduli (GPa) = 15.77214 104.15402 64.68990
#
# Poissons Ratio (x) = 0.02532 0.26488
# Poissons Ratio (y) = 0.00383 0.57938
# Poissons Ratio (z) = 0.06458 0.93283
#
# Static dielectric constant tensor:
#      x y z
#    x 1.720520 0.000000 0.000000 
#    y 0.000000 1.687100 0.000000 
#    z 0.000000 0.000000 1.680290 
# 
# From -- ./inp_files/1446.got.cif
#   From: 2010.05.17/outbox.cif.g08.bks.cpg/sg47_1_cif.got.tgz:1446.got - 2010.06.03 20:15:42.
