data_PCOD9386172
_publ_section_title
;
Structure prediction by ZEFSAII (Michael W. Deem and Ramdas Pophale) SiO2 
 PCOD9386172
Probable space group: P M M M
;
_chemical_formula_sum "Si O2"
_cell_formula_units_Z 64
_cell_length_a 9.069474
_cell_length_b 25.247297
_cell_length_c 14.986517
_cell_angle_alpha 90.000000
_cell_angle_beta 90.000000
_cell_angle_gamma 90.000000
_cell_volume 3431.608222
_symmetry_space_group_name_H-M "P M M M"
_symmetry_group_IT_number 47
_symmetry_cell_setting 'orthorhombic'
loop_
_space_group_symop_operation_xyz
x,y,z
-x,-y,z
x,-y,-z
-x,y,-z
-x,-y,-z
x,y,-z
-x,y,z
x,-y,z
loop_
_atom_site_type_symbol
_atom_site_label
_atom_site_fract_x
_atom_site_fract_y
_atom_site_fract_z
Si Si1 0.826562 0.630976 0.246139
Si Si2 0.667569 0.563250 0.104548
Si Si3 0.324543 0.743512 0.769546
Si Si4 0.170294 0.209901 0.601144
Si Si5 0.322558 0.058125 0.215782
Si Si6 0.679781 0.160307 0.897107
Si Si7 0.323311 0.439054 0.605184
Si Si8 0.827776 0.917877 0.599272
O O1 0.784443 0.592305 0.165151
O O2 0.754012 0.687281 0.224112
O O3 0.756671 0.603554 0.333568
O O4 0.000000 0.636640 0.257414
O O5 0.500000 0.578431 0.131963
O O6 0.678564 0.500000 0.114150
O O7 0.683948 0.575798 0.000000
O O8 0.500000 0.737016 0.776380
O O9 0.279510 0.767118 0.673742
O O10 0.276559 0.786887 0.843302
O O11 0.202289 0.227536 0.500000
O O12 0.178574 0.146134 0.602140
O O13 0.000000 0.224403 0.622083
O O14 0.500000 0.061125 0.219429
O O15 0.270642 0.107845 0.156555
O O16 0.261072 0.062148 0.315974
O O17 0.282437 0.000000 0.178844
O O18 0.500000 0.159362 0.897174
O O19 0.728102 0.160329 0.000000
O O20 0.291684 0.432100 0.500000
O O21 0.500000 0.434566 0.616869
O O22 0.282850 0.500000 0.629539
O O23 0.776309 0.934242 0.500000
O O24 0.000000 0.932883 0.607232
#
# Coordination Sequence:
#
# PCOD9386172 Si02
#       8
#     8   8   8   8   8   8   8   8
#     4  12  25  37  54  84 121 155 189 234 286 342
#     4   9  19  38  63  87 112 146 188 233 281 334
#     4  11  22  37  58  81 107 145 191 235 279 332
#     4   9  18  34  56  80 107 140 177 221 274 328
#     4  10  20  34  55  85 116 143 179 231 283 331
#     4   9  19  37  59  82 107 138 181 231 284 341
#     4   9  19  38  63  88 116 154 200 245 286 334
#     4   9  18  33  54  79 110 149 185 216 261 326
#
# _framework density 18.650147
#
# number of rings (size 3 to 8) (size 9 to 14) (size 15 to 20)
#    0.000    2.250    1.250    3.375    0.000    4.750 
#    0.000    6.250    0.000    3.000    0.000    0.875 
#    0.000    0.000    0.000    0.000    0.000    0.000 
#
# Total GULP energy -357209.577234 kJ/mol
# GULP energy per Si atom -5581.399644 kJ/mol
# Density = 1.860770 g / cm^3
# Si number density = 18.650147 Si / 1000 Ang^3
#
#
#
# Elastic Constant Matrix: (Units=GPa)
#
#
# Indices 1 2 3 4 5 6 
#
# 1 47.1559 44.8432 38.8318 0.0000 0.0000 0.0000
# 2 44.8432 105.1837 67.8529 0.0000 0.0000 0.0000
# 3 38.8318 67.8529 110.8524 0.0000 0.0000 0.0000
# 4 0.0000 0.0000 0.0000 17.4479 0.0000 0.0000
# 5 0.0000 0.0000 0.0000 0.0000 -578.6447 0.0000
# 6 0.0000 0.0000 0.0000 0.0000 0.0000 14.6632
#
#
#
# Elastic Compliance Matrix: (Units=1/GPa)
#
#
# Indices 1 2 3 4 5 6 
#
# 1 0.037629 -0.012458 -0.005556 0.000000 0.000000 0.000000
# 2 -0.012458 0.019836 -0.007777 0.000000 0.000000 0.000000
# 3 -0.005556 -0.007777 0.015728 0.000000 0.000000 0.000000
# 4 0.000000 0.000000 0.000000 0.057313 0.000000 0.000000
# 5 0.000000 0.000000 0.000000 0.000000 -0.001728 0.000000
# 6 0.000000 0.000000 0.000000 0.000000 0.000000 0.068198
#
#
# Mechanical properties :
#
#
# Convention : Reuss Voigt Hill
#
# Bulk Modulus (GPa) = 46.27617 62.91642 54.59630
# Shear Modulus (GPa) = 19.54955 -101.86244 -41.15645
#
# Velocity S-wave (km/s) = 3.24114 -7.39838 -4.70272
# Velocity P-wave (km/s) = 6.23485 6.25884 0.38717
#
# Compressibility (1/GPa) = 0.02160939
#
# Stress axis : x y z
#
# Youngs Moduli (GPa) = 26.57553 50.41441 63.58280
#
# Poissons Ratio (x) = 0.62809 0.35324
# Poissons Ratio (y) = 0.33109 0.49449
# Poissons Ratio (z) = 0.14764 0.39208
#
# Static dielectric constant tensor:
#      x y z
#    x 1.621100 0.000000 0.000000 
#    y 0.000000 1.661290 0.000000 
#    z 0.000000 0.000000 1.635210 
# 
# From -- ./inp_files/7810.got.cif
#   From: 2010.05.17/outbox.cif.g08.bks.cpg/sg47_4_cif.got.tgz:7810.got - 2010.06.03 20:15:42.
