data_PCOD9386106
_publ_section_title
;
Structure prediction by ZEFSAII (Michael W. Deem and Ramdas Pophale) SiO2 
 PCOD9386106
Probable space group: P M M M
;
_chemical_formula_sum "Si O2"
_cell_formula_units_Z 56
_cell_length_a 22.475437
_cell_length_b 8.618027
_cell_length_c 14.989228
_cell_angle_alpha 90.000000
_cell_angle_beta 90.000000
_cell_angle_gamma 90.000000
_cell_volume 2903.322373
_symmetry_space_group_name_H-M "P M M M"
_symmetry_group_IT_number 47
_symmetry_cell_setting 'orthorhombic'
loop_
_space_group_symop_operation_xyz
x,y,z
-x,-y,z
x,-y,-z
-x,y,-z
-x,-y,-z
x,y,-z
-x,y,z
x,-y,z
loop_
_atom_site_type_symbol
_atom_site_label
_atom_site_fract_x
_atom_site_fract_y
_atom_site_fract_z
Si Si1 0.568421 0.190795 0.000000
Si Si2 0.751038 0.315556 0.756721
Si Si3 0.430727 0.167887 0.353743
Si Si4 0.629979 0.823173 0.176421
Si Si5 0.931903 0.812500 0.741369
Si Si6 0.829990 0.187236 0.603168
Si Si7 0.852640 0.312587 0.896512
Si Si8 0.433328 0.500000 0.603998
O O1 0.603907 0.244531 0.913546
O O2 0.500000 0.239866 0.000000
O O3 0.568048 0.000000 0.000000
O O4 0.755344 0.500000 0.748113
O O5 0.684829 0.266173 0.781276
O O6 0.775418 0.241438 0.665319
O O7 0.794023 0.266970 0.839380
O O8 0.500000 0.171325 0.381388
O O9 0.423242 0.167431 0.247622
O O10 0.403424 0.333993 0.378544
O O11 0.405928 0.000000 0.385116
O O12 0.650351 0.000000 0.159863
O O13 0.888352 0.762740 0.660282
O O14 0.906081 0.749674 0.834821
O O15 0.000000 0.763976 0.727579
O O16 0.929986 0.000000 0.744365
O O17 0.828986 0.241334 0.500000
O O18 0.830012 0.000000 0.601060
O O19 0.855074 0.500000 0.897683
O O20 0.852523 0.259977 0.000000
O O21 0.500000 0.500000 0.648376
O O22 0.442158 0.500000 0.500000
#
# Coordination Sequence:
#
# PCOD9386106 Si02
#       8
#     4   8   8   8   8   8   8   4
#     4   9  18  34  57  85 115 145 178 217 264 324
#     4  10  21  35  54  77 106 142 182 230 276 322
#     4   9  18  33  54  78 107 143 178 219 275 335
#     4  10  20  34  55  81 108 140 178 219 266 323
#     4   9  18  32  51  80 113 140 174 223 276 329
#     4   9  18  35  58  80 106 142 181 225 275 329
#     4   9  19  35  52  71 101 145 189 226 268 319
#     4   9  18  32  52  77 103 133 173 220 267 324
#
# _framework density 19.288246999999998
#
# number of rings (size 3 to 8) (size 9 to 14) (size 15 to 20)
#    0.000    2.714    0.000    0.857    2.000    4.000 
#    0.000    5.000    0.000    1.286    0.000    4.000 
#    0.000    0.000    0.000    0.000    0.000    0.000 
#
# Total GULP energy -311823.815273 kJ/mol
# GULP energy per Si atom -5568.282416 kJ/mol
# Density = 1.924435 g / cm^3
# Si number density = 19.288247 Si / 1000 Ang^3
#
#
#
# Elastic Constant Matrix: (Units=GPa)
#
#
# Indices 1 2 3 4 5 6 
#
# 1 93.6417 8.3033 54.5215 0.0000 0.0000 0.0000
# 2 8.3033 65.7969 28.1449 0.0000 0.0000 0.0000
# 3 54.5215 28.1449 163.3067 0.0000 0.0000 0.0000
# 4 0.0000 0.0000 0.0000 20.5196 0.0000 0.0000
# 5 0.0000 0.0000 0.0000 0.0000 13.6376 0.0000
# 6 0.0000 0.0000 0.0000 0.0000 0.0000 44.8129
#
#
#
# Elastic Compliance Matrix: (Units=1/GPa)
#
#
# Indices 1 2 3 4 5 6 
#
# 1 0.013259 0.000238 -0.004468 0.000000 0.000000 0.000000
# 2 0.000238 0.016412 -0.002908 0.000000 0.000000 0.000000
# 3 -0.004468 -0.002908 0.008116 0.000000 0.000000 0.000000
# 4 0.000000 0.000000 0.000000 0.048734 0.000000 0.000000
# 5 0.000000 0.000000 0.000000 0.000000 0.073326 0.000000
# 6 0.000000 0.000000 0.000000 0.000000 0.000000 0.022315
#
#
# Mechanical properties :
#
#
# Convention : Reuss Voigt Hill
#
# Bulk Modulus (GPa) = 42.53164 56.07607 49.30385
# Shear Modulus (GPa) = 24.47671 31.24573 27.86122
#
# Velocity S-wave (km/s) = 3.56616 4.02921 3.80474
# Velocity P-wave (km/s) = 6.24941 7.12614 6.70212
#
# Compressibility (1/GPa) = 0.02351191
#
# Stress axis : x y z
#
# Youngs Moduli (GPa) = 75.41963 60.93049 123.21057
#
# Poissons Ratio (x) = -0.01449 0.55047
# Poissons Ratio (y) = -0.01794 0.35829
# Poissons Ratio (z) = 0.33695 0.17718
#
# Static dielectric constant tensor:
#      x y z
#    x 1.679950 0.000000 0.000000 
#    y 0.000000 1.741110 0.000000 
#    z 0.000000 0.000000 1.682510 
# 
# From -- ./inp_files/25166.got.cif
#   From: 2010.05.17/outbox.cif.g08.bks.cpg/sg47_13_cif.got.tgz:25166.got - 2010.06.03 20:15:42.
