data_PCOD9386633
_publ_section_title
;
Structure prediction by ZEFSAII (Michael W. Deem and Ramdas Pophale) SiO2 
 PCOD9386633
Probable space group: P M M M
;
_chemical_formula_sum "Si O2"
_cell_formula_units_Z 56
_cell_length_a 15.089952
_cell_length_b 20.596839
_cell_length_c 9.364629
_cell_angle_alpha 90.000000
_cell_angle_beta 90.000000
_cell_angle_gamma 90.000000
_cell_volume 2910.576437
_symmetry_space_group_name_H-M "P M M M"
_symmetry_group_IT_number 47
_symmetry_cell_setting 'orthorhombic'
loop_
_space_group_symop_operation_xyz
x,y,z
-x,-y,z
x,-y,-z
-x,y,-z
-x,-y,-z
x,y,-z
-x,y,z
x,-y,z
loop_
_atom_site_type_symbol
_atom_site_label
_atom_site_fract_x
_atom_site_fract_y
_atom_site_fract_z
Si Si1 0.789136 0.629528 0.672433
Si Si2 0.894562 0.743559 0.830194
Si Si3 0.152072 0.125508 0.337733
Si Si4 0.102985 0.500000 0.327057
Si Si5 0.602732 0.191887 0.844322
Si Si6 0.896728 0.000000 0.842932
Si Si7 0.603144 0.682459 0.329525
Si Si8 0.351578 0.076770 0.341258
O O1 0.798464 0.638465 0.500000
O O2 0.837905 0.687226 0.755888
O O3 0.840434 0.563595 0.712878
O O4 0.683088 0.632354 0.703372
O O5 0.870772 0.810363 0.749870
O O6 0.000000 0.731394 0.812413
O O7 0.876800 0.748168 0.000000
O O8 0.116517 0.128247 0.500000
O O9 0.256314 0.111232 0.349079
O O10 0.121583 0.063490 0.248840
O O11 0.098583 0.500000 0.500000
O O12 0.000000 0.500000 0.276149
O O13 0.500000 0.208245 0.860540
O O14 0.634047 0.249415 0.740997
O O15 0.603572 0.120464 0.777422
O O16 0.646937 0.193170 0.000000
O O17 0.000000 0.000000 0.865388
O O18 0.851648 0.000000 0.000000
O O19 0.601711 0.691362 0.500000
O O20 0.500000 0.666174 0.288679
O O21 0.392304 0.082251 0.500000
O O22 0.343963 0.000000 0.309284
#
# Coordination Sequence:
#
# PCOD9386633 Si02
#       8
#     8   8   8   4   8   4   8   8
#     4  10  20  36  60  88 116 153 197 237 281 341
#     4  11  24  39  55  81 116 149 187 240 297 349
#     4  11  22  38  57  78 104 139 185 234 281 338
#     4   9  18  34  58  88 122 157 197 243 286 331
#     4  10  21  35  52  77 106 137 178 227 279 337
#     4  11  23  37  53  75 104 137 174 219 275 334
#     4   9  18  34  56  83 115 149 185 229 282 338
#     4  10  21  37  53  72 100 134 177 227 281 342
#
# _framework density 19.240175000000001
#
# number of rings (size 3 to 8) (size 9 to 14) (size 15 to 20)
#    0.000    1.857    0.714    3.214    0.000   10.571 
#    0.000    2.143    0.000    3.429    0.000    0.000 
#    0.000    3.429    0.000    0.000    0.000    0.000 
#
# Total GULP energy -312111.251843 kJ/mol
# GULP energy per Si atom -5573.415211 kJ/mol
# Density = 1.919638 g / cm^3
# Si number density = 19.240175 Si / 1000 Ang^3
#
#
#
# Elastic Constant Matrix: (Units=GPa)
#
#
# Indices 1 2 3 4 5 6 
#
# 1 113.9613 65.5308 48.1725 0.0000 0.0000 0.0000
# 2 65.5308 133.4668 58.3202 0.0000 0.0000 0.0000
# 3 48.1725 58.3202 87.2670 0.0000 0.0000 0.0000
# 4 0.0000 0.0000 0.0000 -23.2705 0.0000 0.0000
# 5 0.0000 0.0000 0.0000 0.0000 21.2066 0.0000
# 6 0.0000 0.0000 0.0000 0.0000 0.0000 32.3420
#
#
#
# Elastic Compliance Matrix: (Units=1/GPa)
#
#
# Indices 1 2 3 4 5 6 
#
# 1 0.013226 -0.004666 -0.004183 0.000000 0.000000 0.000000
# 2 -0.004666 0.012229 -0.005597 0.000000 0.000000 0.000000
# 3 -0.004183 -0.005597 0.017508 0.000000 0.000000 0.000000
# 4 0.000000 0.000000 0.000000 -0.042973 0.000000 0.000000
# 5 0.000000 0.000000 0.000000 0.000000 0.047155 0.000000
# 6 0.000000 0.000000 0.000000 0.000000 0.000000 0.030920
#
#
# Mechanical properties :
#
#
# Convention : Reuss Voigt Hill
#
# Bulk Modulus (GPa) = 71.06198 75.41576 73.23887
# Shear Modulus (GPa) = 44.78377 16.90041 30.84209
#
# Velocity S-wave (km/s) = 4.82977 2.96698 4.00810
# Velocity P-wave (km/s) = 8.25328 7.14279 7.71803
#
# Compressibility (1/GPa) = 0.01407222
#
# Stress axis : x y z
#
# Youngs Moduli (GPa) = 75.60778 81.77119 57.11578
#
# Poissons Ratio (x) = 0.38157 0.23889
# Poissons Ratio (y) = 0.35281 0.31967
# Poissons Ratio (z) = 0.31623 0.45767
#
# Static dielectric constant tensor:
#      x y z
#    x 1.849510 0.000000 0.000000 
#    y 0.000000 1.628120 0.000000 
#    z 0.000000 0.000000 1.726350 
# 
# From -- ./inp_files/7391.got.cif
#   From: 2010.05.17/outbox.cif.g08.bks.cpg/sg47_4_cif.got.tgz:7391.got - 2010.06.03 20:15:42.
