data_PCOD9386586
_publ_section_title
;
Structure prediction by ZEFSAII (Michael W. Deem and Ramdas Pophale) SiO2 
 PCOD9386586
Probable space group: P M M M
;
_chemical_formula_sum "Si O2"
_cell_formula_units_Z 44
_cell_length_a 10.592302
_cell_length_b 14.888567
_cell_length_c 14.101848
_cell_angle_alpha 90.000000
_cell_angle_beta 90.000000
_cell_angle_gamma 90.000000
_cell_volume 2223.920629
_symmetry_space_group_name_H-M "P M M M"
_symmetry_group_IT_number 47
_symmetry_cell_setting 'orthorhombic'
loop_
_space_group_symop_operation_xyz
x,y,z
-x,-y,z
x,-y,-z
-x,y,-z
-x,-y,-z
x,y,-z
-x,y,z
x,-y,z
loop_
_atom_site_type_symbol
_atom_site_label
_atom_site_fract_x
_atom_site_fract_y
_atom_site_fract_z
Si Si1 0.245676 0.710409 0.113308
Si Si2 0.647406 0.705220 0.385374
Si Si3 0.500000 0.396507 0.114623
Si Si4 0.137846 0.394665 0.276762
Si Si5 0.145023 0.100310 0.885287
Si Si6 0.347944 0.903902 0.387177
O O1 0.377262 0.662000 0.138626
O O2 0.146719 0.658322 0.177901
O O3 0.234395 0.815937 0.137235
O O4 0.225337 0.700753 0.000000
O O5 0.650825 0.702679 0.500000
O O6 0.500000 0.690420 0.358566
O O7 0.746610 0.637054 0.341559
O O8 0.690468 0.805489 0.353055
O O9 0.500000 0.500000 0.151138
O O10 0.500000 0.403507 0.000000
O O11 0.149184 0.500000 0.257833
O O12 0.000000 0.377365 0.321015
O O13 0.000000 0.116496 0.852950
O O14 0.183788 0.000000 0.854984
O O15 0.140315 0.098223 0.000000
O O16 0.321816 0.904476 0.500000
O O17 0.500000 0.904328 0.377466
O O18 0.300211 0.000000 0.349031
#
# Coordination Sequence:
#
# PCOD9386586 Si02
#       6
#     8   8   4   8   8   8
#     4  10  20  36  58  82 111 147 187 231 280 339
#     4   9  19  37  61  86 111 145 189 230 273 334
#     4   9  18  32  51  77 106 140 183 228 279 333
#     4  11  25  40  55  81 113 145 187 239 290 335
#     4   8  14  27  50  78 106 141 185 227 270 327
#     4   7  10  21  47  82 113 138 169 214 267 322
#
# _framework density 19.784877999999999
#
# number of rings (size 3 to 8) (size 9 to 14) (size 15 to 20)
#    0.000    3.000    0.000    3.273    1.273    3.273 
#    0.000    4.091    0.000    4.364    0.000    2.545 
#    0.000    0.000    0.000    0.000    0.000    0.000 
#
# Total GULP energy -245055.849714 kJ/mol
# GULP energy per Si atom -5569.451130 kJ/mol
# Density = 1.973985 g / cm^3
# Si number density = 19.784878 Si / 1000 Ang^3
#
#
#
# Elastic Constant Matrix: (Units=GPa)
#
#
# Indices 1 2 3 4 5 6 
#
# 1 86.2203 74.8939 28.7902 0.0000 0.0000 0.0000
# 2 74.8939 172.9643 16.8047 0.0000 0.0000 0.0000
# 3 28.7902 16.8047 64.9196 0.0000 0.0000 0.0000
# 4 0.0000 0.0000 0.0000 -19.3178 0.0000 0.0000
# 5 0.0000 0.0000 0.0000 0.0000 12.7664 0.0000
# 6 0.0000 0.0000 0.0000 0.0000 0.0000 -67.2400
#
#
#
# Elastic Compliance Matrix: (Units=1/GPa)
#
#
# Indices 1 2 3 4 5 6 
#
# 1 0.021516 -0.008606 -0.007314 0.000000 0.000000 0.000000
# 2 -0.008606 0.009373 0.001390 0.000000 0.000000 0.000000
# 3 -0.007314 0.001390 0.018287 0.000000 0.000000 0.000000
# 4 0.000000 0.000000 0.000000 -0.051766 0.000000 0.000000
# 5 0.000000 0.000000 0.000000 0.000000 0.078331 0.000000
# 6 0.000000 0.000000 0.000000 0.000000 0.000000 -0.014872
#
#
# Mechanical properties :
#
#
# Convention : Reuss Voigt Hill
#
# Bulk Modulus (GPa) = 49.70971 62.78689 56.24830
# Shear Modulus (GPa) = 51.74182 -1.18393 25.27895
#
# Velocity S-wave (km/s) = 5.11947 -0.77440 3.57836
# Velocity P-wave (km/s) = 7.75403 5.56813 6.75015
#
# Compressibility (1/GPa) = 0.02011679
#
# Stress axis : x y z
#
# Youngs Moduli (GPa) = 46.47764 106.69200 54.68251
#
# Poissons Ratio (x) = 0.91816 0.39995
# Poissons Ratio (y) = 0.39997 -0.07602
# Poissons Ratio (z) = 0.33994 -0.14833
#
# Static dielectric constant tensor:
#      x y z
#    x 1.699130 0.000000 0.000000 
#    y 0.000000 1.741820 0.000000 
#    z 0.000000 0.000000 1.706110 
# 
# From -- ./inp_files/26361.got.cif
#   From: 2010.05.17/outbox.cif.g08.bks.cpg/sg47_14_cif.got.tgz:26361.got - 2010.06.03 20:15:42.
