data_PCOD9386020
_publ_section_title
;
Structure prediction by ZEFSAII (Michael W. Deem and Ramdas Pophale) SiO2 
 PCOD9386020
Probable space group: P M M M
;
_chemical_formula_sum "Si O2"
_cell_formula_units_Z 58
_cell_length_a 7.994966
_cell_length_b 14.722953
_cell_length_c 27.873433
_cell_angle_alpha 90.000000
_cell_angle_beta 90.000000
_cell_angle_gamma 90.000000
_cell_volume 3280.968103
_symmetry_space_group_name_H-M "P M M M"
_symmetry_group_IT_number 47
_symmetry_cell_setting 'orthorhombic'
loop_
_space_group_symop_operation_xyz
x,y,z
-x,-y,z
x,-y,-z
-x,y,-z
-x,-y,-z
x,y,-z
-x,y,z
x,-y,z
loop_
_atom_site_type_symbol
_atom_site_label
_atom_site_fract_x
_atom_site_fract_y
_atom_site_fract_z
Si Si1 0.198106 0.396397 0.740861
Si Si2 0.189864 0.608917 0.073525
Si Si3 0.300873 0.711242 0.647259
Si Si4 0.701698 0.899400 0.687277
Si Si5 0.308112 0.291307 0.165400
Si Si6 0.200370 0.898097 0.798424
Si Si7 0.500000 0.643494 0.000000
Si Si8 0.798011 0.396023 0.445725
O O1 0.260694 0.500000 0.742244
O O2 0.228858 0.352625 0.689008
O O3 0.277213 0.336310 0.782735
O O4 0.000000 0.397279 0.749570
O O5 0.205513 0.500000 0.079021
O O6 0.202924 0.658489 0.124732
O O7 0.348124 0.638781 0.041205
O O8 0.000000 0.626135 0.054788
O O9 0.500000 0.711794 0.653675
O O10 0.237914 0.813817 0.656564
O O11 0.260994 0.671220 0.595381
O O12 0.500000 0.901437 0.684363
O O13 0.748191 0.884340 0.742921
O O14 0.764387 0.000000 0.673522
O O15 0.500000 0.303888 0.152592
O O16 0.269356 0.184627 0.170656
O O17 0.000000 0.895484 0.800776
O O18 0.256910 0.000000 0.812258
O O19 0.743480 0.373069 0.500000
O O20 0.743648 0.500000 0.435443
O O21 0.000000 0.396156 0.445451
#
# Coordination Sequence:
#
# PCOD9386020 Si02
#       8
#     8   8   8   8   8   8   2   8
#     4  11  23  36  50  72 108 151 187 221 270 337
#     4  11  23  39  61  88 120 157 198 246 294 341
#     4  11  21  32  51  79 105 137 177 221 275 330
#     4   9  18  33  51  73 104 141 179 220 271 330
#     4  12  23  36  55  82 116 153 190 234 287 342
#     4  10  20  34  54  80 110 146 189 234 279 335
#     4  12  23  42  64  90 119 156 207 250 290 340
#     4   9  19  36  55  73  97 134 179 226 275 326
#
# _framework density 17.677709
#
# number of rings (size 3 to 8) (size 9 to 14) (size 15 to 20)
#    0.000    1.517    2.069    4.552    0.000    6.897 
#    0.000    0.690    0.000    0.414    0.000    3.862 
#    0.000    2.207    0.000    0.000    0.000    0.000 
#
# Total GULP energy -323213.032691 kJ/mol
# GULP energy per Si atom -5572.638495 kJ/mol
# Density = 1.763747 g / cm^3
# Si number density = 17.677709 Si / 1000 Ang^3
#
#
#
# Elastic Constant Matrix: (Units=GPa)
#
#
# Indices 1 2 3 4 5 6 
#
# 1 66.2328 26.0612 15.8240 0.0000 0.0000 0.0000
# 2 26.0612 65.5129 35.1511 0.0000 0.0000 0.0000
# 3 15.8240 35.1511 80.5224 0.0000 0.0000 0.0000
# 4 0.0000 0.0000 0.0000 -19.9805 0.0000 0.0000
# 5 0.0000 0.0000 0.0000 0.0000 30.5546 0.0000
# 6 0.0000 0.0000 0.0000 0.0000 0.0000 20.7115
#
#
#
# Elastic Compliance Matrix: (Units=1/GPa)
#
#
# Indices 1 2 3 4 5 6 
#
# 1 0.017918 -0.006841 -0.000535 0.000000 0.000000 0.000000
# 2 -0.006841 0.022545 -0.008497 0.000000 0.000000 0.000000
# 3 -0.000535 -0.008497 0.016233 0.000000 0.000000 0.000000
# 4 0.000000 0.000000 0.000000 -0.050049 0.000000 0.000000
# 5 0.000000 0.000000 0.000000 0.000000 0.032728 0.000000
# 6 0.000000 0.000000 0.000000 0.000000 0.000000 0.048282
#
#
# Mechanical properties :
#
#
# Convention : Reuss Voigt Hill
#
# Bulk Modulus (GPa) = 40.08017 40.70452 40.39234
# Shear Modulus (GPa) = 39.14812 15.27258 27.21035
#
# Velocity S-wave (km/s) = 4.71100 2.94248 3.92758
# Velocity P-wave (km/s) = 7.23280 5.88389 6.59293
#
# Compressibility (1/GPa) = 0.02494999
#
# Stress axis : x y z
#
# Youngs Moduli (GPa) = 55.81067 44.35639 61.60137
#
# Poissons Ratio (x) = 0.30343 0.03295
# Poissons Ratio (y) = 0.38178 0.52344
# Poissons Ratio (z) = 0.02985 0.37691
#
# Static dielectric constant tensor:
#      x y z
#    x 1.634250 0.000000 0.000000 
#    y 0.000000 1.718730 0.000000 
#    z 0.000000 0.000000 1.578090 
# 
# From -- ./inp_files/33455.got.cif
#   From: 2010.05.17/outbox.cif.g08.bks.cpg/sg47_17_cif.got.tgz:33455.got - 2010.06.03 20:15:42.
