data_PCOD9386710
_publ_section_title
;
Structure prediction by ZEFSAII (Michael W. Deem and Ramdas Pophale) SiO2 
 PCOD9386710
Probable space group: P M M M
;
_chemical_formula_sum "Si O2"
_cell_formula_units_Z 29
_cell_length_a 7.346435
_cell_length_b 23.172736
_cell_length_c 7.683120
_cell_angle_alpha 90.000000
_cell_angle_beta 90.000000
_cell_angle_gamma 90.000000
_cell_volume 1307.951290
_symmetry_space_group_name_H-M "P M M M"
_symmetry_group_IT_number 47
_symmetry_cell_setting 'orthorhombic'
loop_
_space_group_symop_operation_xyz
x,y,z
-x,-y,z
x,-y,-z
-x,y,-z
-x,-y,-z
x,y,-z
-x,y,z
x,-y,z
loop_
_atom_site_type_symbol
_atom_site_label
_atom_site_fract_x
_atom_site_fract_y
_atom_site_fract_z
Si Si1 0.720699 0.437908 0.791886
Si Si2 0.291034 0.187249 0.705188
Si Si3 0.000000 0.000000 0.500000
Si Si4 0.000000 0.095457 0.190837
Si Si5 0.714616 0.313738 0.209685
O O1 0.500000 0.437253 0.774535
O O2 0.783473 0.500000 0.721243
O O3 0.786867 0.375698 0.725614
O O4 0.757893 0.438574 0.000000
O O5 0.292206 0.175454 0.500000
O O6 0.500000 0.186789 0.769401
O O7 0.171781 0.138367 0.792482
O O8 0.214508 0.252037 0.730024
O O9 0.000000 0.949715 0.346828
O O10 0.000000 0.068482 0.000000
O O11 0.500000 0.313164 0.256544
O O12 0.728660 0.314444 0.000000
#
# Coordination Sequence:
#
# PCOD9386710 Si02
#       5
#     8   8   1   4   8
#     4   7   9  14  27  52  90 135 183 239 298 351
#     4  10  20  37  61  90 127 165 205 256 307 358
#     4  12  26  52  70 102 140 158 204 244 290 362
#     4  12  25  45  73  98 128 168 203 245 298 355
#     4   8  13  22  40  69 103 142 194 249 299 356
#
# _framework density 22.172079
#
# number of rings (size 3 to 8) (size 9 to 14) (size 15 to 20)
#    0.000    3.034    1.379    3.517    0.000    1.655 
#    0.000    1.379    0.000    2.483    0.000    6.759 
#    0.000    7.724    0.000    0.828    0.000    0.552 
#
# Total GULP energy -161459.102541 kJ/mol
# GULP energy per Si atom -5567.555260 kJ/mol
# Density = 2.212161 g / cm^3
# Si number density = 22.172079 Si / 1000 Ang^3
#
#
#
# Elastic Constant Matrix: (Units=GPa)
#
#
# Indices 1 2 3 4 5 6 
#
# 1 91.4440 45.3767 13.5886 0.0000 0.0000 0.0000
# 2 45.3767 205.6708 62.5181 0.0000 0.0000 0.0000
# 3 13.5886 62.5181 88.7784 0.0000 0.0000 0.0000
# 4 0.0000 0.0000 0.0000 40.7199 0.0000 0.0000
# 5 0.0000 0.0000 0.0000 0.0000 0.0325 0.0000
# 6 0.0000 0.0000 0.0000 0.0000 0.0000 -9.6379
#
#
#
# Elastic Compliance Matrix: (Units=1/GPa)
#
#
# Indices 1 2 3 4 5 6 
#
# 1 0.012280 -0.002720 0.000036 0.000000 0.000000 0.000000
# 2 -0.002720 0.006789 -0.004364 0.000000 0.000000 0.000000
# 3 0.000036 -0.004364 0.014332 0.000000 0.000000 0.000000
# 4 0.000000 0.000000 0.000000 0.024558 0.000000 0.000000
# 5 0.000000 0.000000 0.000000 0.000000 30.794974 0.000000
# 6 0.000000 0.000000 0.000000 0.000000 0.000000 -0.103757
#
#
# Mechanical properties :
#
#
# Convention : Reuss Voigt Hill
#
# Bulk Modulus (GPa) = 51.80370 69.87334 60.83852
# Shear Modulus (GPa) = 0.16250 23.85021 12.00635
#
# Velocity S-wave (km/s) = 0.27101 3.28332 2.32956
# Velocity P-wave (km/s) = 4.84902 6.77910 5.89361
#
# Compressibility (1/GPa) = 0.01930364
#
# Stress axis : x y z
#
# Youngs Moduli (GPa) = 81.43201 147.29746 69.77416
#
# Poissons Ratio (x) = 0.40069 -0.00251
# Poissons Ratio (y) = 0.22152 0.30453
# Poissons Ratio (z) = -0.00293 0.64287
#
# Static dielectric constant tensor:
#      x y z
#    x 1.952690 0.000000 0.000000 
#    y 0.000000 1.818520 0.000000 
#    z 0.000000 0.000000 1.806510 
# 
# From -- ./inp_files/1004.got.cif
#   From: 2010.05.17/outbox.cif.g08.bks.cpg/sg47_1_cif.got.tgz:1004.got - 2010.06.03 20:15:42.
