data_PCOD9386781
_publ_section_title
;
Structure prediction by ZEFSAII (Michael W. Deem and Ramdas Pophale) SiO2 
 PCOD9386781
Probable space group: P M M M
;
_chemical_formula_sum "Si O2"
_cell_formula_units_Z 48
_cell_length_a 15.095782
_cell_length_b 7.516711
_cell_length_c 19.007666
_cell_angle_alpha 90.000000
_cell_angle_beta 90.000000
_cell_angle_gamma 90.000000
_cell_volume 2156.811848
_symmetry_space_group_name_H-M "P M M M"
_symmetry_group_IT_number 47
_symmetry_cell_setting 'orthorhombic'
loop_
_space_group_symop_operation_xyz
x,y,z
-x,-y,z
x,-y,-z
-x,y,-z
-x,-y,-z
x,y,-z
-x,y,z
x,-y,z
loop_
_atom_site_type_symbol
_atom_site_label
_atom_site_fract_x
_atom_site_fract_y
_atom_site_fract_z
Si Si1 0.607158 0.700441 0.000000
Si Si2 0.101804 0.782251 0.500000
Si Si3 0.786830 0.782563 0.365010
Si Si4 0.599297 0.793197 0.843371
Si Si5 0.596988 0.216236 0.582591
Si Si6 0.101723 0.286383 0.077236
Si Si7 0.779584 0.212624 0.212273
O O1 0.628428 0.786596 0.925479
O O2 0.642892 0.500000 0.000000
O O3 0.500000 0.694752 0.000000
O O4 0.153180 0.723340 0.570026
O O5 0.000000 0.726710 0.500000
O O6 0.103175 0.000000 0.500000
O O7 0.685073 0.726082 0.377711
O O8 0.816305 0.724974 0.287317
O O9 0.788187 0.000000 0.367489
O O10 0.500000 0.715427 0.836955
O O11 0.680714 0.713420 0.800757
O O12 0.591694 0.000000 0.823559
O O13 0.604649 0.264033 0.500000
O O14 0.500000 0.275853 0.608476
O O15 0.596513 0.000000 0.585258
O O16 0.099301 0.500000 0.074325
O O17 0.160566 0.242066 0.144206
O O18 0.000000 0.224136 0.085654
O O19 0.134556 0.224186 0.000000
O O20 0.770421 0.000000 0.218320
#
# Coordination Sequence:
#
# PCOD9386781 Si02
#       7
#     4   4   8   8   8   8   8
#     4   9  17  29  47  69  90 121 172 223 251 276
#     4   9  16  26  41  59  86 128 163 190 240 302
#     4   9  16  27  40  62  98 130 161 202 242 289
#     4   9  18  32  46  65 101 143 172 198 245 305
#     4   8  12  19  35  58  86 126 169 203 238 281
#     4   9  20  40  61  77  96 127 167 210 260 316
#     4  10  21  32  49  79 108 135 168 210 256 299
#
# _framework density 22.255071000000001
#
# number of rings (size 3 to 8) (size 9 to 14) (size 15 to 20)
#    0.000    3.000    0.833    1.250    1.167    3.667 
#    0.000    5.833    0.000    0.000    0.000    0.583 
#    0.000    2.000    0.000    1.833    0.000    2.000 
#
# Total GULP energy -267766.780378 kJ/mol
# GULP energy per Si atom -5578.474591 kJ/mol
# Density = 2.220442 g / cm^3
# Si number density = 22.255071 Si / 1000 Ang^3
#
#
#
# Elastic Constant Matrix: (Units=GPa)
#
#
# Indices 1 2 3 4 5 6 
#
# 1 133.6798 3.1631 109.4198 0.0000 0.0000 0.0000
# 2 3.1631 55.5531 2.5456 0.0000 0.0000 0.0000
# 3 109.4198 2.5456 190.1916 0.0000 0.0000 0.0000
# 4 0.0000 0.0000 0.0000 58.7008 0.0000 0.0000
# 5 0.0000 0.0000 0.0000 0.0000 -56.8327 0.0000
# 6 0.0000 0.0000 0.0000 0.0000 0.0000 8.2036
#
#
#
# Elastic Compliance Matrix: (Units=1/GPa)
#
#
# Indices 1 2 3 4 5 6 
#
# 1 0.014149 -0.000433 -0.008134 0.000000 0.000000 0.000000
# 2 -0.000433 0.018025 0.000008 0.000000 0.000000 0.000000
# 3 -0.008134 0.000008 0.009937 0.000000 0.000000 0.000000
# 4 0.000000 0.000000 0.000000 0.017036 0.000000 0.000000
# 5 0.000000 0.000000 0.000000 0.000000 -0.017596 0.000000
# 6 0.000000 0.000000 0.000000 0.000000 0.000000 0.121898
#
#
# Mechanical properties :
#
#
# Convention : Reuss Voigt Hill
#
# Bulk Modulus (GPa) = 40.01154 67.74236 53.87695
# Shear Modulus (GPa) = 26.46920 19.63409 23.05165
#
# Velocity S-wave (km/s) = 3.45245 2.97346 3.22187
# Velocity P-wave (km/s) = 5.82324 6.50336 6.17268
#
# Compressibility (1/GPa) = 0.02499279
#
# Stress axis : x y z
#
# Youngs Moduli (GPa) = 70.67717 55.47823 100.62914
#
# Poissons Ratio (x) = 0.02402 0.81854
# Poissons Ratio (y) = 0.03059 -0.00078
# Poissons Ratio (z) = 0.57490 -0.00043
#
# Static dielectric constant tensor:
#      x y z
#    x 1.815650 0.000000 0.000000 
#    y 0.000000 1.854930 0.000000 
#    z 0.000000 0.000000 1.815090 
# 
# From -- ./inp_files/27979.got.cif
#   From: 2010.05.17/outbox.cif.g08.bks.cpg/sg47_14_cif.got.tgz:27979.got - 2010.06.03 20:15:42.
