data_PCOD9386584
_publ_section_title
;
Structure prediction by ZEFSAII (Michael W. Deem and Ramdas Pophale) SiO2 
 PCOD9386584
Probable space group: P M M M
;
_chemical_formula_sum "Si O2"
_cell_formula_units_Z 48
_cell_length_a 7.570658
_cell_length_b 8.123110
_cell_length_c 35.413124
_cell_angle_alpha 90.000000
_cell_angle_beta 90.000000
_cell_angle_gamma 90.000000
_cell_volume 2177.811075
_symmetry_space_group_name_H-M "P M M M"
_symmetry_group_IT_number 47
_symmetry_cell_setting 'orthorhombic'
loop_
_space_group_symop_operation_xyz
x,y,z
-x,-y,z
x,-y,-z
-x,y,-z
-x,-y,-z
x,y,-z
-x,y,z
x,-y,z
loop_
_atom_site_type_symbol
_atom_site_label
_atom_site_fract_x
_atom_site_fract_y
_atom_site_fract_z
Si Si1 0.213184 0.000000 0.749066
Si Si2 0.210250 0.188439 0.622518
Si Si3 0.712063 0.807867 0.540526
Si Si4 0.783845 0.681610 0.702384
Si Si5 0.710264 0.000000 0.837234
Si Si6 0.292632 0.677500 0.122345
Si Si7 0.213407 0.192180 0.041827
O O1 0.274886 0.834807 0.727835
O O2 0.263641 0.000000 0.792662
O O3 0.000000 0.000000 0.746642
O O4 0.240096 0.264486 0.581125
O O5 0.273824 0.285201 0.659177
O O6 0.000000 0.176035 0.626839
O O7 0.281398 0.000000 0.622971
O O8 0.773399 0.737828 0.500000
O O9 0.500000 0.808923 0.539468
O O10 0.771976 0.000000 0.541490
O O11 0.726956 0.500000 0.714912
O O12 0.000000 0.682109 0.702912
O O13 0.784898 0.835188 0.856388
O O14 0.500000 0.000000 0.845235
O O15 0.500000 0.671340 0.132059
O O16 0.214099 0.500000 0.131993
O O17 0.279099 0.708155 0.077578
O O18 0.000000 0.197686 0.042427
O O19 0.265342 0.000000 0.046227
O O20 0.270614 0.247412 0.000000
#
# Coordination Sequence:
#
# PCOD9386584 Si02
#       7
#     4   8   8   8   4   8   8
#     4  10  20  36  58  81 102 129 168 208 248 310
#     4   9  15  25  44  68  93 122 158 199 240 285
#     4   8  14  24  38  60  92 128 163 198 238 284
#     4   9  17  31  52  77 104 130 158 200 253 302
#     4  10  22  40  57  77 108 140 169 214 270 311
#     4  10  21  37  57  80 107 144 187 223 261 315
#     4   9  18  33  54  81 113 147 183 226 273 315
#
# _framework density 22.040479000000001
#
# number of rings (size 3 to 8) (size 9 to 14) (size 15 to 20)
#    0.000    2.833    1.667    1.000    0.000    2.667 
#    0.000    5.000    0.000    2.000    0.000    3.500 
#    0.000    0.000    0.000    0.000    0.000    0.000 
#
# Total GULP energy -267776.635658 kJ/mol
# GULP energy per Si atom -5578.679910 kJ/mol
# Density = 2.199031 g / cm^3
# Si number density = 22.040479 Si / 1000 Ang^3
#
#
#
# Elastic Constant Matrix: (Units=GPa)
#
#
# Indices 1 2 3 4 5 6 
#
# 1 46.7106 8.8158 -8.8639 0.0000 0.0000 0.0000
# 2 8.8158 161.8026 91.4577 0.0000 0.0000 0.0000
# 3 -8.8639 91.4577 144.9410 0.0000 0.0000 0.0000
# 4 0.0000 0.0000 0.0000 -4.8979 0.0000 0.0000
# 5 0.0000 0.0000 0.0000 0.0000 27.4239 0.0000
# 6 0.0000 0.0000 0.0000 0.0000 0.0000 -2.3005
#
#
#
# Elastic Compliance Matrix: (Units=1/GPa)
#
#
# Indices 1 2 3 4 5 6 
#
# 1 0.022638 -0.003134 0.003362 0.000000 0.000000 0.000000
# 2 -0.003134 0.010041 -0.006527 0.000000 0.000000 0.000000
# 3 0.003362 -0.006527 0.011224 0.000000 0.000000 0.000000
# 4 0.000000 0.000000 0.000000 -0.204171 0.000000 0.000000
# 5 0.000000 0.000000 0.000000 0.000000 0.036464 0.000000
# 6 0.000000 0.000000 0.000000 0.000000 0.000000 -0.434683
#
#
# Mechanical properties :
#
#
# Convention : Reuss Voigt Hill
#
# Bulk Modulus (GPa) = 31.94507 59.58592 45.76550
# Shear Modulus (GPa) = -9.33786 21.51475 6.08845
#
# Velocity S-wave (km/s) = -2.06055 3.12772 1.66385
# Velocity P-wave (km/s) = 2.97726 6.33538 4.94980
#
# Compressibility (1/GPa) = 0.03130373
#
# Stress axis : x y z
#
# Youngs Moduli (GPa) = 44.17397 99.59598 89.09780
#
# Poissons Ratio (x) = 0.31209 -0.29952
# Poissons Ratio (y) = 0.13842 0.58156
# Poissons Ratio (z) = -0.14850 0.65009
#
# Static dielectric constant tensor:
#      x y z
#    x 1.818220 0.000000 0.000000 
#    y 0.000000 1.829650 0.000000 
#    z 0.000000 0.000000 1.792580 
# 
# From -- ./inp_files/34205.got.cif
#   From: 2010.05.17/outbox.cif.g08.bks.cpg/sg47_18_cif.got.tgz:34205.got - 2010.06.03 20:15:42.
