data_PCOD9386812
_publ_section_title
;
Structure prediction by ZEFSAII (Michael W. Deem and Ramdas Pophale) SiO2 
 PCOD9386812
Probable space group: P M M M
;
_chemical_formula_sum "Si O2"
_cell_formula_units_Z 48
_cell_length_a 14.128310
_cell_length_b 7.756249
_cell_length_c 25.108513
_cell_angle_alpha 90.000000
_cell_angle_beta 90.000000
_cell_angle_gamma 90.000000
_cell_volume 2751.458404
_symmetry_space_group_name_H-M "P M M M"
_symmetry_group_IT_number 47
_symmetry_cell_setting 'orthorhombic'
loop_
_space_group_symop_operation_xyz
x,y,z
-x,-y,z
x,-y,-z
-x,y,-z
-x,-y,-z
x,y,-z
-x,y,z
x,-y,z
loop_
_atom_site_type_symbol
_atom_site_label
_atom_site_fract_x
_atom_site_fract_y
_atom_site_fract_z
Si Si1 0.795448 0.788876 0.719700
Si Si2 0.893960 0.208697 0.610502
Si Si3 0.889759 0.292599 0.942621
Si Si4 0.604605 0.796985 0.331814
Si Si5 0.108155 0.206067 0.827086
Si Si6 0.698583 0.703259 0.558940
O O1 0.864752 0.741561 0.670869
O O2 0.690861 0.726056 0.703580
O O3 0.833139 0.728740 0.776628
O O4 0.793311 0.000000 0.720221
O O5 0.809319 0.271034 0.572964
O O6 0.000000 0.267667 0.597498
O O7 0.893108 0.000000 0.608362
O O8 0.889866 0.500000 0.943265
O O9 0.849274 0.239309 0.885636
O O10 0.000000 0.234676 0.941772
O O11 0.849566 0.234001 0.000000
O O12 0.500000 0.721584 0.324687
O O13 0.638802 0.782046 0.392907
O O14 0.599122 0.000000 0.319539
O O15 0.000000 0.274770 0.825664
O O16 0.102081 0.000000 0.821240
O O17 0.678310 0.772582 0.500000
O O18 0.678862 0.500000 0.559167
#
# Coordination Sequence:
#
# PCOD9386812 Si02
#       6
#     8   8   8   8   8   8
#     4   8  14  26  43  63  86 107 131 167 209 250
#     4   9  17  30  48  66  85 113 146 176 205 241
#     4   8  14  24  35  48  73 110 145 173 200 228
#     4   9  18  33  52  69  83 104 136 173 212 255
#     4   9  15  22  36  58  82 109 138 165 195 235
#     4  10  21  34  46  63  88 114 138 168 209 255
#
# _framework density 17.445294000000001
#
# number of rings (size 3 to 8) (size 9 to 14) (size 15 to 20)
#    0.000    3.167    0.000    2.500    0.000    5.000 
#    0.000    8.333    0.000    4.000    0.000    0.000 
#    0.000    0.667    0.000    8.333    0.000    1.667 
#
# Total GULP energy -267313.769550 kJ/mol
# GULP energy per Si atom -5569.036866 kJ/mol
# Density = 1.740559 g / cm^3
# Si number density = 17.445294 Si / 1000 Ang^3
#
#
#
# Elastic Constant Matrix: (Units=GPa)
#
#
# Indices 1 2 3 4 5 6 
#
# 1 66.0582 -1.1397 20.6448 0.0000 0.0000 0.0000
# 2 -1.1397 22.4186 -2.7884 0.0000 0.0000 0.0000
# 3 20.6448 -2.7884 122.2142 0.0000 0.0000 0.0000
# 4 0.0000 0.0000 0.0000 25.6760 0.0000 0.0000
# 5 0.0000 0.0000 0.0000 0.0000 8.2808 0.0000
# 6 0.0000 0.0000 0.0000 0.0000 0.0000 0.0820
#
#
#
# Elastic Compliance Matrix: (Units=1/GPa)
#
#
# Indices 1 2 3 4 5 6 
#
# 1 0.015987 0.000478 -0.002690 0.000000 0.000000 0.000000
# 2 0.000478 0.044747 0.000940 0.000000 0.000000 0.000000
# 3 -0.002690 0.000940 0.008658 0.000000 0.000000 0.000000
# 4 0.000000 0.000000 0.000000 0.038947 0.000000 0.000000
# 5 0.000000 0.000000 0.000000 0.000000 0.120761 0.000000
# 6 0.000000 0.000000 0.000000 0.000000 0.000000 12.202294
#
#
# Mechanical properties :
#
#
# Convention : Reuss Voigt Hill
#
# Bulk Modulus (GPa) = 14.95893 27.12490 21.04192
# Shear Modulus (GPa) = 0.40141 19.73937 10.07039
#
# Velocity S-wave (km/s) = 0.48020 3.36743 2.40522
# Velocity P-wave (km/s) = 2.98343 5.54092 4.44986
#
# Compressibility (1/GPa) = 0.06684969
#
# Stress axis : x y z
#
# Youngs Moduli (GPa) = 62.55082 22.34783 115.49807
#
# Poissons Ratio (x) = -0.01069 0.31065
# Poissons Ratio (y) = -0.02991 -0.10859
# Poissons Ratio (z) = 0.16824 -0.02101
#
# Static dielectric constant tensor:
#      x y z
#    x 1.592340 0.000000 0.000000 
#    y 0.000000 1.642280 0.000000 
#    z 0.000000 0.000000 1.619860 
# 
# From -- ./inp_files/7472.got.cif
#   From: 2010.05.17/outbox.cif.g08.bks.cpg/sg47_4_cif.got.tgz:7472.got - 2010.06.03 20:15:42.
