data_PCOD9386071
_publ_section_title
;
Structure prediction by ZEFSAII (Michael W. Deem and Ramdas Pophale) SiO2 
 PCOD9386071
Probable space group: P M M M
;
_chemical_formula_sum "Si O2"
_cell_formula_units_Z 64
_cell_length_a 8.815797
_cell_length_b 14.807355
_cell_length_c 26.039053
_cell_angle_alpha 90.000000
_cell_angle_beta 90.000000
_cell_angle_gamma 90.000000
_cell_volume 3399.102456
_symmetry_space_group_name_H-M "P M M M"
_symmetry_group_IT_number 47
_symmetry_cell_setting 'orthorhombic'
loop_
_space_group_symop_operation_xyz
x,y,z
-x,-y,z
x,-y,-z
-x,y,-z
-x,-y,-z
x,y,-z
-x,y,z
x,-y,z
loop_
_atom_site_type_symbol
_atom_site_label
_atom_site_fract_x
_atom_site_fract_y
_atom_site_fract_z
Si Si1 0.816678 0.604022 0.655559
Si Si2 0.817448 0.719058 0.057182
Si Si3 0.183339 0.394241 0.157131
Si Si4 0.322257 0.901609 0.437676
Si Si5 0.681591 0.898150 0.898599
Si Si6 0.818702 0.897743 0.784168
Si Si7 0.319386 0.282386 0.252131
Si Si8 0.182050 0.285893 0.441573
O O1 0.775170 0.500000 0.663633
O O2 0.740710 0.666584 0.697876
O O3 0.772214 0.638296 0.598951
O O4 0.000000 0.611177 0.660009
O O5 0.773181 0.651184 0.102865
O O6 0.746448 0.817039 0.067818
O O7 0.000000 0.727580 0.059382
O O8 0.775926 0.687388 0.000000
O O9 0.224244 0.500000 0.159479
O O10 0.257548 0.337371 0.202820
O O11 0.000000 0.388139 0.162198
O O12 0.312265 0.902965 0.500000
O O13 0.500000 0.894238 0.424618
O O14 0.235738 0.811917 0.421587
O O15 0.265799 0.000000 0.419552
O O16 0.500000 0.890527 0.894919
O O17 0.752884 0.888963 0.841813
O O18 0.717784 0.000000 0.917254
O O19 0.745815 0.818731 0.751035
O O20 0.000000 0.886455 0.786201
O O21 0.784915 0.000000 0.766489
O O22 0.500000 0.280212 0.250946
O O23 0.239022 0.299448 0.500000
O O24 0.000000 0.285273 0.443860
#
# Coordination Sequence:
#
# PCOD9386071 Si02
#       8
#     8   8   8   8   8   8   8   8
#     4  10  22  40  60  82 112 151 192 235 285 339
#     4  10  21  36  55  81 113 151 195 240 285 338
#     4  10  21  38  60  83 109 146 191 237 288 344
#     4   8  14  26  46  73 106 145 185 221 263 321
#     4  10  20  34  54  82 115 151 189 229 279 337
#     4  10  20  36  61  89 116 148 185 226 276 337
#     4  12  24  38  60  88 117 147 184 233 283 335
#     4   9  18  33  55  84 114 145 186 235 284 333
#
# _framework density 18.828499000000001
#
# number of rings (size 3 to 8) (size 9 to 14) (size 15 to 20)
#    0.000    2.125    1.250    2.625    0.000    5.250 
#    0.000    5.625    0.000    0.750    0.000    4.375 
#    0.000    0.000    0.000    0.000    0.000    0.000 
#
# Total GULP energy -357220.638812 kJ/mol
# GULP energy per Si atom -5581.572481 kJ/mol
# Density = 1.878564 g / cm^3
# Si number density = 18.828499 Si / 1000 Ang^3
#
#
#
# Elastic Constant Matrix: (Units=GPa)
#
#
# Indices 1 2 3 4 5 6 
#
# 1 28.5072 38.3415 32.2888 0.0000 0.0000 0.0000
# 2 38.3415 118.9953 61.1933 0.0000 0.0000 0.0000
# 3 32.2888 61.1933 90.9345 0.0000 0.0000 0.0000
# 4 0.0000 0.0000 0.0000 14.0548 0.0000 0.0000
# 5 0.0000 0.0000 0.0000 0.0000 -5.0536 0.0000
# 6 0.0000 0.0000 0.0000 0.0000 0.0000 0.0174
#
#
#
# Elastic Compliance Matrix: (Units=1/GPa)
#
#
# Indices 1 2 3 4 5 6 
#
# 1 0.074100 -0.015820 -0.015665 0.000000 0.000000 0.000000
# 2 -0.015820 0.016228 -0.005303 0.000000 0.000000 0.000000
# 3 -0.015665 -0.005303 0.020128 0.000000 0.000000 0.000000
# 4 0.000000 0.000000 0.000000 0.071150 0.000000 0.000000
# 5 0.000000 0.000000 0.000000 0.000000 -0.197880 0.000000
# 6 0.000000 0.000000 0.000000 0.000000 0.000000 57.334154
#
#
# Mechanical properties :
#
#
# Convention : Reuss Voigt Hill
#
# Bulk Modulus (GPa) = 27.11570 55.78713 41.45141
# Shear Modulus (GPa) = 0.08710 8.91128 4.49919
#
# Velocity S-wave (km/s) = 0.21532 2.17788 1.54750
# Velocity P-wave (km/s) = 3.80716 6.00147 5.02554
#
# Compressibility (1/GPa) = 0.03687901
#
# Stress axis : x y z
#
# Youngs Moduli (GPa) = 13.49536 61.62119 49.68144
#
# Poissons Ratio (x) = 0.97482 0.77828
# Poissons Ratio (y) = 0.21349 0.26348
# Poissons Ratio (z) = 0.21141 0.32680
#
# Static dielectric constant tensor:
#      x y z
#    x 1.626760 0.000000 0.000000 
#    y 0.000000 1.651680 0.000000 
#    z 0.000000 0.000000 1.652900 
# 
# From -- ./inp_files/25539.got.cif
#   From: 2010.05.17/outbox.cif.g08.bks.cpg/sg47_13_cif.got.tgz:25539.got - 2010.06.03 20:15:42.
