data_PCOD9386380
_publ_section_title
;
Structure prediction by ZEFSAII (Michael W. Deem and Ramdas Pophale) SiO2 
 PCOD9386380
Probable space group: P M M M
;
_chemical_formula_sum "Si O2"
_cell_formula_units_Z 48
_cell_length_a 9.596405
_cell_length_b 15.516172
_cell_length_c 16.742567
_cell_angle_alpha 90.000000
_cell_angle_beta 90.000000
_cell_angle_gamma 90.000000
_cell_volume 2492.959362
_symmetry_space_group_name_H-M "P M M M"
_symmetry_group_IT_number 47
_symmetry_cell_setting 'orthorhombic'
loop_
_space_group_symop_operation_xyz
x,y,z
-x,-y,z
x,-y,-z
-x,y,-z
-x,-y,-z
x,y,-z
-x,y,z
x,-y,z
loop_
_atom_site_type_symbol
_atom_site_label
_atom_site_fract_x
_atom_site_fract_y
_atom_site_fract_z
Si Si1 0.840110 0.500000 0.098047
Si Si2 0.343919 0.658850 0.906136
Si Si3 0.168420 0.000000 0.907738
Si Si4 0.161060 0.752190 0.669238
Si Si5 0.665296 0.399045 0.405182
Si Si6 0.161656 0.811769 0.147350
Si Si7 0.658891 0.902662 0.596027
O O1 0.756071 0.583896 0.126348
O O2 0.000000 0.500000 0.124864
O O3 0.844029 0.500000 0.000000
O O4 0.500000 0.659021 0.871209
O O5 0.266079 0.749197 0.898260
O O6 0.357470 0.639774 0.000000
O O7 0.206231 0.088969 0.864012
O O8 0.000000 0.000000 0.909814
O O9 0.217364 0.000000 0.000000
O O10 0.244839 0.665982 0.647355
O O11 0.165647 0.778583 0.762022
O O12 0.235332 0.831138 0.624724
O O13 0.000000 0.742997 0.645483
O O14 0.691485 0.382987 0.500000
O O15 0.500000 0.384898 0.392138
O O16 0.694739 0.500000 0.389729
O O17 0.000000 0.803631 0.119026
O O18 0.657569 0.903053 0.500000
O O19 0.500000 0.883399 0.622538
O O20 0.694552 0.000000 0.622742
#
# Coordination Sequence:
#
# PCOD9386380 Si02
#       7
#     4   8   4   8   8   8   8
#     4   9  17  31  55  83 109 141 178 217 266 329
#     4  10  20  35  56  83 113 143 182 233 283 333
#     4   9  18  36  63  85 102 139 198 248 281 331
#     4  11  23  35  53  84 120 152 184 232 290 344
#     4   9  19  38  63  86 110 149 200 245 284 336
#     4  10  22  38  56  81 112 151 191 231 285 347
#     4   9  19  36  57  80 108 148 195 234 271 329
#
# _framework density 19.254225000000002
#
# number of rings (size 3 to 8) (size 9 to 14) (size 15 to 20)
#    0.000    2.333    0.000    3.250    1.167    7.333 
#    1.500    2.083    0.000    1.500    0.000    0.000 
#    0.000    0.000    0.000    0.000    0.000    0.000 
#
# Total GULP energy -267825.916765 kJ/mol
# GULP energy per Si atom -5579.706599 kJ/mol
# Density = 1.921040 g / cm^3
# Si number density = 19.254225 Si / 1000 Ang^3
#
#
#
# Elastic Constant Matrix: (Units=GPa)
#
#
# Indices 1 2 3 4 5 6 
#
# 1 126.4193 92.6116 31.4754 0.0000 0.0000 0.0000
# 2 92.6116 155.2353 35.2198 0.0000 0.0000 0.0000
# 3 31.4754 35.2198 32.2347 0.0000 0.0000 0.0000
# 4 0.0000 0.0000 0.0000 24.7919 0.0000 0.0000
# 5 0.0000 0.0000 0.0000 0.0000 9.3533 0.0000
# 6 0.0000 0.0000 0.0000 0.0000 0.0000 -0.7053
#
#
#
# Elastic Compliance Matrix: (Units=1/GPa)
#
#
# Indices 1 2 3 4 5 6 
#
# 1 0.015003 -0.007482 -0.006475 0.000000 0.000000 0.000000
# 2 -0.007482 0.012296 -0.006129 0.000000 0.000000 0.000000
# 3 -0.006475 -0.006129 0.044042 0.000000 0.000000 0.000000
# 4 0.000000 0.000000 0.000000 0.040336 0.000000 0.000000
# 5 0.000000 0.000000 0.000000 0.000000 0.106914 0.000000
# 6 0.000000 0.000000 0.000000 0.000000 0.000000 -1.417884
#
#
# Mechanical properties :
#
#
# Convention : Reuss Voigt Hill
#
# Bulk Modulus (GPa) = 32.08328 70.27810 51.18069
# Shear Modulus (GPa) = -4.35263 16.99349 6.32043
#
# Velocity S-wave (km/s) = -1.50516 2.97406 1.81377
# Velocity P-wave (km/s) = 3.69844 6.95505 5.57006
#
# Compressibility (1/GPa) = 0.03116888
#
# Stress axis : x y z
#
# Youngs Moduli (GPa) = 66.65207 81.32805 22.70558
#
# Poissons Ratio (x) = 0.60847 0.14703
# Poissons Ratio (y) = 0.49867 0.13916
# Poissons Ratio (z) = 0.43160 0.49847
#
# Static dielectric constant tensor:
#      x y z
#    x 1.662680 0.000000 0.000000 
#    y 0.000000 1.663310 0.000000 
#    z 0.000000 0.000000 1.569920 
# 
# From -- ./inp_files/26522.got.cif
#   From: 2010.05.17/outbox.cif.g08.bks.cpg/sg47_14_cif.got.tgz:26522.got - 2010.06.03 20:15:42.
