data_PCOD9386708
_publ_section_title
;
Structure prediction by ZEFSAII (Michael W. Deem and Ramdas Pophale) SiO2 
 PCOD9386708
Probable space group: P M M M
;
_chemical_formula_sum "Si O2"
_cell_formula_units_Z 48
_cell_length_a 9.984462
_cell_length_b 7.965662
_cell_length_c 30.883344
_cell_angle_alpha 90.000000
_cell_angle_beta 90.000000
_cell_angle_gamma 90.000000
_cell_volume 2456.240352
_symmetry_space_group_name_H-M "P M M M"
_symmetry_group_IT_number 47
_symmetry_cell_setting 'orthorhombic'
loop_
_space_group_symop_operation_xyz
x,y,z
-x,-y,z
x,-y,-z
-x,y,-z
-x,-y,-z
x,y,-z
-x,y,z
x,-y,z
loop_
_atom_site_type_symbol
_atom_site_label
_atom_site_fract_x
_atom_site_fract_y
_atom_site_fract_z
Si Si1 0.155332 0.702584 0.700053
Si Si2 0.500000 0.199513 0.549783
Si Si3 0.000000 0.705662 0.548943
Si Si4 0.654314 0.200189 0.779755
Si Si5 0.245916 0.297908 0.393995
Si Si6 0.154878 0.703076 0.141340
Si Si7 0.837776 0.301920 0.953500
O O1 0.147775 0.500000 0.698333
O O2 0.254419 0.746350 0.739091
O O3 0.220191 0.763709 0.654806
O O4 0.000000 0.761652 0.705015
O O5 0.500000 0.267909 0.500000
O O6 0.623913 0.252444 0.579290
O O7 0.500000 0.000000 0.546010
O O8 0.873415 0.762247 0.575744
O O9 0.000000 0.500000 0.548206
O O10 0.000000 0.764272 0.500000
O O11 0.500000 0.265858 0.778818
O O12 0.739056 0.250609 0.822124
O O13 0.645854 0.000000 0.779022
O O14 0.240452 0.500000 0.391318
O O15 0.149208 0.500000 0.139095
O O16 0.199649 0.766962 0.093657
O O17 0.000000 0.758550 0.150303
O O18 0.801823 0.500000 0.953902
O O19 0.000000 0.294697 0.953446
O O20 0.792379 0.229452 0.000000
#
# Coordination Sequence:
#
# PCOD9386708 Si02
#       7
#     8   4   4   8   8   8   8
#     4  10  21  39  62  87 111 133 169 222 277 329
#     4  11  25  41  55  79 119 159 189 219 256 303
#     4   9  16  30  57  89 115 137 169 217 266 311
#     4  11  25  40  53  74 106 145 186 223 265 320
#     4  10  20  37  61  88 112 140 179 222 267 316
#     4   9  17  31  54  83 110 138 177 224 272 320
#     4   7  10  19  40  73 109 138 166 209 266 321
#
# _framework density 19.542061
#
# number of rings (size 3 to 8) (size 9 to 14) (size 15 to 20)
#    0.000    2.500    0.833    3.250    1.167    6.000 
#    0.000    0.417    0.000    2.500    0.000    5.833 
#    0.000    0.000    0.000    0.000    0.000    0.000 
#
# Total GULP energy -267444.015811 kJ/mol
# GULP energy per Si atom -5571.750329 kJ/mol
# Density = 1.949758 g / cm^3
# Si number density = 19.542061 Si / 1000 Ang^3
#
#
#
# Elastic Constant Matrix: (Units=GPa)
#
#
# Indices 1 2 3 4 5 6 
#
# 1 169.0847 9.8882 118.9221 0.0000 0.0000 0.0000
# 2 9.8882 20.0569 13.8922 0.0000 0.0000 0.0000
# 3 118.9221 13.8922 246.7625 0.0000 0.0000 0.0000
# 4 0.0000 0.0000 0.0000 -57.0879 0.0000 0.0000
# 5 0.0000 0.0000 0.0000 0.0000 23.8677 0.0000
# 6 0.0000 0.0000 0.0000 0.0000 0.0000 41.3561
#
#
#
# Elastic Compliance Matrix: (Units=1/GPa)
#
#
# Indices 1 2 3 4 5 6 
#
# 1 0.008989 -0.001489 -0.004248 0.000000 0.000000 0.000000
# 2 -0.001489 0.052128 -0.002217 0.000000 0.000000 0.000000
# 3 -0.004248 -0.002217 0.006225 0.000000 0.000000 0.000000
# 4 0.000000 0.000000 0.000000 -0.017517 0.000000 0.000000
# 5 0.000000 0.000000 0.000000 0.000000 0.041898 0.000000
# 6 0.000000 0.000000 0.000000 0.000000 0.000000 0.024180
#
#
# Mechanical properties :
#
#
# Convention : Reuss Voigt Hill
#
# Bulk Modulus (GPa) = 19.44282 80.14545 49.79414
# Shear Modulus (GPa) = 33.56688 21.17396 27.37042
#
# Velocity S-wave (km/s) = 4.14898 3.29524 3.74651
# Velocity P-wave (km/s) = 5.73784 7.45513 6.65213
#
# Compressibility (1/GPa) = 0.05143286
#
# Stress axis : x y z
#
# Youngs Moduli (GPa) = 111.24365 19.18355 160.65025
#
# Poissons Ratio (x) = 0.02857 0.68250
# Poissons Ratio (y) = 0.16566 0.35616
# Poissons Ratio (z) = 0.47260 0.04253
#
# Static dielectric constant tensor:
#      x y z
#    x 1.682160 0.000000 0.000000 
#    y 0.000000 1.704570 0.000000 
#    z 0.000000 0.000000 1.721830 
# 
# From -- ./inp_files/34041.got.cif
#   From: 2010.05.17/outbox.cif.g08.bks.cpg/sg47_18_cif.got.tgz:34041.got - 2010.06.03 20:15:42.
