data_PCOD9386759
_publ_section_title
;
Structure prediction by ZEFSAII (Michael W. Deem and Ramdas Pophale) SiO2 
 PCOD9386759
Probable space group: P M M M
;
_chemical_formula_sum "Si O2"
_cell_formula_units_Z 38
_cell_length_a 11.690241
_cell_length_b 9.378803
_cell_length_c 18.444847
_cell_angle_alpha 90.000000
_cell_angle_beta 90.000000
_cell_angle_gamma 90.000000
_cell_volume 2022.301645
_symmetry_space_group_name_H-M "P M M M"
_symmetry_group_IT_number 47
_symmetry_cell_setting 'orthorhombic'
loop_
_space_group_symop_operation_xyz
x,y,z
-x,-y,z
x,-y,-z
-x,y,-z
-x,-y,-z
x,y,-z
-x,y,z
x,-y,z
loop_
_atom_site_type_symbol
_atom_site_label
_atom_site_fract_x
_atom_site_fract_y
_atom_site_fract_z
Si Si1 0.500000 0.500000 0.187777
Si Si2 0.712805 0.719587 0.831248
Si Si3 0.500000 0.663207 0.588232
Si Si4 0.866590 0.329362 0.697042
Si Si5 0.637314 0.000000 0.915735
Si Si6 0.131111 0.500000 0.913578
Si Si7 0.271486 0.833551 0.412822
O O1 0.601301 0.376164 0.184138
O O2 0.783646 0.737393 0.757288
O O3 0.799470 0.633407 0.883049
O O4 0.678675 0.862310 0.872181
O O5 0.500000 0.500000 0.616774
O O6 0.500000 0.655622 0.500000
O O7 0.612840 0.749856 0.609646
O O8 0.844632 0.500000 0.693626
O O9 0.832384 0.251491 0.622903
O O10 0.000000 0.309410 0.713922
O O11 0.500000 0.000000 0.916996
O O12 0.676262 0.000000 0.000000
O O13 0.000000 0.500000 0.887349
O O14 0.131467 0.500000 0.000000
O O15 0.265772 0.828355 0.500000
O O16 0.275239 0.000000 0.391579
#
# Coordination Sequence:
#
# PCOD9386759 Si02
#       7
#     2   8   4   8   4   4   8
#     4  10  20  38  65  94 123 162 210 250 304 370
#     4  11  22  41  63  94 128 164 205 255 310 374
#     4   9  17  34  61  91 122 157 196 248 309 366
#     4  11  24  42  64  88 121 166 211 263 318 366
#     4  11  24  42  63  95 138 169 201 252 314 380
#     4  10  20  38  65  91 118 159 209 254 297 357
#     4  10  22  40  61  90 126 163 208 259 316 380
#
# _framework density 18.790472000000001
#
# number of rings (size 3 to 8) (size 9 to 14) (size 15 to 20)
#    0.000    1.579    3.158    2.211    1.474    4.211 
#    1.895    5.263    0.000    3.789    0.000    0.000 
#    0.000    0.000    0.000    0.000    0.000    0.000 
#
# Total GULP energy -211706.680803 kJ/mol
# GULP energy per Si atom -5571.228442 kJ/mol
# Density = 1.874770 g / cm^3
# Si number density = 18.790472 Si / 1000 Ang^3
#
#
#
# Elastic Constant Matrix: (Units=GPa)
#
#
# Indices 1 2 3 4 5 6 
#
# 1 132.8180 50.4874 34.9924 0.0000 0.0000 0.0000
# 2 50.4874 125.8134 39.9857 0.0000 0.0000 0.0000
# 3 34.9924 39.9857 47.8023 0.0000 0.0000 0.0000
# 4 0.0000 0.0000 0.0000-2477.8169 0.0000 0.0000
# 5 0.0000 0.0000 0.0000 0.0000 1.9676 0.0000
# 6 0.0000 0.0000 0.0000 0.0000 0.0000 13.4960
#
#
#
# Elastic Compliance Matrix: (Units=1/GPa)
#
#
# Indices 1 2 3 4 5 6 
#
# 1 0.009772 -0.002245 -0.005276 0.000000 0.000000 0.000000
# 2 -0.002245 0.011342 -0.007844 0.000000 0.000000 0.000000
# 3 -0.005276 -0.007844 0.031343 0.000000 0.000000 0.000000
# 4 0.000000 0.000000 0.000000 -0.000404 0.000000 0.000000
# 5 0.000000 0.000000 0.000000 0.000000 0.508234 0.000000
# 6 0.000000 0.000000 0.000000 0.000000 0.000000 0.074096
#
#
# Mechanical properties :
#
#
# Convention : Reuss Voigt Hill
#
# Bulk Modulus (GPa) = 46.02399 61.92941 53.97670
# Shear Modulus (GPa) = 7.43654 -480.40610 -236.48478
#
# Velocity S-wave (km/s) = 1.99153 -16.00687 -11.23062
# Velocity P-wave (km/s) = 5.46212 17.56693 11.80598
#
# Compressibility (1/GPa) = 0.02172780
#
# Stress axis : x y z
#
# Youngs Moduli (GPa) = 102.32920 88.16706 31.90498
#
# Poissons Ratio (x) = 0.19791 0.16833
# Poissons Ratio (y) = 0.22971 0.25027
# Poissons Ratio (z) = 0.53988 0.69160
#
# Static dielectric constant tensor:
#      x y z
#    x 1.625420 0.000000 0.000000 
#    y 0.000000 1.630530 0.000000 
#    z 0.000000 0.000000 1.697450 
# 
# From -- ./inp_files/27330.got.cif
#   From: 2010.05.17/outbox.cif.g08.bks.cpg/sg47_14_cif.got.tgz:27330.got - 2010.06.03 20:15:42.
