data_PCOD9386169
_publ_section_title
;
Structure prediction by ZEFSAII (Michael W. Deem and Ramdas Pophale) SiO2 
 PCOD9386169
Probable space group: P M M M
;
_chemical_formula_sum "Si O2"
_cell_formula_units_Z 52
_cell_length_a 20.750595
_cell_length_b 14.541985
_cell_length_c 8.982455
_cell_angle_alpha 90.000000
_cell_angle_beta 90.000000
_cell_angle_gamma 90.000000
_cell_volume 2710.499282
_symmetry_space_group_name_H-M "P M M M"
_symmetry_group_IT_number 47
_symmetry_cell_setting 'orthorhombic'
loop_
_space_group_symop_operation_xyz
x,y,z
-x,-y,z
x,-y,-z
-x,y,-z
-x,-y,-z
x,y,-z
-x,y,z
x,-y,z
loop_
_atom_site_type_symbol
_atom_site_label
_atom_site_fract_x
_atom_site_fract_y
_atom_site_fract_z
Si Si1 0.901414 0.103428 0.175577
Si Si2 0.929250 0.293040 0.677517
Si Si3 0.688931 0.712237 0.673757
Si Si4 0.232507 0.100675 0.330064
Si Si5 0.806062 0.390496 0.174858
Si Si6 0.421805 0.000000 0.670120
Si Si7 0.575880 0.805850 0.177131
O O1 0.929373 0.187817 0.267059
O O2 0.825389 0.106515 0.213591
O O3 0.923099 0.000000 0.216340
O O4 0.912788 0.116182 0.000000
O O5 0.921373 0.296002 0.500000
O O6 0.868466 0.342773 0.752045
O O7 0.000000 0.333320 0.715275
O O8 0.681020 0.689653 0.500000
O O9 0.721973 0.812827 0.684888
O O10 0.740270 0.644818 0.749713
O O11 0.620736 0.726954 0.753586
O O12 0.205600 0.104357 0.500000
O O13 0.263796 0.000000 0.313386
O O14 0.811409 0.500000 0.191249
O O15 0.804620 0.367043 0.000000
O O16 0.405803 0.094803 0.753388
O O17 0.500000 0.000000 0.663678
O O18 0.397554 0.000000 0.500000
O O19 0.500000 0.790765 0.208286
O O20 0.584819 0.809820 0.000000
#
# Coordination Sequence:
#
# PCOD9386169 Si02
#       7
#     8   8   8   8   8   4   8
#     4  10  20  34  55  84 119 159 201 244 289 340
#     4  11  24  41  62  89 121 158 199 243 294 352
#     4  11  22  36  61  91 119 156 199 244 296 354
#     4   9  18  32  51  79 116 154 194 239 288 345
#     4  11  25  45  68  92 118 149 190 243 304 368
#     4   9  17  31  51  77 115 163 212 255 294 343
#     4  10  21  36  54  81 121 165 207 250 296 349
#
# _framework density 19.184657000000001
#
# number of rings (size 3 to 8) (size 9 to 14) (size 15 to 20)
#    0.000    1.769    1.538    2.538    1.077    6.462 
#    0.000    3.077    0.000    0.462    0.000    3.231 
#    0.000    0.000    0.000    0.000    0.000    0.000 
#
# Total GULP energy -290407.839264 kJ/mol
# GULP energy per Si atom -5584.766140 kJ/mol
# Density = 1.914099 g / cm^3
# Si number density = 19.184657 Si / 1000 Ang^3
#
#
#
# Elastic Constant Matrix: (Units=GPa)
#
#
# Indices 1 2 3 4 5 6 
#
# 1 120.4778 43.7714 75.3510 0.0000 0.0000 0.0000
# 2 43.7714 60.7245 50.5564 0.0000 0.0000 0.0000
# 3 75.3510 50.5564 109.9319 0.0000 0.0000 0.0000
# 4 0.0000 0.0000 0.0000 19.4479 0.0000 0.0000
# 5 0.0000 0.0000 0.0000 0.0000 -37.3096 0.0000
# 6 0.0000 0.0000 0.0000 0.0000 0.0000 -3.5988
#
#
#
# Elastic Compliance Matrix: (Units=1/GPa)
#
#
# Indices 1 2 3 4 5 6 
#
# 1 0.015013 -0.003653 -0.008610 0.000000 0.000000 0.000000
# 2 -0.003653 0.027574 -0.010177 0.000000 0.000000 0.000000
# 3 -0.008610 -0.010177 0.019679 0.000000 0.000000 0.000000
# 4 0.000000 0.000000 0.000000 0.051420 0.000000 0.000000
# 5 0.000000 0.000000 0.000000 0.000000 -0.026803 0.000000
# 6 0.000000 0.000000 0.000000 0.000000 0.000000 -0.277869
#
#
# Mechanical properties :
#
#
# Convention : Reuss Voigt Hill
#
# Bulk Modulus (GPa) = 57.52197 70.05463 63.78830
# Shear Modulus (GPa) = -35.63478 3.80493 -15.91493
#
# Velocity S-wave (km/s) = -4.31450 1.40983 -2.88334
# Velocity P-wave (km/s) = 2.28659 6.26462 4.71561
#
# Compressibility (1/GPa) = 0.01738466
#
# Stress axis : x y z
#
# Youngs Moduli (GPa) = 66.61095 36.26627 50.81670
#
# Poissons Ratio (x) = 0.13248 0.43754
# Poissons Ratio (y) = 0.24332 0.51716
# Poissons Ratio (z) = 0.57353 0.36908
#
# Static dielectric constant tensor:
#      x y z
#    x 1.707700 0.000000 0.000000 
#    y 0.000000 1.652920 0.000000 
#    z 0.000000 0.000000 1.649030 
# 
# From -- ./inp_files/11082.got.cif
#   From: 2010.05.17/outbox.cif.g08.bks.cpg/sg47_6_cif.got.tgz:11082.got - 2010.06.03 20:15:42.
