data_PCOD9386773
_publ_section_title
;
Structure prediction by ZEFSAII (Michael W. Deem and Ramdas Pophale) SiO2 
 PCOD9386773
Probable space group: P M M M
;
_chemical_formula_sum "Si O2"
_cell_formula_units_Z 37
_cell_length_a 9.973176
_cell_length_b 10.774836
_cell_length_c 18.122735
_cell_angle_alpha 90.000000
_cell_angle_beta 90.000000
_cell_angle_gamma 90.000000
_cell_volume 1947.457066
_symmetry_space_group_name_H-M "P M M M"
_symmetry_group_IT_number 47
_symmetry_cell_setting 'orthorhombic'
loop_
_space_group_symop_operation_xyz
x,y,z
-x,-y,z
x,-y,-z
-x,y,-z
-x,-y,-z
x,y,-z
-x,y,z
x,-y,z
loop_
_atom_site_type_symbol
_atom_site_label
_atom_site_fract_x
_atom_site_fract_y
_atom_site_fract_z
Si Si1 0.838230 0.223673 0.846430
Si Si2 0.245808 0.764890 0.323738
Si Si3 0.272835 0.500000 0.129266
Si Si4 0.000000 0.147792 0.581993
Si Si5 0.500000 0.500000 0.000000
Si Si6 0.654125 0.500000 0.298797
Si Si7 0.500000 0.853977 0.585133
Si Si8 0.658672 0.000000 0.911895
O O1 0.790021 0.207022 0.761400
O O2 0.807591 0.367257 0.871327
O O3 0.744840 0.122158 0.888214
O O4 0.000000 0.201540 0.852773
O O5 0.269013 0.619155 0.325988
O O6 0.375340 0.820837 0.362949
O O7 0.126216 0.808788 0.373338
O O8 0.381943 0.500000 0.064701
O O9 0.341904 0.500000 0.209830
O O10 0.000000 0.199245 0.500000
O O11 0.000000 0.000000 0.578309
O O12 0.500000 0.500000 0.323131
O O13 0.500000 0.800829 0.500000
O O14 0.500000 0.000000 0.575374
O O15 0.500000 0.000000 0.885143
O O16 0.651037 0.000000 0.000000
#
# Coordination Sequence:
#
# PCOD9386773 Si02
#       8
#     8   8   4   4   1   4   4   4
#     4  11  25  45  70 101 137 181 225 279 340 414
#     4  11  23  40  69  94 129 173 224 268 329 402
#     4  10  25  40  72  96 136 172 232 271 344 401
#     4  11  24  43  65  95 135 173 217 277 334 390
#     4  12  24  40  70 110 132 180 228 294 328 420
#     4  10  20  42  63  95 126 167 209 280 322 382
#     4  11  24  40  61  94 133 174 223 280 336 389
#     4  11  29  47  69 101 138 175 224 285 342 397
#
# _framework density 18.999134999999999
#
# number of rings (size 3 to 8) (size 9 to 14) (size 15 to 20)
#    0.000    1.189    2.703    1.946    7.568    3.027 
#    0.000    3.784    0.000    0.000    0.000    0.000 
#    0.000    0.000    0.000    0.000    0.000    0.000 
#
# Total GULP energy -206006.466946 kJ/mol
# GULP energy per Si atom -5567.742350 kJ/mol
# Density = 1.895589 g / cm^3
# Si number density = 18.999135 Si / 1000 Ang^3
#
#
#
# Elastic Constant Matrix: (Units=GPa)
#
#
# Indices 1 2 3 4 5 6 
#
# 1 199.1677 66.8916 75.2379 0.0000 0.0000 0.0000
# 2 66.8916 119.6875 59.5465 0.0000 0.0000 0.0000
# 3 75.2379 59.5465 124.0665 0.0000 0.0000 0.0000
# 4 0.0000 0.0000 0.0000 -112.3019 0.0000 0.0000
# 5 0.0000 0.0000 0.0000 0.0000 45.3007 0.0000
# 6 0.0000 0.0000 0.0000 0.0000 0.0000 23.2782
#
#
#
# Elastic Compliance Matrix: (Units=1/GPa)
#
#
# Indices 1 2 3 4 5 6 
#
# 1 0.006986 -0.002360 -0.003104 0.000000 0.000000 0.000000
# 2 -0.002360 0.011773 -0.004219 0.000000 0.000000 0.000000
# 3 -0.003104 -0.004219 0.011968 0.000000 0.000000 0.000000
# 4 0.000000 0.000000 0.000000 -0.008905 0.000000 0.000000
# 5 0.000000 0.000000 0.000000 0.000000 0.022075 0.000000
# 6 0.000000 0.000000 0.000000 0.000000 0.000000 0.042959
#
#
# Mechanical properties :
#
#
# Convention : Reuss Voigt Hill
#
# Bulk Modulus (GPa) = 88.02645 94.03040 91.02842
# Shear Modulus (GPa) = 45.45062 7.33843 26.39453
#
# Velocity S-wave (km/s) = 4.89637 1.96746 3.73131
# Velocity P-wave (km/s) = 8.85428 7.40004 8.15962
#
# Compressibility (1/GPa) = 0.01136022
#
# Stress axis : x y z
#
# Youngs Moduli (GPa) = 143.14175 84.93716 83.55927
#
# Poissons Ratio (x) = 0.20047 0.25935
# Poissons Ratio (y) = 0.33785 0.35257
# Poissons Ratio (z) = 0.44428 0.35838
#
# Static dielectric constant tensor:
#      x y z
#    x 1.637680 0.000000 0.000000 
#    y 0.000000 1.660280 0.000000 
#    z 0.000000 0.000000 1.654240 
# 
# From -- ./inp_files/26215.got.cif
#   From: 2010.05.17/outbox.cif.g08.bks.cpg/sg47_14_cif.got.tgz:26215.got - 2010.06.03 20:15:42.
