data_PCOD9386146
_publ_section_title
;
Structure prediction by ZEFSAII (Michael W. Deem and Ramdas Pophale) SiO2 
 PCOD9386146
Probable space group: P M M M
;
_chemical_formula_sum "Si O2"
_cell_formula_units_Z 52
_cell_length_a 8.987907
_cell_length_b 15.969872
_cell_length_c 19.886934
_cell_angle_alpha 90.000000
_cell_angle_beta 90.000000
_cell_angle_gamma 90.000000
_cell_volume 2854.485477
_symmetry_space_group_name_H-M "P M M M"
_symmetry_group_IT_number 47
_symmetry_cell_setting 'orthorhombic'
loop_
_space_group_symop_operation_xyz
x,y,z
-x,-y,z
x,-y,-z
-x,y,-z
-x,-y,-z
x,y,-z
-x,y,z
x,-y,z
loop_
_atom_site_type_symbol
_atom_site_label
_atom_site_fract_x
_atom_site_fract_y
_atom_site_fract_z
Si Si1 0.678084 0.593239 0.218273
Si Si2 0.331767 0.500000 0.581698
Si Si3 0.177323 0.843858 0.076293
Si Si4 0.677204 0.094177 0.790632
Si Si5 0.821671 0.326509 0.576787
Si Si6 0.177803 0.753665 0.711116
Si Si7 0.676021 0.337749 0.074827
O O1 0.500000 0.601810 0.229146
O O2 0.723168 0.500000 0.240553
O O3 0.761339 0.669733 0.253339
O O4 0.704651 0.603179 0.138110
O O5 0.500000 0.500000 0.607544
O O6 0.335930 0.500000 0.500000
O O7 0.249389 0.585536 0.599450
O O8 0.259226 0.894206 0.134347
O O9 0.230844 0.747487 0.082365
O O10 0.000000 0.848601 0.085466
O O11 0.212781 0.871232 0.000000
O O12 0.500000 0.105690 0.791995
O O13 0.749484 0.165831 0.745062
O O14 0.710770 0.000000 0.766965
O O15 0.774094 0.308431 0.500000
O O16 0.784918 0.257197 0.632199
O O17 0.000000 0.336829 0.576403
O O18 0.000000 0.757516 0.718857
O O19 0.500000 0.315659 0.077664
O O20 0.704871 0.372806 0.000000
#
# Coordination Sequence:
#
# PCOD9386146 Si02
#       7
#     8   4   8   8   8   8   8
#     4  10  21  35  52  78 113 153 192 232 278 327
#     4   9  17  29  49  81 115 147 186 227 266 313
#     4  10  20  34  55  83 113 144 180 227 281 332
#     4  11  24  41  61  84 111 145 184 227 280 342
#     4   9  19  36  56  79 111 150 188 226 273 329
#     4  11  23  38  59  84 111 146 186 231 281 332
#     4   9  17  31  52  75 104 146 192 234 275 322
#
# _framework density 18.216942
#
# number of rings (size 3 to 8) (size 9 to 14) (size 15 to 20)
#    0.000    2.077    1.538    1.615    1.077    5.231 
#    0.000    3.077    0.000    0.462    0.000    6.462 
#    0.000    0.000    0.000    0.000    0.000    0.000 
#
# Total GULP energy -290288.218425 kJ/mol
# GULP energy per Si atom -5582.465739 kJ/mol
# Density = 1.817548 g / cm^3
# Si number density = 18.216942 Si / 1000 Ang^3
#
#
#
# Elastic Constant Matrix: (Units=GPa)
#
#
# Indices 1 2 3 4 5 6 
#
# 1 47.4904 55.2871 48.5861 0.0000 0.0000 0.0000
# 2 55.2871 125.9420 72.1316 0.0000 0.0000 0.0000
# 3 48.5861 72.1316 114.5231 0.0000 0.0000 0.0000
# 4 0.0000 0.0000 0.0000 14.3910 0.0000 0.0000
# 5 0.0000 0.0000 0.0000 0.0000 17.4174 0.0000
# 6 0.0000 0.0000 0.0000 0.0000 0.0000 -31.3873
#
#
#
# Elastic Compliance Matrix: (Units=1/GPa)
#
#
# Indices 1 2 3 4 5 6 
#
# 1 0.051789 -0.015879 -0.011970 0.000000 0.000000 0.000000
# 2 -0.015879 0.017290 -0.004153 0.000000 0.000000 0.000000
# 3 -0.011970 -0.004153 0.016426 0.000000 0.000000 0.000000
# 4 0.000000 0.000000 0.000000 0.069488 0.000000 0.000000
# 5 0.000000 0.000000 0.000000 0.000000 0.057414 0.000000
# 6 0.000000 0.000000 0.000000 0.000000 0.000000 -0.031860
#
#
# Mechanical properties :
#
#
# Convention : Reuss Voigt Hill
#
# Bulk Modulus (GPa) = 46.51123 71.10722 58.80922
# Shear Modulus (GPa) = 19.86354 7.54760 13.70557
#
# Velocity S-wave (km/s) = 3.30569 2.03769 2.74588
# Velocity P-wave (km/s) = 6.33698 6.68240 6.51198
#
# Compressibility (1/GPa) = 0.02150018
#
# Stress axis : x y z
#
# Youngs Moduli (GPa) = 19.30901 57.83847 60.87974
#
# Poissons Ratio (x) = 0.91843 0.72873
# Poissons Ratio (y) = 0.30661 0.25283
# Poissons Ratio (z) = 0.23113 0.24020
#
# Static dielectric constant tensor:
#      x y z
#    x 1.608300 0.000000 0.000000 
#    y 0.000000 1.599300 0.000000 
#    z 0.000000 0.000000 1.668560 
# 
# From -- ./inp_files/25050.got.cif
#   From: 2010.05.17/outbox.cif.g08.bks.cpg/sg47_13_cif.got.tgz:25050.got - 2010.06.03 20:15:42.
