data_PCOD9386225
_publ_section_title
;
Structure prediction by ZEFSAII (Michael W. Deem and Ramdas Pophale) SiO2 
 PCOD9386225
Probable space group: P M M M
;
_chemical_formula_sum "Si O2"
_cell_formula_units_Z 56
_cell_length_a 20.094844
_cell_length_b 8.375005
_cell_length_c 15.900807
_cell_angle_alpha 90.000000
_cell_angle_beta 90.000000
_cell_angle_gamma 90.000000
_cell_volume 2676.017075
_symmetry_space_group_name_H-M "P M M M"
_symmetry_group_IT_number 47
_symmetry_cell_setting 'orthorhombic'
loop_
_space_group_symop_operation_xyz
x,y,z
-x,-y,z
x,-y,-z
-x,y,-z
-x,-y,-z
x,y,-z
-x,y,z
x,-y,z
loop_
_atom_site_type_symbol
_atom_site_label
_atom_site_fract_x
_atom_site_fract_y
_atom_site_fract_z
Si Si1 0.925658 0.807087 0.727568
Si Si2 0.575276 0.687580 0.357280
Si Si3 0.717647 0.192385 0.905117
Si Si4 0.292332 0.185188 0.407771
Si Si5 0.574415 0.193174 0.165853
Si Si6 0.080101 0.182927 0.912236
Si Si7 0.790929 0.684848 0.738409
O O1 0.911381 0.741032 0.822010
O O2 0.855630 0.758265 0.689796
O O3 0.000000 0.754876 0.700065
O O4 0.928558 0.000000 0.731533
O O5 0.500000 0.718141 0.384588
O O6 0.589670 0.500000 0.369609
O O7 0.628730 0.793423 0.404338
O O8 0.578743 0.729438 0.258001
O O9 0.640921 0.240441 0.884902
O O10 0.765469 0.244188 0.827969
O O11 0.719480 0.000000 0.905700
O O12 0.735757 0.246808 0.000000
O O13 0.267748 0.235885 0.500000
O O14 0.266585 0.285245 0.329250
O O15 0.274535 0.000000 0.394591
O O16 0.500000 0.231478 0.131095
O O17 0.577109 0.000000 0.174596
O O18 0.000000 0.169645 0.916463
O O19 0.106179 0.000000 0.909827
O O20 0.102703 0.257955 0.000000
O O21 0.802846 0.500000 0.751458
#
# Coordination Sequence:
#
# PCOD9386225 Si02
#       7
#     8   8   8   8   8   8   8
#     4   9  18  34  58  85 112 147 191 237 287 349
#     4  10  20  34  56  88 125 161 194 235 295 360
#     4  10  21  37  58  84 117 161 211 257 299 349
#     4  11  24  42  65  90 116 152 201 251 297 351
#     4   9  17  31  54  82 114 155 203 255 303 345
#     4   7  10  19  39  69 101 131 169 218 266 312
#     4  12  25  40  60  86 122 161 193 240 302 361
#
# _framework density 20.926621000000001
#
# number of rings (size 3 to 8) (size 9 to 14) (size 15 to 20)
#    0.000    2.286    1.429    3.429    0.000    3.714 
#    0.000    4.286    0.000    0.429    0.000    9.000 
#    0.000    0.000    0.000    0.000    0.000    0.000 
#
# Total GULP energy -311903.099393 kJ/mol
# GULP energy per Si atom -5569.698203 kJ/mol
# Density = 2.087899 g / cm^3
# Si number density = 20.926621 Si / 1000 Ang^3
#
#
#
# Elastic Constant Matrix: (Units=GPa)
#
#
# Indices 1 2 3 4 5 6 
#
# 1 129.2039 21.4893 15.4824 0.0000 0.0000 0.0000
# 2 21.4893 32.9906 13.1787 0.0000 0.0000 0.0000
# 3 15.4824 13.1787 57.3932 0.0000 0.0000 0.0000
# 4 0.0000 0.0000 0.0000 -46.7307 0.0000 0.0000
# 5 0.0000 0.0000 0.0000 0.0000 -0.8083 0.0000
# 6 0.0000 0.0000 0.0000 0.0000 0.0000 14.7058
#
#
#
# Elastic Compliance Matrix: (Units=1/GPa)
#
#
# Indices 1 2 3 4 5 6 
#
# 1 0.008749 -0.005237 -0.001158 0.000000 0.000000 0.000000
# 2 -0.005237 0.036507 -0.006970 0.000000 0.000000 0.000000
# 3 -0.001158 -0.006970 0.019336 0.000000 0.000000 0.000000
# 4 0.000000 0.000000 0.000000 -0.021399 0.000000 0.000000
# 5 0.000000 0.000000 0.000000 0.000000 -1.237139 0.000000
# 6 0.000000 0.000000 0.000000 0.000000 0.000000 0.068000
#
#
# Mechanical properties :
#
#
# Convention : Reuss Voigt Hill
#
# Bulk Modulus (GPa) = 26.41047 35.54314 30.97681
# Shear Modulus (GPa) = -4.60153 4.72918 0.06383
#
# Velocity S-wave (km/s) = -1.48447 1.50492 0.17483
# Velocity P-wave (km/s) = 3.11604 4.47675 3.85687
#
# Compressibility (1/GPa) = 0.03786377
#
# Stress axis : x y z
#
# Youngs Moduli (GPa) = 114.29346 27.39201 51.71570
#
# Poissons Ratio (x) = 0.14344 0.05988
# Poissons Ratio (y) = 0.59851 0.36046
# Poissons Ratio (z) = 0.13233 0.19093
#
# Static dielectric constant tensor:
#      x y z
#    x 1.839960 0.000000 0.000000 
#    y 0.000000 1.744940 0.000000 
#    z 0.000000 0.000000 1.800040 
# 
# From -- ./inp_files/25141.got.cif
#   From: 2010.05.17/outbox.cif.g08.bks.cpg/sg47_13_cif.got.tgz:25141.got - 2010.06.03 20:15:42.
