data_PCOD9386056
_publ_section_title
;
Structure prediction by ZEFSAII (Michael W. Deem and Ramdas Pophale) SiO2 
 PCOD9386056
Probable space group: P M M M
;
_chemical_formula_sum "Si O2"
_cell_formula_units_Z 44
_cell_length_a 14.413522
_cell_length_b 8.057867
_cell_length_c 20.127295
_cell_angle_alpha 90.000000
_cell_angle_beta 90.000000
_cell_angle_gamma 90.000000
_cell_volume 2337.629192
_symmetry_space_group_name_H-M "P M M M"
_symmetry_group_IT_number 47
_symmetry_cell_setting 'orthorhombic'
loop_
_space_group_symop_operation_xyz
x,y,z
-x,-y,z
x,-y,-z
-x,y,-z
-x,-y,-z
x,y,-z
-x,y,z
x,-y,z
loop_
_atom_site_type_symbol
_atom_site_label
_atom_site_fract_x
_atom_site_fract_y
_atom_site_fract_z
Si Si1 0.613432 0.500000 0.922901
Si Si2 0.111202 0.188540 0.428009
Si Si3 0.392447 0.799795 0.575236
Si Si4 0.302561 0.300529 0.712193
Si Si5 0.103142 0.690657 0.714476
Si Si6 0.609921 0.817664 0.158781
O O1 0.500000 0.500000 0.920124
O O2 0.646822 0.335443 0.884660
O O3 0.639632 0.500000 0.000000
O O4 0.146289 0.244524 0.500000
O O5 0.121626 0.303925 0.364952
O O6 0.000000 0.174471 0.433538
O O7 0.146396 0.000000 0.415471
O O8 0.367083 0.745176 0.500000
O O9 0.500000 0.748780 0.586745
O O10 0.329514 0.741890 0.636457
O O11 0.390276 0.000000 0.575003
O O12 0.303090 0.500000 0.718145
O O13 0.201140 0.236006 0.737082
O O14 0.374188 0.222881 0.763877
O O15 0.098479 0.500000 0.736419
O O16 0.000000 0.765700 0.726099
O O17 0.500000 0.823053 0.146643
O O18 0.648232 0.000000 0.142680
#
# Coordination Sequence:
#
# PCOD9386056 Si02
#       6
#     4   8   8   8   8   8
#     4   9  18  34  56  84 118 150 178 207 240 290
#     4   8  14  25  40  56  74 100 139 190 249 309
#     4   9  19  35  51  67  90 123 167 220 274 324
#     4  11  21  32  49  71  98 133 174 221 268 315
#     4   9  19  33  45  60  86 121 161 208 260 310
#     4  10  20  34  54  81 113 147 179 211 251 301
#
# _framework density 18.822489000000001
#
# number of rings (size 3 to 8) (size 9 to 14) (size 15 to 20)
#    0.000    2.636    0.909    2.182    0.000    5.818 
#    0.000    8.182    0.000    0.000    0.000    0.000 
#    0.000    1.455    0.000    1.636    0.000    0.182 
#
# Total GULP energy -244946.123176 kJ/mol
# GULP energy per Si atom -5566.957345 kJ/mol
# Density = 1.877965 g / cm^3
# Si number density = 18.822489 Si / 1000 Ang^3
#
#
#
# Elastic Constant Matrix: (Units=GPa)
#
#
# Indices 1 2 3 4 5 6 
#
# 1 68.1304 15.4500 1.9541 0.0000 0.0000 0.0000
# 2 15.4500 78.0553 34.8371 0.0000 0.0000 0.0000
# 3 1.9541 34.8371 66.2803 0.0000 0.0000 0.0000
# 4 0.0000 0.0000 0.0000 13.9119 0.0000 0.0000
# 5 0.0000 0.0000 0.0000 0.0000 -2.4785 0.0000
# 6 0.0000 0.0000 0.0000 0.0000 0.0000 5.8931
#
#
#
# Elastic Compliance Matrix: (Units=1/GPa)
#
#
# Indices 1 2 3 4 5 6 
#
# 1 0.015482 -0.003737 0.001508 0.000000 0.000000 0.000000
# 2 -0.003737 0.017640 -0.009161 0.000000 0.000000 0.000000
# 3 0.001508 -0.009161 0.019858 0.000000 0.000000 0.000000
# 4 0.000000 0.000000 0.000000 0.071881 0.000000 0.000000
# 5 0.000000 0.000000 0.000000 0.000000 -0.403473 0.000000
# 6 0.000000 0.000000 0.000000 0.000000 0.000000 0.169689
#
#
# Mechanical properties :
#
#
# Convention : Reuss Voigt Hill
#
# Bulk Modulus (GPa) = 33.11432 35.21649 34.16540
# Shear Modulus (GPa) = -65.72500 14.14696 -25.78902
#
# Velocity S-wave (km/s) = -5.91558 2.74450 -3.70553
# Velocity P-wave (km/s) = 5.38774 5.36596 0.34222
#
# Compressibility (1/GPa) = 0.03019842
#
# Stress axis : x y z
#
# Youngs Moduli (GPa) = 64.59102 56.68899 50.35682
#
# Poissons Ratio (x) = 0.21187 -0.07594
# Poissons Ratio (y) = 0.24141 0.46134
# Poissons Ratio (z) = -0.09740 0.51936
#
# Static dielectric constant tensor:
#      x y z
#    x 1.737580 0.000000 0.000000 
#    y 0.000000 1.697260 0.000000 
#    z 0.000000 0.000000 1.638200 
# 
# From -- ./inp_files/27890.got.cif
#   From: 2010.05.17/outbox.cif.g08.bks.cpg/sg47_14_cif.got.tgz:27890.got - 2010.06.03 20:15:42.
