data_PCOD9386358
_publ_section_title
;
Structure prediction by ZEFSAII (Michael W. Deem and Ramdas Pophale) SiO2 
 PCOD9386358
Probable space group: P M M M
;
_chemical_formula_sum "Si O2"
_cell_formula_units_Z 48
_cell_length_a 9.070950
_cell_length_b 17.670996
_cell_length_c 16.550629
_cell_angle_alpha 90.000000
_cell_angle_beta 90.000000
_cell_angle_gamma 90.000000
_cell_volume 2652.945359
_symmetry_space_group_name_H-M "P M M M"
_symmetry_group_IT_number 47
_symmetry_cell_setting 'orthorhombic'
loop_
_space_group_symop_operation_xyz
x,y,z
-x,-y,z
x,-y,-z
-x,y,-z
-x,-y,-z
x,y,-z
-x,y,z
x,-y,z
loop_
_atom_site_type_symbol
_atom_site_label
_atom_site_fract_x
_atom_site_fract_y
_atom_site_fract_z
Si Si1 0.667201 0.894999 0.000000
Si Si2 0.671681 0.500000 0.598608
Si Si3 0.172192 0.222903 0.719581
Si Si4 0.176203 0.342233 0.403871
Si Si5 0.829604 0.353051 0.148407
Si Si6 0.324809 0.500000 0.096388
Si Si7 0.322190 0.085573 0.182737
Si Si8 0.334440 0.283096 0.000000
O O1 0.732631 0.913330 0.088559
O O2 0.500000 0.925001 0.000000
O O3 0.654031 0.805660 0.000000
O O4 0.500000 0.500000 0.621748
O O5 0.680174 0.500000 0.500000
O O6 0.748259 0.420951 0.624876
O O7 0.226742 0.263092 0.637020
O O8 0.179833 0.296794 0.776866
O O9 0.254663 0.152686 0.762468
O O10 0.000000 0.201060 0.710889
O O11 0.198801 0.337880 0.500000
O O12 0.000000 0.348923 0.388544
O O13 0.736462 0.428856 0.145133
O O14 0.758602 0.306764 0.076041
O O15 0.000000 0.371787 0.134089
O O16 0.500000 0.500000 0.095061
O O17 0.276595 0.500000 0.000000
O O18 0.500000 0.096829 0.179556
O O19 0.293876 0.000000 0.213581
O O20 0.500000 0.317034 0.000000
#
# Coordination Sequence:
#
# PCOD9386358 Si02
#       8
#     4   4   8   8   8   4   8   4
#     4   9  17  31  53  78 104 135 174 217 257 308
#     4   9  17  30  51  82 114 138 166 212 264 309
#     4  10  22  37  54  79 108 136 171 218 267 315
#     4   9  18  35  58  80 106 144 183 216 259 318
#     4  11  22  35  51  72 101 136 172 215 266 309
#     4  11  23  36  51  70  96 136 186 227 251 292
#     4  10  20  35  56  81 108 140 177 215 261 317
#     4  11  19  31  52  73  97 134 176 214 252 303
#
# _framework density 18.093098000000001
#
# number of rings (size 3 to 8) (size 9 to 14) (size 15 to 20)
#    0.000    2.000    2.500    1.500    0.000    4.667 
#    0.000    3.750    0.000    1.500    0.000    3.500 
#    0.000    0.000    0.000    0.000    0.000    0.000 
#
# Total GULP energy -267327.396402 kJ/mol
# GULP energy per Si atom -5569.320758 kJ/mol
# Density = 1.805192 g / cm^3
# Si number density = 18.093098 Si / 1000 Ang^3
#
#
#
# Elastic Constant Matrix: (Units=GPa)
#
#
# Indices 1 2 3 4 5 6 
#
# 1 59.5663 47.6759 27.7466 0.0000 0.0000 0.0000
# 2 47.6759 158.1919 41.2537 0.0000 0.0000 0.0000
# 3 27.7466 41.2537 56.8614 0.0000 0.0000 0.0000
# 4 0.0000 0.0000 0.0000 5.4761 0.0000 0.0000
# 5 0.0000 0.0000 0.0000 0.0000 15.8665 0.0000
# 6 0.0000 0.0000 0.0000 0.0000 0.0000 24.6457
#
#
#
# Elastic Compliance Matrix: (Units=1/GPa)
#
#
# Indices 1 2 3 4 5 6 
#
# 1 0.024931 -0.005354 -0.008281 0.000000 0.000000 0.000000
# 2 -0.005354 0.008946 -0.003878 0.000000 0.000000 0.000000
# 3 -0.008281 -0.003878 0.024441 0.000000 0.000000 0.000000
# 4 0.000000 0.000000 0.000000 0.182612 0.000000 0.000000
# 5 0.000000 0.000000 0.000000 0.000000 0.063026 0.000000
# 6 0.000000 0.000000 0.000000 0.000000 0.000000 0.040575
#
#
# Mechanical properties :
#
#
# Convention : Reuss Voigt Hill
#
# Bulk Modulus (GPa) = 42.93339 56.44135 49.68737
# Shear Modulus (GPa) = 12.90918 19.72722 16.31820
#
# Velocity S-wave (km/s) = 2.67401 3.30558 3.00643
# Velocity P-wave (km/s) = 5.77187 6.76992 6.29072
#
# Compressibility (1/GPa) = 0.02329189
#
# Stress axis : x y z
#
# Youngs Moduli (GPa) = 40.11120 111.77688 40.91470
#
# Poissons Ratio (x) = 0.59846 0.33881
# Poissons Ratio (y) = 0.21476 0.15867
# Poissons Ratio (z) = 0.33216 0.43348
#
# Static dielectric constant tensor:
#      x y z
#    x 1.619100 0.000000 0.000000 
#    y 0.000000 1.695140 0.000000 
#    z 0.000000 0.000000 1.660800 
# 
# From -- ./inp_files/21202.got.cif
#   From: 2010.05.17/outbox.cif.g08.bks.cpg/sg47_11_cif.got.tgz:21202.got - 2010.06.03 20:15:42.
