data_PCOD9386783
_publ_section_title
;
Structure prediction by ZEFSAII (Michael W. Deem and Ramdas Pophale) SiO2 
 PCOD9386783
Probable space group: P M M M
;
_chemical_formula_sum "Si O2"
_cell_formula_units_Z 56
_cell_length_a 14.864240
_cell_length_b 15.904307
_cell_length_c 13.923596
_cell_angle_alpha 90.000000
_cell_angle_beta 90.000000
_cell_angle_gamma 90.000000
_cell_volume 3291.613787
_symmetry_space_group_name_H-M "P M M M"
_symmetry_group_IT_number 47
_symmetry_cell_setting 'orthorhombic'
loop_
_space_group_symop_operation_xyz
x,y,z
-x,-y,z
x,-y,-z
-x,y,-z
-x,-y,-z
x,y,-z
-x,y,z
x,-y,z
loop_
_atom_site_type_symbol
_atom_site_label
_atom_site_fract_x
_atom_site_fract_y
_atom_site_fract_z
Si Si1 0.107708 0.598949 0.385928
Si Si2 0.099080 0.406940 0.885629
Si Si3 0.897497 0.905361 0.615459
Si Si4 0.259671 0.277101 0.108964
Si Si5 0.393695 0.591898 0.185748
Si Si6 0.772995 0.244669 0.683466
Si Si7 0.394882 0.668199 0.392102
O O1 0.123168 0.612144 0.500000
O O2 0.128627 0.500000 0.366372
O O3 0.168271 0.668673 0.331817
O O4 0.000000 0.610467 0.370053
O O5 0.121737 0.500000 0.847897
O O6 0.174489 0.338149 0.876074
O O7 0.000000 0.383390 0.848265
O O8 0.090961 0.415170 0.000000
O O9 0.899262 0.906108 0.500000
O O10 0.831981 0.831892 0.646609
O O11 0.000000 0.888750 0.648474
O O12 0.872169 0.000000 0.647158
O O13 0.345513 0.336686 0.125058
O O14 0.253509 0.223683 0.206152
O O15 0.258027 0.242780 0.000000
O O16 0.500000 0.593822 0.169196
O O17 0.358023 0.500000 0.159569
O O18 0.380114 0.607758 0.300090
O O19 0.680470 0.261023 0.625538
O O20 0.382576 0.632462 0.500000
O O21 0.500000 0.695463 0.385913
#
# Coordination Sequence:
#
# PCOD9386783 Si02
#       7
#     8   8   8   8   8   8   8
#     4   9  18  31  46  68  98 127 157 196 240 289
#     4   8  14  25  39  53  73 106 147 189 232 274
#     4   9  18  33  55  84 111 129 151 189 237 291
#     4  10  21  33  43  60  87 119 159 205 246 281
#     4   9  18  31  46  65  88 119 165 216 261 302
#     4  11  20  31  51  72  94 130 168 199 238 291
#     4   9  18  31  46  67  96 127 158 196 244 299
#
# _framework density 17.012931999999999
#
# number of rings (size 3 to 8) (size 9 to 14) (size 15 to 20)
#    0.000    2.714    0.000    3.429    0.000    6.571 
#    0.000    3.571    0.000    0.857    0.000    3.000 
#    0.000    0.000    0.000    7.143    0.000    0.286 
#
# Total GULP energy -311750.851808 kJ/mol
# GULP energy per Si atom -5566.979497 kJ/mol
# Density = 1.697421 g / cm^3
# Si number density = 17.012932 Si / 1000 Ang^3
#
#
#
# Elastic Constant Matrix: (Units=GPa)
#
#
# Indices 1 2 3 4 5 6 
#
# 1 62.3018 28.2595 4.0649 0.0000 0.0000 0.0000
# 2 28.2595 57.2283 3.6684 0.0000 0.0000 0.0000
# 3 4.0649 3.6684 96.5464 0.0000 0.0000 0.0000
# 4 0.0000 0.0000 0.0000 2.0295 0.0000 0.0000
# 5 0.0000 0.0000 0.0000 0.0000 12.0642 0.0000
# 6 0.0000 0.0000 0.0000 0.0000 0.0000 13.8381
#
#
#
# Elastic Compliance Matrix: (Units=1/GPa)
#
#
# Indices 1 2 3 4 5 6 
#
# 1 0.020706 -0.010194 -0.000484 0.000000 0.000000 0.000000
# 2 -0.010194 0.022535 -0.000427 0.000000 0.000000 0.000000
# 3 -0.000484 -0.000427 0.010394 0.000000 0.000000 0.000000
# 4 0.000000 0.000000 0.000000 0.492731 0.000000 0.000000
# 5 0.000000 0.000000 0.000000 0.000000 0.082890 0.000000
# 6 0.000000 0.000000 0.000000 0.000000 0.000000 0.072264
#
#
# Mechanical properties :
#
#
# Convention : Reuss Voigt Hill
#
# Bulk Modulus (GPa) = 31.82181 32.00691 31.91436
# Shear Modulus (GPa) = 6.81007 17.59194 12.20101
#
# Velocity S-wave (km/s) = 2.00289 3.21913 2.68089
# Velocity P-wave (km/s) = 4.90855 5.71587 5.32752
#
# Compressibility (1/GPa) = 0.03142498
#
# Stress axis : x y z
#
# Youngs Moduli (GPa) = 48.29449 44.37552 96.20625
#
# Poissons Ratio (x) = 0.45235 0.04661
# Poissons Ratio (y) = 0.49230 0.04109
# Poissons Ratio (z) = 0.02340 0.01895
#
# Static dielectric constant tensor:
#      x y z
#    x 1.600730 0.000000 0.000000 
#    y 0.000000 1.519010 0.000000 
#    z 0.000000 0.000000 1.622400 
# 
# From -- ./inp_files/23816.got.cif
#   From: 2010.05.17/outbox.cif.g08.bks.cpg/sg47_12_cif.got.tgz:23816.got - 2010.06.03 20:15:42.
