data_PCOD9386581
_publ_section_title
;
Structure prediction by ZEFSAII (Michael W. Deem and Ramdas Pophale) SiO2 
 PCOD9386581
Probable space group: P M M M
;
_chemical_formula_sum "Si O2"
_cell_formula_units_Z 44
_cell_length_a 17.403668
_cell_length_b 15.805296
_cell_length_c 8.720646
_cell_angle_alpha 90.000000
_cell_angle_beta 90.000000
_cell_angle_gamma 90.000000
_cell_volume 2398.789179
_symmetry_space_group_name_H-M "P M M M"
_symmetry_group_IT_number 47
_symmetry_cell_setting 'orthorhombic'
loop_
_space_group_symop_operation_xyz
x,y,z
-x,-y,z
x,-y,-z
-x,y,-z
-x,-y,-z
x,y,-z
-x,y,z
x,-y,z
loop_
_atom_site_type_symbol
_atom_site_label
_atom_site_fract_x
_atom_site_fract_y
_atom_site_fract_z
Si Si1 0.301015 0.906984 0.679516
Si Si2 0.589396 0.401567 0.683829
Si Si3 0.876406 0.275954 0.315303
Si Si4 0.706490 0.731588 0.180375
Si Si5 0.000000 0.598290 0.816078
Si Si6 0.885292 0.090934 0.680244
O O1 0.321139 0.897172 0.500000
O O2 0.324579 0.824359 0.771881
O O3 0.207770 0.908830 0.686581
O O4 0.327921 0.000000 0.731966
O O5 0.598194 0.391241 0.500000
O O6 0.500000 0.384886 0.721012
O O7 0.605248 0.500000 0.719781
O O8 0.646345 0.339143 0.769073
O O9 0.881362 0.276333 0.500000
O O10 0.787592 0.282346 0.266423
O O11 0.926595 0.351150 0.247472
O O12 0.907035 0.183448 0.259080
O O13 0.720701 0.729294 0.000000
O O14 0.000000 0.500000 0.768493
O O15 0.000000 0.601445 0.000000
O O16 0.906476 0.089865 0.500000
O O17 0.910506 0.000000 0.747070
#
# Coordination Sequence:
#
# PCOD9386581 Si02
#       6
#     8   8   8   8   4   8
#     4   8  14  27  48  73 103 141 183 221 255 299
#     4   9  19  37  59  80 103 135 177 223 268 317
#     4  10  20  36  58  80 103 137 182 222 255 305
#     4  11  21  32  52  83 116 145 173 213 266 320
#     4  11  25  43  58  73 100 136 173 223 286 332
#     4   7  11  23  46  75 102 127 160 204 250 294
#
# _framework density 18.342587000000002
#
# number of rings (size 3 to 8) (size 9 to 14) (size 15 to 20)
#    0.000    2.818    0.000    5.182    0.000    2.545 
#    0.000    1.364    0.000    4.909    0.000    3.818 
#    0.000    0.000    0.000    0.000    0.000    0.000 
#
# Total GULP energy -245228.196775 kJ/mol
# GULP energy per Si atom -5573.368109 kJ/mol
# Density = 1.830084 g / cm^3
# Si number density = 18.342587 Si / 1000 Ang^3
#
#
#
# Elastic Constant Matrix: (Units=GPa)
#
#
# Indices 1 2 3 4 5 6 
#
# 1 46.5683 56.2540 22.2368 0.0000 0.0000 0.0000
# 2 56.2540 174.7366 51.6109 0.0000 0.0000 0.0000
# 3 22.2368 51.6109 47.6445 0.0000 0.0000 0.0000
# 4 0.0000 0.0000 0.0000 6.6952 0.0000 0.0000
# 5 0.0000 0.0000 0.0000 0.0000 19.5327 0.0000
# 6 0.0000 0.0000 0.0000 0.0000 0.0000 174.3544
#
#
#
# Elastic Compliance Matrix: (Units=1/GPa)
#
#
# Indices 1 2 3 4 5 6 
#
# 1 0.036386 -0.009849 -0.006313 0.000000 0.000000 0.000000
# 2 -0.009849 0.011082 -0.007407 0.000000 0.000000 0.000000
# 3 -0.006313 -0.007407 0.031959 0.000000 0.000000 0.000000
# 4 0.000000 0.000000 0.000000 0.149360 0.000000 0.000000
# 5 0.000000 0.000000 0.000000 0.000000 0.051196 0.000000
# 6 0.000000 0.000000 0.000000 0.000000 0.000000 0.005735
#
#
# Mechanical properties :
#
#
# Convention : Reuss Voigt Hill
#
# Bulk Modulus (GPa) = 30.97140 58.79475 44.88308
# Shear Modulus (GPa) = 14.55094 49.37297 31.96195
#
# Velocity S-wave (km/s) = 2.81959 5.19380 4.17885
# Velocity P-wave (km/s) = 5.24612 8.25171 6.91420
#
# Compressibility (1/GPa) = 0.03228785
#
# Stress axis : x y z
#
# Youngs Moduli (GPa) = 27.48277 90.23948 31.29007
#
# Poissons Ratio (x) = 0.88881 0.19753
# Poissons Ratio (y) = 0.27069 0.23177
# Poissons Ratio (z) = 0.17350 0.66842
#
# Static dielectric constant tensor:
#      x y z
#    x 1.621580 0.000000 0.000000 
#    y 0.000000 1.666260 0.000000 
#    z 0.000000 0.000000 1.607340 
# 
# From -- ./inp_files/8943.got.cif
#   From: 2010.05.17/outbox.cif.g08.bks.cpg/sg47_5_cif.got.tgz:8943.got - 2010.06.03 20:15:42.
