data_PCOD9386175
_publ_section_title
;
Structure prediction by ZEFSAII (Michael W. Deem and Ramdas Pophale) SiO2 
 PCOD9386175
Probable space group: P M M M
;
_chemical_formula_sum "Si O2"
_cell_formula_units_Z 48
_cell_length_a 8.009592
_cell_length_b 29.660167
_cell_length_c 9.897352
_cell_angle_alpha 90.000000
_cell_angle_beta 90.000000
_cell_angle_gamma 90.000000
_cell_volume 2351.272705
_symmetry_space_group_name_H-M "P M M M"
_symmetry_group_IT_number 47
_symmetry_cell_setting 'orthorhombic'
loop_
_space_group_symop_operation_xyz
x,y,z
-x,-y,z
x,-y,-z
-x,y,-z
-x,-y,-z
x,y,-z
-x,y,z
x,-y,z
loop_
_atom_site_type_symbol
_atom_site_label
_atom_site_fract_x
_atom_site_fract_y
_atom_site_fract_z
Si Si1 0.695862 0.207555 0.344906
Si Si2 0.300336 0.630644 0.653793
Si Si3 0.697436 0.053404 0.500000
Si Si4 0.795029 0.947706 0.000000
Si Si5 0.194111 0.110219 0.747703
Si Si6 0.296097 0.551816 0.153307
Si Si7 0.803151 0.287556 0.155030
O O1 0.761497 0.211667 0.500000
O O2 0.500000 0.218349 0.349968
O O3 0.718759 0.156533 0.294022
O O4 0.774918 0.241262 0.236568
O O5 0.235381 0.635970 0.500000
O O6 0.500000 0.625602 0.642971
O O7 0.235862 0.586670 0.733940
O O8 0.269386 0.673199 0.750413
O O9 0.500000 0.065219 0.500000
O O10 0.785755 0.075545 0.373456
O O11 0.712048 0.000000 0.500000
O O12 0.739024 0.918031 0.873519
O O13 0.000000 0.949090 0.000000
O O14 0.740041 0.000000 0.000000
O O15 0.000000 0.121234 0.772281
O O16 0.500000 0.552473 0.154535
O O17 0.245518 0.500000 0.177113
O O18 0.245625 0.564781 0.000000
O O19 0.000000 0.295498 0.146174
O O20 0.736765 0.286653 0.000000
#
# Coordination Sequence:
#
# PCOD9386175 Si02
#       7
#     8   8   4   4   8   8   8
#     4  11  24  42  63  88 119 150 185 233 292 352
#     4  10  20  34  55  85 119 154 194 241 295 350
#     4  11  23  39  59  87 123 159 199 245 288 337
#     4   9  20  38  59  87 121 153 191 239 284 333
#     4  11  22  38  63  90 118 155 196 239 290 346
#     4   8  14  26  47  77 114 156 199 242 289 344
#     4  11  25  42  61  85 113 148 194 242 289 346
#
# _framework density 20.414473999999998
#
# number of rings (size 3 to 8) (size 9 to 14) (size 15 to 20)
#    0.000    1.833    0.833    3.750    1.167    7.000 
#    0.000    2.917    0.000    3.500    0.000    3.500 
#    0.000    0.000    0.000    0.000    0.000    0.000 
#
# Total GULP energy -267974.613075 kJ/mol
# GULP energy per Si atom -5582.804439 kJ/mol
# Density = 2.036801 g / cm^3
# Si number density = 20.414474 Si / 1000 Ang^3
#
#
#
# Elastic Constant Matrix: (Units=GPa)
#
#
# Indices 1 2 3 4 5 6 
#
# 1 19.5723 -2.2683 1.8573 0.0000 0.0000 0.0000
# 2 -2.2683 108.0089 86.8500 0.0000 0.0000 0.0000
# 3 1.8573 86.8500 211.8226 0.0000 0.0000 0.0000
# 4 0.0000 0.0000 0.0000 164.3226 0.0000 0.0000
# 5 0.0000 0.0000 0.0000 0.0000 11.0137 0.0000
# 6 0.0000 0.0000 0.0000 0.0000 0.0000 103.1710
#
#
#
# Elastic Compliance Matrix: (Units=1/GPa)
#
#
# Indices 1 2 3 4 5 6 
#
# 1 0.051469 0.002154 -0.001334 0.000000 0.000000 0.000000
# 2 0.002154 0.013902 -0.005719 0.000000 0.000000 0.000000
# 3 -0.001334 -0.005719 0.007078 0.000000 0.000000 0.000000
# 4 0.000000 0.000000 0.000000 0.006086 0.000000 0.000000
# 5 0.000000 0.000000 0.000000 0.000000 0.090796 0.000000
# 6 0.000000 0.000000 0.000000 0.000000 0.000000 0.009693
#
#
# Mechanical properties :
#
#
# Convention : Reuss Voigt Hill
#
# Bulk Modulus (GPa) = 15.96175 56.92020 36.44097
# Shear Modulus (GPa) = 23.84293 72.56578 48.20436
#
# Velocity S-wave (km/s) = 3.42123 5.96853 4.86458
# Velocity P-wave (km/s) = 4.84171 8.68566 7.03146
#
# Compressibility (1/GPa) = 0.06264979
#
# Stress axis : x y z
#
# Youngs Moduli (GPa) = 19.42919 71.92985 141.29242
#
# Poissons Ratio (x) = -0.15493 0.18855
# Poissons Ratio (y) = -0.04185 0.80806
# Poissons Ratio (z) = 0.02593 0.41137
#
# Static dielectric constant tensor:
#      x y z
#    x 1.759860 0.000000 0.000000 
#    y 0.000000 1.696900 0.000000 
#    z 0.000000 0.000000 1.713320 
# 
# From -- ./inp_files/2557.got.cif
#   From: 2010.05.17/outbox.cif.g08.bks.cpg/sg47_2_cif.got.tgz:2557.got - 2010.06.03 20:15:42.
