data_PCOD9386430
_publ_section_title
;
Structure prediction by ZEFSAII (Michael W. Deem and Ramdas Pophale) SiO2 
 PCOD9386430
Probable space group: P M M M
;
_chemical_formula_sum "Si O2"
_cell_formula_units_Z 48
_cell_length_a 7.962369
_cell_length_b 9.280484
_cell_length_c 33.793045
_cell_angle_alpha 90.000000
_cell_angle_beta 90.000000
_cell_angle_gamma 90.000000
_cell_volume 2497.124831
_symmetry_space_group_name_H-M "P M M M"
_symmetry_group_IT_number 47
_symmetry_cell_setting 'orthorhombic'
loop_
_space_group_symop_operation_xyz
x,y,z
-x,-y,z
x,-y,-z
-x,y,-z
-x,-y,-z
x,y,-z
-x,y,z
x,-y,z
loop_
_atom_site_type_symbol
_atom_site_label
_atom_site_fract_x
_atom_site_fract_y
_atom_site_fract_z
Si Si1 0.196257 0.173428 0.102240
Si Si2 0.700370 0.834357 0.500000
Si Si3 0.698953 0.663027 0.337106
Si Si4 0.199705 0.834243 0.585407
Si Si5 0.799190 0.162724 0.740029
Si Si6 0.204569 0.335215 0.183426
Si Si7 0.500000 0.824848 0.045190
O O1 0.243984 0.249706 0.143369
O O2 0.331289 0.216456 0.068977
O O3 0.000000 0.208156 0.092962
O O4 0.205078 0.000000 0.107232
O O5 0.500000 0.837238 0.500000
O O6 0.757967 0.772524 0.458048
O O7 0.766375 0.000000 0.500000
O O8 0.500000 0.655935 0.331567
O O9 0.767465 0.500000 0.336814
O O10 0.733026 0.740185 0.378716
O O11 0.768966 0.755683 0.300918
O O12 0.000000 0.840663 0.589177
O O13 0.265684 0.000000 0.587580
O O14 0.733660 0.252562 0.777533
O O15 0.000000 0.152842 0.745186
O O16 0.731464 0.000000 0.738902
O O17 0.263641 0.500000 0.182361
O O18 0.000000 0.338861 0.185409
O O19 0.500000 0.000000 0.044132
O O20 0.500000 0.773045 0.000000
#
# Coordination Sequence:
#
# PCOD9386430 Si02
#       7
#     8   4   8   8   8   8   4
#     4   9  17  31  52  77 106 142 184 229 277 331
#     4   9  17  31  54  83 112 141 172 212 264 317
#     4  11  24  39  53  74 107 144 181 221 267 320
#     4  10  20  35  57  83 108 137 177 222 266 316
#     4  10  20  35  57  83 108 137 177 222 268 323
#     4   9  17  31  53  79 107 140 177 218 266 320
#     4   9  18  32  51  79 111 141 181 233 283 330
#
# _framework density 19.222107999999999
#
# number of rings (size 3 to 8) (size 9 to 14) (size 15 to 20)
#    0.000    2.333    0.000    2.750    0.000    8.667 
#    1.500    2.500    0.000    3.500    0.000    2.333 
#    0.000    0.000    0.000    0.000    0.000    0.000 
#
# Total GULP energy -267842.976222 kJ/mol
# GULP energy per Si atom -5580.062005 kJ/mol
# Density = 1.917836 g / cm^3
# Si number density = 19.222108 Si / 1000 Ang^3
#
#
#
# Elastic Constant Matrix: (Units=GPa)
#
#
# Indices 1 2 3 4 5 6 
#
# 1 44.0590 23.5775 30.6982 0.0000 0.0000 0.0000
# 2 23.5775 97.9984 75.2273 0.0000 0.0000 0.0000
# 3 30.6982 75.2273 178.0618 0.0000 0.0000 0.0000
# 4 0.0000 0.0000 0.0000 -9.8028 0.0000 0.0000
# 5 0.0000 0.0000 0.0000 0.0000 55.4534 0.0000
# 6 0.0000 0.0000 0.0000 0.0000 0.0000 13.6241
#
#
#
# Elastic Compliance Matrix: (Units=1/GPa)
#
#
# Indices 1 2 3 4 5 6 
#
# 1 0.026978 -0.004322 -0.002825 0.000000 0.000000 0.000000
# 2 -0.004322 0.015794 -0.005928 0.000000 0.000000 0.000000
# 3 -0.002825 -0.005928 0.008607 0.000000 0.000000 0.000000
# 4 0.000000 0.000000 0.000000 -0.102011 0.000000 0.000000
# 5 0.000000 0.000000 0.000000 0.000000 0.018033 0.000000
# 6 0.000000 0.000000 0.000000 0.000000 0.000000 0.073399
#
#
# Mechanical properties :
#
#
# Convention : Reuss Voigt Hill
#
# Bulk Modulus (GPa) = 39.63491 64.34725 51.99108
# Shear Modulus (GPa) = 66.34769 24.56269 45.45519
#
# Velocity S-wave (km/s) = 5.88143 3.57856 4.86813
# Velocity P-wave (km/s) = 8.17226 7.11499 7.66189
#
# Compressibility (1/GPa) = 0.02523029
#
# Stress axis : x y z
#
# Youngs Moduli (GPa) = 37.06712 63.31373 116.17925
#
# Poissons Ratio (x) = 0.27364 0.32822
# Poissons Ratio (y) = 0.16020 0.68867
# Poissons Ratio (z) = 0.10472 0.37530
#
# Static dielectric constant tensor:
#      x y z
#    x 1.684000 0.000000 0.000000 
#    y 0.000000 1.671530 0.000000 
#    z 0.000000 0.000000 1.644880 
# 
# From -- ./inp_files/34208.got.cif
#   From: 2010.05.17/outbox.cif.g08.bks.cpg/sg47_18_cif.got.tgz:34208.got - 2010.06.03 20:15:42.
