data_PCOD9386771
_publ_section_title
;
Structure prediction by ZEFSAII (Michael W. Deem and Ramdas Pophale) SiO2 
 PCOD9386771
Probable space group: P M M M
;
_chemical_formula_sum "Si O2"
_cell_formula_units_Z 37
_cell_length_a 12.379041
_cell_length_b 18.592767
_cell_length_c 7.810685
_cell_angle_alpha 90.000000
_cell_angle_beta 90.000000
_cell_angle_gamma 90.000000
_cell_volume 1797.712141
_symmetry_space_group_name_H-M "P M M M"
_symmetry_group_IT_number 47
_symmetry_cell_setting 'orthorhombic'
loop_
_space_group_symop_operation_xyz
x,y,z
-x,-y,z
x,-y,-z
-x,y,-z
-x,-y,-z
x,y,-z
-x,y,z
x,-y,z
loop_
_atom_site_type_symbol
_atom_site_label
_atom_site_fract_x
_atom_site_fract_y
_atom_site_fract_z
Si Si1 0.259402 0.421788 0.797473
Si Si2 0.500000 0.785574 0.708341
Si Si3 0.271545 0.850138 0.709128
Si Si4 0.824407 0.000000 0.192326
Si Si5 0.877672 0.281867 0.296061
Si Si6 0.000000 0.000000 0.500000
Si Si7 0.500000 0.620423 0.294289
O O1 0.224657 0.500000 0.727279
O O2 0.193536 0.353315 0.730616
O O3 0.387414 0.413489 0.764476
O O4 0.242371 0.422242 0.000000
O O5 0.500000 0.783643 0.500000
O O6 0.390412 0.824232 0.760667
O O7 0.500000 0.703086 0.765764
O O8 0.267683 0.853931 0.500000
O O9 0.243680 0.927282 0.783729
O O10 0.186223 0.788771 0.766191
O O11 0.907935 0.000000 0.348364
O O12 0.870638 0.000000 0.000000
O O13 0.886064 0.272473 0.500000
O O14 0.000000 0.288102 0.227122
O O15 0.500000 0.618595 0.500000
#
# Coordination Sequence:
#
# PCOD9386771 Si02
#       7
#     8   4   8   4   8   1   4
#     4  11  24  40  58  86 127 169 209 262 331 393
#     4   9  18  35  67  97 126 173 213 256 330 402
#     4  10  20  41  67  96 136 173 214 269 335 389
#     4  12  27  44  70 105 134 179 232 270 331 398
#     4  10  22  39  65  93 122 165 216 268 325 384
#     4  12  26  52  72  96 144 184 212 296 330 366
#     4  11  20  38  64  95 119 155 211 268 318 384
#
# _framework density 20.581716
#
# number of rings (size 3 to 8) (size 9 to 14) (size 15 to 20)
#    0.000    1.514    3.243    1.459    1.514    5.189 
#    0.000    4.865    0.000    0.000    0.000    0.000 
#    0.000    0.000    0.000    0.000    0.000    0.000 
#
# Total GULP energy -206437.218012 kJ/mol
# GULP energy per Si atom -5579.384271 kJ/mol
# Density = 2.053487 g / cm^3
# Si number density = 20.581716 Si / 1000 Ang^3
#
#
#
# Elastic Constant Matrix: (Units=GPa)
#
#
# Indices 1 2 3 4 5 6 
#
# 1 143.4334 81.0758 11.3483 0.0000 0.0000 0.0000
# 2 81.0758 191.9266 11.8267 0.0000 0.0000 0.0000
# 3 11.3483 11.8267 64.5468 0.0000 0.0000 0.0000
# 4 0.0000 0.0000 0.0000 31.2595 0.0000 0.0000
# 5 0.0000 0.0000 0.0000 0.0000 -47.1466 0.0000
# 6 0.0000 0.0000 0.0000 0.0000 0.0000 18.8542
#
#
#
# Elastic Compliance Matrix: (Units=1/GPa)
#
#
# Indices 1 2 3 4 5 6 
#
# 1 0.009212 -0.003835 -0.000917 0.000000 0.000000 0.000000
# 2 -0.003835 0.006866 -0.000584 0.000000 0.000000 0.000000
# 3 -0.000917 -0.000584 0.015761 0.000000 0.000000 0.000000
# 4 0.000000 0.000000 0.000000 0.031990 0.000000 0.000000
# 5 0.000000 0.000000 0.000000 0.000000 -0.021210 0.000000
# 6 0.000000 0.000000 0.000000 0.000000 0.000000 0.053039
#
#
# Mechanical properties :
#
#
# Convention : Reuss Voigt Hill
#
# Bulk Modulus (GPa) = 47.24176 67.60093 57.42135
# Shear Modulus (GPa) = 44.09742 20.30381 32.20061
#
# Velocity S-wave (km/s) = 4.63379 3.14426 3.95970
# Velocity P-wave (km/s) = 7.18558 6.78957 6.99038
#
# Compressibility (1/GPa) = 0.02116771
#
# Stress axis : x y z
#
# Youngs Moduli (GPa) = 108.55217 145.63829 63.44841
#
# Poissons Ratio (x) = 0.55852 0.05818
# Poissons Ratio (y) = 0.41630 0.03704
# Poissons Ratio (z) = 0.09954 0.08503
#
# Static dielectric constant tensor:
#      x y z
#    x 1.732360 0.000000 0.000000 
#    y 0.000000 1.730940 0.000000 
#    z 0.000000 0.000000 1.742870 
# 
# From -- ./inp_files/3812.got.cif
#   From: 2010.05.17/outbox.cif.g08.bks.cpg/sg47_2_cif.got.tgz:3812.got - 2010.06.03 20:15:42.
