data_PCOD9386374
_publ_section_title
;
Structure prediction by ZEFSAII (Michael W. Deem and Ramdas Pophale) SiO2 
 PCOD9386374
Probable space group: P M M M
;
_chemical_formula_sum "Si O2"
_cell_formula_units_Z 48
_cell_length_a 15.976765
_cell_length_b 18.382350
_cell_length_c 7.637110
_cell_angle_alpha 90.000000
_cell_angle_beta 90.000000
_cell_angle_gamma 90.000000
_cell_volume 2242.946548
_symmetry_space_group_name_H-M "P M M M"
_symmetry_group_IT_number 47
_symmetry_cell_setting 'orthorhombic'
loop_
_space_group_symop_operation_xyz
x,y,z
-x,-y,z
x,-y,-z
-x,y,-z
-x,-y,-z
x,y,-z
-x,y,z
x,-y,z
loop_
_atom_site_type_symbol
_atom_site_label
_atom_site_fract_x
_atom_site_fract_y
_atom_site_fract_z
Si Si1 0.161729 0.845880 0.200651
Si Si2 0.593358 0.653166 0.286085
Si Si3 0.764842 0.582122 0.714218
Si Si4 0.500000 0.916735 0.789454
Si Si5 0.098293 0.000000 0.212595
Si Si6 0.907274 0.691374 0.705050
Si Si7 0.347832 0.812983 0.705045
O O1 0.138398 0.924609 0.277255
O O2 0.119035 0.775582 0.284448
O O3 0.261224 0.834338 0.206326
O O4 0.132448 0.845536 0.000000
O O5 0.591703 0.651975 0.500000
O O6 0.500000 0.632898 0.226989
O O7 0.671244 0.604094 0.229554
O O8 0.614964 0.735967 0.233036
O O9 0.763783 0.584658 0.500000
O O10 0.785695 0.500000 0.766009
O O11 0.833145 0.640634 0.777458
O O12 0.418269 0.873747 0.727346
O O13 0.500000 0.000000 0.729352
O O14 0.500000 0.916078 0.000000
O O15 0.000000 0.000000 0.250931
O O16 0.109053 0.000000 0.000000
O O17 0.912385 0.672598 0.500000
O O18 0.000000 0.680709 0.781669
O O19 0.327956 0.803752 0.500000
#
# Coordination Sequence:
#
# PCOD9386374 Si02
#       7
#     8   8   8   4   4   8   8
#     4  11  22  37  59  84 112 147 189 236 291 351
#     4   9  16  29  51  78 108 142 181 228 278 331
#     4   9  17  30  50  79 115 150 186 235 292 345
#     4  11  25  41  57  83 120 155 196 242 286 342
#     4   9  20  38  57  78 107 142 181 229 284 343
#     4  10  20  35  56  82 113 149 191 240 289 343
#     4  11  21  37  59  83 113 150 193 239 288 339
#
# _framework density 21.40042
#
# number of rings (size 3 to 8) (size 9 to 14) (size 15 to 20)
#    0.000    2.000    2.500    1.750    1.167    2.333 
#    0.000    4.583    0.000    3.500    0.000    1.167 
#    0.000    2.000    0.000    0.000    0.000    0.000 
#
# Total GULP energy -268140.373889 kJ/mol
# GULP energy per Si atom -5586.257789 kJ/mol
# Density = 2.135171 g / cm^3
# Si number density = 21.400420 Si / 1000 Ang^3
#
#
#
# Elastic Constant Matrix: (Units=GPa)
#
#
# Indices 1 2 3 4 5 6 
#
# 1 170.5610 76.1410 -3.5370 0.0000 0.0000 0.0000
# 2 76.1410 136.1160 0.2568 0.0000 0.0000 0.0000
# 3 -3.5370 0.2568 42.0026 0.0000 0.0000 0.0000
# 4 0.0000 0.0000 0.0000 34.1428 0.0000 0.0000
# 5 0.0000 0.0000 0.0000 0.0000 10.9926 0.0000
# 6 0.0000 0.0000 0.0000 0.0000 0.0000 22.0469
#
#
#
# Elastic Compliance Matrix: (Units=1/GPa)
#
#
# Indices 1 2 3 4 5 6 
#
# 1 0.007834 -0.004384 0.000687 0.000000 0.000000 0.000000
# 2 -0.004384 0.009800 -0.000429 0.000000 0.000000 0.000000
# 3 0.000687 -0.000429 0.023868 0.000000 0.000000 0.000000
# 4 0.000000 0.000000 0.000000 0.029289 0.000000 0.000000
# 5 0.000000 0.000000 0.000000 0.000000 0.090970 0.000000
# 6 0.000000 0.000000 0.000000 0.000000 0.000000 0.045358
#
#
# Mechanical properties :
#
#
# Convention : Reuss Voigt Hill
#
# Bulk Modulus (GPa) = 30.07524 54.93349 42.50437
# Shear Modulus (GPa) = 22.07948 31.82437 26.95193
#
# Velocity S-wave (km/s) = 3.21554 3.86047 3.55267
# Velocity P-wave (km/s) = 5.27924 6.75248 6.06079
#
# Compressibility (1/GPa) = 0.03324994
#
# Stress axis : x y z
#
# Youngs Moduli (GPa) = 127.64645 102.04513 41.89625
#
# Poissons Ratio (x) = 0.44732 -0.02876
# Poissons Ratio (y) = 0.55955 0.01798
# Poissons Ratio (z) = -0.08763 0.04378
#
# Static dielectric constant tensor:
#      x y z
#    x 1.749750 0.000000 0.000000 
#    y 0.000000 1.743880 0.000000 
#    z 0.000000 0.000000 1.821780 
# 
# From -- ./inp_files/6420.got.cif
#   From: 2010.05.17/outbox.cif.g08.bks.cpg/sg47_4_cif.got.tgz:6420.got - 2010.06.03 20:15:42.
