data_PCOD9386161
_publ_section_title
;
Structure prediction by ZEFSAII (Michael W. Deem and Ramdas Pophale) SiO2 
 PCOD9386161
Probable space group: P M M M
;
_chemical_formula_sum "Si O2"
_cell_formula_units_Z 56
_cell_length_a 8.149617
_cell_length_b 20.333866
_cell_length_c 16.361568
_cell_angle_alpha 90.000000
_cell_angle_beta 90.000000
_cell_angle_gamma 90.000000
_cell_volume 2711.328118
_symmetry_space_group_name_H-M "P M M M"
_symmetry_group_IT_number 47
_symmetry_cell_setting 'orthorhombic'
loop_
_space_group_symop_operation_xyz
x,y,z
-x,-y,z
x,-y,-z
-x,y,-z
-x,-y,-z
x,y,-z
-x,y,z
x,-y,z
loop_
_atom_site_type_symbol
_atom_site_label
_atom_site_fract_x
_atom_site_fract_y
_atom_site_fract_z
Si Si1 0.695936 0.702329 0.588313
Si Si2 0.687652 0.926764 0.260338
Si Si3 0.804718 0.574360 0.664574
Si Si4 0.185528 0.078848 0.911420
Si Si5 0.699272 0.785511 0.741310
Si Si6 0.805533 0.283937 0.090894
Si Si7 0.694550 0.425705 0.148481
O O1 0.760432 0.724867 0.500000
O O2 0.500000 0.712315 0.587771
O O3 0.733622 0.626253 0.601989
O O4 0.759130 0.736874 0.670413
O O5 0.500000 0.930142 0.288955
O O6 0.692464 0.913299 0.162813
O O7 0.763466 0.857717 0.286754
O O8 0.761539 0.000000 0.274253
O O9 0.773626 0.500000 0.638156
O O10 0.726552 0.582505 0.754569
O O11 0.000000 0.583750 0.673239
O O12 0.000000 0.102851 0.892353
O O13 0.172486 0.000000 0.918512
O O14 0.234677 0.104987 0.000000
O O15 0.500000 0.788564 0.740112
O O16 0.743686 0.758399 0.831331
O O17 0.769901 0.361485 0.106260
O O18 0.000000 0.274635 0.089391
O O19 0.740030 0.266549 0.000000
O O20 0.500000 0.424304 0.133262
O O21 0.754743 0.500000 0.126227
#
# Coordination Sequence:
#
# PCOD9386161 Si02
#       7
#     8   8   8   8   8   8   8
#     4  10  21  37  58  83 110 145 190 235 280 333
#     4   9  18  32  51  75 101 132 173 220 272 331
#     4  10  20  34  55  84 117 150 184 227 279 330
#     4   8  14  25  41  63  93 127 162 202 250 306
#     4  10  21  38  58  79 108 146 184 228 283 339
#     4  11  24  39  56  81 113 150 192 237 283 328
#     4  10  20  35  57  83 112 149 192 235 279 326
#
# _framework density 20.654084000000001
#
# number of rings (size 3 to 8) (size 9 to 14) (size 15 to 20)
#    0.000    2.286    1.429    1.714    0.000    5.143 
#    0.000    7.143    0.000    0.429    0.000    3.000 
#    0.000    0.000    0.000    6.143    0.000    6.571 
#
# Total GULP energy -311987.141246 kJ/mol
# GULP energy per Si atom -5571.198951 kJ/mol
# Density = 2.060707 g / cm^3
# Si number density = 20.654084 Si / 1000 Ang^3
#
#
#
# Elastic Constant Matrix: (Units=GPa)
#
#
# Indices 1 2 3 4 5 6 
#
# 1 15.9296 10.3499 8.9278 0.0000 0.0000 0.0000
# 2 10.3499 128.7029 47.7601 0.0000 0.0000 0.0000
# 3 8.9278 47.7601 92.9149 0.0000 0.0000 0.0000
# 4 0.0000 0.0000 0.0000 4.7970 0.0000 0.0000
# 5 0.0000 0.0000 0.0000 0.0000 -0.7047 0.0000
# 6 0.0000 0.0000 0.0000 0.0000 0.0000 -1.9545
#
#
#
# Elastic Compliance Matrix: (Units=1/GPa)
#
#
# Indices 1 2 3 4 5 6 
#
# 1 0.067782 -0.003749 -0.004586 0.000000 0.000000 0.000000
# 2 -0.003749 0.009809 -0.004682 0.000000 0.000000 0.000000
# 3 -0.004586 -0.004682 0.013610 0.000000 0.000000 0.000000
# 4 0.000000 0.000000 0.000000 0.208462 0.000000 0.000000
# 5 0.000000 0.000000 0.000000 0.000000 -1.419022 0.000000
# 6 0.000000 0.000000 0.000000 0.000000 0.000000 -0.511629
#
#
# Mechanical properties :
#
#
# Convention : Reuss Voigt Hill
#
# Bulk Modulus (GPa) = 15.34511 41.29143 28.31827
# Shear Modulus (GPa) = -3.15810 11.79487 4.31839
#
# Velocity S-wave (km/s) = -1.23789 2.39229 1.44753
# Velocity P-wave (km/s) = 2.32434 5.25985 4.06624
#
# Compressibility (1/GPa) = 0.06516734
#
# Stress axis : x y z
#
# Youngs Moduli (GPa) = 14.75317 101.95142 73.47762
#
# Poissons Ratio (x) = 0.38222 0.33695
# Poissons Ratio (y) = 0.05531 0.34399
# Poissons Ratio (z) = 0.06766 0.47729
#
# Static dielectric constant tensor:
#      x y z
#    x 1.739670 0.000000 0.000000 
#    y 0.000000 1.811100 0.000000 
#    z 0.000000 0.000000 1.750660 
# 
# From -- ./inp_files/7198.got.cif
#   From: 2010.05.17/outbox.cif.g08.bks.cpg/sg47_4_cif.got.tgz:7198.got - 2010.06.03 20:15:42.
