data_PCOD9386034
_publ_section_title
;
Structure prediction by ZEFSAII (Michael W. Deem and Ramdas Pophale) SiO2 
 PCOD9386034
Probable space group: P M M M
;
_chemical_formula_sum "Si O2"
_cell_formula_units_Z 40
_cell_length_a 26.803020
_cell_length_b 9.238329
_cell_length_c 9.053714
_cell_angle_alpha 90.000000
_cell_angle_beta 90.000000
_cell_angle_gamma 90.000000
_cell_volume 2241.836451
_symmetry_space_group_name_H-M "P M M M"
_symmetry_group_IT_number 47
_symmetry_cell_setting 'orthorhombic'
loop_
_space_group_symop_operation_xyz
x,y,z
-x,-y,z
x,-y,-z
-x,y,-z
-x,-y,-z
x,y,-z
-x,y,z
x,-y,z
loop_
_atom_site_type_symbol
_atom_site_label
_atom_site_fract_x
_atom_site_fract_y
_atom_site_fract_z
Si Si1 0.798074 0.172396 0.174306
Si Si2 0.306029 0.171517 0.324102
Si Si3 0.000000 0.669337 0.679467
Si Si4 0.109113 0.325414 0.675078
Si Si5 0.399169 0.329765 0.822256
Si Si6 0.500000 0.166595 0.179841
O O1 0.747036 0.216609 0.255552
O O2 0.845752 0.254160 0.238401
O O3 0.804357 0.000000 0.198203
O O4 0.793048 0.198231 0.000000
O O5 0.305006 0.190147 0.500000
O O6 0.351338 0.258963 0.253409
O O7 0.312670 0.000000 0.291883
O O8 0.053994 0.728461 0.725545
O O9 0.000000 0.500000 0.721700
O O10 0.000000 0.672966 0.500000
O O11 0.114161 0.294464 0.500000
O O12 0.110154 0.500000 0.691059
O O13 0.402600 0.500000 0.789717
O O14 0.449797 0.248914 0.774228
O O15 0.394734 0.313398 0.000000
O O16 0.500000 0.000000 0.228728
O O17 0.500000 0.167102 0.000000
#
# Coordination Sequence:
#
# PCOD9386034 Si02
#       6
#     8   8   4   8   8   4
#     4  10  21  36  53  74 102 136 172 211 257 308
#     4  10  21  37  56  76  99 132 174 216 258 306
#     4   7  12  26  48  73 100 130 166 207 250 299
#     4   9  17  31  53  78 102 131 169 212 256 303
#     4  10  20  34  54  81 111 140 171 210 255 302
#     4   9  17  31  54  81 108 141 178 212 248 295
#
# _framework density 17.842514999999999
#
# number of rings (size 3 to 8) (size 9 to 14) (size 15 to 20)
#    0.000    2.600    0.000    3.300    0.000    6.000 
#    0.000    1.500    0.000    7.800    0.000    0.000 
#    0.000    0.000    0.000    0.000    0.000    0.000 
#
# Total GULP energy -223093.042755 kJ/mol
# GULP energy per Si atom -5577.326069 kJ/mol
# Density = 1.780190 g / cm^3
# Si number density = 17.842515 Si / 1000 Ang^3
#
#
#
# Elastic Constant Matrix: (Units=GPa)
#
#
# Indices 1 2 3 4 5 6 
#
# 1 212.2778 85.0187 62.6867 0.0000 0.0000 0.0000
# 2 85.0187 67.9762 47.0186 0.0000 0.0000 0.0000
# 3 62.6867 47.0186 36.4571 0.0000 0.0000 0.0000
# 4 0.0000 0.0000 0.0000 24.4925 0.0000 0.0000
# 5 0.0000 0.0000 0.0000 0.0000 32.6198 0.0000
# 6 0.0000 0.0000 0.0000 0.0000 0.0000 37.4458
#
#
#
# Elastic Compliance Matrix: (Units=1/GPa)
#
#
# Indices 1 2 3 4 5 6 
#
# 1 0.009793 -0.005568 -0.009657 0.000000 0.000000 0.000000
# 2 -0.005568 0.139472 -0.170301 0.000000 0.000000 0.000000
# 3 -0.009657 -0.170301 0.263671 0.000000 0.000000 0.000000
# 4 0.000000 0.000000 0.000000 0.040829 0.000000 0.000000
# 5 0.000000 0.000000 0.000000 0.000000 0.030656 0.000000
# 6 0.000000 0.000000 0.000000 0.000000 0.000000 0.026705
#
#
# Mechanical properties :
#
#
# Convention : Reuss Voigt Hill
#
# Bulk Modulus (GPa) = 23.87638 78.46213 51.16925
# Shear Modulus (GPa) = 5.57949 27.04410 16.31180
#
# Velocity S-wave (km/s) = 1.77027 3.89744 3.02687
# Velocity P-wave (km/s) = 4.19396 8.02020 6.39972
#
# Compressibility (1/GPa) = 0.04188240
#
# Stress axis : x y z
#
# Youngs Moduli (GPa) = 102.11785 7.16992 3.79261
#
# Poissons Ratio (x) = 0.03992 0.03662
# Poissons Ratio (y) = 0.56863 0.64589
# Poissons Ratio (z) = 0.98610 1.22105
#
# Static dielectric constant tensor:
#      x y z
#    x 1.600770 0.000000 0.000000 
#    y 0.000000 1.597910 0.000000 
#    z 0.000000 0.000000 1.595670 
# 
# From -- ./inp_files/1878.got.cif
#   From: 2010.05.17/outbox.cif.g08.bks.cpg/sg47_1_cif.got.tgz:1878.got - 2010.06.03 20:15:42.
