data_PCOD9386688
_publ_section_title
;
Structure prediction by ZEFSAII (Michael W. Deem and Ramdas Pophale) SiO2 
 PCOD9386688
Probable space group: P M M M
;
_chemical_formula_sum "Si O2"
_cell_formula_units_Z 48
_cell_length_a 30.972728
_cell_length_b 9.972087
_cell_length_c 7.522228
_cell_angle_alpha 90.000000
_cell_angle_beta 90.000000
_cell_angle_gamma 90.000000
_cell_volume 2323.335938
_symmetry_space_group_name_H-M "P M M M"
_symmetry_group_IT_number 47
_symmetry_cell_setting 'orthorhombic'
loop_
_space_group_symop_operation_xyz
x,y,z
-x,-y,z
x,-y,-z
-x,y,-z
-x,-y,-z
x,y,-z
-x,y,z
x,-y,z
loop_
_atom_site_type_symbol
_atom_site_label
_atom_site_fract_x
_atom_site_fract_y
_atom_site_fract_z
Si Si1 0.453663 0.338635 0.212474
Si Si2 0.106351 0.258429 0.711344
Si Si3 0.200137 0.344504 0.285581
Si Si4 0.950370 0.000000 0.210826
Si Si5 0.641428 0.343595 0.217930
Si Si6 0.951166 0.500000 0.281645
Si Si7 0.718726 0.153738 0.788143
O O1 0.500000 0.288193 0.283273
O O2 0.453800 0.500000 0.235157
O O3 0.406411 0.297107 0.277731
O O4 0.454017 0.313679 0.000000
O O5 0.110293 0.277331 0.500000
O O6 0.154907 0.280094 0.779588
O O7 0.075283 0.373263 0.781208
O O8 0.079511 0.124594 0.738554
O O9 0.198998 0.351342 0.500000
O O10 0.205041 0.500000 0.223380
O O11 0.238969 0.244673 0.239955
O O12 0.000000 0.000000 0.283463
O O13 0.954641 0.000000 0.000000
O O14 0.648788 0.500000 0.270448
O O15 0.678329 0.241909 0.279483
O O16 0.641306 0.344722 0.000000
O O17 0.951905 0.500000 0.500000
O O18 0.000000 0.500000 0.221738
O O19 0.721970 0.000000 0.719697
O O20 0.712797 0.142942 0.000000
#
# Coordination Sequence:
#
# PCOD9386688 Si02
#       7
#     8   8   8   4   8   4   8
#     4   7   9  14  28  53  83 115 155 203 251 294
#     4  10  20  37  60  84 106 134 172 211 252 298
#     4  10  21  38  58  80 104 128 163 214 265 306
#     4  11  25  41  55  79 117 151 175 203 240 287
#     4   8  13  23  40  61  88 125 167 209 250 295
#     4   9  16  30  57  87 107 125 161 211 252 291
#     4  10  21  34  49  72 102 137 174 208 248 303
#
# _framework density 20.659948
#
# number of rings (size 3 to 8) (size 9 to 14) (size 15 to 20)
#    0.000    2.833    0.833    2.750    1.167    3.333 
#    0.000    0.417    0.000    2.000    0.000    3.500 
#    0.000    0.667    0.000    7.667    0.000    8.833 
#
# Total GULP energy -267475.285240 kJ/mol
# GULP energy per Si atom -5572.401776 kJ/mol
# Density = 2.061292 g / cm^3
# Si number density = 20.659948 Si / 1000 Ang^3
#
#
#
# Elastic Constant Matrix: (Units=GPa)
#
#
# Indices 1 2 3 4 5 6 
#
# 1 264.1684 123.8102 5.0867 0.0000 0.0000 0.0000
# 2 123.8102 167.3945 -1.9427 0.0000 0.0000 0.0000
# 3 5.0867 -1.9427 49.3403 0.0000 0.0000 0.0000
# 4 0.0000 0.0000 0.0000 967.1644 0.0000 0.0000
# 5 0.0000 0.0000 0.0000 0.0000 26.1936 0.0000
# 6 0.0000 0.0000 0.0000 0.0000 0.0000 24.0977
#
#
#
# Elastic Compliance Matrix: (Units=1/GPa)
#
#
# Indices 1 2 3 4 5 6 
#
# 1 0.005823 -0.004316 -0.000770 0.000000 0.000000 0.000000
# 2 -0.004316 0.009175 0.000806 0.000000 0.000000 0.000000
# 3 -0.000770 0.000806 0.020379 0.000000 0.000000 0.000000
# 4 0.000000 0.000000 0.000000 0.001034 0.000000 0.000000
# 5 0.000000 0.000000 0.000000 0.000000 0.038177 0.000000
# 6 0.000000 0.000000 0.000000 0.000000 0.000000 0.041498
#
#
# Mechanical properties :
#
#
# Convention : Reuss Voigt Hill
#
# Bulk Modulus (GPa) = 37.28946 81.64573 59.46760
# Shear Modulus (GPa) = 37.42941 227.08774 132.25857
#
# Velocity S-wave (km/s) = 4.26101 10.49550 8.00974
# Velocity P-wave (km/s) = 6.50359 13.65572 10.69522
#
# Compressibility (1/GPa) = 0.02681723
#
# Stress axis : x y z
#
# Youngs Moduli (GPa) = 171.73169 108.98717 49.07115
#
# Poissons Ratio (x) = 0.47037 0.03780
# Poissons Ratio (y) = 0.74117 -0.03956
# Poissons Ratio (z) = 0.13228 -0.08787
#
# Static dielectric constant tensor:
#      x y z
#    x 1.762050 0.000000 0.000000 
#    y 0.000000 1.746850 0.000000 
#    z 0.000000 0.000000 1.821350 
# 
# From -- ./inp_files/14000.got.cif
#   From: 2010.05.17/outbox.cif.g08.bks.cpg/sg47_7_cif.got.tgz:14000.got - 2010.06.03 20:15:42.
