data_PCOD9386775
_publ_section_title
;
Structure prediction by ZEFSAII (Michael W. Deem and Ramdas Pophale) SiO2 
 PCOD9386775
Probable space group: P M M M
;
_chemical_formula_sum "Si O2"
_cell_formula_units_Z 34
_cell_length_a 9.337915
_cell_length_b 7.519193
_cell_length_c 26.050958
_cell_angle_alpha 90.000000
_cell_angle_beta 90.000000
_cell_angle_gamma 90.000000
_cell_volume 1829.131157
_symmetry_space_group_name_H-M "P M M M"
_symmetry_group_IT_number 47
_symmetry_cell_setting 'orthorhombic'
loop_
_space_group_symop_operation_xyz
x,y,z
-x,-y,z
x,-y,-z
-x,y,-z
-x,-y,-z
x,y,-z
-x,y,z
x,-y,z
loop_
_atom_site_type_symbol
_atom_site_label
_atom_site_fract_x
_atom_site_fract_y
_atom_site_fract_z
Si Si1 0.000000 0.500000 0.000000
Si Si2 0.500000 0.500000 0.000000
Si Si3 0.667591 0.795858 0.163466
Si Si4 0.165830 0.285203 0.267220
Si Si5 0.169151 0.000000 0.561395
Si Si6 0.250038 0.500000 0.084052
Si Si7 0.329516 0.712942 0.372195
O O1 0.880291 0.500000 0.954259
O O2 0.380467 0.500000 0.045320
O O3 0.500000 0.744328 0.170536
O O4 0.752035 0.780586 0.216889
O O5 0.739296 0.669066 0.121683
O O6 0.670871 0.000000 0.146068
O O7 0.164396 0.500000 0.264487
O O8 0.254730 0.237953 0.318141
O O9 0.000000 0.225538 0.269578
O O10 0.249131 0.171184 0.585119
O O11 0.179850 0.000000 0.500000
O O12 0.000000 0.000000 0.575287
O O13 0.500000 0.749643 0.371021
O O14 0.311380 0.500000 0.379884
#
# Coordination Sequence:
#
# PCOD9386775 Si02
#       7
#     1   1   8   8   4   4   8
#     4  10  28  42  74  86 124 164 208 250 324 366
#     4  10  20  42  74  82 112 172 196 246 324 334
#     4  11  23  38  62  92 124 161 207 254 311 374
#     4  10  21  37  61  92 128 170 205 254 317 383
#     4  11  25  43  65  93 129 175 221 270 323 384
#     4  11  22  46  64  94 120 160 205 264 304 374
#     4  10  22  41  65  93 128 168 219 269 324 383
#
# _framework density 18.588061
#
# number of rings (size 3 to 8) (size 9 to 14) (size 15 to 20)
#    0.000    1.529    2.353    1.765    3.294    4.235 
#    0.000    5.882    0.000    0.000    0.000    0.000 
#    0.000    0.000    0.000    0.000    0.000    0.000 
#
# Total GULP energy -189361.093628 kJ/mol
# GULP energy per Si atom -5569.443930 kJ/mol
# Density = 1.854575 g / cm^3
# Si number density = 18.588061 Si / 1000 Ang^3
#
#
#
# Elastic Constant Matrix: (Units=GPa)
#
#
# Indices 1 2 3 4 5 6 
#
# 1 205.5890 58.7287 94.9685 0.0000 0.0000 0.0000
# 2 58.7287 87.0213 61.7018 0.0000 0.0000 0.0000
# 3 94.9685 61.7018 154.1710 0.0000 0.0000 0.0000
# 4 0.0000 0.0000 0.0000 -5.4689 0.0000 0.0000
# 5 0.0000 0.0000 0.0000 0.0000 49.5081 0.0000
# 6 0.0000 0.0000 0.0000 0.0000 0.0000 59.5634
#
#
#
# Elastic Compliance Matrix: (Units=1/GPa)
#
#
# Indices 1 2 3 4 5 6 
#
# 1 0.007133 -0.002371 -0.003445 0.000000 0.000000 0.000000
# 2 -0.002371 0.016833 -0.005276 0.000000 0.000000 0.000000
# 3 -0.003445 -0.005276 0.010720 0.000000 0.000000 0.000000
# 4 0.000000 0.000000 0.000000 -0.182851 0.000000 0.000000
# 5 0.000000 0.000000 0.000000 0.000000 0.020199 0.000000
# 6 0.000000 0.000000 0.000000 0.000000 0.000000 0.016789
#
#
# Mechanical properties :
#
#
# Convention : Reuss Voigt Hill
#
# Bulk Modulus (GPa) = 79.99245 97.50879 88.75062
# Shear Modulus (GPa) = -58.94340 36.14599 -11.39871
#
# Velocity S-wave (km/s) = -5.63730 4.41452 -2.47903
# Velocity P-wave (km/s) = 0.86918 8.86316 6.29727
#
# Compressibility (1/GPa) = 0.01250118
#
# Stress axis : x y z
#
# Youngs Moduli (GPa) = 140.20028 59.40830 93.28575
#
# Poissons Ratio (x) = 0.14087 0.32134
# Poissons Ratio (y) = 0.33245 0.49218
# Poissons Ratio (z) = 0.48294 0.31344
#
# Static dielectric constant tensor:
#      x y z
#    x 1.624730 0.000000 0.000000 
#    y 0.000000 1.661360 0.000000 
#    z 0.000000 0.000000 1.590920 
# 
# From -- ./inp_files/32984.got.cif
#   From: 2010.05.17/outbox.cif.g08.bks.cpg/sg47_17_cif.got.tgz:32984.got - 2010.06.03 20:15:42.
