data_PCOD9386048
_publ_section_title
;
Structure prediction by ZEFSAII (Michael W. Deem and Ramdas Pophale) SiO2 
 PCOD9386048
Probable space group: P M M M
;
_chemical_formula_sum "Si O2"
_cell_formula_units_Z 48
_cell_length_a 31.825083
_cell_length_b 7.773817
_cell_length_c 9.268504
_cell_angle_alpha 90.000000
_cell_angle_beta 90.000000
_cell_angle_gamma 90.000000
_cell_volume 2293.049868
_symmetry_space_group_name_H-M "P M M M"
_symmetry_group_IT_number 47
_symmetry_cell_setting 'orthorhombic'
loop_
_space_group_symop_operation_xyz
x,y,z
-x,-y,z
x,-y,-z
-x,y,-z
-x,-y,-z
x,y,-z
-x,y,z
x,-y,z
loop_
_atom_site_type_symbol
_atom_site_label
_atom_site_fract_x
_atom_site_fract_y
_atom_site_fract_z
Si Si1 0.915858 0.206423 0.836082
Si Si2 0.834344 0.207128 0.335662
Si Si3 0.000000 0.705286 0.336040
Si Si4 0.415863 0.706336 0.836036
Si Si5 0.666759 0.289205 0.666510
Si Si6 0.500000 0.205192 0.336131
Si Si7 0.250143 0.707242 0.835389
O O1 0.875244 0.272689 0.749729
O O2 0.958399 0.241464 0.749663
O O3 0.911512 0.000000 0.844991
O O4 0.917747 0.273328 0.000000
O O5 0.832843 0.272300 0.500000
O O6 0.792034 0.248245 0.249885
O O7 0.837746 0.000000 0.342601
O O8 0.000000 0.500000 0.343743
O O9 0.000000 0.774320 0.500000
O O10 0.411629 0.500000 0.844926
O O11 0.375072 0.769428 0.749364
O O12 0.458396 0.741977 0.749758
O O13 0.417659 0.773244 0.000000
O O14 0.666886 0.234557 0.500000
O O15 0.666663 0.500000 0.666595
O O16 0.708587 0.232253 0.749995
O O17 0.500000 0.274662 0.500000
O O18 0.500000 0.000000 0.344219
O O19 0.252843 0.500000 0.841362
O O20 0.248991 0.771608 0.000000
#
# Coordination Sequence:
#
# PCOD9386048 Si02
#       7
#     8   8   4   8   8   4   8
#     4  10  21  38  60  83 107 140 182 224 268 320
#     4  10  21  37  57  81 109 143 183 225 268 316
#     4  11  24  39  56  82 114 145 178 219 268 320
#     4  10  20  35  57  83 108 137 177 222 266 317
#     4   9  17  31  53  80 109 141 177 219 266 315
#     4  11  24  39  54  76 108 143 178 219 268 320
#     4  10  20  34  54  81 112 145 180 220 268 319
#
# _framework density 20.932818999999999
#
# number of rings (size 3 to 8) (size 9 to 14) (size 15 to 20)
#    0.000    2.000    0.000    3.500    0.000   10.000 
#    0.000    0.833    0.000    5.000    0.000    0.000 
#    0.000    0.000    0.000    0.000    0.000    0.000 
#
# Total GULP energy -268310.697165 kJ/mol
# GULP energy per Si atom -5589.806191 kJ/mol
# Density = 2.088517 g / cm^3
# Si number density = 20.932819 Si / 1000 Ang^3
#
#
#
# Elastic Constant Matrix: (Units=GPa)
#
#
# Indices 1 2 3 4 5 6 
#
# 1 248.9197 -1.5961 160.1367 0.0000 0.0000 0.0000
# 2 -1.5961 28.4260 9.9236 0.0000 0.0000 0.0000
# 3 160.1367 9.9236 271.2206 0.0000 0.0000 0.0000
# 4 0.0000 0.0000 0.0000 16.7646 0.0000 0.0000
# 5 0.0000 0.0000 0.0000 0.0000 49.9244 0.0000
# 6 0.0000 0.0000 0.0000 0.0000 0.0000 28.8425
#
#
#
# Elastic Compliance Matrix: (Units=1/GPa)
#
#
# Indices 1 2 3 4 5 6 
#
# 1 0.006562 0.001743 -0.003938 0.000000 0.000000 0.000000
# 2 0.001743 0.036097 -0.002350 0.000000 0.000000 0.000000
# 3 -0.003938 -0.002350 0.006098 0.000000 0.000000 0.000000
# 4 0.000000 0.000000 0.000000 0.059650 0.000000 0.000000
# 5 0.000000 0.000000 0.000000 0.000000 0.020030 0.000000
# 6 0.000000 0.000000 0.000000 0.000000 0.000000 0.034671
#
#
# Mechanical properties :
#
#
# Convention : Reuss Voigt Hill
#
# Bulk Modulus (GPa) = 25.20941 98.38830 61.79885
# Shear Modulus (GPa) = 26.96564 44.44644 35.70604
#
# Velocity S-wave (km/s) = 3.59304 4.61292 4.13455
# Velocity P-wave (km/s) = 5.41132 8.68769 7.23735
#
# Compressibility (1/GPa) = 0.03966773
#
# Stress axis : x y z
#
# Youngs Moduli (GPa) = 152.38965 27.70289 163.98048
#
# Poissons Ratio (x) = -0.04829 0.64580
# Poissons Ratio (y) = -0.26566 0.38536
# Poissons Ratio (z) = 0.60015 0.06510
#
# Static dielectric constant tensor:
#      x y z
#    x 1.693450 0.000000 0.000000 
#    y 0.000000 1.783250 0.000000 
#    z 0.000000 0.000000 1.739370 
# 
# From -- ./inp_files/2775.got.cif
#   From: 2010.05.17/outbox.cif.g08.bks.cpg/sg47_2_cif.got.tgz:2775.got - 2010.06.03 20:15:42.
