data_PCOD9386376
_publ_section_title
;
Structure prediction by ZEFSAII (Michael W. Deem and Ramdas Pophale) SiO2 
 PCOD9386376
Probable space group: P M M M
;
_chemical_formula_sum "Si O2"
_cell_formula_units_Z 52
_cell_length_a 28.342409
_cell_length_b 11.864373
_cell_length_c 8.892764
_cell_angle_alpha 90.000000
_cell_angle_beta 90.000000
_cell_angle_gamma 90.000000
_cell_volume 2990.324505
_symmetry_space_group_name_H-M "P M M M"
_symmetry_group_IT_number 47
_symmetry_cell_setting 'orthorhombic'
loop_
_space_group_symop_operation_xyz
x,y,z
-x,-y,z
x,-y,-z
-x,y,-z
-x,-y,-z
x,y,-z
-x,y,z
x,-y,z
loop_
_atom_site_type_symbol
_atom_site_label
_atom_site_fract_x
_atom_site_fract_y
_atom_site_fract_z
Si Si1 0.145586 0.222989 0.320785
Si Si2 0.224272 0.633248 0.821450
Si Si3 0.054671 0.132325 0.819708
Si Si4 0.697145 0.000000 0.825998
Si Si5 0.500000 0.637009 0.673631
Si Si6 0.401593 0.635842 0.176031
Si Si7 0.313790 0.239381 0.320855
Si Si8 0.810557 0.000000 0.174439
O O1 0.147707 0.226097 0.500000
O O2 0.175386 0.325001 0.250591
O O3 0.092058 0.210513 0.263577
O O4 0.170786 0.110511 0.257384
O O5 0.231425 0.500000 0.798722
O O6 0.267089 0.702704 0.748280
O O7 0.223618 0.656344 0.000000
O O8 0.000000 0.155788 0.783156
O O9 0.063708 0.000000 0.782174
O O10 0.060239 0.142962 0.000000
O O11 0.681594 0.886560 0.743382
O O12 0.754145 0.000000 0.824297
O O13 0.681836 0.000000 0.000000
O O14 0.500000 0.500000 0.674240
O O15 0.500000 0.673575 0.500000
O O16 0.547757 0.671720 0.757907
O O17 0.398680 0.500000 0.187829
O O18 0.359000 0.690103 0.267473
O O19 0.397768 0.665133 0.000000
O O20 0.309832 0.237754 0.500000
O O21 0.826614 0.000000 0.000000
#
# Coordination Sequence:
#
# PCOD9386376 Si02
#       8
#     8   8   8   4   4   8   8   4
#     4  12  23  34  55  84 114 144 177 225 280 326
#     4  11  24  41  59  79 107 147 190 226 267 326
#     4   9  18  33  54  79 109 146 183 220 266 323
#     4  11  23  39  59  79 108 150 190 226 268 326
#     4   9  17  31  53  82 113 144 185 237 286 325
#     4  10  20  35  56  82 114 152 191 229 275 333
#     4  12  24  37  57  84 115 146 182 231 282 327
#     4  11  21  35  56  78 107 147 188 223 264 324
#
# _framework density 17.389417999999999
#
# number of rings (size 3 to 8) (size 9 to 14) (size 15 to 20)
#    0.000    1.308    2.308    5.308    0.000    5.846 
#    0.000    0.769    0.000    0.923    0.000    6.462 
#    0.000    0.000    0.000    0.000    0.000    0.000 
#
# Total GULP energy -290593.055845 kJ/mol
# GULP energy per Si atom -5588.327997 kJ/mol
# Density = 1.734984 g / cm^3
# Si number density = 17.389418 Si / 1000 Ang^3
#
#
#
# Elastic Constant Matrix: (Units=GPa)
#
#
# Indices 1 2 3 4 5 6 
#
# 1 107.6066 34.8787 55.7442 0.0000 0.0000 0.0000
# 2 34.8787 62.9318 58.3550 0.0000 0.0000 0.0000
# 3 55.7442 58.3550 144.1774 0.0000 0.0000 0.0000
# 4 0.0000 0.0000 0.0000 18.2581 0.0000 0.0000
# 5 0.0000 0.0000 0.0000 0.0000 -35.4921 0.0000
# 6 0.0000 0.0000 0.0000 0.0000 0.0000 15.7659
#
#
#
# Elastic Compliance Matrix: (Units=1/GPa)
#
#
# Indices 1 2 3 4 5 6 
#
# 1 0.012166 -0.003812 -0.003161 0.000000 0.000000 0.000000
# 2 -0.003812 0.026631 -0.009305 0.000000 0.000000 0.000000
# 3 -0.003161 -0.009305 0.011924 0.000000 0.000000 0.000000
# 4 0.000000 0.000000 0.000000 0.054770 0.000000 0.000000
# 5 0.000000 0.000000 0.000000 0.000000 -0.028175 0.000000
# 6 0.000000 0.000000 0.000000 0.000000 0.000000 0.063428
#
#
# Mechanical properties :
#
#
# Convention : Reuss Voigt Hill
#
# Bulk Modulus (GPa) = 55.04832 68.07464 61.56148
# Shear Modulus (GPa) = 27.87757 10.75555 19.31656
#
# Velocity S-wave (km/s) = 4.00826 2.48969 3.33652
# Velocity P-wave (km/s) = 7.29016 6.89180 7.09378
#
# Compressibility (1/GPa) = 0.01816586
#
# Stress axis : x y z
#
# Youngs Moduli (GPa) = 82.19513 37.55016 83.86242
#
# Poissons Ratio (x) = 0.14313 0.26510
# Poissons Ratio (y) = 0.31330 0.78034
# Poissons Ratio (z) = 0.25983 0.34941
#
# Static dielectric constant tensor:
#      x y z
#    x 1.589180 0.000000 0.000000 
#    y 0.000000 1.573810 0.000000 
#    z 0.000000 0.000000 1.578790 
# 
# From -- ./inp_files/13310.got.cif
#   From: 2010.05.17/outbox.cif.g08.bks.cpg/sg47_7_cif.got.tgz:13310.got - 2010.06.03 20:15:42.
