data_PCOD9386431
_publ_section_title
;
Structure prediction by ZEFSAII (Michael W. Deem and Ramdas Pophale) SiO2 
 PCOD9386431
Probable space group: P M M M
;
_chemical_formula_sum "Si O2"
_cell_formula_units_Z 40
_cell_length_a 26.601739
_cell_length_b 8.437863
_cell_length_c 9.360545
_cell_angle_alpha 90.000000
_cell_angle_beta 90.000000
_cell_angle_gamma 90.000000
_cell_volume 2101.085053
_symmetry_space_group_name_H-M "P M M M"
_symmetry_group_IT_number 47
_symmetry_cell_setting 'orthorhombic'
loop_
_space_group_symop_operation_xyz
x,y,z
-x,-y,z
x,-y,-z
-x,y,-z
-x,-y,-z
x,y,-z
-x,y,z
x,-y,z
loop_
_atom_site_type_symbol
_atom_site_label
_atom_site_fract_x
_atom_site_fract_y
_atom_site_fract_z
Si Si1 0.803325 0.193623 0.164416
Si Si2 0.295296 0.191345 0.334246
Si Si3 0.000000 0.689989 0.834906
Si Si4 0.097270 0.191902 0.665147
Si Si5 0.404163 0.310466 0.665130
Si Si6 0.500000 0.189587 0.163056
O O1 0.751521 0.244918 0.238854
O O2 0.851592 0.243787 0.256279
O O3 0.803189 0.000000 0.164854
O O4 0.806908 0.244930 0.000000
O O5 0.288322 0.240803 0.500000
O O6 0.349484 0.252502 0.284508
O O7 0.296271 0.000000 0.331854
O O8 0.049202 0.749840 0.752450
O O9 0.000000 0.500000 0.834703
O O10 0.000000 0.745127 0.000000
O O11 0.095765 0.244233 0.500000
O O12 0.096770 0.000000 0.665142
O O13 0.409763 0.256393 0.500000
O O14 0.405070 0.500000 0.666532
O O15 0.450215 0.247402 0.756716
O O16 0.500000 0.000000 0.162755
O O17 0.500000 0.247401 0.000000
#
# Coordination Sequence:
#
# PCOD9386431 Si02
#       6
#     8   8   4   8   8   4
#     4   9  17  30  51  79 108 138 175 221 269 313
#     4   9  17  31  52  77 105 138 176 218 263 312
#     4  11  24  39  54  76 108 143 178 219 270 326
#     4  10  20  35  57  83 108 138 180 225 267 316
#     4  10  21  37  57  81 109 142 180 220 264 317
#     4  11  24  39  56  80 108 139 178 223 270 320
#
# _framework density 19.037783999999998
#
# number of rings (size 3 to 8) (size 9 to 14) (size 15 to 20)
#    0.000    2.200    0.000    3.000    0.000    9.600 
#    0.000    3.000    0.000    3.600    0.000    0.000 
#    0.000    0.000    0.000    0.000    0.000    0.000 
#
# Total GULP energy -223395.542318 kJ/mol
# GULP energy per Si atom -5584.888558 kJ/mol
# Density = 1.899445 g / cm^3
# Si number density = 19.037784 Si / 1000 Ang^3
#
#
#
# Elastic Constant Matrix: (Units=GPa)
#
#
# Indices 1 2 3 4 5 6 
#
# 1 227.8350 27.2412 133.9301 0.0000 0.0000 0.0000
# 2 27.2412 12.0509 23.7309 0.0000 0.0000 0.0000
# 3 133.9301 23.7309 166.1110 0.0000 0.0000 0.0000
# 4 0.0000 0.0000 0.0000 17.1931 0.0000 0.0000
# 5 0.0000 0.0000 0.0000 0.0000 -68.6633 0.0000
# 6 0.0000 0.0000 0.0000 0.0000 0.0000 -48.5482
#
#
#
# Elastic Compliance Matrix: (Units=1/GPa)
#
#
# Indices 1 2 3 4 5 6 
#
# 1 0.008908 -0.008339 -0.005991 0.000000 0.000000 0.000000
# 2 -0.008339 0.123271 -0.010887 0.000000 0.000000 0.000000
# 3 -0.005991 -0.010887 0.012406 0.000000 0.000000 0.000000
# 4 0.000000 0.000000 0.000000 0.058163 0.000000 0.000000
# 5 0.000000 0.000000 0.000000 0.000000 -0.014564 0.000000
# 6 0.000000 0.000000 0.000000 0.000000 0.000000 -0.020598
#
#
# Mechanical properties :
#
#
# Convention : Reuss Voigt Hill
#
# Bulk Modulus (GPa) = 10.62130 86.20014 48.41072
# Shear Modulus (GPa) = 20.04788 -5.26404 7.39192
#
# Velocity S-wave (km/s) = 3.24860 -1.66465 1.97261
# Velocity P-wave (km/s) = 4.43423 6.45616 5.53825
#
# Compressibility (1/GPa) = 0.09415046
#
# Stress axis : x y z
#
# Youngs Moduli (GPa) = 112.26130 8.11220 80.60887
#
# Poissons Ratio (x) = 0.06765 0.48291
# Poissons Ratio (y) = 0.93615 0.87761
# Poissons Ratio (z) = 0.67253 0.08832
#
# Static dielectric constant tensor:
#      x y z
#    x 1.624330 0.000000 0.000000 
#    y 0.000000 1.650830 0.000000 
#    z 0.000000 0.000000 1.653000 
# 
# From -- ./inp_files/12975.got.cif
#   From: 2010.05.17/outbox.cif.g08.bks.cpg/sg47_7_cif.got.tgz:12975.got - 2010.06.03 20:15:42.
