data_PCOD9386260
_publ_section_title
;
Structure prediction by ZEFSAII (Michael W. Deem and Ramdas Pophale) SiO2 
 PCOD9386260
Probable space group: P M M M
;
_chemical_formula_sum "Si O2"
_cell_formula_units_Z 64
_cell_length_a 21.029979
_cell_length_b 20.609452
_cell_length_c 8.045232
_cell_angle_alpha 90.000000
_cell_angle_beta 90.000000
_cell_angle_gamma 90.000000
_cell_volume 3486.935030
_symmetry_space_group_name_H-M "P M M M"
_symmetry_group_IT_number 47
_symmetry_cell_setting 'orthorhombic'
loop_
_space_group_symop_operation_xyz
x,y,z
-x,-y,z
x,-y,-z
-x,y,-z
-x,-y,-z
x,y,-z
-x,y,z
x,-y,z
loop_
_atom_site_type_symbol
_atom_site_label
_atom_site_fract_x
_atom_site_fract_y
_atom_site_fract_z
Si Si1 0.313731 0.162096 0.694827
Si Si2 0.904700 0.570362 0.694719
Si Si3 0.240168 0.570217 0.803150
Si Si4 0.255703 0.293288 0.700461
Si Si5 0.571640 0.927130 0.199271
Si Si6 0.930339 0.146634 0.298641
Si Si7 0.803118 0.074323 0.802788
Si Si8 0.892579 0.710297 0.703156
O O1 0.323556 0.170448 0.500000
O O2 0.296694 0.233137 0.765592
O O3 0.375239 0.125155 0.760173
O O4 0.251777 0.117569 0.722217
O O5 0.922242 0.569358 0.500000
O O6 0.924758 0.500000 0.766737
O O7 0.827783 0.571474 0.709859
O O8 0.922098 0.641703 0.762522
O O9 0.270219 0.500000 0.766534
O O10 0.276714 0.635118 0.754418
O O11 0.226566 0.572669 0.000000
O O12 0.255054 0.291022 0.500000
O O13 0.181750 0.285859 0.753746
O O14 0.500000 0.912224 0.259822
O O15 0.589027 0.000000 0.259636
O O16 0.568640 0.930613 0.000000
O O17 0.926498 0.145443 0.500000
O O18 0.871539 0.105834 0.231661
O O19 0.923915 0.222131 0.247008
O O20 0.000000 0.122008 0.249035
O O21 0.801149 0.000000 0.743091
O O22 0.791452 0.074334 0.000000
O O23 0.894508 0.707732 0.500000
#
# Coordination Sequence:
#
# PCOD9386260 Si02
#       8
#     8   8   8   8   8   8   8   8
#     4  11  21  34  54  80 107 133 168 212 250 290
#     4   8  13  22  38  58  83 118 154 188 232 286
#     4   9  16  24  36  60  93 124 158 200 240 282
#     4   9  17  29  45  65  94 129 161 198 245 294
#     4   9  19  36  55  76 107 145 178 206 242 292
#     4  10  20  35  54  72  92 122 162 210 259 304
#     4  11  24  39  54  73  98 127 159 201 256 313
#     4   8  13  26  44  63  88 117 153 195 240 290
#
# _framework density 18.354227000000002
#
# number of rings (size 3 to 8) (size 9 to 14) (size 15 to 20)
#    0.000    2.625    1.250    2.625    0.000    5.250 
#    0.000    1.875    0.000    0.375    0.000    2.625 
#    0.000    0.500    0.000   22.375    0.000   20.125 
#
# Total GULP energy -356716.074043 kJ/mol
# GULP energy per Si atom -5573.688657 kJ/mol
# Density = 1.831245 g / cm^3
# Si number density = 18.354227 Si / 1000 Ang^3
#
#
#
# Elastic Constant Matrix: (Units=GPa)
#
#
# Indices 1 2 3 4 5 6 
#
# 1 79.6809 54.3068 5.0197 0.0000 0.0000 0.0000
# 2 54.3068 147.7383 2.0279 0.0000 0.0000 0.0000
# 3 5.0197 2.0279 13.6582 0.0000 0.0000 0.0000
# 4 0.0000 0.0000 0.0000 26.7444 0.0000 0.0000
# 5 0.0000 0.0000 0.0000 0.0000 -27.2764 0.0000
# 6 0.0000 0.0000 0.0000 0.0000 0.0000 44.1199
#
#
#
# Elastic Compliance Matrix: (Units=1/GPa)
#
#
# Indices 1 2 3 4 5 6 
#
# 1 0.017130 -0.006223 -0.005372 0.000000 0.000000 0.000000
# 2 -0.006223 0.009043 0.000944 0.000000 0.000000 0.000000
# 3 -0.005372 0.000944 0.075050 0.000000 0.000000 0.000000
# 4 0.000000 0.000000 0.000000 0.037391 0.000000 0.000000
# 5 0.000000 0.000000 0.000000 0.000000 -0.036662 0.000000
# 6 0.000000 0.000000 0.000000 0.000000 0.000000 0.022665
#
#
# Mechanical properties :
#
#
# Convention : Reuss Voigt Hill
#
# Bulk Modulus (GPa) = 12.51205 40.42068 26.46637
# Shear Modulus (GPa) = 28.97555 20.69913 24.83734
#
# Velocity S-wave (km/s) = 3.97758 3.36185 3.68261
# Velocity P-wave (km/s) = 5.28456 6.09424 5.70379
#
# Compressibility (1/GPa) = 0.07992294
#
# Stress axis : x y z
#
# Youngs Moduli (GPa) = 58.37808 110.57979 13.32439
#
# Poissons Ratio (x) = 0.68813 0.07157
# Poissons Ratio (y) = 0.36328 -0.01258
# Poissons Ratio (z) = 0.31358 -0.10443
#
# Static dielectric constant tensor:
#      x y z
#    x 1.608380 0.000000 0.000000 
#    y 0.000000 1.696080 0.000000 
#    z 0.000000 0.000000 1.666970 
# 
# From -- ./inp_files/11610.got.cif
#   From: 2010.05.17/outbox.cif.g08.bks.cpg/sg47_6_cif.got.tgz:11610.got - 2010.06.03 20:15:42.
