data_PCOD9386412
_publ_section_title
;
Structure prediction by ZEFSAII (Michael W. Deem and Ramdas Pophale) SiO2 
 PCOD9386412
Probable space group: P M M M
;
_chemical_formula_sum "Si O2"
_cell_formula_units_Z 48
_cell_length_a 35.161181
_cell_length_b 7.708315
_cell_length_c 9.228221
_cell_angle_alpha 90.000000
_cell_angle_beta 90.000000
_cell_angle_gamma 90.000000
_cell_volume 2501.156657
_symmetry_space_group_name_H-M "P M M M"
_symmetry_group_IT_number 47
_symmetry_cell_setting 'orthorhombic'
loop_
_space_group_symop_operation_xyz
x,y,z
-x,-y,z
x,-y,-z
-x,y,-z
-x,-y,-z
x,y,-z
-x,y,z
x,-y,z
loop_
_atom_site_type_symbol
_atom_site_label
_atom_site_fract_x
_atom_site_fract_y
_atom_site_fract_z
Si Si1 0.349407 0.288175 0.833914
Si Si2 0.869208 0.000000 0.173364
Si Si3 0.000000 0.799293 0.324669
Si Si4 0.272093 0.297340 0.672460
Si Si5 0.423688 0.707877 0.663708
Si Si6 0.788395 0.000000 0.327027
Si Si7 0.500000 0.206794 0.163754
Si Si8 0.915793 0.301830 0.673006
O O1 0.350434 0.500000 0.833865
O O2 0.310007 0.241349 0.756710
O O3 0.386413 0.226080 0.747075
O O4 0.350528 0.230545 0.000000
O O5 0.826605 0.000000 0.235392
O O6 0.891035 0.166713 0.237946
O O7 0.869827 0.000000 0.000000
O O8 0.960123 0.714876 0.281618
O O9 0.000000 0.794271 0.500000
O O10 0.000000 0.000000 0.279095
O O11 0.279702 0.286974 0.500000
O O12 0.263942 0.500000 0.706614
O O13 0.237349 0.169172 0.704068
O O14 0.426229 0.776229 0.500000
O O15 0.419441 0.500000 0.654513
O O16 0.462124 0.740896 0.751324
O O17 0.797158 0.000000 0.500000
O O18 0.500000 0.000000 0.155457
O O19 0.500000 0.277943 0.000000
O O20 0.913620 0.260738 0.500000
O O21 0.903310 0.500000 0.692199
#
# Coordination Sequence:
#
# PCOD9386412 Si02
#       8
#     8   4   4   8   8   4   4   8
#     4   9  17  31  54  83 112 141 174 215 266 325
#     4  12  26  41  57  82 123 164 201 249 304 362
#     4   9  15  29  59  93 123 152 195 258 311 352
#     4   9  18  35  59  85 112 141 178 231 290 346
#     4  10  20  35  57  82 106 138 182 225 266 319
#     4  10  22  40  61  85 112 147 198 246 292 350
#     4  11  24  39  52  72 106 143 180 223 272 324
#     4  10  20  37  63  91 119 157 207 257 304 356
#
# _framework density 19.191120000000002
#
# number of rings (size 3 to 8) (size 9 to 14) (size 15 to 20)
#    0.000    2.167    0.833    2.500    0.000    7.333 
#    1.500    2.500    0.000    1.000    0.000    0.000 
#    0.000    0.000    0.000    0.000    0.000    0.000 
#
# Total GULP energy -268057.083006 kJ/mol
# GULP energy per Si atom -5584.522563 kJ/mol
# Density = 1.914744 g / cm^3
# Si number density = 19.191120 Si / 1000 Ang^3
#
#
#
# Elastic Constant Matrix: (Units=GPa)
#
#
# Indices 1 2 3 4 5 6 
#
# 1 177.9118 63.6661 110.5820 0.0000 0.0000 0.0000
# 2 63.6661 82.8020 57.2868 0.0000 0.0000 0.0000
# 3 110.5820 57.2868 133.9881 0.0000 0.0000 0.0000
# 4 0.0000 0.0000 0.0000 10.9400 0.0000 0.0000
# 5 0.0000 0.0000 0.0000 0.0000 -25.1164 0.0000
# 6 0.0000 0.0000 0.0000 0.0000 0.0000 -37.5043
#
#
#
# Elastic Compliance Matrix: (Units=1/GPa)
#
#
# Indices 1 2 3 4 5 6 
#
# 1 0.012189 -0.003425 -0.008595 0.000000 0.000000 0.000000
# 2 -0.003425 0.018113 -0.004917 0.000000 0.000000 0.000000
# 3 -0.008595 -0.004917 0.016659 0.000000 0.000000 0.000000
# 4 0.000000 0.000000 0.000000 0.091408 0.000000 0.000000
# 5 0.000000 0.000000 0.000000 0.000000 -0.039815 0.000000
# 6 0.000000 0.000000 0.000000 0.000000 0.000000 -0.026664
#
#
# Mechanical properties :
#
#
# Convention : Reuss Voigt Hill
#
# Bulk Modulus (GPa) = 76.41933 95.30797 85.86365
# Shear Modulus (GPa) = 45.40184 0.54164 22.97174
#
# Velocity S-wave (km/s) = 4.86920 0.53183 3.46352
# Velocity P-wave (km/s) = 8.45687 7.08149 7.79956
#
# Compressibility (1/GPa) = 0.01308569
#
# Stress axis : x y z
#
# Youngs Moduli (GPa) = 82.04199 55.20996 60.02672
#
# Poissons Ratio (x) = 0.18912 0.51593
# Poissons Ratio (y) = 0.28103 0.29515
# Poissons Ratio (z) = 0.70516 0.27147
#
# Static dielectric constant tensor:
#      x y z
#    x 1.635220 0.000000 0.000000 
#    y 0.000000 1.688480 0.000000 
#    z 0.000000 0.000000 1.653500 
# 
# From -- ./inp_files/14036.got.cif
#   From: 2010.05.17/outbox.cif.g08.bks.cpg/sg47_8_cif.got.tgz:14036.got - 2010.06.03 20:15:42.
