data_PCOD9386392
_publ_section_title
;
Structure prediction by ZEFSAII (Michael W. Deem and Ramdas Pophale) SiO2 
 PCOD9386392
Probable space group: P M M M
;
_chemical_formula_sum "Si O2"
_cell_formula_units_Z 45
_cell_length_a 8.450771
_cell_length_b 8.131741
_cell_length_c 32.418476
_cell_angle_alpha 90.000000
_cell_angle_beta 90.000000
_cell_angle_gamma 90.000000
_cell_volume 2227.780846
_symmetry_space_group_name_H-M "P M M M"
_symmetry_group_IT_number 47
_symmetry_cell_setting 'orthorhombic'
loop_
_space_group_symop_operation_xyz
x,y,z
-x,-y,z
x,-y,-z
-x,y,-z
-x,-y,-z
x,y,-z
-x,y,z
x,-y,z
loop_
_atom_site_type_symbol
_atom_site_label
_atom_site_fract_x
_atom_site_fract_y
_atom_site_fract_z
Si Si1 0.000000 0.690872 0.840105
Si Si2 0.500000 0.500000 0.000000
Si Si3 0.000000 0.813234 0.929059
Si Si4 0.742446 0.808219 0.000000
Si Si5 0.323909 0.305860 0.800812
Si Si6 0.689895 0.808413 0.455333
Si Si7 0.814061 0.806708 0.717799
Si Si8 0.180342 0.693307 0.369522
O O1 0.833923 0.763782 0.823241
O O2 0.000000 0.500000 0.826219
O O3 0.000000 0.699797 0.889347
O O4 0.633019 0.649194 0.000000
O O5 0.149007 0.794670 0.959229
O O6 0.000000 0.000000 0.912844
O O7 0.681474 0.000000 0.000000
O O8 0.500000 0.237484 0.810492
O O9 0.330358 0.500000 0.810831
O O10 0.286587 0.283896 0.752450
O O11 0.746835 0.742442 0.500000
O O12 0.500000 0.803547 0.456298
O O13 0.742268 0.723011 0.413597
O O14 0.737928 0.000000 0.452965
O O15 0.752513 0.778265 0.671371
O O16 0.000000 0.751945 0.719426
O O17 0.810952 0.000000 0.726911
O O18 0.180327 0.500000 0.360887
O O19 0.000000 0.753708 0.373339
#
# Coordination Sequence:
#
# PCOD9386392 Si02
#       8
#     4   1   4   4   8   8   8   8
#     4  10  21  37  61  89 125 164 210 264 310 373
#     4  12  22  34  68 102 136 186 214 288 344 396
#     4   9  20  41  65  86 125 175 220 273 327 387
#     4   9  21  41  62  96 136 175 227 279 334 398
#     4  10  21  38  58  85 118 156 197 248 306 361
#     4   9  19  36  55  74 100 134 172 216 266 322
#     4  10  20  35  57  80 106 142 186 234 285 349
#     4  10  21  35  53  79 107 138 174 217 270 330
#
# _framework density 20.199472
#
# number of rings (size 3 to 8) (size 9 to 14) (size 15 to 20)
#    0.000    2.311    0.889    2.267    1.244    4.978 
#    1.600    2.667    0.000    0.000    0.000    0.000 
#    0.000    0.000    0.000    0.000    0.000    0.000 
#
# Total GULP energy -250538.338502 kJ/mol
# GULP energy per Si atom -5567.518633 kJ/mol
# Density = 2.015350 g / cm^3
# Si number density = 20.199472 Si / 1000 Ang^3
#
#
#
# Elastic Constant Matrix: (Units=GPa)
#
#
# Indices 1 2 3 4 5 6 
#
# 1 106.2387 29.8300 42.1024 0.0000 0.0000 0.0000
# 2 29.8300 53.3349 3.8785 0.0000 0.0000 0.0000
# 3 42.1024 3.8785 95.1946 0.0000 0.0000 0.0000
# 4 0.0000 0.0000 0.0000 30.2798 0.0000 0.0000
# 5 0.0000 0.0000 0.0000 0.0000 -10.1175 0.0000
# 6 0.0000 0.0000 0.0000 0.0000 0.0000 20.8163
#
#
#
# Elastic Compliance Matrix: (Units=1/GPa)
#
#
# Indices 1 2 3 4 5 6 
#
# 1 0.013745 -0.007267 -0.005783 0.000000 0.000000 0.000000
# 2 -0.007267 0.022647 0.002291 0.000000 0.000000 0.000000
# 3 -0.005783 0.002291 0.012969 0.000000 0.000000 0.000000
# 4 0.000000 0.000000 0.000000 0.033025 0.000000 0.000000
# 5 0.000000 0.000000 0.000000 0.000000 -0.098838 0.000000
# 6 0.000000 0.000000 0.000000 0.000000 0.000000 0.048039
#
#
# Mechanical properties :
#
#
# Convention : Reuss Voigt Hill
#
# Bulk Modulus (GPa) = 35.91443 45.15447 40.53445
# Shear Modulus (GPa) = 80.14570 20.12619 50.13595
#
# Velocity S-wave (km/s) = 6.30581 3.15996 4.98741
# Velocity P-wave (km/s) = 8.41642 5.97634 7.29907
#
# Compressibility (1/GPa) = 0.02784396
#
# Stress axis : x y z
#
# Youngs Moduli (GPa) = 72.75348 44.15546 77.10603
#
# Poissons Ratio (x) = 0.32088 0.44591
# Poissons Ratio (y) = 0.52870 -0.17667
# Poissons Ratio (z) = 0.42074 -0.10117
#
# Static dielectric constant tensor:
#      x y z
#    x 1.750390 0.000000 0.000000 
#    y 0.000000 1.723910 0.000000 
#    z 0.000000 0.000000 1.704230 
# 
# From -- ./inp_files/34016.got.cif
#   From: 2010.05.17/outbox.cif.g08.bks.cpg/sg47_18_cif.got.tgz:34016.got - 2010.06.03 20:15:42.
