data_PCOD9386467
_publ_section_title
;
Structure prediction by ZEFSAII (Michael W. Deem and Ramdas Pophale) SiO2 
 PCOD9386467
Probable space group: P M M M
;
_chemical_formula_sum "Si O2"
_cell_formula_units_Z 48
_cell_length_a 9.217820
_cell_length_b 8.867347
_cell_length_c 31.577850
_cell_angle_alpha 90.000000
_cell_angle_beta 90.000000
_cell_angle_gamma 90.000000
_cell_volume 2581.097941
_symmetry_space_group_name_H-M "P M M M"
_symmetry_group_IT_number 47
_symmetry_cell_setting 'orthorhombic'
loop_
_space_group_symop_operation_xyz
x,y,z
-x,-y,z
x,-y,-z
-x,y,-z
-x,-y,-z
x,y,-z
-x,y,z
x,-y,z
loop_
_atom_site_type_symbol
_atom_site_label
_atom_site_fract_x
_atom_site_fract_y
_atom_site_fract_z
Si Si1 0.670972 0.819641 0.581240
Si Si2 0.332953 0.816340 0.000000
Si Si3 0.171781 0.820309 0.247333
Si Si4 0.670237 0.680392 0.833247
Si Si5 0.829916 0.182186 0.914235
Si Si6 0.828013 0.679729 0.338161
Si Si7 0.829210 0.680718 0.500000
O O1 0.500000 0.785081 0.578637
O O2 0.737871 0.754573 0.624331
O O3 0.753537 0.747665 0.541524
O O4 0.688501 0.000000 0.580306
O O5 0.249807 0.769714 0.957459
O O6 0.500000 0.766171 0.000000
O O7 0.333065 0.000000 0.000000
O O8 0.262043 0.750365 0.209127
O O9 0.211165 0.747664 0.292447
O O10 0.000000 0.790849 0.240190
O O11 0.192221 0.000000 0.249037
O O12 0.500000 0.718091 0.836371
O O13 0.685181 0.500000 0.831962
O O14 0.754020 0.745398 0.873731
O O15 0.000000 0.220180 0.915806
O O16 0.818500 0.000000 0.911025
O O17 0.806811 0.500000 0.338055
O O18 0.000000 0.709293 0.344945
O O19 0.814884 0.500000 0.500000
O O20 0.000000 0.717820 0.500000
#
# Coordination Sequence:
#
# PCOD9386467 Si02
#       7
#     8   4   8   8   8   8   4
#     4  11  24  40  59  86 119 154 193 236 283 336
#     4   9  17  31  54  83 114 147 182 224 276 331
#     4  10  21  38  61  87 113 145 187 233 281 334
#     4  11  24  39  55  79 112 149 188 231 281 335
#     4  10  20  35  57  84 112 144 185 231 278 331
#     4  10  21  38  61  88 117 151 191 233 280 336
#     4  11  24  41  62  88 116 149 192 239 288 342
#
# _framework density 18.596738999999999
#
# number of rings (size 3 to 8) (size 9 to 14) (size 15 to 20)
#    0.000    1.667    0.000    4.250    0.000   13.000 
#    0.000    0.417    0.000    2.500    0.000    0.000 
#    0.000    0.000    0.000    0.000    0.000    0.000 
#
# Total GULP energy -268373.315066 kJ/mol
# GULP energy per Si atom -5591.110731 kJ/mol
# Density = 1.855441 g / cm^3
# Si number density = 18.596739 Si / 1000 Ang^3
#
#
#
# Elastic Constant Matrix: (Units=GPa)
#
#
# Indices 1 2 3 4 5 6 
#
# 1 165.0250 84.6574 139.1742 0.0000 0.0000 0.0000
# 2 84.6574 59.4116 76.1347 0.0000 0.0000 0.0000
# 3 139.1742 76.1347 215.0599 0.0000 0.0000 0.0000
# 4 0.0000 0.0000 0.0000 78.9415 0.0000 0.0000
# 5 0.0000 0.0000 0.0000 0.0000 164.7766 0.0000
# 6 0.0000 0.0000 0.0000 0.0000 0.0000 28.3853
#
#
#
# Elastic Compliance Matrix: (Units=1/GPa)
#
#
# Indices 1 2 3 4 5 6 
#
# 1 0.027488 -0.029969 -0.007179 0.000000 0.000000 0.000000
# 2 -0.029969 0.063481 -0.003079 0.000000 0.000000 0.000000
# 3 -0.007179 -0.003079 0.010386 0.000000 0.000000 0.000000
# 4 0.000000 0.000000 0.000000 0.012668 0.000000 0.000000
# 5 0.000000 0.000000 0.000000 0.000000 0.006069 0.000000
# 6 0.000000 0.000000 0.000000 0.000000 0.000000 0.035229
#
#
# Mechanical properties :
#
#
# Convention : Reuss Voigt Hill
#
# Bulk Modulus (GPa) = 47.84536 115.49210 81.66873
# Shear Modulus (GPa) = 20.59785 63.72268 42.16027
#
# Velocity S-wave (km/s) = 3.33168 5.86003 4.76655
# Velocity P-wave (km/s) = 6.37054 10.39350 8.61999
#
# Compressibility (1/GPa) = 0.02090067
#
# Stress axis : x y z
#
# Youngs Moduli (GPa) = 36.37902 15.75267 96.28206
#
# Poissons Ratio (x) = 0.47209 0.69125
# Poissons Ratio (y) = 1.09023 0.29649
# Poissons Ratio (z) = 0.26118 0.04851
#
# Static dielectric constant tensor:
#      x y z
#    x 1.623420 0.000000 0.000000 
#    y 0.000000 1.620430 0.000000 
#    z 0.000000 0.000000 1.596760 
# 
# From -- ./inp_files/34175.got.cif
#   From: 2010.05.17/outbox.cif.g08.bks.cpg/sg47_18_cif.got.tgz:34175.got - 2010.06.03 20:15:42.
