data_PCOD9386865
_publ_section_title
;
Structure prediction by ZEFSAII (Michael W. Deem and Ramdas Pophale) SiO2 
 PCOD9386865
Probable space group: P M M M
;
_chemical_formula_sum "Si O2"
_cell_formula_units_Z 40
_cell_length_a 7.764333
_cell_length_b 9.217455
_cell_length_c 28.793559
_cell_angle_alpha 90.000000
_cell_angle_beta 90.000000
_cell_angle_gamma 90.000000
_cell_volume 2060.679867
_symmetry_space_group_name_H-M "P M M M"
_symmetry_group_IT_number 47
_symmetry_cell_setting 'orthorhombic'
loop_
_space_group_symop_operation_xyz
x,y,z
-x,-y,z
x,-y,-z
-x,y,-z
-x,-y,-z
x,y,-z
-x,y,z
x,-y,z
loop_
_atom_site_type_symbol
_atom_site_label
_atom_site_fract_x
_atom_site_fract_y
_atom_site_fract_z
Si Si1 0.706847 0.835791 0.599846
Si Si2 0.294357 0.826656 0.112998
Si Si3 0.705703 0.665833 0.793115
Si Si4 0.204529 0.336794 0.308145
Si Si5 0.000000 0.328891 0.055536
Si Si6 0.299109 0.177507 0.500000
O O1 0.500000 0.843259 0.594793
O O2 0.741989 0.746999 0.645958
O O3 0.774682 0.777291 0.550077
O O4 0.771997 0.000000 0.605794
O O5 0.500000 0.796852 0.105798
O O6 0.241557 0.763677 0.163520
O O7 0.169535 0.747841 0.076630
O O8 0.271591 0.000000 0.111401
O O9 0.500000 0.656150 0.795767
O O10 0.775569 0.500000 0.796433
O O11 0.747506 0.726716 0.742111
O O12 0.278685 0.500000 0.309249
O O13 0.000000 0.345697 0.309047
O O14 0.000000 0.500000 0.067772
O O15 0.000000 0.315894 0.000000
O O16 0.500000 0.222165 0.500000
O O17 0.294939 0.000000 0.500000
#
# Coordination Sequence:
#
# PCOD9386865 Si02
#       6
#     8   8   8   8   4   4
#     4   9  17  31  52  74  95 124 167 219 271 324
#     4  10  22  40  63  93 127 160 198 249 306 358
#     4   9  18  34  56  80 107 144 188 231 277 332
#     4  10  21  34  48  72 107 143 177 215 263 321
#     4  11  25  43  65  93 125 165 211 252 291 344
#     4   7  12  26  48  71  92 118 160 215 270 321
#
# _framework density 19.411068
#
# number of rings (size 3 to 8) (size 9 to 14) (size 15 to 20)
#    0.000    2.600    0.000    2.700    1.400    4.800 
#    0.000    5.000    0.000    4.800    0.000    0.000 
#    0.000    0.000    0.000    0.000    0.000    0.000 
#
# Total GULP energy -222954.730745 kJ/mol
# GULP energy per Si atom -5573.868269 kJ/mol
# Density = 1.936689 g / cm^3
# Si number density = 19.411068 Si / 1000 Ang^3
#
#
#
# Elastic Constant Matrix: (Units=GPa)
#
#
# Indices 1 2 3 4 5 6 
#
# 1 57.1750 35.8679 46.2753 0.0000 0.0000 0.0000
# 2 35.8679 77.8316 78.2127 0.0000 0.0000 0.0000
# 3 46.2753 78.2127 177.3668 0.0000 0.0000 0.0000
# 4 0.0000 0.0000 0.0000 27.7432 0.0000 0.0000
# 5 0.0000 0.0000 0.0000 0.0000 56.3119 0.0000
# 6 0.0000 0.0000 0.0000 0.0000 0.0000 19.5950
#
#
#
# Elastic Compliance Matrix: (Units=1/GPa)
#
#
# Indices 1 2 3 4 5 6 
#
# 1 0.025262 -0.009012 -0.002617 0.000000 0.000000 0.000000
# 2 -0.009012 0.026287 -0.009240 0.000000 0.000000 0.000000
# 3 -0.002617 -0.009240 0.010396 0.000000 0.000000 0.000000
# 4 0.000000 0.000000 0.000000 0.036045 0.000000 0.000000
# 5 0.000000 0.000000 0.000000 0.000000 0.017758 0.000000
# 6 0.000000 0.000000 0.000000 0.000000 0.000000 0.051033
#
#
# Mechanical properties :
#
#
# Convention : Reuss Voigt Hill
#
# Bulk Modulus (GPa) = 49.49096 70.34281 59.91689
# Shear Modulus (GPa) = 23.22834 30.86450 27.04642
#
# Velocity S-wave (km/s) = 3.46302 3.99186 3.73681
# Velocity P-wave (km/s) = 6.44528 7.58708 7.03937
#
# Compressibility (1/GPa) = 0.02020571
#
# Stress axis : x y z
#
# Youngs Moduli (GPa) = 39.58575 38.04164 96.19542
#
# Poissons Ratio (x) = 0.34283 0.25173
# Poissons Ratio (y) = 0.35674 0.88889
# Poissons Ratio (z) = 0.10359 0.35152
#
# Static dielectric constant tensor:
#      x y z
#    x 1.697360 0.000000 0.000000 
#    y 0.000000 1.799160 0.000000 
#    z 0.000000 0.000000 1.701960 
# 
# From -- ./inp_files/33054.got.cif
#   From: 2010.05.17/outbox.cif.g08.bks.cpg/sg47_17_cif.got.tgz:33054.got - 2010.06.03 20:15:42.
