data_PCOD9386142
_publ_section_title
;
Structure prediction by ZEFSAII (Michael W. Deem and Ramdas Pophale) SiO2 
 PCOD9386142
Probable space group: P M M M
;
_chemical_formula_sum "Si O2"
_cell_formula_units_Z 48
_cell_length_a 33.363499
_cell_length_b 8.116464
_cell_length_c 9.596711
_cell_angle_alpha 90.000000
_cell_angle_beta 90.000000
_cell_angle_gamma 90.000000
_cell_volume 2598.728290
_symmetry_space_group_name_H-M "P M M M"
_symmetry_group_IT_number 47
_symmetry_cell_setting 'orthorhombic'
loop_
_space_group_symop_operation_xyz
x,y,z
-x,-y,z
x,-y,-z
-x,y,-z
-x,-y,-z
x,y,-z
-x,y,z
x,-y,z
loop_
_atom_site_type_symbol
_atom_site_label
_atom_site_fract_x
_atom_site_fract_y
_atom_site_fract_z
Si Si1 0.000000 0.701876 0.160326
Si Si2 0.239243 0.695955 0.159615
Si Si3 0.454120 0.000000 0.330583
Si Si4 0.673412 0.194482 0.836616
Si Si5 0.076043 0.301325 0.339677
Si Si6 0.164013 0.803110 0.659816
Si Si7 0.598898 0.314550 0.666963
O O1 0.960293 0.755857 0.242954
O O2 0.000000 0.500000 0.160969
O O3 0.000000 0.754785 0.000000
O O4 0.244702 0.500000 0.158822
O O5 0.280979 0.773572 0.210317
O O6 0.200738 0.738754 0.250118
O O7 0.232935 0.752694 0.000000
O O8 0.430579 0.166113 0.289063
O O9 0.500000 0.000000 0.281700
O O10 0.454896 0.000000 0.500000
O O11 0.640805 0.288622 0.745609
O O12 0.665011 0.000000 0.827166
O O13 0.671063 0.243757 0.000000
O O14 0.071306 0.242764 0.500000
O O15 0.074693 0.500000 0.342631
O O16 0.120055 0.250058 0.288859
O O17 0.167447 0.742527 0.500000
O O18 0.165565 0.000000 0.658845
O O19 0.604849 0.299880 0.500000
O O20 0.583531 0.500000 0.694408
#
# Coordination Sequence:
#
# PCOD9386142 Si02
#       7
#     4   8   4   8   8   8   8
#     4   9  17  29  48  75 100 122 158 207 254 301
#     4  10  21  36  54  77 104 136 176 219 263 315
#     4   9  18  34  55  81 115 149 183 231 285 334
#     4  10  20  35  56  80 108 145 184 223 272 326
#     4   9  17  31  51  72  96 128 164 203 250 305
#     4  10  21  36  53  75 103 136 173 213 260 312
#     4  10  20  34  55  83 112 145 186 230 278 331
#
# _framework density 18.470573000000002
#
# number of rings (size 3 to 8) (size 9 to 14) (size 15 to 20)
#    0.000    2.333    0.833    1.750    0.000    5.667 
#    0.000    3.750    0.000    3.500    0.000    1.167 
#    0.000    0.000    0.000    0.000    0.000    0.000 
#
# Total GULP energy -267828.413009 kJ/mol
# GULP energy per Si atom -5579.758604 kJ/mol
# Density = 1.842853 g / cm^3
# Si number density = 18.470573 Si / 1000 Ang^3
#
#
#
# Elastic Constant Matrix: (Units=GPa)
#
#
# Indices 1 2 3 4 5 6 
#
# 1 151.1695 46.5363 57.4417 0.0000 0.0000 0.0000
# 2 46.5363 69.9276 25.9236 0.0000 0.0000 0.0000
# 3 57.4417 25.9236 44.4836 0.0000 0.0000 0.0000
# 4 0.0000 0.0000 0.0000 15.6277 0.0000 0.0000
# 5 0.0000 0.0000 0.0000 0.0000 318.1172 0.0000
# 6 0.0000 0.0000 0.0000 0.0000 0.0000 24.4075
#
#
#
# Elastic Compliance Matrix: (Units=1/GPa)
#
#
# Indices 1 2 3 4 5 6 
#
# 1 0.013535 -0.003225 -0.015598 0.000000 0.000000 0.000000
# 2 -0.003225 0.019010 -0.006914 0.000000 0.000000 0.000000
# 3 -0.015598 -0.006914 0.046652 0.000000 0.000000 0.000000
# 4 0.000000 0.000000 0.000000 0.063989 0.000000 0.000000
# 5 0.000000 0.000000 0.000000 0.000000 0.003143 0.000000
# 6 0.000000 0.000000 0.000000 0.000000 0.000000 0.040971
#
#
# Mechanical properties :
#
#
# Convention : Reuss Voigt Hill
#
# Bulk Modulus (GPa) = 36.07263 58.37601 47.22432
# Shear Modulus (GPa) = 20.16008 80.67576 50.41792
#
# Velocity S-wave (km/s) = 3.30732 6.61610 5.23026
# Velocity P-wave (km/s) = 5.84437 9.48880 7.88016
#
# Compressibility (1/GPa) = 0.02772185
#
# Stress axis : x y z
#
# Youngs Moduli (GPa) = 73.88310 52.60456 21.43543
#
# Poissons Ratio (x) = 0.16964 0.33436
# Poissons Ratio (y) = 0.23825 0.14821
# Poissons Ratio (z) = 1.15246 0.36372
#
# Static dielectric constant tensor:
#      x y z
#    x 1.609440 0.000000 0.000000 
#    y 0.000000 1.651820 0.000000 
#    z 0.000000 0.000000 1.627510 
# 
# From -- ./inp_files/13937.got.cif
#   From: 2010.05.17/outbox.cif.g08.bks.cpg/sg47_7_cif.got.tgz:13937.got - 2010.06.03 20:15:42.
