data_PCOD9386807
_publ_section_title
;
Structure prediction by ZEFSAII (Michael W. Deem and Ramdas Pophale) SiO2 
 PCOD9386807
Probable space group: P M M M
;
_chemical_formula_sum "Si O2"
_cell_formula_units_Z 48
_cell_length_a 14.112354
_cell_length_b 7.473717
_cell_length_c 25.173020
_cell_angle_alpha 90.000000
_cell_angle_beta 90.000000
_cell_angle_gamma 90.000000
_cell_volume 2655.042220
_symmetry_space_group_name_H-M "P M M M"
_symmetry_group_IT_number 47
_symmetry_cell_setting 'orthorhombic'
loop_
_space_group_symop_operation_xyz
x,y,z
-x,-y,z
x,-y,-z
-x,y,-z
-x,-y,-z
x,y,-z
-x,y,z
x,-y,z
loop_
_atom_site_type_symbol
_atom_site_label
_atom_site_fract_x
_atom_site_fract_y
_atom_site_fract_z
Si Si1 0.889498 0.781470 0.172792
Si Si2 0.886744 0.215890 0.942837
Si Si3 0.604540 0.792289 0.668816
Si Si4 0.797119 0.780962 0.281894
Si Si5 0.894369 0.783696 0.609348
Si Si6 0.696051 0.709037 0.558536
O O1 0.852155 0.721317 0.114878
O O2 0.832932 0.721879 0.224559
O O3 0.000000 0.730419 0.177824
O O4 0.887850 0.000000 0.172504
O O5 0.000000 0.250052 0.942476
O O6 0.875847 0.000000 0.943328
O O7 0.849677 0.282539 0.000000
O O8 0.500000 0.712588 0.674726
O O9 0.692306 0.716250 0.702259
O O10 0.638180 0.788674 0.607547
O O11 0.598358 0.000000 0.684328
O O12 0.866186 0.729611 0.330509
O O13 0.796443 0.000000 0.281858
O O14 0.807647 0.726068 0.572236
O O15 0.000000 0.721894 0.595317
O O16 0.894716 0.000000 0.608124
O O17 0.677023 0.783888 0.500000
O O18 0.672324 0.500000 0.558050
#
# Coordination Sequence:
#
# PCOD9386807 Si02
#       6
#     8   8   8   8   8   8
#     4   8  11  14  24  43  66  93 123 154 187 220
#     4   7   9  12  17  29  55  91 126 155 181 210
#     4   9  18  32  48  63  78  97 122 157 201 243
#     4   8  13  22  36  54  74  93 120 159 196 229
#     4   9  17  29  45  63  83 108 135 162 191 223
#     4  10  21  34  46  62  83 104 127 156 189 229
#
# _framework density 18.078807000000001
#
# number of rings (size 3 to 8) (size 9 to 14) (size 15 to 20)
#    0.000    3.500    0.000    3.500    0.000    4.667 
#    0.000    3.333    0.000    0.000    0.000    0.000 
#    0.000    0.667    0.000    9.333    0.000   13.667 
#
# Total GULP energy -267308.038755 kJ/mol
# GULP energy per Si atom -5568.917474 kJ/mol
# Density = 1.803766 g / cm^3
# Si number density = 18.078807 Si / 1000 Ang^3
#
#
#
# Elastic Constant Matrix: (Units=GPa)
#
#
# Indices 1 2 3 4 5 6 
#
# 1 66.6572 -2.8851 20.2388 0.0000 0.0000 0.0000
# 2 -2.8851 49.4245 -4.1752 0.0000 0.0000 0.0000
# 3 20.2388 -4.1752 131.5186 0.0000 0.0000 0.0000
# 4 0.0000 0.0000 0.0000 50.2910 0.0000 0.0000
# 5 0.0000 0.0000 0.0000 0.0000 7.7837 0.0000
# 6 0.0000 0.0000 0.0000 0.0000 0.0000 -19.4464
#
#
#
# Elastic Compliance Matrix: (Units=1/GPa)
#
#
# Indices 1 2 3 4 5 6 
#
# 1 0.015763 0.000717 -0.002403 0.000000 0.000000 0.000000
# 2 0.000717 0.020320 0.000535 0.000000 0.000000 0.000000
# 3 -0.002403 0.000535 0.007990 0.000000 0.000000 0.000000
# 4 0.000000 0.000000 0.000000 0.019884 0.000000 0.000000
# 5 0.000000 0.000000 0.000000 0.000000 0.128474 0.000000
# 6 0.000000 0.000000 0.000000 0.000000 0.000000 -0.051423
#
#
# Mechanical properties :
#
#
# Convention : Reuss Voigt Hill
#
# Bulk Modulus (GPa) = 23.94012 30.43968 27.18990
# Shear Modulus (GPa) = 31.79989 23.35378 27.57684
#
# Velocity S-wave (km/s) = 4.19855 3.59803 3.90983
# Velocity P-wave (km/s) = 6.06420 5.84250 5.95438
#
# Compressibility (1/GPa) = 0.04177088
#
# Stress axis : x y z
#
# Youngs Moduli (GPa) = 63.44067 49.21280 125.15280
#
# Poissons Ratio (x) = -0.03529 0.30073
# Poissons Ratio (y) = -0.04550 -0.06692
# Poissons Ratio (z) = 0.15244 -0.02632
#
# Static dielectric constant tensor:
#      x y z
#    x 1.606810 0.000000 0.000000 
#    y 0.000000 1.717360 0.000000 
#    z 0.000000 0.000000 1.649990 
# 
# From -- ./inp_files/7511.got.cif
#   From: 2010.05.17/outbox.cif.g08.bks.cpg/sg47_4_cif.got.tgz:7511.got - 2010.06.03 20:15:42.
