data_PCOD9386075
_publ_section_title
;
Structure prediction by ZEFSAII (Michael W. Deem and Ramdas Pophale) SiO2 
 PCOD9386075
Probable space group: P M M M
;
_chemical_formula_sum "Si O2"
_cell_formula_units_Z 56
_cell_length_a 24.262702
_cell_length_b 9.233297
_cell_length_c 13.856766
_cell_angle_alpha 90.000000
_cell_angle_beta 90.000000
_cell_angle_gamma 90.000000
_cell_volume 3104.258312
_symmetry_space_group_name_H-M "P M M M"
_symmetry_group_IT_number 47
_symmetry_cell_setting 'orthorhombic'
loop_
_space_group_symop_operation_xyz
x,y,z
-x,-y,z
x,-y,-z
-x,y,-z
-x,-y,-z
x,y,-z
-x,y,z
x,-y,z
loop_
_atom_site_type_symbol
_atom_site_label
_atom_site_fract_x
_atom_site_fract_y
_atom_site_fract_z
Si Si1 0.060056 0.829198 0.883029
Si Si2 0.387767 0.829333 0.116332
Si Si3 0.890840 0.166398 0.617356
Si Si4 0.500000 0.332719 0.117216
Si Si5 0.000000 0.665438 0.381576
Si Si6 0.766724 0.173133 0.385717
Si Si7 0.284912 0.673892 0.215522
Si Si8 0.830263 0.669942 0.115806
O O1 0.115926 0.754854 0.848217
O O2 0.000000 0.771905 0.850982
O O3 0.061881 0.000000 0.862814
O O4 0.060510 0.813919 0.000000
O O5 0.444815 0.752248 0.146145
O O6 0.336565 0.748714 0.164793
O O7 0.388444 0.000000 0.139874
O O8 0.383067 0.816644 0.000000
O O9 0.892070 0.164670 0.500000
O O10 0.943924 0.255425 0.648946
O O11 0.829413 0.219962 0.640824
O O12 0.896134 0.000000 0.648888
O O13 0.500000 0.500000 0.149556
O O14 0.500000 0.334450 0.000000
O O15 0.000000 0.500000 0.350184
O O16 0.000000 0.667258 0.500000
O O17 0.759474 0.194327 0.500000
O O18 0.724362 0.262848 0.322123
O O19 0.762875 0.000000 0.367044
O O20 0.290394 0.500000 0.214377
O O21 0.228270 0.714186 0.159805
O O22 0.838253 0.500000 0.136110
O O23 0.826749 0.688117 0.000000
#
# Coordination Sequence:
#
# PCOD9386075 Si02
#       8
#     8   8   8   4   4   8   8   8
#     4   8  14  25  42  64  88 116 155 203 251 298
#     4  10  20  34  54  82 116 153 190 222 253 297
#     4   8  14  26  44  63  84 113 149 192 247 311
#     4   9  17  31  53  81 116 155 188 219 257 299
#     4   9  15  21  35  63  91 111 138 183 242 309
#     4   9  19  36  55  73  95 127 170 220 270 320
#     4  11  22  34  51  76 107 140 175 216 265 317
#     4   9  18  31  46  67  97 131 164 200 247 305
#
# _framework density 18.039735
#
# number of rings (size 3 to 8) (size 9 to 14) (size 15 to 20)
#    0.000    2.857    0.000    3.000    0.000    5.429 
#    0.000    4.286    1.571    0.000    0.000    0.500 
#    0.000    4.000    0.000    0.000    0.000    0.000 
#
# Total GULP energy -312561.996064 kJ/mol
# GULP energy per Si atom -5581.464215 kJ/mol
# Density = 1.799868 g / cm^3
# Si number density = 18.039735 Si / 1000 Ang^3
#
#
#
# Elastic Constant Matrix: (Units=GPa)
#
#
# Indices 1 2 3 4 5 6 
#
# 1 176.3121 90.2256 49.0360 0.0000 0.0000 0.0000
# 2 90.2256 90.7122 31.5943 0.0000 0.0000 0.0000
# 3 49.0360 31.5943 45.2419 0.0000 0.0000 0.0000
# 4 0.0000 0.0000 0.0000 12.9688 0.0000 0.0000
# 5 0.0000 0.0000 0.0000 0.0000 23.2968 0.0000
# 6 0.0000 0.0000 0.0000 0.0000 0.0000 22.6922
#
#
#
# Elastic Compliance Matrix: (Units=1/GPa)
#
#
# Indices 1 2 3 4 5 6 
#
# 1 0.012901 -0.010521 -0.006636 0.000000 0.000000 0.000000
# 2 -0.010521 0.023146 -0.004761 0.000000 0.000000 0.000000
# 3 -0.006636 -0.004761 0.032621 0.000000 0.000000 0.000000
# 4 0.000000 0.000000 0.000000 0.077108 0.000000 0.000000
# 5 0.000000 0.000000 0.000000 0.000000 0.042924 0.000000
# 6 0.000000 0.000000 0.000000 0.000000 0.000000 0.044068
#
#
# Mechanical properties :
#
#
# Convention : Reuss Voigt Hill
#
# Bulk Modulus (GPa) = 40.26947 72.66422 56.46684
# Shear Modulus (GPa) = 17.55112 21.21893 19.38502
#
# Velocity S-wave (km/s) = 3.12254 3.43335 3.28163
# Velocity P-wave (km/s) = 5.94739 7.48897 6.76225
#
# Compressibility (1/GPa) = 0.02483271
#
# Stress axis : x y z
#
# Youngs Moduli (GPa) = 77.51170 43.20320 30.65523
#
# Poissons Ratio (x) = 0.45453 0.20343
# Poissons Ratio (y) = 0.81548 0.14595
# Poissons Ratio (z) = 0.51438 0.20569
#
# Static dielectric constant tensor:
#      x y z
#    x 1.597520 0.000000 0.000000 
#    y 0.000000 1.602680 0.000000 
#    z 0.000000 0.000000 1.652330 
# 
# From -- ./inp_files/11348.got.cif
#   From: 2010.05.17/outbox.cif.g08.bks.cpg/sg47_6_cif.got.tgz:11348.got - 2010.06.03 20:15:42.
