data_PCOD9386244
_publ_section_title
;
Structure prediction by ZEFSAII (Michael W. Deem and Ramdas Pophale) SiO2 
 PCOD9386244
Probable space group: P M M M
;
_chemical_formula_sum "Si O2"
_cell_formula_units_Z 32
_cell_length_a 13.936760
_cell_length_b 18.802741
_cell_length_c 7.446647
_cell_angle_alpha 90.000000
_cell_angle_beta 90.000000
_cell_angle_gamma 90.000000
_cell_volume 1951.388549
_symmetry_space_group_name_H-M "P M M M"
_symmetry_group_IT_number 47
_symmetry_cell_setting 'orthorhombic'
loop_
_space_group_symop_operation_xyz
x,y,z
-x,-y,z
x,-y,-z
-x,y,-z
-x,-y,-z
x,y,-z
-x,y,z
x,-y,z
loop_
_atom_site_type_symbol
_atom_site_label
_atom_site_fract_x
_atom_site_fract_y
_atom_site_fract_z
Si Si1 0.609767 0.733838 0.288966
Si Si2 0.388253 0.576395 0.784001
Si Si3 0.608202 0.000000 0.282997
Si Si4 0.737994 0.864877 0.717379
Si Si5 0.113411 0.914342 0.000000
O O1 0.600421 0.748721 0.500000
O O2 0.500000 0.737253 0.214024
O O3 0.649032 0.653505 0.270484
O O4 0.683658 0.792986 0.222996
O O5 0.500000 0.576751 0.725860
O O6 0.346706 0.500000 0.723262
O O7 0.387178 0.575656 0.000000
O O8 0.666556 0.929678 0.235171
O O9 0.500000 0.000000 0.213889
O O10 0.602989 0.000000 0.500000
O O11 0.752595 0.864347 0.500000
O O12 0.834355 0.880652 0.826611
O O13 0.000000 0.901430 0.000000
O O14 0.128538 0.000000 0.000000
#
# Coordination Sequence:
#
# PCOD9386244 Si02
#       5
#     8   8   4   8   4
#     4   9  17  28  44  68  98 132 165 197 234 279
#     4   8  14  24  37  57  90 132 171 200 227 264
#     4   9  16  29  49  70  99 135 160 186 226 276
#     4  10  20  35  52  73 100 128 160 199 244 290
#     4  11  24  40  56  74  93 118 163 213 252 297
#
# _framework density 16.398579999999999
#
# number of rings (size 3 to 8) (size 9 to 14) (size 15 to 20)
#    0.000    2.750    1.250    1.500    1.750    4.000 
#    0.000    6.250    0.000    0.000    0.000    0.000 
#    0.000    2.000    0.000    5.500    0.000    0.250 
#
# Total GULP energy -178190.225230 kJ/mol
# GULP energy per Si atom -5568.444538 kJ/mol
# Density = 1.636126 g / cm^3
# Si number density = 16.398580 Si / 1000 Ang^3
#
#
#
# Elastic Constant Matrix: (Units=GPa)
#
#
# Indices 1 2 3 4 5 6 
#
# 1 95.6842 63.7896 31.2786 0.0000 0.0000 0.0000
# 2 63.7896 161.5601 20.9299 0.0000 0.0000 0.0000
# 3 31.2786 20.9299 67.2009 0.0000 0.0000 0.0000
# 4 0.0000 0.0000 0.0000 22.7078 0.0000 0.0000
# 5 0.0000 0.0000 0.0000 0.0000 17.5349 0.0000
# 6 0.0000 0.0000 0.0000 0.0000 0.0000 4.1314
#
#
#
# Elastic Compliance Matrix: (Units=1/GPa)
#
#
# Indices 1 2 3 4 5 6 
#
# 1 0.016055 -0.005597 -0.005730 0.000000 0.000000 0.000000
# 2 -0.005597 0.008401 -0.000011 0.000000 0.000000 0.000000
# 3 -0.005730 -0.000011 0.017551 0.000000 0.000000 0.000000
# 4 0.000000 0.000000 0.000000 0.044038 0.000000 0.000000
# 5 0.000000 0.000000 0.000000 0.000000 0.057029 0.000000
# 6 0.000000 0.000000 0.000000 0.000000 0.000000 0.242046
#
#
# Mechanical properties :
#
#
# Convention : Reuss Voigt Hill
#
# Bulk Modulus (GPa) = 51.72952 61.82681 56.77816
# Shear Modulus (GPa) = 12.07028 22.77131 17.42079
#
# Velocity S-wave (km/s) = 2.71598 3.73045 3.26288
# Velocity P-wave (km/s) = 6.43809 7.50596 6.99244
#
# Compressibility (1/GPa) = 0.01933132
#
# Stress axis : x y z
#
# Youngs Moduli (GPa) = 62.28440 119.03342 56.97612
#
# Poissons Ratio (x) = 0.66622 0.32646
# Poissons Ratio (y) = 0.34860 0.00065
# Poissons Ratio (z) = 0.35688 0.00136
#
# Static dielectric constant tensor:
#      x y z
#    x 1.507960 0.000000 0.000000 
#    y 0.000000 1.593500 0.000000 
#    z 0.000000 0.000000 1.613430 
# 
# From -- ./inp_files/3613.got.cif
#   From: 2010.05.17/outbox.cif.g08.bks.cpg/sg47_2_cif.got.tgz:3613.got - 2010.06.03 20:15:42.
