data_PCOD9386222
_publ_section_title
;
Structure prediction by ZEFSAII (Michael W. Deem and Ramdas Pophale) SiO2 
 PCOD9386222
Probable space group: P M M M
;
_chemical_formula_sum "Si O2"
_cell_formula_units_Z 44
_cell_length_a 18.901361
_cell_length_b 8.908492
_cell_length_c 13.689271
_cell_angle_alpha 90.000000
_cell_angle_beta 90.000000
_cell_angle_gamma 90.000000
_cell_volume 2305.035361
_symmetry_space_group_name_H-M "P M M M"
_symmetry_group_IT_number 47
_symmetry_cell_setting 'orthorhombic'
loop_
_space_group_symop_operation_xyz
x,y,z
-x,-y,z
x,-y,-z
-x,y,-z
-x,-y,-z
x,y,-z
-x,y,z
x,-y,z
loop_
_atom_site_type_symbol
_atom_site_label
_atom_site_fract_x
_atom_site_fract_y
_atom_site_fract_z
Si Si1 0.829097 0.178785 0.890010
Si Si2 0.084584 0.173365 0.500000
Si Si3 0.582101 0.320633 0.296406
Si Si4 0.288882 0.172277 0.614123
Si Si5 0.675788 0.324608 0.109702
Si Si6 0.152660 0.677388 0.309059
O O1 0.746391 0.225797 0.883731
O O2 0.866133 0.255148 0.796949
O O3 0.835603 0.000000 0.881904
O O4 0.852799 0.224031 0.000000
O O5 0.111925 0.251177 0.598966
O O6 0.000000 0.176743 0.500000
O O7 0.108894 0.000000 0.500000
O O8 0.500000 0.279074 0.299964
O O9 0.587400 0.500000 0.314627
O O10 0.632011 0.230472 0.369765
O O11 0.617537 0.290628 0.190859
O O12 0.270977 0.178689 0.500000
O O13 0.234489 0.278331 0.670813
O O14 0.281125 0.000000 0.647620
O O15 0.697205 0.500000 0.122154
O O16 0.646912 0.308229 0.000000
O O17 0.143838 0.500000 0.308901
#
# Coordination Sequence:
#
# PCOD9386222 Si02
#       6
#     8   4   8   8   8   8
#     4  10  20  34  56  87 122 159 202 252 301 353
#     4  11  25  45  69  99 134 167 198 235 285 347
#     4  10  21  35  51  74 106 146 193 246 305 365
#     4  11  23  38  57  79 107 146 196 248 297 358
#     4   9  17  30  49  74 106 143 187 240 296 356
#     4  12  23  37  63  94 126 162 200 246 296 351
#
# _framework density 19.088643000000001
#
# number of rings (size 3 to 8) (size 9 to 14) (size 15 to 20)
#    0.000    1.545    2.727    3.000    0.000    4.000 
#    0.000    3.636    0.000    0.545    0.000    7.636 
#    0.000    0.000    0.000    0.000    0.000    0.000 
#
# Total GULP energy -245702.139561 kJ/mol
# GULP energy per Si atom -5584.139535 kJ/mol
# Density = 1.904520 g / cm^3
# Si number density = 19.088643 Si / 1000 Ang^3
#
#
#
# Elastic Constant Matrix: (Units=GPa)
#
#
# Indices 1 2 3 4 5 6 
#
# 1 42.8814 23.7205 35.2259 0.0000 0.0000 0.0000
# 2 23.7205 102.2858 71.5305 0.0000 0.0000 0.0000
# 3 35.2259 71.5305 145.8288 0.0000 0.0000 0.0000
# 4 0.0000 0.0000 0.0000 31.6273 0.0000 0.0000
# 5 0.0000 0.0000 0.0000 0.0000 15.6443 0.0000
# 6 0.0000 0.0000 0.0000 0.0000 0.0000 22.0517
#
#
#
# Elastic Compliance Matrix: (Units=1/GPa)
#
#
# Indices 1 2 3 4 5 6 
#
# 1 0.029625 -0.002840 -0.005763 0.000000 0.000000 0.000000
# 2 -0.002840 0.015153 -0.006747 0.000000 0.000000 0.000000
# 3 -0.005763 -0.006747 0.011559 0.000000 0.000000 0.000000
# 4 0.000000 0.000000 0.000000 0.031618 0.000000 0.000000
# 5 0.000000 0.000000 0.000000 0.000000 0.063921 0.000000
# 6 0.000000 0.000000 0.000000 0.000000 0.000000 0.045348
#
#
# Mechanical properties :
#
#
# Convention : Reuss Voigt Hill
#
# Bulk Modulus (GPa) = 39.00512 61.32776 50.16644
# Shear Modulus (GPa) = 21.14424 24.56593 22.85509
#
# Velocity S-wave (km/s) = 3.33180 3.59129 3.46398
# Velocity P-wave (km/s) = 5.93963 7.02809 6.50666
#
# Compressibility (1/GPa) = 0.02563766
#
# Stress axis : x y z
#
# Youngs Moduli (GPa) = 33.75477 65.99214 86.51351
#
# Poissons Ratio (x) = 0.18741 0.49859
# Poissons Ratio (y) = 0.09586 0.58369
# Poissons Ratio (z) = 0.19454 0.44524
#
# Static dielectric constant tensor:
#      x y z
#    x 1.634920 0.000000 0.000000 
#    y 0.000000 1.651250 0.000000 
#    z 0.000000 0.000000 1.702920 
# 
# From -- ./inp_files/24301.got.cif
#   From: 2010.05.17/outbox.cif.g08.bks.cpg/sg47_13_cif.got.tgz:24301.got - 2010.06.03 20:15:42.
