data_PCOD9386563
_publ_section_title
;
Structure prediction by ZEFSAII (Michael W. Deem and Ramdas Pophale) SiO2 
 PCOD9386563
Probable space group: P M M M
;
_chemical_formula_sum "Si O2"
_cell_formula_units_Z 37
_cell_length_a 12.535740
_cell_length_b 20.044324
_cell_length_c 8.257027
_cell_angle_alpha 90.000000
_cell_angle_beta 90.000000
_cell_angle_gamma 90.000000
_cell_volume 2074.746759
_symmetry_space_group_name_H-M "P M M M"
_symmetry_group_IT_number 47
_symmetry_cell_setting 'orthorhombic'
loop_
_space_group_symop_operation_xyz
x,y,z
-x,-y,z
x,-y,-z
-x,y,-z
-x,-y,-z
x,y,-z
-x,y,z
x,-y,z
loop_
_atom_site_type_symbol
_atom_site_label
_atom_site_fract_x
_atom_site_fract_y
_atom_site_fract_z
Si Si1 0.500000 0.378852 0.251714
Si Si2 0.126645 0.330848 0.500000
Si Si3 0.126629 0.759245 0.817400
Si Si4 0.500000 0.500000 0.000000
Si Si5 0.324062 0.420100 0.500000
Si Si6 0.500000 0.232182 0.694251
Si Si7 0.292546 0.858248 0.307783
Si Si8 0.375792 0.000000 0.805484
O O1 0.391312 0.390048 0.352111
O O2 0.500000 0.300976 0.207083
O O3 0.500000 0.440755 0.134485
O O4 0.150915 0.289069 0.335542
O O5 0.203770 0.394225 0.500000
O O6 0.000000 0.345708 0.500000
O O7 0.194461 0.825637 0.786809
O O8 0.000000 0.772023 0.810062
O O9 0.150111 0.732977 0.000000
O O10 0.331026 0.500000 0.500000
O O11 0.500000 0.248947 0.500000
O O12 0.395942 0.187830 0.726255
O O13 0.271807 0.855310 0.500000
O O14 0.320153 0.933235 0.258109
O O15 0.500000 0.000000 0.752215
O O16 0.373954 0.000000 0.000000
#
# Coordination Sequence:
#
# PCOD9386563 Si02
#       8
#     4   4   8   1   4   4   8   4
#     4  11  21  39  60  83 124 158 199 247 301 364
#     4  10  21  40  64  89 119 158 201 248 313 370
#     4  10  21  39  62  89 120 153 199 257 307 359
#     4  12  24  42  52  96 126 172 204 240 316 380
#     4  11  20  39  61  81 115 162 197 243 299 367
#     4  10  20  35  60  88 115 150 207 253 298 360
#     4  11  21  37  61  88 118 160 206 254 305 366
#     4  11  23  39  54  79 130 171 205 246 306 371
#
# _framework density 17.833503
#
# number of rings (size 3 to 8) (size 9 to 14) (size 15 to 20)
#    0.000    1.405    4.324    2.595    0.000    0.649 
#    9.730    0.541    0.000    3.243    0.000    3.784 
#    0.000    0.000    0.000    0.000    0.000    0.000 
#
# Total GULP energy -206170.618021 kJ/mol
# GULP energy per Si atom -5572.178865 kJ/mol
# Density = 1.779291 g / cm^3
# Si number density = 17.833503 Si / 1000 Ang^3
#
#
#
# Elastic Constant Matrix: (Units=GPa)
#
#
# Indices 1 2 3 4 5 6 
#
# 1 48.0089 31.7754 22.8655 0.0000 0.0000 0.0000
# 2 31.7754 125.5409 29.4004 0.0000 0.0000 0.0000
# 3 22.8655 29.4004 92.0669 0.0000 0.0000 0.0000
# 4 0.0000 0.0000 0.0000 28.6926 0.0000 0.0000
# 5 0.0000 0.0000 0.0000 0.0000 6.2400 0.0000
# 6 0.0000 0.0000 0.0000 0.0000 0.0000 16.9595
#
#
#
# Elastic Compliance Matrix: (Units=1/GPa)
#
#
# Indices 1 2 3 4 5 6 
#
# 1 0.026901 -0.005668 -0.004871 0.000000 0.000000 0.000000
# 2 -0.005668 0.009804 -0.001723 0.000000 0.000000 0.000000
# 3 -0.004871 -0.001723 0.012622 0.000000 0.000000 0.000000
# 4 0.000000 0.000000 0.000000 0.034852 0.000000 0.000000
# 5 0.000000 0.000000 0.000000 0.000000 0.160257 0.000000
# 6 0.000000 0.000000 0.000000 0.000000 0.000000 0.058964
#
#
# Mechanical properties :
#
#
# Convention : Reuss Voigt Hill
#
# Bulk Modulus (GPa) = 40.31919 48.18882 44.25400
# Shear Modulus (GPa) = 14.87251 22.48345 18.67798
#
# Velocity S-wave (km/s) = 2.89098 3.55454 3.23979
# Velocity P-wave (km/s) = 5.81390 6.62771 6.23410
#
# Compressibility (1/GPa) = 0.02480209
#
# Stress axis : x y z
#
# Youngs Moduli (GPa) = 37.17345 102.00257 79.22917
#
# Poissons Ratio (x) = 0.57816 0.38592
# Poissons Ratio (y) = 0.21070 0.13651
# Poissons Ratio (z) = 0.18107 0.17575
#
# Static dielectric constant tensor:
#      x y z
#    x 1.591910 0.000000 0.000000 
#    y 0.000000 1.573330 0.000000 
#    z 0.000000 0.000000 1.641770 
# 
# From -- ./inp_files/3819.got.cif
#   From: 2010.05.17/outbox.cif.g08.bks.cpg/sg47_2_cif.got.tgz:3819.got - 2010.06.03 20:15:42.
