data_PCOD9386050
_publ_section_title
;
Structure prediction by ZEFSAII (Michael W. Deem and Ramdas Pophale) SiO2 
 PCOD9386050
Probable space group: P M M M
;
_chemical_formula_sum "Si O2"
_cell_formula_units_Z 48
_cell_length_a 8.687834
_cell_length_b 31.987698
_cell_length_c 9.412581
_cell_angle_alpha 90.000000
_cell_angle_beta 90.000000
_cell_angle_gamma 90.000000
_cell_volume 2615.792124
_symmetry_space_group_name_H-M "P M M M"
_symmetry_group_IT_number 47
_symmetry_cell_setting 'orthorhombic'
loop_
_space_group_symop_operation_xyz
x,y,z
-x,-y,z
x,-y,-z
-x,y,-z
-x,-y,-z
x,y,-z
-x,y,z
x,-y,z
loop_
_atom_site_type_symbol
_atom_site_label
_atom_site_fract_x
_atom_site_fract_y
_atom_site_fract_z
Si Si1 0.321040 0.500000 0.327252
Si Si2 0.313311 0.591398 0.666618
Si Si3 0.184352 0.670139 0.835003
Si Si4 0.684147 0.251294 0.666290
Si Si5 0.312276 0.000000 0.663786
Si Si6 0.815741 0.839073 0.334344
Si Si7 0.313804 0.082545 0.164935
O O1 0.500000 0.500000 0.282503
O O2 0.320788 0.500000 0.500000
O O3 0.256307 0.454781 0.285295
O O4 0.273558 0.596946 0.500000
O O5 0.500000 0.591441 0.674576
O O6 0.247670 0.629008 0.757557
O O7 0.249098 0.711157 0.758078
O O8 0.000000 0.670494 0.826127
O O9 0.230078 0.669983 0.000000
O O10 0.724888 0.257872 0.500000
O O11 0.500000 0.250673 0.677472
O O12 0.750222 0.206132 0.708600
O O13 0.263640 0.958378 0.747191
O O14 0.500000 0.000000 0.663142
O O15 0.261195 0.000000 0.500000
O O16 0.770961 0.846070 0.500000
O O17 0.750938 0.876073 0.238378
O O18 0.000000 0.838168 0.326632
O O19 0.500000 0.084042 0.169844
O O20 0.268017 0.079492 0.000000
#
# Coordination Sequence:
#
# PCOD9386050 Si02
#       7
#     4   8   8   8   4   8   8
#     4   7  12  26  50  79 106 130 164 215 266 309
#     4   9  17  32  56  82 105 133 173 219 265 313
#     4  11  24  38  51  73 108 146 179 213 259 314
#     4  10  21  38  61  85 105 131 173 222 268 315
#     4   9  17  31  54  81 108 141 182 228 272 311
#     4  10  21  37  57  81 109 141 176 215 262 316
#     4  10  20  34  54  81 112 145 181 221 266 316
#
# _framework density 18.350082
#
# number of rings (size 3 to 8) (size 9 to 14) (size 15 to 20)
#    0.000    2.333    0.000    3.750    0.000    8.333 
#    0.000    1.250    0.000    6.500    0.000    0.000 
#    0.000    0.000    0.000    0.000    0.000    0.000 
#
# Total GULP energy -267910.378055 kJ/mol
# GULP energy per Si atom -5581.466209 kJ/mol
# Density = 1.830832 g / cm^3
# Si number density = 18.350082 Si / 1000 Ang^3
#
#
#
# Elastic Constant Matrix: (Units=GPa)
#
#
# Indices 1 2 3 4 5 6 
#
# 1 21.7779 44.9033 39.4211 0.0000 0.0000 0.0000
# 2 44.9033 227.6651 127.8573 0.0000 0.0000 0.0000
# 3 39.4211 127.8573 126.4891 0.0000 0.0000 0.0000
# 4 0.0000 0.0000 0.0000 -17.4673 0.0000 0.0000
# 5 0.0000 0.0000 0.0000 0.0000 23.9616 0.0000
# 6 0.0000 0.0000 0.0000 0.0000 0.0000 -57.2642
#
#
#
# Elastic Compliance Matrix: (Units=1/GPa)
#
#
# Indices 1 2 3 4 5 6 
#
# 1 0.108315 -0.005564 -0.028133 0.000000 0.000000 0.000000
# 2 -0.005564 0.010446 -0.008825 0.000000 0.000000 0.000000
# 3 -0.028133 -0.008825 0.025594 0.000000 0.000000 0.000000
# 4 0.000000 0.000000 0.000000 -0.057250 0.000000 0.000000
# 5 0.000000 0.000000 0.000000 0.000000 0.041733 0.000000
# 6 0.000000 0.000000 0.000000 0.000000 0.000000 -0.017463
#
#
# Mechanical properties :
#
#
# Convention : Reuss Voigt Hill
#
# Bulk Modulus (GPa) = 16.86020 88.92170 52.89095
# Shear Modulus (GPa) = 23.12797 0.76273 11.94535
#
# Velocity S-wave (km/s) = 3.55403 0.64541 2.55418
# Velocity P-wave (km/s) = 5.10387 7.00850 6.13060
#
# Compressibility (1/GPa) = 0.05931126
#
# Stress axis : x y z
#
# Youngs Moduli (GPa) = 9.23236 95.73204 39.07180
#
# Poissons Ratio (x) = 0.53263 1.09921
# Poissons Ratio (y) = 0.05137 0.34480
# Poissons Ratio (z) = 0.25973 0.84482
#
# Static dielectric constant tensor:
#      x y z
#    x 1.616760 0.000000 0.000000 
#    y 0.000000 1.614640 0.000000 
#    z 0.000000 0.000000 1.613270 
# 
# From -- ./inp_files/2536.got.cif
#   From: 2010.05.17/outbox.cif.g08.bks.cpg/sg47_2_cif.got.tgz:2536.got - 2010.06.03 20:15:42.
