data_PCOD9386844
_publ_section_title
;
Structure prediction by ZEFSAII (Michael W. Deem and Ramdas Pophale) SiO2 
 PCOD9386844
Probable space group: P M M M
;
_chemical_formula_sum "Si O2"
_cell_formula_units_Z 44
_cell_length_a 7.726536
_cell_length_b 9.179119
_cell_length_c 31.768484
_cell_angle_alpha 90.000000
_cell_angle_beta 90.000000
_cell_angle_gamma 90.000000
_cell_volume 2253.109627
_symmetry_space_group_name_H-M "P M M M"
_symmetry_group_IT_number 47
_symmetry_cell_setting 'orthorhombic'
loop_
_space_group_symop_operation_xyz
x,y,z
-x,-y,z
x,-y,-z
-x,y,-z
-x,-y,-z
x,y,-z
-x,y,z
x,-y,z
loop_
_atom_site_type_symbol
_atom_site_label
_atom_site_fract_x
_atom_site_fract_y
_atom_site_fract_z
Si Si1 0.292366 0.165126 0.864293
Si Si2 0.706479 0.173894 0.396611
Si Si3 0.293418 0.333601 0.688578
Si Si4 0.000000 0.327903 0.449732
Si Si5 0.293939 0.823201 0.954685
Si Si6 0.205410 0.663784 0.219664
O O1 0.500000 0.157315 0.868755
O O2 0.226228 0.227796 0.909172
O O3 0.257438 0.252219 0.822094
O O4 0.226195 0.000000 0.859561
O O5 0.500000 0.204015 0.402876
O O6 0.760925 0.236686 0.350874
O O7 0.830062 0.252296 0.430050
O O8 0.729321 0.000000 0.398017
O O9 0.500000 0.343394 0.685763
O O10 0.222934 0.500000 0.686004
O O11 0.253616 0.271819 0.734858
O O12 0.000000 0.500000 0.439339
O O13 0.000000 0.312173 0.500000
O O14 0.500000 0.791480 0.955910
O O15 0.277997 0.000000 0.953590
O O16 0.221013 0.774011 0.000000
O O17 0.280416 0.500000 0.218633
O O18 0.000000 0.654283 0.219095
#
# Coordination Sequence:
#
# PCOD9386844 Si02
#       6
#     8   8   8   4   8   8
#     4   9  17  29  47  71  96 123 159 206 259 314
#     4  10  22  40  63  93 127 160 196 245 304 358
#     4   9  18  34  56  80 106 140 183 228 274 327
#     4  11  25  43  65  93 125 165 211 253 290 339
#     4   7  10  19  38  64  90 114 146 195 254 310
#     4  10  21  34  48  70 101 138 177 214 255 308
#
# _framework density 19.528565
#
# number of rings (size 3 to 8) (size 9 to 14) (size 15 to 20)
#    0.000    2.818    0.000    3.000    1.273    4.364 
#    0.000    3.636    0.000    1.091    0.000    6.364 
#    0.000    0.000    0.000    0.000    0.000    0.000 
#
# Total GULP energy -245133.549315 kJ/mol
# GULP energy per Si atom -5571.217030 kJ/mol
# Density = 1.948412 g / cm^3
# Si number density = 19.528565 Si / 1000 Ang^3
#
#
#
# Elastic Constant Matrix: (Units=GPa)
#
#
# Indices 1 2 3 4 5 6 
#
# 1 54.9547 31.3217 45.4170 0.0000 0.0000 0.0000
# 2 31.3217 66.0079 76.5527 0.0000 0.0000 0.0000
# 3 45.4170 76.5527 191.1465 0.0000 0.0000 0.0000
# 4 0.0000 0.0000 0.0000 29.8507 0.0000 0.0000
# 5 0.0000 0.0000 0.0000 0.0000 73.6684 0.0000
# 6 0.0000 0.0000 0.0000 0.0000 0.0000 16.8449
#
#
#
# Elastic Compliance Matrix: (Units=1/GPa)
#
#
# Indices 1 2 3 4 5 6 
#
# 1 0.025455 -0.009457 -0.002261 0.000000 0.000000 0.000000
# 2 -0.009457 0.031803 -0.010490 0.000000 0.000000 0.000000
# 3 -0.002261 -0.010490 0.009970 0.000000 0.000000 0.000000
# 4 0.000000 0.000000 0.000000 0.033500 0.000000 0.000000
# 5 0.000000 0.000000 0.000000 0.000000 0.013574 0.000000
# 6 0.000000 0.000000 0.000000 0.000000 0.000000 0.059365
#
#
# Mechanical properties :
#
#
# Convention : Reuss Voigt Hill
#
# Bulk Modulus (GPa) = 43.83502 68.74354 56.28928
# Shear Modulus (GPa) = 22.15465 34.66065 28.40765
#
# Velocity S-wave (km/s) = 3.37185 4.21749 3.81815
# Velocity P-wave (km/s) = 6.13633 7.68077 6.95157
#
# Compressibility (1/GPa) = 0.02281281
#
# Stress axis : x y z
#
# Youngs Moduli (GPa) = 39.28456 31.44402 100.30283
#
# Poissons Ratio (x) = 0.29736 0.22677
# Poissons Ratio (y) = 0.37151 1.05214
# Poissons Ratio (z) = 0.08882 0.32984
#
# Static dielectric constant tensor:
#      x y z
#    x 1.711640 0.000000 0.000000 
#    y 0.000000 2.484400 0.000000 
#    z 0.000000 0.000000 1.723550 
# 
# From -- ./inp_files/33891.got.cif
#   From: 2010.05.17/outbox.cif.g08.bks.cpg/sg47_17_cif.got.tgz:33891.got - 2010.06.03 20:15:42.
