data_PCOD9386369
_publ_section_title
;
Structure prediction by ZEFSAII (Michael W. Deem and Ramdas Pophale) SiO2 
 PCOD9386369
Probable space group: P M M M
;
_chemical_formula_sum "Si O2"
_cell_formula_units_Z 56
_cell_length_a 21.229517
_cell_length_b 9.010266
_cell_length_c 15.301994
_cell_angle_alpha 90.000000
_cell_angle_beta 90.000000
_cell_angle_gamma 90.000000
_cell_volume 2927.020426
_symmetry_space_group_name_H-M "P M M M"
_symmetry_group_IT_number 47
_symmetry_cell_setting 'orthorhombic'
loop_
_space_group_symop_operation_xyz
x,y,z
-x,-y,z
x,-y,-z
-x,y,-z
-x,-y,-z
x,y,-z
-x,y,z
x,-y,z
loop_
_atom_site_type_symbol
_atom_site_label
_atom_site_fract_x
_atom_site_fract_y
_atom_site_fract_z
Si Si1 0.575759 0.831510 0.000000
Si Si2 0.929669 0.821156 0.648075
Si Si3 0.310360 0.824320 0.745652
Si Si4 0.104204 0.668460 0.173821
Si Si5 0.426704 0.677372 0.184099
Si Si6 0.243939 0.668353 0.103650
Si Si7 0.210403 0.180365 0.596989
Si Si8 0.072896 0.838938 0.000000
O O1 0.590683 0.743130 0.911566
O O2 0.500000 0.842660 0.000000
O O3 0.601387 0.000000 0.000000
O O4 0.920578 0.767672 0.747331
O O5 0.862951 0.769988 0.606470
O O6 0.000000 0.772018 0.617026
O O7 0.930076 0.000000 0.642191
O O8 0.377754 0.743375 0.746043
O O9 0.283318 0.785722 0.841601
O O10 0.259074 0.772637 0.672911
O O11 0.318504 0.000000 0.735717
O O12 0.081698 0.500000 0.184728
O O13 0.179103 0.663903 0.158505
O O14 0.084637 0.742905 0.084485
O O15 0.500000 0.717523 0.201098
O O16 0.422368 0.500000 0.181475
O O17 0.270793 0.500000 0.107913
O O18 0.234488 0.701246 0.000000
O O19 0.232582 0.222281 0.500000
O O20 0.208397 0.000000 0.601970
O O21 0.000000 0.865017 0.000000
O O22 0.106562 0.000000 0.000000
#
# Coordination Sequence:
#
# PCOD9386369 Si02
#       8
#     4   8   8   8   8   8   8   4
#     4   9  17  31  52  81 118 157 200 242 274 317
#     4  10  20  35  56  82 111 143 183 232 286 343
#     4  11  22  36  59  87 115 150 190 239 288 336
#     4  11  21  35  53  74 104 143 186 233 283 338
#     4  10  21  37  57  82 117 159 196 232 278 333
#     4  10  21  37  54  75 108 150 192 234 280 336
#     4   9  19  37  60  87 116 146 186 237 294 350
#     4  11  23  35  48  69 100 141 188 236 284 335
#
# _framework density 19.132083999999999
#
# number of rings (size 3 to 8) (size 9 to 14) (size 15 to 20)
#    0.000    1.857    2.143    2.143    1.000    5.429 
#    0.000    1.429    0.000    4.286    0.000    4.000 
#    0.000    0.000    0.000    0.000    0.000    0.000 
#
# Total GULP energy -312026.439161 kJ/mol
# GULP energy per Si atom -5571.900699 kJ/mol
# Density = 1.908854 g / cm^3
# Si number density = 19.132084 Si / 1000 Ang^3
#
#
#
# Elastic Constant Matrix: (Units=GPa)
#
#
# Indices 1 2 3 4 5 6 
#
# 1 130.0454 34.3804 50.5306 0.0000 0.0000 0.0000
# 2 34.3804 26.6736 8.5484 0.0000 0.0000 0.0000
# 3 50.5306 8.5484 87.1514 0.0000 0.0000 0.0000
# 4 0.0000 0.0000 0.0000 79.2472 0.0000 0.0000
# 5 0.0000 0.0000 0.0000 0.0000 -52.3298 0.0000
# 6 0.0000 0.0000 0.0000 0.0000 0.0000 30.7121
#
#
#
# Elastic Compliance Matrix: (Units=1/GPa)
#
#
# Indices 1 2 3 4 5 6 
#
# 1 0.014873 -0.016939 -0.006962 0.000000 0.000000 0.000000
# 2 -0.016939 0.057999 0.004132 0.000000 0.000000 0.000000
# 3 -0.006962 0.004132 0.015105 0.000000 0.000000 0.000000
# 4 0.000000 0.000000 0.000000 0.012619 0.000000 0.000000
# 5 0.000000 0.000000 0.000000 0.000000 -0.019110 0.000000
# 6 0.000000 0.000000 0.000000 0.000000 0.000000 0.032560
#
#
# Mechanical properties :
#
#
# Convention : Reuss Voigt Hill
#
# Bulk Modulus (GPa) = 20.64395 47.86546 34.25470
# Shear Modulus (GPa) = 29.45839 21.55330 25.50585
#
# Velocity S-wave (km/s) = 3.92821 3.36006 3.65519
# Velocity P-wave (km/s) = 5.60250 6.33451 5.97972
#
# Compressibility (1/GPa) = 0.04844035
#
# Stress axis : x y z
#
# Youngs Moduli (GPa) = 67.23624 17.24167 66.20117
#
# Poissons Ratio (x) = 0.29206 0.46088
# Poissons Ratio (y) = 1.13891 -0.27356
# Poissons Ratio (z) = 0.46809 -0.07125
#
# Static dielectric constant tensor:
#      x y z
#    x 1.751310 0.000000 0.000000 
#    y 0.000000 1.744470 0.000000 
#    z 0.000000 0.000000 1.625220 
# 
# From -- ./inp_files/25184.got.cif
#   From: 2010.05.17/outbox.cif.g08.bks.cpg/sg47_13_cif.got.tgz:25184.got - 2010.06.03 20:15:42.
