data_PCOD9386507
_publ_section_title
;
Structure prediction by ZEFSAII (Michael W. Deem and Ramdas Pophale) SiO2 
 PCOD9386507
Probable space group: P M M M
;
_chemical_formula_sum "Si O2"
_cell_formula_units_Z 64
_cell_length_a 15.843105
_cell_length_b 24.573031
_cell_length_c 8.685415
_cell_angle_alpha 90.000000
_cell_angle_beta 90.000000
_cell_angle_gamma 90.000000
_cell_volume 3381.345928
_symmetry_space_group_name_H-M "P M M M"
_symmetry_group_IT_number 47
_symmetry_cell_setting 'orthorhombic'
loop_
_space_group_symop_operation_xyz
x,y,z
-x,-y,z
x,-y,-z
-x,y,-z
-x,-y,-z
x,y,-z
-x,y,z
x,-y,z
loop_
_atom_site_type_symbol
_atom_site_label
_atom_site_fract_x
_atom_site_fract_y
_atom_site_fract_z
Si Si1 0.249281 0.754497 0.815144
Si Si2 0.250082 0.633367 0.682823
Si Si3 0.592580 0.173547 0.814683
Si Si4 0.350286 0.939663 0.684438
Si Si5 0.850922 0.059250 0.314326
Si Si6 0.096779 0.436380 0.814411
Si Si7 0.094274 0.177323 0.686284
Si Si8 0.596694 0.436187 0.185410
O O1 0.251368 0.693435 0.753834
O O2 0.330875 0.788724 0.759508
O O3 0.166370 0.785591 0.757250
O O4 0.249936 0.753719 0.000000
O O5 0.248914 0.637031 0.500000
O O6 0.167221 0.601173 0.739800
O O7 0.332575 0.600449 0.737611
O O8 0.500000 0.192394 0.762753
O O9 0.606689 0.111688 0.761700
O O10 0.594209 0.174671 0.000000
O O11 0.361613 0.936291 0.500000
O O12 0.249524 0.936448 0.714476
O O13 0.379153 0.000000 0.734127
O O14 0.861804 0.058057 0.500000
O O15 0.893663 0.114671 0.260362
O O16 0.880152 0.000000 0.255680
O O17 0.110936 0.500000 0.774879
O O18 0.000000 0.422501 0.771237
O O19 0.102921 0.432130 0.000000
O O20 0.102872 0.177865 0.500000
O O21 0.000000 0.195904 0.725107
O O22 0.500000 0.421946 0.227874
O O23 0.609804 0.500000 0.222810
O O24 0.603545 0.431103 0.000000
#
# Coordination Sequence:
#
# PCOD9386507 Si02
#       8
#     8   8   8   8   8   8   8   8
#     4  11  24  42  60  77 105 149 196 241 286 338
#     4  12  25  38  58  88 121 155 193 241 292 341
#     4  10  22  39  58  80 105 138 184 236 287 335
#     4   9  17  31  54  82 111 143 178 219 271 335
#     4   8  14  27  50  80 112 142 173 215 270 335
#     4   9  19  38  64  92 122 157 196 235 277 333
#     4  10  20  35  58  85 112 143 182 232 286 338
#     4   9  19  38  64  92 123 160 198 233 273 329
#
# _framework density 18.927375000000001
#
# number of rings (size 3 to 8) (size 9 to 14) (size 15 to 20)
#    0.000    2.250    1.250    3.375    0.000    5.250 
#    0.000    5.000    0.000    0.375    0.000    0.875 
#    0.000    0.000    0.000    0.000    0.000    0.000 
#
# Total GULP energy -357275.917200 kJ/mol
# GULP energy per Si atom -5582.436206 kJ/mol
# Density = 1.888430 g / cm^3
# Si number density = 18.927375 Si / 1000 Ang^3
#
#
#
# Elastic Constant Matrix: (Units=GPa)
#
#
# Indices 1 2 3 4 5 6 
#
# 1 160.6270 111.3202 50.7950 0.0000 0.0000 0.0000
# 2 111.3202 139.4038 40.5877 0.0000 0.0000 0.0000
# 3 50.7950 40.5877 30.2136 0.0000 0.0000 0.0000
# 4 0.0000 0.0000 0.0000 20.8949 0.0000 0.0000
# 5 0.0000 0.0000 0.0000 0.0000 4.9208 0.0000
# 6 0.0000 0.0000 0.0000 0.0000 0.0000 -11.1765
#
#
#
# Elastic Compliance Matrix: (Units=1/GPa)
#
#
# Indices 1 2 3 4 5 6 
#
# 1 0.018740 -0.009512 -0.018727 0.000000 0.000000 0.000000
# 2 -0.009512 0.016610 -0.006321 0.000000 0.000000 0.000000
# 3 -0.018727 -0.006321 0.073073 0.000000 0.000000 0.000000
# 4 0.000000 0.000000 0.000000 0.047859 0.000000 0.000000
# 5 0.000000 0.000000 0.000000 0.000000 0.203217 0.000000
# 6 0.000000 0.000000 0.000000 0.000000 0.000000 -0.089474
#
#
# Mechanical properties :
#
#
# Convention : Reuss Voigt Hill
#
# Bulk Modulus (GPa) = 25.44397 81.73890 53.59143
# Shear Modulus (GPa) = 14.19461 11.43062 12.81262
#
# Velocity S-wave (km/s) = 2.74150 2.46014 2.60462
# Velocity P-wave (km/s) = 4.84698 7.16582 6.11728
#
# Compressibility (1/GPa) = 0.03930204
#
# Stress axis : x y z
#
# Youngs Moduli (GPa) = 53.36148 60.20578 13.68496
#
# Poissons Ratio (x) = 0.57270 0.25628
# Poissons Ratio (y) = 0.50759 0.08650
# Poissons Ratio (z) = 0.99932 0.38054
#
# Static dielectric constant tensor:
#      x y z
#    x 1.663530 0.000000 0.000000 
#    y 0.000000 1.637420 0.000000 
#    z 0.000000 0.000000 1.640640 
# 
# From -- ./inp_files/7826.got.cif
#   From: 2010.05.17/outbox.cif.g08.bks.cpg/sg47_4_cif.got.tgz:7826.got - 2010.06.03 20:15:42.
