data_PCOD9386571
_publ_section_title
;
Structure prediction by ZEFSAII (Michael W. Deem and Ramdas Pophale) SiO2 
 PCOD9386571
Probable space group: P M M M
;
_chemical_formula_sum "Si O2"
_cell_formula_units_Z 56
_cell_length_a 7.602354
_cell_length_b 16.168126
_cell_length_c 20.398757
_cell_angle_alpha 90.000000
_cell_angle_beta 90.000000
_cell_angle_gamma 90.000000
_cell_volume 2507.329890
_symmetry_space_group_name_H-M "P M M M"
_symmetry_group_IT_number 47
_symmetry_cell_setting 'orthorhombic'
loop_
_space_group_symop_operation_xyz
x,y,z
-x,-y,z
x,-y,-z
-x,y,-z
-x,-y,-z
x,y,-z
-x,y,z
x,-y,z
loop_
_atom_site_type_symbol
_atom_site_label
_atom_site_fract_x
_atom_site_fract_y
_atom_site_fract_z
Si Si1 0.698980 0.270087 0.926684
Si Si2 0.706341 0.744054 0.210058
Si Si3 0.715297 0.092759 0.714801
Si Si4 0.287450 0.350115 0.572384
Si Si5 0.797597 0.411332 0.709071
Si Si6 0.201389 0.912602 0.921351
Si Si7 0.713844 0.156071 0.572933
O O1 0.500000 0.302962 0.930316
O O2 0.784891 0.294084 0.857588
O O3 0.695049 0.171201 0.913181
O O4 0.777626 0.282201 0.000000
O O5 0.500000 0.758123 0.197385
O O6 0.776641 0.830786 0.239382
O O7 0.714960 0.671825 0.263142
O O8 0.500000 0.094927 0.715777
O O9 0.770169 0.109997 0.639203
O O10 0.769775 0.000000 0.734427
O O11 0.234130 0.377385 0.500000
O O12 0.500000 0.353702 0.576176
O O13 0.212368 0.402627 0.631066
O O14 0.238835 0.253027 0.579405
O O15 0.719337 0.500000 0.729125
O O16 0.000000 0.410133 0.729684
O O17 0.000000 0.903013 0.898205
O O18 0.274090 0.000000 0.896091
O O19 0.192182 0.919475 0.000000
O O20 0.772062 0.127454 0.500000
O O21 0.500000 0.151782 0.572309
#
# Coordination Sequence:
#
# PCOD9386571 Si02
#       7
#     8   8   8   8   8   8   8
#     4   9  18  31  49  74 100 129 168 216 273 331
#     4  10  20  36  56  77 106 140 175 219 268 323
#     4   9  16  26  44  72 104 138 177 220 262 302
#     4   9  17  32  56  83 110 142 182 224 264 312
#     4  11  24  39  56  80 109 141 178 220 267 321
#     4   8  14  25  41  63  94 132 172 210 248 300
#     4   8  13  23  42  69 100 133 172 217 257 294
#
# _framework density 22.334517999999999
#
# number of rings (size 3 to 8) (size 9 to 14) (size 15 to 20)
#    0.000    2.857    1.429    1.714    0.000    3.429 
#    0.000    5.714    0.000    0.857    0.000    3.000 
#    0.000    2.286    0.000    0.000    0.000    0.000 
#
# Total GULP energy -311997.605444 kJ/mol
# GULP energy per Si atom -5571.385812 kJ/mol
# Density = 2.228368 g / cm^3
# Si number density = 22.334518 Si / 1000 Ang^3
#
#
#
# Elastic Constant Matrix: (Units=GPa)
#
#
# Indices 1 2 3 4 5 6 
#
# 1 47.2733 5.1947 2.5945 0.0000 0.0000 0.0000
# 2 5.1947 85.1436 42.7287 0.0000 0.0000 0.0000
# 3 2.5945 42.7287 151.9928 0.0000 0.0000 0.0000
# 4 0.0000 0.0000 0.0000 -2.4444 0.0000 0.0000
# 5 0.0000 0.0000 0.0000 0.0000 -125.3340 0.0000
# 6 0.0000 0.0000 0.0000 0.0000 0.0000 11.4595
#
#
#
# Elastic Compliance Matrix: (Units=1/GPa)
#
#
# Indices 1 2 3 4 5 6 
#
# 1 0.021296 -0.001300 0.000002 0.000000 0.000000 0.000000
# 2 -0.001300 0.013753 -0.003844 0.000000 0.000000 0.000000
# 3 0.000002 -0.003844 0.007660 0.000000 0.000000 0.000000
# 4 0.000000 0.000000 0.000000 -0.409103 0.000000 0.000000
# 5 0.000000 0.000000 0.000000 0.000000 -0.007979 0.000000
# 6 0.000000 0.000000 0.000000 0.000000 0.000000 0.087264
#
#
# Mechanical properties :
#
#
# Convention : Reuss Voigt Hill
#
# Bulk Modulus (GPa) = 30.84074 42.82728 36.83401
# Shear Modulus (GPa) = -18.79592 -7.67097 -13.23345
#
# Velocity S-wave (km/s) = -2.90412 -1.85527 -2.43680
# Velocity P-wave (km/s) = 1.61038 3.82461 2.93436
#
# Compressibility (1/GPa) = 0.03242465
#
# Stress axis : x y z
#
# Youngs Moduli (GPa) = 46.95642 72.70945 130.54979
#
# Poissons Ratio (x) = 0.09455 -0.00026
# Poissons Ratio (y) = 0.06106 0.50186
# Poissons Ratio (z) = -0.00009 0.27951
#
# Static dielectric constant tensor:
#      x y z
#    x 1.837450 0.000000 0.000000 
#    y 0.000000 1.831370 0.000000 
#    z 0.000000 0.000000 1.899240 
# 
# From -- ./inp_files/29718.got.cif
#   From: 2010.05.17/outbox.cif.g08.bks.cpg/sg47_15_cif.got.tgz:29718.got - 2010.06.03 20:15:42.
