data_PCOD9386200
_publ_section_title
;
Structure prediction by ZEFSAII (Michael W. Deem and Ramdas Pophale) SiO2 
 PCOD9386200
Probable space group: P M M M
;
_chemical_formula_sum "Si O2"
_cell_formula_units_Z 64
_cell_length_a 7.804492
_cell_length_b 16.025944
_cell_length_c 24.703439
_cell_angle_alpha 90.000000
_cell_angle_beta 90.000000
_cell_angle_gamma 90.000000
_cell_volume 3089.766619
_symmetry_space_group_name_H-M "P M M M"
_symmetry_group_IT_number 47
_symmetry_cell_setting 'orthorhombic'
loop_
_space_group_symop_operation_xyz
x,y,z
-x,-y,z
x,-y,-z
-x,y,-z
-x,-y,-z
x,y,-z
-x,y,z
x,-y,z
loop_
_atom_site_type_symbol
_atom_site_label
_atom_site_fract_x
_atom_site_fract_y
_atom_site_fract_z
Si Si1 0.700389 0.254239 0.743209
Si Si2 0.204223 0.408971 0.330291
Si Si3 0.298226 0.864326 0.440296
Si Si4 0.291113 0.594491 0.062326
Si Si5 0.289430 0.750768 0.134287
Si Si6 0.200115 0.909753 0.321409
Si Si7 0.290986 0.093821 0.937662
Si Si8 0.208098 0.330450 0.559355
O O1 0.500000 0.268428 0.749249
O O2 0.767142 0.333873 0.710840
O O3 0.771637 0.246884 0.803858
O O4 0.724023 0.170313 0.708385
O O5 0.271043 0.500000 0.313559
O O6 0.271202 0.382340 0.389453
O O7 0.000000 0.415605 0.336067
O O8 0.232081 0.890035 0.500000
O O9 0.500000 0.883466 0.438697
O O10 0.217464 0.901045 0.386261
O O11 0.273194 0.764424 0.436719
O O12 0.500000 0.594667 0.062791
O O13 0.236714 0.500000 0.076517
O O14 0.235050 0.667008 0.102816
O O15 0.239864 0.611439 0.000000
O O16 0.500000 0.751552 0.133962
O O17 0.233182 0.832613 0.101436
O O18 0.000000 0.909181 0.308127
O O19 0.274287 0.000000 0.305309
O O20 0.500000 0.094176 0.937109
O O21 0.236759 0.000000 0.922179
O O22 0.239755 0.108948 0.000000
O O23 0.256224 0.363590 0.500000
O O24 0.000000 0.326573 0.561372
#
# Coordination Sequence:
#
# PCOD9386200 Si02
#       8
#     8   8   8   8   8   8   8   8
#     4  11  23  37  54  78 109 145 183 227 277 322
#     4  10  21  37  57  79 106 143 184 225 269 321
#     4  10  20  34  56  86 116 141 167 210 272 334
#     4   8  13  22  38  61  92 132 173 209 249 305
#     4   9  17  27  41  64  96 134 173 211 256 313
#     4  11  24  41  60  79 103 141 187 230 271 321
#     4   8  13  22  38  61  91 128 166 203 249 310
#     4   9  17  31  54  81 108 139 174 215 265 321
#
# _framework density 20.713539000000001
#
# number of rings (size 3 to 8) (size 9 to 14) (size 15 to 20)
#    0.000    2.500    1.250    2.250    0.000    5.000 
#    0.000    5.000    0.000    0.000    0.000    2.625 
#    0.000    8.000    0.000   22.000    0.000   18.000 
#
# Total GULP energy -357158.263076 kJ/mol
# GULP energy per Si atom -5580.597861 kJ/mol
# Density = 2.066639 g / cm^3
# Si number density = 20.713539 Si / 1000 Ang^3
#
#
#
# Elastic Constant Matrix: (Units=GPa)
#
#
# Indices 1 2 3 4 5 6 
#
# 1 22.9091 -1.1684 -0.3535 0.0000 0.0000 0.0000
# 2 -1.1684 167.7767 104.0054 0.0000 0.0000 0.0000
# 3 -0.3535 104.0054 147.4780 0.0000 0.0000 0.0000
# 4 0.0000 0.0000 0.0000 -10.6797 0.0000 0.0000
# 5 0.0000 0.0000 0.0000 0.0000 -147.5344 0.0000
# 6 0.0000 0.0000 0.0000 0.0000 0.0000 28.5402
#
#
#
# Elastic Compliance Matrix: (Units=1/GPa)
#
#
# Indices 1 2 3 4 5 6 
#
# 1 0.043669 0.000425 -0.000195 0.000000 0.000000 0.000000
# 2 0.000425 0.010594 -0.007470 0.000000 0.000000 0.000000
# 3 -0.000195 -0.007470 0.012048 0.000000 0.000000 0.000000
# 4 0.000000 0.000000 0.000000 -0.093635 0.000000 0.000000
# 5 0.000000 0.000000 0.000000 0.000000 -0.006778 0.000000
# 6 0.000000 0.000000 0.000000 0.000000 0.000000 0.035038
#
#
# Mechanical properties :
#
#
# Convention : Reuss Voigt Hill
#
# Bulk Modulus (GPa) = 19.29334 60.34786 39.82060
# Shear Modulus (GPa) = 152.93250 -10.22277 71.35486
#
# Velocity S-wave (km/s) = 8.60189 -2.22397 5.87564
# Velocity P-wave (km/s) = 10.39188 4.75427 8.08066
#
# Compressibility (1/GPa) = 0.05183136
#
# Stress axis : x y z
#
# Youngs Moduli (GPa) = 22.89935 94.39249 82.99872
#
# Poissons Ratio (x) = -0.04012 0.01619
# Poissons Ratio (y) = -0.00973 0.62002
# Poissons Ratio (z) = 0.00447 0.70513
#
# Static dielectric constant tensor:
#      x y z
#    x 1.753830 0.000000 0.000000 
#    y 0.000000 1.766190 0.000000 
#    z 0.000000 0.000000 1.736220 
# 
# From -- ./inp_files/32087.got.cif
#   From: 2010.05.17/outbox.cif.g08.bks.cpg/sg47_17_cif.got.tgz:32087.got - 2010.06.03 20:15:42.
