data_PCOD9386611
_publ_section_title
;
Structure prediction by ZEFSAII (Michael W. Deem and Ramdas Pophale) SiO2 
 PCOD9386611
Probable space group: P M M M
;
_chemical_formula_sum "Si O2"
_cell_formula_units_Z 48
_cell_length_a 8.452704
_cell_length_b 15.403939
_cell_length_c 17.853697
_cell_angle_alpha 90.000000
_cell_angle_beta 90.000000
_cell_angle_gamma 90.000000
_cell_volume 2324.639490
_symmetry_space_group_name_H-M "P M M M"
_symmetry_group_IT_number 47
_symmetry_cell_setting 'orthorhombic'
loop_
_space_group_symop_operation_xyz
x,y,z
-x,-y,z
x,-y,-z
-x,y,-z
-x,-y,-z
x,y,-z
-x,y,z
x,-y,z
loop_
_atom_site_type_symbol
_atom_site_label
_atom_site_fract_x
_atom_site_fract_y
_atom_site_fract_z
Si Si1 0.689309 0.406440 0.234034
Si Si2 0.310354 0.718781 0.362314
Si Si3 0.000000 0.897738 0.913908
Si Si4 0.672320 0.836144 0.087317
Si Si5 0.815626 0.350329 0.917942
Si Si6 0.810030 0.398595 0.500000
Si Si7 0.809395 0.903204 0.588368
O O1 0.500000 0.399807 0.223159
O O2 0.720466 0.500000 0.271522
O O3 0.742250 0.326613 0.285138
O O4 0.772571 0.404651 0.154160
O O5 0.500000 0.716600 0.364871
O O6 0.247629 0.656870 0.428604
O O7 0.255882 0.817872 0.371531
O O8 0.833447 0.872139 0.877400
O O9 0.000000 0.000000 0.920321
O O10 0.000000 0.860363 0.000000
O O11 0.500000 0.856528 0.120234
O O12 0.702335 0.733403 0.085362
O O13 0.669399 0.866697 0.000000
O O14 0.000000 0.322861 0.913263
O O15 0.794833 0.391456 0.000000
O O16 0.755746 0.500000 0.500000
O O17 0.000000 0.399347 0.500000
O O18 0.767689 0.895832 0.500000
O O19 0.000000 0.901024 0.593076
O O20 0.757609 0.000000 0.613885
#
# Coordination Sequence:
#
# PCOD9386611 Si02
#       7
#     8   8   4   8   8   4   8
#     4  10  23  41  58  82 119 160 202 250 307 373
#     4  11  22  37  59  88 123 162 204 255 309 359
#     4   9  16  26  42  70 107 139 175 228 286 349
#     4   9  16  28  48  73 103 140 181 226 283 352
#     4  10  20  36  59  85 112 145 194 255 311 367
#     4  11  23  37  56  83 118 165 215 254 294 359
#     4   9  18  34  58  89 125 162 202 249 298 355
#
# _framework density 20.648361999999999
#
# number of rings (size 3 to 8) (size 9 to 14) (size 15 to 20)
#    0.000    2.167    1.667    2.250    0.000    5.000 
#    0.000    4.167    0.000    1.000    0.000    2.333 
#    0.000    0.000    0.000    0.000    0.000    0.167 
#
# Total GULP energy -267678.901919 kJ/mol
# GULP energy per Si atom -5576.643790 kJ/mol
# Density = 2.060137 g / cm^3
# Si number density = 20.648362 Si / 1000 Ang^3
#
#
#
# Elastic Constant Matrix: (Units=GPa)
#
#
# Indices 1 2 3 4 5 6 
#
# 1 103.1957 44.0491 21.6352 0.0000 0.0000 0.0000
# 2 44.0491 152.6344 56.4506 0.0000 0.0000 0.0000
# 3 21.6352 56.4506 81.2053 0.0000 0.0000 0.0000
# 4 0.0000 0.0000 0.0000 19.0873 0.0000 0.0000
# 5 0.0000 0.0000 0.0000 0.0000 20.1294 0.0000
# 6 0.0000 0.0000 0.0000 0.0000 0.0000 21.2999
#
#
#
# Elastic Compliance Matrix: (Units=1/GPa)
#
#
# Indices 1 2 3 4 5 6 
#
# 1 0.011110 -0.002842 -0.000984 0.000000 0.000000 0.000000
# 2 -0.002842 0.009546 -0.005879 0.000000 0.000000 0.000000
# 3 -0.000984 -0.005879 0.016663 0.000000 0.000000 0.000000
# 4 0.000000 0.000000 0.000000 0.052391 0.000000 0.000000
# 5 0.000000 0.000000 0.000000 0.000000 0.049679 0.000000
# 6 0.000000 0.000000 0.000000 0.000000 0.000000 0.046949
#
#
# Mechanical properties :
#
#
# Convention : Reuss Voigt Hill
#
# Bulk Modulus (GPa) = 55.83802 64.58947 60.21374
# Shear Modulus (GPa) = 23.61637 26.43000 25.02319
#
# Velocity S-wave (km/s) = 3.38559 3.58160 3.48497
# Velocity P-wave (km/s) = 6.51030 6.96077 6.73930
#
# Compressibility (1/GPa) = 0.01790894
#
# Stress axis : x y z
#
# Youngs Moduli (GPa) = 90.01010 104.75501 60.01186
#
# Poissons Ratio (x) = 0.29774 0.05906
# Poissons Ratio (y) = 0.25583 0.35280
# Poissons Ratio (z) = 0.08858 0.61583
#
# Static dielectric constant tensor:
#      x y z
#    x 1.751260 0.000000 0.000000 
#    y 0.000000 1.752400 0.000000 
#    z 0.000000 0.000000 1.732960 
# 
# From -- ./inp_files/26496.got.cif
#   From: 2010.05.17/outbox.cif.g08.bks.cpg/sg47_14_cif.got.tgz:26496.got - 2010.06.03 20:15:42.
