data_PCOD9386917
_publ_section_title
;
Structure prediction by ZEFSAII (Michael W. Deem and Ramdas Pophale) SiO2 
 PCOD9386917
Probable space group: P M M M
;
_chemical_formula_sum "Si O2"
_cell_formula_units_Z 56
_cell_length_a 21.471184
_cell_length_b 15.411345
_cell_length_c 7.330900
_cell_angle_alpha 90.000000
_cell_angle_beta 90.000000
_cell_angle_gamma 90.000000
_cell_volume 2425.793521
_symmetry_space_group_name_H-M "P M M M"
_symmetry_group_IT_number 47
_symmetry_cell_setting 'orthorhombic'
loop_
_space_group_symop_operation_xyz
x,y,z
-x,-y,z
x,-y,-z
-x,y,-z
-x,-y,-z
x,y,-z
-x,y,z
x,-y,z
loop_
_atom_site_type_symbol
_atom_site_label
_atom_site_fract_x
_atom_site_fract_y
_atom_site_fract_z
Si Si1 0.835759 0.099071 0.219117
Si Si2 0.929803 0.253228 0.283492
Si Si3 0.299055 0.396381 0.706732
Si Si4 0.164304 0.600467 0.276471
Si Si5 0.566987 0.854741 0.216971
Si Si6 0.702121 0.103610 0.793080
Si Si7 0.566743 0.649123 0.718067
O O1 0.890888 0.165147 0.258425
O O2 0.768146 0.132776 0.288600
O O3 0.847184 0.000000 0.282629
O O4 0.829369 0.095074 0.000000
O O5 0.934485 0.266746 0.500000
O O6 0.888819 0.333875 0.214189
O O7 0.000000 0.248441 0.210730
O O8 0.302208 0.359903 0.500000
O O9 0.292718 0.500000 0.694872
O O10 0.232935 0.367976 0.786591
O O11 0.366471 0.380146 0.792029
O O12 0.166529 0.601033 0.500000
O O13 0.154020 0.500000 0.223245
O O14 0.500000 0.889027 0.286460
O O15 0.634250 0.881984 0.291858
O O16 0.565152 0.751744 0.247156
O O17 0.567659 0.874951 0.000000
O O18 0.709439 0.000000 0.804254
O O19 0.698220 0.140048 0.000000
O O20 0.567332 0.631392 0.500000
O O21 0.500000 0.613737 0.786066
#
# Coordination Sequence:
#
# PCOD9386917 Si02
#       7
#     8   8   8   8   8   8   8
#     4   9  19  36  55  74  99 133 170 204 241 291
#     4  10  21  34  51  79 106 128 160 201 247 296
#     4   8  14  25  42  64  88 117 155 194 230 270
#     4   8  15  29  48  71 100 131 162 198 241 291
#     4   9  17  28  43  65  92 121 152 188 233 280
#     4   8  15  29  48  69  91 117 155 199 235 271
#     4   9  17  27  40  62  91 121 153 190 230 271
#
# _framework density 23.085228000000001
#
# number of rings (size 3 to 8) (size 9 to 14) (size 15 to 20)
#    0.000    3.286    0.000    1.714    2.000    1.714 
#    0.000    5.714    0.000    2.143    0.000    7.000 
#    0.000    0.000    0.000    0.000    0.000    0.000 
#
# Total GULP energy -312089.883162 kJ/mol
# GULP energy per Si atom -5573.033628 kJ/mol
# Density = 2.303268 g / cm^3
# Si number density = 23.085228 Si / 1000 Ang^3
#
#
#
# Elastic Constant Matrix: (Units=GPa)
#
#
# Indices 1 2 3 4 5 6 
#
# 1 307.8756 89.1340 15.2877 0.0000 0.0000 0.0000
# 2 89.1340 73.9945 -4.6714 0.0000 0.0000 0.0000
# 3 15.2877 -4.6714 94.6572 0.0000 0.0000 0.0000
# 4 0.0000 0.0000 0.0000 9.8415 0.0000 0.0000
# 5 0.0000 0.0000 0.0000 0.0000 -33.3572 0.0000
# 6 0.0000 0.0000 0.0000 0.0000 0.0000 53.4551
#
#
#
# Elastic Compliance Matrix: (Units=1/GPa)
#
#
# Indices 1 2 3 4 5 6 
#
# 1 0.005105 -0.006222 -0.001132 0.000000 0.000000 0.000000
# 2 -0.006222 0.021138 0.002048 0.000000 0.000000 0.000000
# 3 -0.001132 0.002048 0.010848 0.000000 0.000000 0.000000
# 4 0.000000 0.000000 0.000000 0.101610 0.000000 0.000000
# 5 0.000000 0.000000 0.000000 0.000000 -0.029978 0.000000
# 6 0.000000 0.000000 0.000000 0.000000 0.000000 0.018707
#
#
# Mechanical properties :
#
#
# Convention : Reuss Voigt Hill
#
# Bulk Modulus (GPa) = 37.76181 75.11422 56.43802
# Shear Modulus (GPa) = 34.04408 31.10634 32.57521
#
# Velocity S-wave (km/s) = 3.84437 3.67475 3.76052
# Velocity P-wave (km/s) = 6.00821 7.11432 6.58453
#
# Compressibility (1/GPa) = 0.02648178
#
# Stress axis : x y z
#
# Youngs Moduli (GPa) = 195.86868 47.30757 92.18068
#
# Poissons Ratio (x) = 0.29432 0.10431
# Poissons Ratio (y) = 1.21860 -0.18879
# Poissons Ratio (z) = 0.22164 -0.09689
#
# Static dielectric constant tensor:
#      x y z
#    x 1.928010 0.000000 0.000000 
#    y 0.000000 1.813450 0.000000 
#    z 0.000000 0.000000 1.744950 
# 
# From -- ./inp_files/11209.got.cif
#   From: 2010.05.17/outbox.cif.g08.bks.cpg/sg47_6_cif.got.tgz:11209.got - 2010.06.03 20:15:42.
