data_PCOD9386340
_publ_section_title
;
Structure prediction by ZEFSAII (Michael W. Deem and Ramdas Pophale) SiO2 
 PCOD9386340
Probable space group: P M M M
;
_chemical_formula_sum "Si O2"
_cell_formula_units_Z 56
_cell_length_a 14.494064
_cell_length_b 23.963589
_cell_length_c 7.798118
_cell_angle_alpha 90.000000
_cell_angle_beta 90.000000
_cell_angle_gamma 90.000000
_cell_volume 2708.518708
_symmetry_space_group_name_H-M "P M M M"
_symmetry_group_IT_number 47
_symmetry_cell_setting 'orthorhombic'
loop_
_space_group_symop_operation_xyz
x,y,z
-x,-y,z
x,-y,-z
-x,y,-z
-x,-y,-z
x,y,-z
-x,y,z
x,-y,z
loop_
_atom_site_type_symbol
_atom_site_label
_atom_site_fract_x
_atom_site_fract_y
_atom_site_fract_z
Si Si1 0.401357 0.067694 0.797570
Si Si2 0.602360 0.672740 0.796213
Si Si3 0.790011 0.276952 0.799460
Si Si4 0.897379 0.617024 0.701408
Si Si5 0.708207 0.436985 0.708275
Si Si6 0.800105 0.063883 0.207960
Si Si7 0.101730 0.827007 0.702602
O O1 0.500000 0.086762 0.723485
O O2 0.301354 0.083674 0.727776
O O3 0.401029 0.000000 0.789610
O O4 0.402169 0.082347 0.000000
O O5 0.500000 0.682188 0.723943
O O6 0.688016 0.709601 0.728384
O O7 0.635724 0.609184 0.769036
O O8 0.597010 0.683203 0.000000
O O9 0.864159 0.318874 0.716720
O O10 0.822314 0.213903 0.779845
O O11 0.789209 0.291540 0.000000
O O12 0.903187 0.603280 0.500000
O O13 0.810594 0.581585 0.770072
O O14 0.000000 0.609064 0.775564
O O15 0.708800 0.434998 0.500000
O O16 0.687521 0.500000 0.761558
O O17 0.874102 0.108812 0.264026
O O18 0.816643 0.000000 0.263624
O O19 0.796721 0.063120 0.000000
O O20 0.101464 0.817212 0.500000
O O21 0.000000 0.813765 0.772100
#
# Coordination Sequence:
#
# PCOD9386340 Si02
#       7
#     8   8   8   8   8   8   8
#     4   7  10  20  42  71  99 125 154 189 229 273
#     4   9  19  36  56  77 102 133 168 208 257 309
#     4  10  20  35  56  78  98 123 162 212 259 303
#     4   9  17  30  49  72 100 135 171 209 257 307
#     4   9  18  31  47  72 106 141 178 216 250 292
#     4   9  18  33  54  80 107 135 170 210 248 289
#     4  11  24  39  54  73 100 135 170 204 249 306
#
# _framework density 20.675509000000002
#
# number of rings (size 3 to 8) (size 9 to 14) (size 15 to 20)
#    0.000    2.857    0.000    2.571    0.000    5.429 
#    0.000    5.000    0.000    4.714    0.000    6.000 
#    0.000    0.000    0.000    0.000    0.000    0.000 
#
# Total GULP energy -312120.806005 kJ/mol
# GULP energy per Si atom -5573.585822 kJ/mol
# Density = 2.062845 g / cm^3
# Si number density = 20.675509 Si / 1000 Ang^3
#
#
#
# Elastic Constant Matrix: (Units=GPa)
#
#
# Indices 1 2 3 4 5 6 
#
# 1 131.9247 35.6576 4.2845 0.0000 0.0000 0.0000
# 2 35.6576 71.1820 -8.1678 0.0000 0.0000 0.0000
# 3 4.2845 -8.1678 27.2929 0.0000 0.0000 0.0000
# 4 0.0000 0.0000 0.0000 18.3436 0.0000 0.0000
# 5 0.0000 0.0000 0.0000 0.0000 17.5010 0.0000
# 6 0.0000 0.0000 0.0000 0.0000 0.0000 9.7641
#
#
#
# Elastic Compliance Matrix: (Units=1/GPa)
#
#
# Indices 1 2 3 4 5 6 
#
# 1 0.008977 -0.004824 -0.002853 0.000000 0.000000 0.000000
# 2 -0.004824 0.017141 0.005887 0.000000 0.000000 0.000000
# 3 -0.002853 0.005887 0.038849 0.000000 0.000000 0.000000
# 4 0.000000 0.000000 0.000000 0.054515 0.000000 0.000000
# 5 0.000000 0.000000 0.000000 0.000000 0.057140 0.000000
# 6 0.000000 0.000000 0.000000 0.000000 0.000000 0.102416
#
#
# Mechanical properties :
#
#
# Convention : Reuss Voigt Hill
#
# Bulk Modulus (GPa) = 16.29034 32.66091 24.47562
# Shear Modulus (GPa) = 16.49735 22.36342 19.43039
#
# Velocity S-wave (km/s) = 2.82781 3.29239 3.06891
# Velocity P-wave (km/s) = 4.30792 5.50312 4.94179
#
# Compressibility (1/GPa) = 0.06138609
#
# Stress axis : x y z
#
# Youngs Moduli (GPa) = 111.40054 58.34125 25.74065
#
# Poissons Ratio (x) = 0.28144 0.07343
# Poissons Ratio (y) = 0.53740 -0.15153
# Poissons Ratio (z) = 0.31781 -0.34345
#
# Static dielectric constant tensor:
#      x y z
#    x 1.793130 0.000000 0.000000 
#    y 0.000000 1.711030 0.000000 
#    z 0.000000 0.000000 1.776930 
# 
# From -- ./inp_files/7365.got.cif
#   From: 2010.05.17/outbox.cif.g08.bks.cpg/sg47_4_cif.got.tgz:7365.got - 2010.06.03 20:15:42.
