data_PCOD9386329
_publ_section_title
;
Structure prediction by ZEFSAII (Michael W. Deem and Ramdas Pophale) SiO2 
 PCOD9386329
Probable space group: P M M M
;
_chemical_formula_sum "Si O2"
_cell_formula_units_Z 56
_cell_length_a 15.076486
_cell_length_b 14.428437
_cell_length_c 13.641702
_cell_angle_alpha 90.000000
_cell_angle_beta 90.000000
_cell_angle_gamma 90.000000
_cell_volume 2967.481188
_symmetry_space_group_name_H-M "P M M M"
_symmetry_group_IT_number 47
_symmetry_cell_setting 'orthorhombic'
loop_
_space_group_symop_operation_xyz
x,y,z
-x,-y,z
x,-y,-z
-x,y,-z
-x,-y,-z
x,y,-z
-x,y,z
x,-y,z
loop_
_atom_site_type_symbol
_atom_site_label
_atom_site_fract_x
_atom_site_fract_y
_atom_site_fract_z
Si Si1 0.357430 0.394074 0.114401
Si Si2 0.903879 0.776748 0.884711
Si Si3 0.600211 0.226424 0.251546
Si Si4 0.168763 0.605149 0.217306
Si Si5 0.898381 0.104345 0.381256
Si Si6 0.726102 0.109502 0.885068
Si Si7 0.237746 0.269413 0.383599
O O1 0.387769 0.500000 0.129638
O O2 0.400715 0.319780 0.185821
O O3 0.253405 0.391704 0.143754
O O4 0.369190 0.370901 0.000000
O O5 0.896719 0.682392 0.823919
O O6 0.819865 0.841235 0.862730
O O7 0.000000 0.821838 0.868785
O O8 0.897859 0.753826 0.000000
O O9 0.500000 0.200184 0.276815
O O10 0.650678 0.152096 0.183557
O O11 0.664664 0.244810 0.343444
O O12 0.136090 0.500000 0.221968
O O13 0.203959 0.642269 0.321840
O O14 0.898870 0.100413 0.500000
O O15 0.828281 0.184082 0.357525
O O16 0.000000 0.125896 0.351820
O O17 0.875705 0.000000 0.346275
O O18 0.733616 0.000000 0.872311
O O19 0.706070 0.128341 0.000000
O O20 0.236232 0.283449 0.500000
#
# Coordination Sequence:
#
# PCOD9386329 Si02
#       7
#     8   8   8   8   8   8   8
#     4   9  17  32  57  85 111 141 180 230 288 344
#     4  10  20  36  60  90 123 157 192 229 279 347
#     4  11  23  38  56  82 116 152 194 243 293 349
#     4  10  20  35  55  82 118 156 193 234 281 340
#     4   8  15  31  57  85 107 129 168 227 287 336
#     4  10  21  39  61  86 120 157 192 233 285 348
#     4  10  21  38  58  82 114 155 198 245 296 343
#
# _framework density 18.871224000000002
#
# number of rings (size 3 to 8) (size 9 to 14) (size 15 to 20)
#    0.000    2.286    2.857    1.286    0.000    4.857 
#    0.000    3.571    0.000    0.000    0.000   10.000 
#    0.000    0.000    0.000    0.000    0.000    0.000 
#
# Total GULP energy -312529.756095 kJ/mol
# GULP energy per Si atom -5580.888502 kJ/mol
# Density = 1.882827 g / cm^3
# Si number density = 18.871224 Si / 1000 Ang^3
#
#
#
# Elastic Constant Matrix: (Units=GPa)
#
#
# Indices 1 2 3 4 5 6 
#
# 1 88.8886 23.8114 10.9448 0.0000 0.0000 0.0000
# 2 23.8114 76.5951 14.7604 0.0000 0.0000 0.0000
# 3 10.9448 14.7604 94.4015 0.0000 0.0000 0.0000
# 4 0.0000 0.0000 0.0000 20.5271 0.0000 0.0000
# 5 0.0000 0.0000 0.0000 0.0000 6.3871 0.0000
# 6 0.0000 0.0000 0.0000 0.0000 0.0000 -2.1397
#
#
#
# Elastic Compliance Matrix: (Units=1/GPa)
#
#
# Indices 1 2 3 4 5 6 
#
# 1 0.012339 -0.003671 -0.000857 0.000000 0.000000 0.000000
# 2 -0.003671 0.014553 -0.001850 0.000000 0.000000 0.000000
# 3 -0.000857 -0.001850 0.010982 0.000000 0.000000 0.000000
# 4 0.000000 0.000000 0.000000 0.048716 0.000000 0.000000
# 5 0.000000 0.000000 0.000000 0.000000 0.156565 0.000000
# 6 0.000000 0.000000 0.000000 0.000000 0.000000 -0.467359
#
#
# Mechanical properties :
#
#
# Convention : Reuss Voigt Hill
#
# Bulk Modulus (GPa) = 39.81023 39.87982 39.84503
# Shear Modulus (GPa) = -24.62118 18.97948 -2.82085
#
# Velocity S-wave (km/s) = -3.61597 3.17478 -1.22394
# Velocity P-wave (km/s) = 1.92558 5.88366 4.37751
#
# Compressibility (1/GPa) = 0.02511917
#
# Stress axis : x y z
#
# Youngs Moduli (GPa) = 81.04495 68.71296 91.06125
#
# Poissons Ratio (x) = 0.25223 0.07800
# Poissons Ratio (y) = 0.29750 0.16846
# Poissons Ratio (z) = 0.06942 0.12712
#
# Static dielectric constant tensor:
#      x y z
#    x 1.674920 0.000000 0.000000 
#    y 0.000000 1.648880 0.000000 
#    z 0.000000 0.000000 1.660550 
# 
# From -- ./inp_files/23852.got.cif
#   From: 2010.05.17/outbox.cif.g08.bks.cpg/sg47_12_cif.got.tgz:23852.got - 2010.06.03 20:15:42.
