data_PCOD9386509
_publ_section_title
;
Structure prediction by ZEFSAII (Michael W. Deem and Ramdas Pophale) SiO2 
 PCOD9386509
Probable space group: P M M M
;
_chemical_formula_sum "Si O2"
_cell_formula_units_Z 40
_cell_length_a 8.410713
_cell_length_b 7.554783
_cell_length_c 28.038719
_cell_angle_alpha 90.000000
_cell_angle_beta 90.000000
_cell_angle_gamma 90.000000
_cell_volume 1781.611373
_symmetry_space_group_name_H-M "P M M M"
_symmetry_group_IT_number 47
_symmetry_cell_setting 'orthorhombic'
loop_
_space_group_symop_operation_xyz
x,y,z
-x,-y,z
x,-y,-z
-x,y,-z
-x,-y,-z
x,y,-z
-x,y,z
x,-y,z
loop_
_atom_site_type_symbol
_atom_site_label
_atom_site_fract_x
_atom_site_fract_y
_atom_site_fract_z
Si Si1 0.000000 0.284750 0.944127
Si Si2 0.673152 0.295007 0.898699
Si Si3 0.691635 0.707345 0.400247
Si Si4 0.316795 0.285996 0.703144
Si Si5 0.823067 0.791413 0.195331
Si Si6 0.810722 0.292739 0.500000
O O1 0.164549 0.218218 0.920823
O O2 0.000000 0.500000 0.938149
O O3 0.000000 0.245755 0.000000
O O4 0.500000 0.216364 0.910402
O O5 0.668058 0.500000 0.914112
O O6 0.699982 0.290380 0.841739
O O7 0.500000 0.712879 0.400025
O O8 0.741473 0.500000 0.400773
O O9 0.743399 0.779186 0.348588
O O10 0.750843 0.785852 0.450032
O O11 0.500000 0.227386 0.709135
O O12 0.318452 0.500000 0.700689
O O13 0.220063 0.234972 0.749629
O O14 0.000000 0.719738 0.185944
O O15 0.822955 0.000000 0.185942
O O16 0.755136 0.500000 0.500000
O O17 0.000000 0.290366 0.500000
#
# Coordination Sequence:
#
# PCOD9386509 Si02
#       6
#     4   8   8   8   8   4
#     4   9  18  34  57  87 121 149 177 220 267 308
#     4  10  20  35  58  85 112 146 185 221 263 315
#     4   8  14  25  40  59  87 122 157 196 246 303
#     4   9  18  32  50  73  99 129 169 214 261 315
#     4  11  23  36  51  74 105 141 179 219 266 318
#     4   9  15  21  33  57  88 119 154 195 240 294
#
# _framework density 22.451585000000001
#
# number of rings (size 3 to 8) (size 9 to 14) (size 15 to 20)
#    0.000    2.600    1.000    2.700    0.000    6.800 
#    0.000    4.000    0.000    1.200    0.000    2.100 
#    0.000    5.600    0.000    0.000    0.000    0.000 
#
# Total GULP energy -223192.499854 kJ/mol
# GULP energy per Si atom -5579.812496 kJ/mol
# Density = 2.240048 g / cm^3
# Si number density = 22.451585 Si / 1000 Ang^3
#
#
#
# Elastic Constant Matrix: (Units=GPa)
#
#
# Indices 1 2 3 4 5 6 
#
# 1 125.2042 8.4839 62.9991 0.0000 0.0000 0.0000
# 2 8.4839 58.2171 -0.8884 0.0000 0.0000 0.0000
# 3 62.9991 -0.8884 132.7645 0.0000 0.0000 0.0000
# 4 0.0000 0.0000 0.0000 -66.3419 0.0000 0.0000
# 5 0.0000 0.0000 0.0000 0.0000 13.0344 0.0000
# 6 0.0000 0.0000 0.0000 0.0000 0.0000 -12.8437
#
#
#
# Elastic Compliance Matrix: (Units=1/GPa)
#
#
# Indices 1 2 3 4 5 6 
#
# 1 0.010644 -0.001628 -0.005062 0.000000 0.000000 0.000000
# 2 -0.001628 0.017428 0.000889 0.000000 0.000000 0.000000
# 3 -0.005062 0.000889 0.009940 0.000000 0.000000 0.000000
# 4 0.000000 0.000000 0.000000 -0.015073 0.000000 0.000000
# 5 0.000000 0.000000 0.000000 0.000000 0.076720 0.000000
# 6 0.000000 0.000000 0.000000 0.000000 0.000000 -0.077859
#
#
# Mechanical properties :
#
#
# Convention : Reuss Voigt Hill
#
# Bulk Modulus (GPa) = 37.86378 50.81945 44.34162
# Shear Modulus (GPa) = 118.47127 3.14252 60.80689
#
# Velocity S-wave (km/s) = 7.27200 1.18437 5.20983
# Velocity P-wave (km/s) = 9.34936 4.95526 7.48215
#
# Compressibility (1/GPa) = 0.02641046
#
# Stress axis : x y z
#
# Youngs Moduli (GPa) = 93.94761 57.37905 100.60378
#
# Poissons Ratio (x) = 0.09344 0.50923
# Poissons Ratio (y) = 0.15299 -0.08947
# Poissons Ratio (z) = 0.47554 -0.05103
#
# Static dielectric constant tensor:
#      x y z
#    x 1.816780 0.000000 0.000000 
#    y 0.000000 1.848160 0.000000 
#    z 0.000000 0.000000 1.835800 
# 
# From -- ./inp_files/33089.got.cif
#   From: 2010.05.17/outbox.cif.g08.bks.cpg/sg47_17_cif.got.tgz:33089.got - 2010.06.03 20:15:42.
