data_PCOD9386713
_publ_section_title
;
Structure prediction by ZEFSAII (Michael W. Deem and Ramdas Pophale) SiO2 
 PCOD9386713
Probable space group: P M M M
;
_chemical_formula_sum "Si O2"
_cell_formula_units_Z 48
_cell_length_a 35.587457
_cell_length_b 7.882518
_cell_length_c 8.969712
_cell_angle_alpha 90.000000
_cell_angle_beta 90.000000
_cell_angle_gamma 90.000000
_cell_volume 2516.172581
_symmetry_space_group_name_H-M "P M M M"
_symmetry_group_IT_number 47
_symmetry_cell_setting 'orthorhombic'
loop_
_space_group_symop_operation_xyz
x,y,z
-x,-y,z
x,-y,-z
-x,y,-z
-x,-y,-z
x,y,-z
-x,y,z
x,-y,z
loop_
_atom_site_type_symbol
_atom_site_label
_atom_site_fract_x
_atom_site_fract_y
_atom_site_fract_z
Si Si1 0.423514 0.203744 0.831939
Si Si2 0.345938 0.802836 0.320893
Si Si3 0.000000 0.202390 0.328369
Si Si4 0.161578 0.807269 0.679968
Si Si5 0.207767 0.500000 0.821728
Si Si6 0.919559 0.298591 0.326097
Si Si7 0.500000 0.701889 0.333067
Si Si8 0.710133 0.500000 0.680197
O O1 0.385727 0.255700 0.746663
O O2 0.462077 0.247642 0.750661
O O3 0.421879 0.000000 0.838206
O O4 0.423744 0.271398 0.000000
O O5 0.349232 0.801396 0.500000
O O6 0.313803 0.668324 0.280208
O O7 0.338483 0.000000 0.276041
O O8 0.960400 0.258750 0.258701
O O9 0.000000 0.271800 0.500000
O O10 0.000000 0.000000 0.334773
O O11 0.162068 0.778030 0.500000
O O12 0.186530 0.665492 0.757968
O O13 0.118243 0.786934 0.732593
O O14 0.174233 0.000000 0.706928
O O15 0.250070 0.500000 0.760499
O O16 0.206893 0.500000 0.000000
O O17 0.922087 0.242631 0.500000
O O18 0.913623 0.500000 0.322701
O O19 0.500000 0.500000 0.342304
O O20 0.500000 0.774626 0.500000
O O21 0.715396 0.500000 0.500000
#
# Coordination Sequence:
#
# PCOD9386713 Si02
#       8
#     8   8   4   8   4   8   4   4
#     4  10  21  37  57  82 114 151 190 234 285 339
#     4   9  19  37  61  88 117 150 188 232 282 337
#     4   9  15  21  33  65 111 150 185 229 289 349
#     4  10  20  37  62  87 114 153 199 245 293 349
#     4  12  26  42  60  87 122 155 191 238 298 360
#     4   9  15  25  44  72 109 148 188 236 291 347
#     4  11  24  37  52  78 112 151 198 245 286 330
#     4  10  22  40  64  89 116 149 192 238 284 348
#
# _framework density 19.076591000000001
#
# number of rings (size 3 to 8) (size 9 to 14) (size 15 to 20)
#    0.000    2.167    0.833    2.500    1.167    7.333 
#    0.000    1.667    0.000    0.000    0.000    1.167 
#    0.000    2.000    0.000    0.000    0.000    0.000 
#
# Total GULP energy -267809.256784 kJ/mol
# GULP energy per Si atom -5579.359516 kJ/mol
# Density = 1.903317 g / cm^3
# Si number density = 19.076591 Si / 1000 Ang^3
#
#
#
# Elastic Constant Matrix: (Units=GPa)
#
#
# Indices 1 2 3 4 5 6 
#
# 1 187.0103 80.4077 61.1779 0.0000 0.0000 0.0000
# 2 80.4077 99.3246 44.5826 0.0000 0.0000 0.0000
# 3 61.1779 44.5826 48.0244 0.0000 0.0000 0.0000
# 4 0.0000 0.0000 0.0000 9.1672 0.0000 0.0000
# 5 0.0000 0.0000 0.0000 0.0000 -10.1210 0.0000
# 6 0.0000 0.0000 0.0000 0.0000 0.0000 0.3289
#
#
#
# Elastic Compliance Matrix: (Units=1/GPa)
#
#
# Indices 1 2 3 4 5 6 
#
# 1 0.010055 -0.004098 -0.009005 0.000000 0.000000 0.000000
# 2 -0.004098 0.018930 -0.012353 0.000000 0.000000 0.000000
# 3 -0.009005 -0.012353 0.043761 0.000000 0.000000 0.000000
# 4 0.000000 0.000000 0.000000 0.109085 0.000000 0.000000
# 5 0.000000 0.000000 0.000000 0.000000 -0.098805 0.000000
# 6 0.000000 0.000000 0.000000 0.000000 0.000000 3.040375
#
#
# Mechanical properties :
#
#
# Convention : Reuss Voigt Hill
#
# Bulk Modulus (GPa) = 45.79768 78.52176 62.15972
# Shear Modulus (GPa) = 1.57154 9.75443 5.66298
#
# Velocity S-wave (km/s) = 0.90862 2.26371 1.72482
# Velocity P-wave (km/s) = 5.01599 6.93421 6.05159
#
# Compressibility (1/GPa) = 0.02183517
#
# Stress axis : x y z
#
# Youngs Moduli (GPa) = 99.45144 52.82482 22.85127
#
# Poissons Ratio (x) = 0.21649 0.20577
# Poissons Ratio (y) = 0.40758 0.28228
# Poissons Ratio (z) = 0.89552 0.65254
#
# Static dielectric constant tensor:
#      x y z
#    x 1.667680 0.000000 0.000000 
#    y 0.000000 1.668200 0.000000 
#    z 0.000000 0.000000 1.659310 
# 
# From -- ./inp_files/14016.got.cif
#   From: 2010.05.17/outbox.cif.g08.bks.cpg/sg47_8_cif.got.tgz:14016.got - 2010.06.03 20:15:42.
