data_PCOD9386308
_publ_section_title
;
Structure prediction by ZEFSAII (Michael W. Deem and Ramdas Pophale) SiO2 
 PCOD9386308
Probable space group: P M M M
;
_chemical_formula_sum "Si O2"
_cell_formula_units_Z 56
_cell_length_a 8.101354
_cell_length_b 14.059962
_cell_length_c 22.693529
_cell_angle_alpha 90.000000
_cell_angle_beta 90.000000
_cell_angle_gamma 90.000000
_cell_volume 2584.900280
_symmetry_space_group_name_H-M "P M M M"
_symmetry_group_IT_number 47
_symmetry_cell_setting 'orthorhombic'
loop_
_space_group_symop_operation_xyz
x,y,z
-x,-y,z
x,-y,-z
-x,y,-z
-x,-y,-z
x,y,-z
-x,y,z
x,-y,z
loop_
_atom_site_type_symbol
_atom_site_label
_atom_site_fract_x
_atom_site_fract_y
_atom_site_fract_z
Si Si1 0.304452 0.656853 0.275390
Si Si2 0.304297 0.601556 0.407455
Si Si3 0.189607 0.856662 0.309242
Si Si4 0.319651 0.000000 0.218751
Si Si5 0.187880 0.000000 0.095896
Si Si6 0.196420 0.811592 0.436541
Si Si7 0.198798 0.787091 0.066858
Si Si8 0.301581 0.604449 0.856446
O O1 0.500000 0.682272 0.271403
O O2 0.287793 0.600653 0.336411
O O3 0.196662 0.749198 0.287386
O O4 0.258683 0.611744 0.213047
O O5 0.500000 0.608098 0.420595
O O6 0.241789 0.500000 0.430042
O O7 0.224150 0.698222 0.430352
O O8 0.258803 0.858342 0.375964
O O9 0.000000 0.890219 0.309215
O O10 0.294668 0.912750 0.262161
O O11 0.189989 0.000000 0.166552
O O12 0.500000 0.000000 0.190958
O O13 0.260439 0.104114 0.079024
O O14 0.000000 0.000000 0.072619
O O15 0.263811 0.843168 0.500000
O O16 0.000000 0.828447 0.436392
O O17 0.248441 0.700855 0.110118
O O18 0.000000 0.792647 0.070399
O O19 0.247103 0.762080 0.000000
O O20 0.500000 0.602728 0.860184
O O21 0.241360 0.500000 0.878547
#
# Coordination Sequence:
#
# PCOD9386308 Si02
#       8
#     8   8   8   4   4   8   8   8
#     4   9  17  32  53  76 105 140 178 222 271 321
#     4   9  17  29  47  72 101 134 172 215 264 316
#     4  10  20  35  55  78 105 137 174 217 267 322
#     4  12  24  37  56  84 114 137 163 206 263 324
#     4  10  21  40  66  91 115 144 181 227 279 334
#     4   9  19  35  52  70  96 133 175 217 261 310
#     4  10  22  40  61  85 114 149 188 230 277 328
#     4  10  21  36  55  81 114 153 194 234 278 329
#
# _framework density 21.664280000000002
#
# number of rings (size 3 to 8) (size 9 to 14) (size 15 to 20)
#    0.000    2.286    0.000    2.571    0.000    8.286 
#    0.000    3.214    0.000    6.000    0.000    0.000 
#    0.000    0.000    0.000    0.000    0.000    0.000 
#
# Total GULP energy -312213.157993 kJ/mol
# GULP energy per Si atom -5575.234964 kJ/mol
# Density = 2.161497 g / cm^3
# Si number density = 21.664280 Si / 1000 Ang^3
#
#
#
# Elastic Constant Matrix: (Units=GPa)
#
#
# Indices 1 2 3 4 5 6 
#
# 1 21.3846 13.7022 9.9790 0.0000 0.0000 0.0000
# 2 13.7022 91.0832 35.2006 0.0000 0.0000 0.0000
# 3 9.9790 35.2006 127.8221 0.0000 0.0000 0.0000
# 4 0.0000 0.0000 0.0000 -12.0249 0.0000 0.0000
# 5 0.0000 0.0000 0.0000 0.0000 7.8811 0.0000
# 6 0.0000 0.0000 0.0000 0.0000 0.0000 28.3559
#
#
#
# Elastic Compliance Matrix: (Units=1/GPa)
#
#
# Indices 1 2 3 4 5 6 
#
# 1 0.052271 -0.007035 -0.002143 0.000000 0.000000 0.000000
# 2 -0.007035 0.013233 -0.003095 0.000000 0.000000 0.000000
# 3 -0.002143 -0.003095 0.008843 0.000000 0.000000 0.000000
# 4 0.000000 0.000000 0.000000 -0.083161 0.000000 0.000000
# 5 0.000000 0.000000 0.000000 0.000000 0.126886 0.000000
# 6 0.000000 0.000000 0.000000 0.000000 0.000000 0.035266
#
#
# Mechanical properties :
#
#
# Convention : Reuss Voigt Hill
#
# Bulk Modulus (GPa) = 20.08028 39.78371 29.93200
# Shear Modulus (GPa) = 25.70887 16.93630 21.32259
#
# Velocity S-wave (km/s) = 3.44858 2.79903 3.14064
# Velocity P-wave (km/s) = 5.01457 5.37119 5.19594
#
# Compressibility (1/GPa) = 0.04980010
#
# Stress axis : x y z
#
# Youngs Moduli (GPa) = 19.13121 75.56613 113.08305
#
# Poissons Ratio (x) = 0.53161 0.24238
# Poissons Ratio (y) = 0.13459 0.35000
# Poissons Ratio (z) = 0.04101 0.23389
#
# Static dielectric constant tensor:
#      x y z
#    x 1.778480 0.000000 0.000000 
#    y 0.000000 6.399080 0.000000 
#    z 0.000000 0.000000 1.791710 
# 
# From -- ./inp_files/29737.got.cif
#   From: 2010.05.17/outbox.cif.g08.bks.cpg/sg47_15_cif.got.tgz:29737.got - 2010.06.03 20:15:42.
