data_PCOD9386461
_publ_section_title
;
Structure prediction by ZEFSAII (Michael W. Deem and Ramdas Pophale) SiO2 
 PCOD9386461
Probable space group: P M M M
;
_chemical_formula_sum "Si O2"
_cell_formula_units_Z 40
_cell_length_a 28.408537
_cell_length_b 9.241923
_cell_length_c 7.825273
_cell_angle_alpha 90.000000
_cell_angle_beta 90.000000
_cell_angle_gamma 90.000000
_cell_volume 2054.521603
_symmetry_space_group_name_H-M "P M M M"
_symmetry_group_IT_number 47
_symmetry_cell_setting 'orthorhombic'
loop_
_space_group_symop_operation_xyz
x,y,z
-x,-y,z
x,-y,-z
-x,y,-z
-x,-y,-z
x,y,-z
-x,y,z
x,-y,z
loop_
_atom_site_type_symbol
_atom_site_label
_atom_site_fract_x
_atom_site_fract_y
_atom_site_fract_z
Si Si1 0.312180 0.836375 0.704433
Si Si2 0.053671 0.175897 0.000000
Si Si3 0.405775 0.336042 0.203324
Si Si4 0.220430 0.334106 0.291547
Si Si5 0.876104 0.173949 0.699939
Si Si6 0.500000 0.835726 0.703835
O O1 0.306332 0.846434 0.500000
O O2 0.360054 0.749805 0.735138
O O3 0.266657 0.750339 0.770540
O O4 0.314929 0.000000 0.772520
O O5 0.082762 0.217332 0.830473
O O6 0.000000 0.228520 0.000000
O O7 0.052109 0.000000 0.000000
O O8 0.407159 0.500000 0.273131
O O9 0.453320 0.250299 0.244687
O O10 0.402374 0.345005 0.000000
O O11 0.222275 0.336130 0.500000
O O12 0.220185 0.500000 0.233207
O O13 0.172417 0.251314 0.248393
O O14 0.886187 0.207716 0.500000
O O15 0.869849 0.000000 0.711219
O O16 0.500000 0.844815 0.500000
O O17 0.500000 0.000000 0.773128
#
# Coordination Sequence:
#
# PCOD9386461 Si02
#       6
#     8   4   8   8   8   4
#     4  10  20  35  57  84 112 143 182 226 272 328
#     4   9  18  32  51  79 111 141 181 232 281 330
#     4  11  24  40  57  81 113 146 182 224 272 327
#     4   9  17  31  53  79 107 141 180 222 270 323
#     4   9  17  31  52  77 106 142 184 229 278 333
#     4  11  24  41  62  86 108 137 182 229 274 328
#
# _framework density 19.469252000000001
#
# number of rings (size 3 to 8) (size 9 to 14) (size 15 to 20)
#    0.000    2.200    0.000    3.000    0.000   10.000 
#    1.800    2.500    0.000    1.200    0.000    2.800 
#    0.000    0.000    0.000    0.000    0.000    0.000 
#
# Total GULP energy -223353.292399 kJ/mol
# GULP energy per Si atom -5583.832310 kJ/mol
# Density = 1.942494 g / cm^3
# Si number density = 19.469252 Si / 1000 Ang^3
#
#
#
# Elastic Constant Matrix: (Units=GPa)
#
#
# Indices 1 2 3 4 5 6 
#
# 1 214.9162 99.4069 45.4245 0.0000 0.0000 0.0000
# 2 99.4069 139.9166 32.2935 0.0000 0.0000 0.0000
# 3 45.4245 32.2935 53.6024 0.0000 0.0000 0.0000
# 4 0.0000 0.0000 0.0000 63.5289 0.0000 0.0000
# 5 0.0000 0.0000 0.0000 0.0000 53.1913 0.0000
# 6 0.0000 0.0000 0.0000 0.0000 0.0000 -31.9190
#
#
#
# Elastic Compliance Matrix: (Units=1/GPa)
#
#
# Indices 1 2 3 4 5 6 
#
# 1 0.007500 -0.004485 -0.003653 0.000000 0.000000 0.000000
# 2 -0.004485 0.010984 -0.002816 0.000000 0.000000 0.000000
# 3 -0.003653 -0.002816 0.023449 0.000000 0.000000 0.000000
# 4 0.000000 0.000000 0.000000 0.015741 0.000000 0.000000
# 5 0.000000 0.000000 0.000000 0.000000 0.018800 0.000000
# 6 0.000000 0.000000 0.000000 0.000000 0.000000 -0.031329
#
#
# Mechanical properties :
#
#
# Convention : Reuss Voigt Hill
#
# Bulk Modulus (GPa) = 49.94451 84.74278 67.34364
# Shear Modulus (GPa) = 67.81712 32.38092 50.09902
#
# Velocity S-wave (km/s) = 5.90835 4.08264 5.07821
# Velocity P-wave (km/s) = 8.50020 8.11448 8.30958
#
# Compressibility (1/GPa) = 0.02002222
#
# Stress axis : x y z
#
# Youngs Moduli (GPa) = 133.33907 91.04395 42.64627
#
# Poissons Ratio (x) = 0.40834 0.15580
# Poissons Ratio (y) = 0.59804 0.12011
# Poissons Ratio (z) = 0.48714 0.25642
#
# Static dielectric constant tensor:
#      x y z
#    x 1.593710 0.000000 0.000000 
#    y 0.000000 1.683300 0.000000 
#    z 0.000000 0.000000 1.701340 
# 
# From -- ./inp_files/13044.got.cif
#   From: 2010.05.17/outbox.cif.g08.bks.cpg/sg47_7_cif.got.tgz:13044.got - 2010.06.03 20:15:42.
