data_PCOD9386991
_publ_section_title
;
Structure prediction by ZEFSAII (Michael W. Deem and Ramdas Pophale) SiO2 
 PCOD9386991
Probable space group: P M M M
;
_chemical_formula_sum "Si O2"
_cell_formula_units_Z 40
_cell_length_a 10.009965
_cell_length_b 27.092960
_cell_length_c 7.807693
_cell_angle_alpha 90.000000
_cell_angle_beta 90.000000
_cell_angle_gamma 90.000000
_cell_volume 2117.443073
_symmetry_space_group_name_H-M "P M M M"
_symmetry_group_IT_number 47
_symmetry_cell_setting 'orthorhombic'
loop_
_space_group_symop_operation_xyz
x,y,z
-x,-y,z
x,-y,-z
-x,y,-z
-x,-y,-z
x,y,-z
-x,y,z
x,-y,z
loop_
_atom_site_type_symbol
_atom_site_label
_atom_site_fract_x
_atom_site_fract_y
_atom_site_fract_z
Si Si1 0.838763 0.946974 0.295441
Si Si2 0.348994 0.643224 0.796596
Si Si3 0.348164 0.247386 0.295696
Si Si4 0.151930 0.555215 0.293839
Si Si5 0.844898 0.838986 0.710283
O O1 0.812491 0.947656 0.500000
O O2 0.794807 0.893246 0.231438
O O3 0.000000 0.946562 0.276277
O O4 0.790499 0.000000 0.225226
O O5 0.500000 0.635718 0.727255
O O6 0.300241 0.696713 0.734171
O O7 0.252983 0.598126 0.754012
O O8 0.357368 0.646353 0.000000
O O9 0.355706 0.240396 0.500000
O O10 0.500000 0.243627 0.226756
O O11 0.248632 0.205451 0.229738
O O12 0.147892 0.553707 0.500000
O O13 0.191067 0.500000 0.234240
O O14 0.000000 0.564869 0.233724
O O15 0.844465 0.839590 0.500000
O O16 0.000000 0.832491 0.760829
#
# Coordination Sequence:
#
# PCOD9386991 Si02
#       5
#     8   8   8   8   8
#     4   7   9  14  26  46  73 103 133 167 209 257
#     4  10  21  35  50  70  96 125 158 194 230 270
#     4   9  17  29  44  61  84 115 148 183 225 269
#     4   9  19  36  56  77 100 125 153 185 223 269
#     4   8  13  21  35  56  79 105 141 180 215 258
#
# _framework density 18.890709999999999
#
# number of rings (size 3 to 8) (size 9 to 14) (size 15 to 20)
#    0.000    3.400    0.000    3.000    0.000    3.200 
#    0.000    5.000    0.000    0.600    0.000    4.200 
#    0.000    0.800    0.000   10.000    0.000    9.200 
#
# Total GULP energy -222680.544832 kJ/mol
# GULP energy per Si atom -5567.013621 kJ/mol
# Density = 1.884771 g / cm^3
# Si number density = 18.890710 Si / 1000 Ang^3
#
#
#
# Elastic Constant Matrix: (Units=GPa)
#
#
# Indices 1 2 3 4 5 6 
#
# 1 66.1352 101.6932 4.6232 0.0000 0.0000 0.0000
# 2 101.6932 225.5407 4.3308 0.0000 0.0000 0.0000
# 3 4.6232 4.3308 21.5263 0.0000 0.0000 0.0000
# 4 0.0000 0.0000 0.0000 -34.3224 0.0000 0.0000
# 5 0.0000 0.0000 0.0000 0.0000 -0.0902 0.0000
# 6 0.0000 0.0000 0.0000 0.0000 0.0000 -124.6517
#
#
#
# Elastic Compliance Matrix: (Units=1/GPa)
#
#
# Indices 1 2 3 4 5 6 
#
# 1 0.050124 -0.022480 -0.006242 0.000000 0.000000 0.000000
# 2 -0.022480 0.014533 0.001904 0.000000 0.000000 0.000000
# 3 -0.006242 0.001904 0.047412 0.000000 0.000000 0.000000
# 4 0.000000 0.000000 0.000000 -0.029135 0.000000 0.000000
# 5 0.000000 0.000000 0.000000 0.000000-11.087757 0.000000
# 6 0.000000 0.000000 0.000000 0.000000 0.000000 -0.008022
#
#
# Mechanical properties :
#
#
# Convention : Reuss Voigt Hill
#
# Bulk Modulus (GPa) = 17.11372 59.38851 38.25111
# Shear Modulus (GPa) = -0.45705 -18.30920 -9.38312
#
# Velocity S-wave (km/s) = -0.49241 -3.11660 -2.23111
# Velocity P-wave (km/s) = 2.95900 4.30758 3.69533
#
# Compressibility (1/GPa) = 0.05843265
#
# Stress axis : x y z
#
# Youngs Moduli (GPa) = 19.95055 68.80749 21.09152
#
# Poissons Ratio (x) = 1.54682 0.13166
# Poissons Ratio (y) = 0.44849 -0.04016
# Poissons Ratio (z) = 0.12454 -0.13102
#
# Static dielectric constant tensor:
#      x y z
#    x 1.645130 0.000000 0.000000 
#    y 0.000000 1.685610 0.000000 
#    z 0.000000 0.000000 1.683340 
# 
# From -- ./inp_files/1654.got.cif
#   From: 2010.05.17/outbox.cif.g08.bks.cpg/sg47_1_cif.got.tgz:1654.got - 2010.06.03 20:15:42.
