data_PCOD9386059
_publ_section_title
;
Structure prediction by ZEFSAII (Michael W. Deem and Ramdas Pophale) SiO2 
 PCOD9386059
Probable space group: P M M M
;
_chemical_formula_sum "Si O2"
_cell_formula_units_Z 64
_cell_length_a 25.704433
_cell_length_b 15.031023
_cell_length_c 8.643212
_cell_angle_alpha 90.000000
_cell_angle_beta 90.000000
_cell_angle_gamma 90.000000
_cell_volume 3339.425301
_symmetry_space_group_name_H-M "P M M M"
_symmetry_group_IT_number 47
_symmetry_cell_setting 'orthorhombic'
loop_
_space_group_symop_operation_xyz
x,y,z
-x,-y,z
x,-y,-z
-x,y,-z
-x,-y,-z
x,y,-z
-x,y,z
x,-y,z
loop_
_atom_site_type_symbol
_atom_site_label
_atom_site_fract_x
_atom_site_fract_y
_atom_site_fract_z
Si Si1 0.561044 0.715906 0.816869
Si Si2 0.746031 0.288099 0.185526
Si Si3 0.563131 0.902525 0.681738
Si Si4 0.099411 0.902140 0.812242
Si Si5 0.058808 0.288527 0.187392
Si Si6 0.221904 0.097412 0.812047
Si Si7 0.844263 0.603559 0.314495
Si Si8 0.349674 0.398161 0.315818
O O1 0.500000 0.709624 0.775347
O O2 0.580137 0.815233 0.772632
O O3 0.595309 0.643965 0.729544
O O4 0.566001 0.703503 0.000000
O O5 0.748848 0.185651 0.241515
O O6 0.796556 0.340527 0.245366
O O7 0.695071 0.338338 0.241828
O O8 0.747442 0.287453 0.000000
O O9 0.575860 0.893235 0.500000
O O10 0.500000 0.904301 0.692472
O O11 0.581672 0.000000 0.736106
O O12 0.069950 0.813485 0.761645
O O13 0.160605 0.893503 0.772879
O O14 0.081154 0.000000 0.758499
O O15 0.096287 0.903340 0.000000
O O16 0.102318 0.352264 0.257348
O O17 0.000000 0.313818 0.228826
O O18 0.063380 0.290744 0.000000
O O19 0.240032 0.000000 0.757368
O O20 0.224324 0.096388 0.000000
O O21 0.841529 0.607589 0.500000
O O22 0.840882 0.500000 0.267477
O O23 0.343397 0.396935 0.500000
O O24 0.345456 0.500000 0.261874
#
# Coordination Sequence:
#
# PCOD9386059 Si02
#       8
#     8   8   8   8   8   8   8   8
#     4  10  21  37  59  88 120 154 194 241 291 341
#     4  11  21  37  64  91 114 142 181 232 284 332
#     4   8  14  27  50  80 114 153 194 233 276 330
#     4   8  13  25  48  79 113 144 176 218 270 329
#     4  10  20  34  54  82 112 142 184 236 283 329
#     4   8  14  27  52  85 116 144 175 215 268 330
#     4  11  24  40  57  77 105 145 189 231 283 346
#     4  11  25  43  61  83 114 152 193 237 288 347
#
# _framework density 19.164973
#
# number of rings (size 3 to 8) (size 9 to 14) (size 15 to 20)
#    0.000    2.375    1.250    3.000    0.000    5.500 
#    0.000    5.625    0.000    4.875    0.000    0.875 
#    0.000    0.000    0.000    0.000    0.000    0.000 
#
# Total GULP energy -357087.659578 kJ/mol
# GULP energy per Si atom -5579.494681 kJ/mol
# Density = 1.912135 g / cm^3
# Si number density = 19.164973 Si / 1000 Ang^3
#
#
#
# Elastic Constant Matrix: (Units=GPa)
#
#
# Indices 1 2 3 4 5 6 
#
# 1 57.6751 59.3472 23.1308 0.0000 0.0000 0.0000
# 2 59.3472 151.4952 33.5908 0.0000 0.0000 0.0000
# 3 23.1308 33.5908 24.0958 0.0000 0.0000 0.0000
# 4 0.0000 0.0000 0.0000 9.2952 0.0000 0.0000
# 5 0.0000 0.0000 0.0000 0.0000 11.7768 0.0000
# 6 0.0000 0.0000 0.0000 0.0000 0.0000 -16.5904
#
#
#
# Elastic Compliance Matrix: (Units=1/GPa)
#
#
# Indices 1 2 3 4 5 6 
#
# 1 0.035145 -0.009100 -0.021052 0.000000 0.000000 0.000000
# 2 -0.009100 0.011910 -0.007868 0.000000 0.000000 0.000000
# 3 -0.021052 -0.007868 0.072678 0.000000 0.000000 0.000000
# 4 0.000000 0.000000 0.000000 0.107582 0.000000 0.000000
# 5 0.000000 0.000000 0.000000 0.000000 0.084913 0.000000
# 6 0.000000 0.000000 0.000000 0.000000 0.000000 -0.060276
#
#
# Mechanical properties :
#
#
# Convention : Reuss Voigt Hill
#
# Bulk Modulus (GPa) = 22.88641 51.71153 37.29897
# Shear Modulus (GPa) = 14.59610 8.70948 11.65279
#
# Velocity S-wave (km/s) = 2.76271 2.13409 2.46849
# Velocity P-wave (km/s) = 4.70579 5.75442 5.25632
#
# Compressibility (1/GPa) = 0.04369406
#
# Stress axis : x y z
#
# Youngs Moduli (GPa) = 28.45324 83.96062 13.75931
#
# Poissons Ratio (x) = 0.76406 0.28966
# Poissons Ratio (y) = 0.25893 0.10826
# Poissons Ratio (z) = 0.59899 0.66060
#
# Static dielectric constant tensor:
#      x y z
#    x 1.652450 0.000000 0.000000 
#    y 0.000000 1.690480 0.000000 
#    z 0.000000 0.000000 1.652080 
# 
# From -- ./inp_files/12673.got.cif
#   From: 2010.05.17/outbox.cif.g08.bks.cpg/sg47_7_cif.got.tgz:12673.got - 2010.06.03 20:15:42.
