data_PCOD9386954
_publ_section_title
;
Structure prediction by ZEFSAII (Michael W. Deem and Ramdas Pophale) SiO2 
 PCOD9386954
Probable space group: P M M M
;
_chemical_formula_sum "Si O2"
_cell_formula_units_Z 56
_cell_length_a 21.599329
_cell_length_b 7.553271
_cell_length_c 15.050548
_cell_angle_alpha 90.000000
_cell_angle_beta 90.000000
_cell_angle_gamma 90.000000
_cell_volume 2455.430463
_symmetry_space_group_name_H-M "P M M M"
_symmetry_group_IT_number 47
_symmetry_cell_setting 'orthorhombic'
loop_
_space_group_symop_operation_xyz
x,y,z
-x,-y,z
x,-y,-z
-x,y,-z
-x,-y,-z
x,y,-z
-x,y,z
x,-y,z
loop_
_atom_site_type_symbol
_atom_site_label
_atom_site_fract_x
_atom_site_fract_y
_atom_site_fract_z
Si Si1 0.201294 0.699451 0.604907
Si Si2 0.377565 0.783120 0.790745
Si Si3 0.661801 0.794868 0.601755
Si Si4 0.746021 0.783664 0.104116
Si Si5 0.932075 0.297793 0.352194
Si Si6 0.500000 0.216236 0.897025
Si Si7 0.926834 0.296935 0.000000
Si Si8 0.872880 0.799226 0.181957
O O1 0.206960 0.685124 0.500000
O O2 0.199845 0.500000 0.643204
O O3 0.265549 0.788991 0.630696
O O4 0.133569 0.782940 0.618304
O O5 0.373308 0.719944 0.688108
O O6 0.317574 0.730578 0.848492
O O7 0.438964 0.728815 0.843226
O O8 0.376838 0.000000 0.787707
O O9 0.655288 0.720598 0.500000
O O10 0.643970 0.000000 0.594482
O O11 0.804123 0.725187 0.164867
O O12 0.748652 0.000000 0.102928
O O13 0.750428 0.728505 0.000000
O O14 0.932821 0.500000 0.386638
O O15 0.919797 0.299709 0.246873
O O16 0.000000 0.220619 0.372248
O O17 0.500000 0.000000 0.898699
O O18 0.500000 0.273823 0.000000
O O19 0.902107 0.201818 0.085839
O O20 0.904288 0.500000 0.000000
O O21 0.000000 0.298389 0.000000
O O22 0.867395 0.000000 0.214762
#
# Coordination Sequence:
#
# PCOD9386954 Si02
#       8
#     8   8   8   8   8   4   4   8
#     4   9  18  33  53  75  98 127 165 209 253 299
#     4   9  16  26  43  67  98 135 167 198 244 296
#     4   9  17  30  48  72 102 133 163 199 248 303
#     4   9  16  27  43  65  91 118 154 203 251 291
#     4  10  21  35  49  68  96 128 162 203 254 308
#     4   9  16  26  41  67 104 141 173 205 242 288
#     4  11  23  37  51  67  93 128 161 200 256 309
#     4  11  21  34  51  71  94 124 165 207 248 300
#
# _framework density 22.806592999999999
#
# number of rings (size 3 to 8) (size 9 to 14) (size 15 to 20)
#    0.000    2.429    0.714    2.357    0.000    6.286 
#    0.000    1.786    0.000    2.143    0.000    3.500 
#    0.000    2.857    0.000    0.000    0.000    0.000 
#
# Total GULP energy -312288.057645 kJ/mol
# GULP energy per Si atom -5576.572458 kJ/mol
# Density = 2.275468 g / cm^3
# Si number density = 22.806593 Si / 1000 Ang^3
#
#
#
# Elastic Constant Matrix: (Units=GPa)
#
#
# Indices 1 2 3 4 5 6 
#
# 1 136.3974 13.4171 50.6404 0.0000 0.0000 0.0000
# 2 13.4171 58.3112 14.4475 0.0000 0.0000 0.0000
# 3 50.6404 14.4475 120.9672 0.0000 0.0000 0.0000
# 4 0.0000 0.0000 0.0000 6.9632 0.0000 0.0000
# 5 0.0000 0.0000 0.0000 0.0000 54.5140 0.0000
# 6 0.0000 0.0000 0.0000 0.0000 0.0000 8.1306
#
#
#
# Elastic Compliance Matrix: (Units=1/GPa)
#
#
# Indices 1 2 3 4 5 6 
#
# 1 0.008754 -0.001140 -0.003528 0.000000 0.000000 0.000000
# 2 -0.001140 0.017821 -0.001651 0.000000 0.000000 0.000000
# 3 -0.003528 -0.001651 0.009941 0.000000 0.000000 0.000000
# 4 0.000000 0.000000 0.000000 0.143613 0.000000 0.000000
# 5 0.000000 0.000000 0.000000 0.000000 0.018344 0.000000
# 6 0.000000 0.000000 0.000000 0.000000 0.000000 0.122992
#
#
# Mechanical properties :
#
#
# Convention : Reuss Voigt Hill
#
# Bulk Modulus (GPa) = 41.88238 52.52064 47.20151
# Shear Modulus (GPa) = 14.61726 29.73295 22.17511
#
# Velocity S-wave (km/s) = 2.53439 3.61460 3.12157
# Velocity P-wave (km/s) = 5.19309 6.36389 5.80807
#
# Compressibility (1/GPa) = 0.02387639
#
# Stress axis : x y z
#
# Youngs Moduli (GPa) = 114.23823 56.11429 100.59362
#
# Poissons Ratio (x) = 0.06397 0.35493
# Poissons Ratio (y) = 0.13023 0.16610
# Poissons Ratio (z) = 0.40308 0.09265
#
# Static dielectric constant tensor:
#      x y z
#    x 1.831990 0.000000 0.000000 
#    y 0.000000 1.944230 0.000000 
#    z 0.000000 0.000000 1.874970 
# 
# From -- ./inp_files/25200.got.cif
#   From: 2010.05.17/outbox.cif.g08.bks.cpg/sg47_13_cif.got.tgz:25200.got - 2010.06.03 20:15:42.
