data_PCOD9386036
_publ_section_title
;
Structure prediction by ZEFSAII (Michael W. Deem and Ramdas Pophale) SiO2 
 PCOD9386036
Probable space group: P M M M
;
_chemical_formula_sum "Si O2"
_cell_formula_units_Z 36
_cell_length_a 23.772846
_cell_length_b 9.248046
_cell_length_c 9.182199
_cell_angle_alpha 90.000000
_cell_angle_beta 90.000000
_cell_angle_gamma 90.000000
_cell_volume 2018.728243
_symmetry_space_group_name_H-M "P M M M"
_symmetry_group_IT_number 47
_symmetry_cell_setting 'orthorhombic'
loop_
_space_group_symop_operation_xyz
x,y,z
-x,-y,z
x,-y,-z
-x,y,-z
-x,-y,-z
x,y,-z
-x,y,z
x,-y,z
loop_
_atom_site_type_symbol
_atom_site_label
_atom_site_fract_x
_atom_site_fract_y
_atom_site_fract_z
Si Si1 0.936163 0.826717 0.327959
Si Si2 0.500000 0.666445 0.822840
Si Si3 0.166195 0.673320 0.170179
Si Si4 0.717733 0.327773 0.673007
Si Si5 0.386021 0.829171 0.174915
O O1 0.929245 0.794729 0.500000
O O2 0.888259 0.748800 0.237153
O O3 0.000000 0.784580 0.286174
O O4 0.931757 0.000000 0.311037
O O5 0.500000 0.500000 0.773884
O O6 0.556525 0.749555 0.778423
O O7 0.500000 0.665997 0.000000
O O8 0.160102 0.500000 0.183955
O O9 0.222737 0.715169 0.256164
O O10 0.172412 0.708587 0.000000
O O11 0.719162 0.304585 0.500000
O O12 0.709969 0.500000 0.699717
O O13 0.666982 0.241469 0.745950
O O14 0.389780 0.000000 0.203825
O O15 0.380030 0.810021 0.000000
#
# Coordination Sequence:
#
# PCOD9386036 Si02
#       5
#     8   4   8   8   8
#     4   9  19  36  56  78 106 141 179 217 260 313
#     4   9  17  31  54  81 108 141 178 216 260 309
#     4  10  21  36  55  80 108 138 175 220 267 315
#     4  10  21  37  56  77 103 138 179 220 264 315
#     4  10  20  34  54  81 111 141 175 216 262 313
#
# _framework density 17.833010000000002
#
# number of rings (size 3 to 8) (size 9 to 14) (size 15 to 20)
#    0.000    2.333    0.000    3.000    0.000    7.556 
#    0.000    3.889    0.000    3.333    0.000    0.000 
#    0.000    0.000    0.000    0.000    0.000    0.000 
#
# Total GULP energy -200980.658791 kJ/mol
# GULP energy per Si atom -5582.796078 kJ/mol
# Density = 1.779242 g / cm^3
# Si number density = 17.833010 Si / 1000 Ang^3
#
#
#
# Elastic Constant Matrix: (Units=GPa)
#
#
# Indices 1 2 3 4 5 6 
#
# 1 203.1277 94.8269 89.8839 0.0000 0.0000 0.0000
# 2 94.8269 78.4095 66.1313 0.0000 0.0000 0.0000
# 3 89.8839 66.1313 70.7542 0.0000 0.0000 0.0000
# 4 0.0000 0.0000 0.0000 28.0953 0.0000 0.0000
# 5 0.0000 0.0000 0.0000 0.0000 72.5059 0.0000
# 6 0.0000 0.0000 0.0000 0.0000 0.0000 63.7687
#
#
#
# Elastic Compliance Matrix: (Units=1/GPa)
#
#
# Indices 1 2 3 4 5 6 
#
# 1 0.012211 -0.007956 -0.008076 0.000000 0.000000 0.000000
# 2 -0.007956 0.065429 -0.051046 0.000000 0.000000 0.000000
# 3 -0.008076 -0.051046 0.072103 0.000000 0.000000 0.000000
# 4 0.000000 0.000000 0.000000 0.035593 0.000000 0.000000
# 5 0.000000 0.000000 0.000000 0.000000 0.013792 0.000000
# 6 0.000000 0.000000 0.000000 0.000000 0.000000 0.015682
#
#
# Mechanical properties :
#
#
# Convention : Reuss Voigt Hill
#
# Bulk Modulus (GPa) = 64.15829 94.88617 79.52223
# Shear Modulus (GPa) = 14.11786 39.63728 26.87757
#
# Velocity S-wave (km/s) = 2.81672 4.71966 3.88645
# Velocity P-wave (km/s) = 6.82890 9.11175 8.05164
#
# Compressibility (1/GPa) = 0.01558645
#
# Stress axis : x y z
#
# Youngs Moduli (GPa) = 81.89461 15.28382 13.86899
#
# Poissons Ratio (x) = 0.12160 0.11200
# Poissons Ratio (y) = 0.65159 0.70796
# Poissons Ratio (z) = 0.66135 0.78018
#
# Static dielectric constant tensor:
#      x y z
#    x 1.576960 0.000000 0.000000 
#    y 0.000000 1.594300 0.000000 
#    z 0.000000 0.000000 1.593880 
# 
# From -- ./inp_files/1402.got.cif
#   From: 2010.05.17/outbox.cif.g08.bks.cpg/sg47_1_cif.got.tgz:1402.got - 2010.06.03 20:15:42.
