data_PCOD9386867
_publ_section_title
;
Structure prediction by ZEFSAII (Michael W. Deem and Ramdas Pophale) SiO2 
 PCOD9386867
Probable space group: P M M M
;
_chemical_formula_sum "Si O2"
_cell_formula_units_Z 56
_cell_length_a 14.258471
_cell_length_b 9.359167
_cell_length_c 23.914346
_cell_angle_alpha 90.000000
_cell_angle_beta 90.000000
_cell_angle_gamma 90.000000
_cell_volume 3191.307566
_symmetry_space_group_name_H-M "P M M M"
_symmetry_group_IT_number 47
_symmetry_cell_setting 'orthorhombic'
loop_
_space_group_symop_operation_xyz
x,y,z
-x,-y,z
x,-y,-z
-x,y,-z
-x,-y,-z
x,y,-z
-x,y,z
x,-y,z
loop_
_atom_site_type_symbol
_atom_site_label
_atom_site_fract_x
_atom_site_fract_y
_atom_site_fract_z
Si Si1 0.710355 0.671359 0.063984
Si Si2 0.103638 0.164919 0.932096
Si Si3 0.283510 0.832161 0.733494
Si Si4 0.394362 0.328136 0.173091
Si Si5 0.108688 0.171178 0.660413
Si Si6 0.609503 0.831017 0.383136
Si Si7 0.779883 0.330232 0.435137
O O1 0.719193 0.500000 0.063228
O O2 0.808621 0.738991 0.083637
O O3 0.632313 0.709392 0.109375
O O4 0.690910 0.717904 0.000000
O O5 0.000000 0.212339 0.913054
O O6 0.117057 0.000000 0.914871
O O7 0.101630 0.166294 0.000000
O O8 0.321270 0.741287 0.784621
O O9 0.180170 0.793274 0.710741
O O10 0.352660 0.812232 0.680215
O O11 0.283857 0.000000 0.747898
O O12 0.500000 0.280931 0.186520
O O13 0.390562 0.500000 0.177873
O O14 0.147064 0.253799 0.606283
O O15 0.000000 0.202516 0.671595
O O16 0.118396 0.000000 0.650952
O O17 0.500000 0.793925 0.387707
O O18 0.678560 0.738204 0.421213
O O19 0.620219 0.000000 0.396376
O O20 0.803154 0.306122 0.500000
O O21 0.778003 0.500000 0.424664
#
# Coordination Sequence:
#
# PCOD9386867 Si02
#       7
#     8   8   8   8   8   8   8
#     4   9  18  32  49  70  98 132 168 205 244 288
#     4   8  14  26  45  68  93 121 153 190 233 280
#     4   9  18  34  55  77 100 125 159 206 256 304
#     4  10  21  35  51  73 100 130 165 204 247 298
#     4   9  19  37  59  79 100 131 171 212 253 299
#     4   9  18  33  53  75  99 132 175 219 260 302
#     4  10  21  34  48  73 110 145 175 210 253 301
#
# _framework density 17.547667000000001
#
# number of rings (size 3 to 8) (size 9 to 14) (size 15 to 20)
#    0.000    2.857    0.000    2.143    0.000    6.571 
#    0.000    6.429    0.000    2.571    0.000    3.000 
#    0.000    0.000    0.000    0.000    0.000    0.000 
#
# Total GULP energy -312093.537985 kJ/mol
# GULP energy per Si atom -5573.098893 kJ/mol
# Density = 1.750773 g / cm^3
# Si number density = 17.547667 Si / 1000 Ang^3
#
#
#
# Elastic Constant Matrix: (Units=GPa)
#
#
# Indices 1 2 3 4 5 6 
#
# 1 135.4957 40.9827 57.4175 0.0000 0.0000 0.0000
# 2 40.9827 29.5786 41.6219 0.0000 0.0000 0.0000
# 3 57.4175 41.6219 82.4532 0.0000 0.0000 0.0000
# 4 0.0000 0.0000 0.0000 5.6882 0.0000 0.0000
# 5 0.0000 0.0000 0.0000 0.0000 11.6634 0.0000
# 6 0.0000 0.0000 0.0000 0.0000 0.0000 18.4858
#
#
#
# Elastic Compliance Matrix: (Units=1/GPa)
#
#
# Indices 1 2 3 4 5 6 
#
# 1 0.012705 -0.017792 0.000134 0.000000 0.000000 0.000000
# 2 -0.017792 0.141627 -0.059103 0.000000 0.000000 0.000000
# 3 0.000134 -0.059103 0.041870 0.000000 0.000000 0.000000
# 4 0.000000 0.000000 0.000000 0.175801 0.000000 0.000000
# 5 0.000000 0.000000 0.000000 0.000000 0.085738 0.000000
# 6 0.000000 0.000000 0.000000 0.000000 0.000000 0.054096
#
#
# Mechanical properties :
#
#
# Convention : Reuss Voigt Hill
#
# Bulk Modulus (GPa) = 23.43014 58.61906 41.02460
# Shear Modulus (GPa) = 7.35743 14.33453 10.84598
#
# Velocity S-wave (km/s) = 2.04986 2.86123 2.48883
# Velocity P-wave (km/s) = 4.35704 6.66286 5.62928
#
# Compressibility (1/GPa) = 0.04268008
#
# Stress axis : x y z
#
# Youngs Moduli (GPa) = 78.70944 7.06080 23.88369
#
# Poissons Ratio (x) = 0.12562 -0.00320
# Poissons Ratio (y) = 1.40039 1.41159
# Poissons Ratio (z) = -0.01054 0.41731
#
# Static dielectric constant tensor:
#      x y z
#    x 1.602610 0.000000 0.000000 
#    y 0.000000 1.583860 0.000000 
#    z 0.000000 0.000000 1.592880 
# 
# From -- ./inp_files/30963.got.cif
#   From: 2010.05.17/outbox.cif.g08.bks.cpg/sg47_16_cif.got.tgz:30963.got - 2010.06.03 20:15:42.
