data_PCOD9386439
_publ_section_title
;
Structure prediction by ZEFSAII (Michael W. Deem and Ramdas Pophale) SiO2 
 PCOD9386439
Probable space group: P M M M
;
_chemical_formula_sum "Si O2"
_cell_formula_units_Z 56
_cell_length_a 19.842042
_cell_length_b 14.750006
_cell_length_c 9.706821
_cell_angle_alpha 90.000000
_cell_angle_beta 90.000000
_cell_angle_gamma 90.000000
_cell_volume 2840.897618
_symmetry_space_group_name_H-M "P M M M"
_symmetry_group_IT_number 47
_symmetry_cell_setting 'orthorhombic'
loop_
_space_group_symop_operation_xyz
x,y,z
-x,-y,z
x,-y,-z
-x,y,-z
-x,-y,-z
x,y,-z
-x,y,z
x,-y,z
loop_
_atom_site_type_symbol
_atom_site_label
_atom_site_fract_x
_atom_site_fract_y
_atom_site_fract_z
Si Si1 0.660005 0.607185 0.343089
Si Si2 0.417825 0.898008 0.344206
Si Si3 0.074363 0.108398 0.345902
Si Si4 0.922456 0.394451 0.332973
Si Si5 0.790685 0.721011 0.335186
Si Si6 0.581081 0.734730 0.155177
Si Si7 0.200753 0.106210 0.835872
O O1 0.642832 0.634763 0.500000
O O2 0.660638 0.500000 0.336137
O O3 0.733540 0.646204 0.310332
O O4 0.607171 0.649925 0.239572
O O5 0.396171 0.876028 0.500000
O O6 0.500000 0.898382 0.345066
O O7 0.395803 0.824492 0.235191
O O8 0.395939 0.000000 0.310700
O O9 0.097245 0.138901 0.500000
O O10 0.124271 0.120246 0.219491
O O11 0.000000 0.146803 0.323838
O O12 0.068947 0.000000 0.356825
O O13 0.922451 0.393434 0.500000
O O14 0.907665 0.500000 0.292742
O O15 0.863347 0.323297 0.293629
O O16 0.000000 0.373803 0.289342
O O17 0.790870 0.737448 0.500000
O O18 0.768186 0.811742 0.253278
O O19 0.500000 0.735559 0.153213
O O20 0.606327 0.734406 0.000000
O O21 0.218901 0.000000 0.803671
O O22 0.207526 0.118034 0.000000
#
# Coordination Sequence:
#
# PCOD9386439 Si02
#       7
#     8   8   8   8   8   8   8
#     4  10  22  40  61  84 110 143 184 230 280 333
#     4   8  14  27  50  80 114 152 191 229 269 316
#     4   8  14  26  45  68  94 128 173 222 268 314
#     4   8  14  27  51  83 113 137 166 213 273 328
#     4  10  20  35  57  83 109 139 180 227 271 323
#     4  10  21  36  56  85 119 152 187 229 276 328
#     4  10  21  35  50  71 103 143 183 223 270 325
#
# _framework density 19.712078999999999
#
# number of rings (size 3 to 8) (size 9 to 14) (size 15 to 20)
#    0.000    2.857    0.000    2.571    0.000    5.714 
#    0.000    6.429    0.000    2.143    0.000    1.000 
#    0.000    0.000    0.000    0.000    0.000    0.000 
#
# Total GULP energy -312005.892631 kJ/mol
# GULP energy per Si atom -5571.533797 kJ/mol
# Density = 1.966721 g / cm^3
# Si number density = 19.712079 Si / 1000 Ang^3
#
#
#
# Elastic Constant Matrix: (Units=GPa)
#
#
# Indices 1 2 3 4 5 6 
#
# 1 37.3976 23.5143 30.4447 0.0000 0.0000 0.0000
# 2 23.5143 120.4223 62.7039 0.0000 0.0000 0.0000
# 3 30.4447 62.7039 83.2722 0.0000 0.0000 0.0000
# 4 0.0000 0.0000 0.0000 106.9505 0.0000 0.0000
# 5 0.0000 0.0000 0.0000 0.0000 10.3854 0.0000
# 6 0.0000 0.0000 0.0000 0.0000 0.0000 4.6154
#
#
#
# Elastic Compliance Matrix: (Units=1/GPa)
#
#
# Indices 1 2 3 4 5 6 
#
# 1 0.038078 -0.000307 -0.013690 0.000000 0.000000 0.000000
# 2 -0.000307 0.013663 -0.010176 0.000000 0.000000 0.000000
# 3 -0.013690 -0.010176 0.024676 0.000000 0.000000 0.000000
# 4 0.000000 0.000000 0.000000 0.009350 0.000000 0.000000
# 5 0.000000 0.000000 0.000000 0.000000 0.096289 0.000000
# 6 0.000000 0.000000 0.000000 0.000000 0.000000 0.216664
#
#
# Mechanical properties :
#
#
# Convention : Reuss Voigt Hill
#
# Bulk Modulus (GPa) = 35.62411 52.71310 44.16860
# Shear Modulus (GPa) = 10.95476 32.68556 21.82016
#
# Velocity S-wave (km/s) = 2.35997 4.07645 3.33069
# Velocity P-wave (km/s) = 5.05345 6.99687 6.10302
#
# Compressibility (1/GPa) = 0.02807088
#
# Stress axis : x y z
#
# Youngs Moduli (GPa) = 26.26220 73.19304 40.52447
#
# Poissons Ratio (x) = 0.02244 0.55480
# Poissons Ratio (y) = 0.00805 0.41237
# Poissons Ratio (z) = 0.35954 0.74480
#
# Static dielectric constant tensor:
#      x y z
#    x 1.764030 0.000000 0.000000 
#    y 0.000000 1.721130 0.000000 
#    z 0.000000 0.000000 1.653070 
# 
# From -- ./inp_files/11241.got.cif
#   From: 2010.05.17/outbox.cif.g08.bks.cpg/sg47_6_cif.got.tgz:11241.got - 2010.06.03 20:15:42.
