data_PCOD9386953
_publ_section_title
;
Structure prediction by ZEFSAII (Michael W. Deem and Ramdas Pophale) SiO2 
 PCOD9386953
Probable space group: P M M M
;
_chemical_formula_sum "Si O2"
_cell_formula_units_Z 44
_cell_length_a 7.538010
_cell_length_b 9.791381
_cell_length_c 29.468712
_cell_angle_alpha 90.000000
_cell_angle_beta 90.000000
_cell_angle_gamma 90.000000
_cell_volume 2175.012783
_symmetry_space_group_name_H-M "P M M M"
_symmetry_group_IT_number 47
_symmetry_cell_setting 'orthorhombic'
loop_
_space_group_symop_operation_xyz
x,y,z
-x,-y,z
x,-y,-z
-x,y,-z
-x,-y,-z
x,y,-z
-x,y,z
x,-y,z
loop_
_atom_site_type_symbol
_atom_site_label
_atom_site_fract_x
_atom_site_fract_y
_atom_site_fract_z
Si Si1 0.716542 0.157728 0.050593
Si Si2 0.285920 0.656145 0.401170
Si Si3 0.286743 0.655457 0.132683
Si Si4 0.787886 0.655800 0.765174
Si Si5 0.295958 0.334007 0.500000
Si Si6 0.211980 0.845329 0.684373
O O1 0.500000 0.159677 0.051100
O O2 0.779547 0.250449 0.091938
O O3 0.769695 0.000000 0.056294
O O4 0.770631 0.203520 0.000000
O O5 0.500000 0.649862 0.404643
O O6 0.225019 0.500000 0.391705
O O7 0.217772 0.701996 0.450939
O O8 0.241839 0.759299 0.361243
O O9 0.500000 0.651017 0.128979
O O10 0.219820 0.500000 0.128898
O O11 0.245656 0.704339 0.183524
O O12 0.718218 0.500000 0.760770
O O13 0.717541 0.757315 0.726825
O O14 0.000000 0.647772 0.759419
O O15 0.299963 0.500000 0.500000
O O16 0.500000 0.284613 0.500000
O O17 0.000000 0.855211 0.690374
O O18 0.281853 0.000000 0.682041
#
# Coordination Sequence:
#
# PCOD9386953 Si02
#       6
#     8   8   8   8   4   8
#     4   8  14  25  41  62  89 119 147 175 213 263
#     4   9  17  31  53  77  98 123 157 196 236 278
#     4   9  17  28  44  68  92 111 140 186 230 265
#     4   9  18  33  50  65  86 120 156 188 229 280
#     4   7  12  26  48  73  98 122 152 191 232 275
#     4  10  21  35  49  68  96 128 161 196 235 281
#
# _framework density 20.229766000000001
#
# number of rings (size 3 to 8) (size 9 to 14) (size 15 to 20)
#    0.000    3.182    0.000    2.182    0.000    3.273 
#    0.000    4.545    0.000    4.909    0.000    3.818 
#    0.000    0.000    0.000    0.000    0.000    0.000 
#
# Total GULP energy -245312.447081 kJ/mol
# GULP energy per Si atom -5575.282888 kJ/mol
# Density = 2.018372 g / cm^3
# Si number density = 20.229766 Si / 1000 Ang^3
#
#
#
# Elastic Constant Matrix: (Units=GPa)
#
#
# Indices 1 2 3 4 5 6 
#
# 1 50.3676 5.3451 -0.2873 0.0000 0.0000 0.0000
# 2 5.3451 113.9098 128.4989 0.0000 0.0000 0.0000
# 3 -0.2873 128.4989 237.2152 0.0000 0.0000 0.0000
# 4 0.0000 0.0000 0.0000 -106.2239 0.0000 0.0000
# 5 0.0000 0.0000 0.0000 0.0000 29.4644 0.0000
# 6 0.0000 0.0000 0.0000 0.0000 0.0000 7.9915
#
#
#
# Elastic Compliance Matrix: (Units=1/GPa)
#
#
# Indices 1 2 3 4 5 6 
#
# 1 0.020127 -0.002499 0.001378 0.000000 0.000000 0.000000
# 2 -0.002499 0.022883 -0.012398 0.000000 0.000000 0.000000
# 3 0.001378 -0.012398 0.010933 0.000000 0.000000 0.000000
# 4 0.000000 0.000000 0.000000 -0.009414 0.000000 0.000000
# 5 0.000000 0.000000 0.000000 0.000000 0.033939 0.000000
# 6 0.000000 0.000000 0.000000 0.000000 0.000000 0.125133
#
#
# Mechanical properties :
#
#
# Convention : Reuss Voigt Hill
#
# Bulk Modulus (GPa) = 37.16879 74.28959 55.72919
# Shear Modulus (GPa) = 20.86738 4.10878 12.48808
#
# Velocity S-wave (km/s) = 3.21521 1.42670 2.48727
# Velocity P-wave (km/s) = 5.67421 6.28622 5.98804
#
# Compressibility (1/GPa) = 0.02690429
#
# Stress axis : x y z
#
# Youngs Moduli (GPa) = 49.68431 43.70151 91.46244
#
# Poissons Ratio (x) = 0.10921 -0.12604
# Poissons Ratio (y) = 0.12416 1.13399
# Poissons Ratio (z) = -0.06847 0.54183
#
# Static dielectric constant tensor:
#      x y z
#    x 1.772620 0.000000 0.000000 
#    y 0.000000 1.695470 0.000000 
#    z 0.000000 0.000000 1.717690 
# 
# From -- ./inp_files/2051.got.cif
#   From: 2010.05.17/outbox.cif.g08.bks.cpg/sg47_2_cif.got.tgz:2051.got - 2010.06.03 20:15:42.
