data_PCOD9386691
_publ_section_title
;
Structure prediction by ZEFSAII (Michael W. Deem and Ramdas Pophale) SiO2 
 PCOD9386691
Probable space group: P M M M
;
_chemical_formula_sum "Si O2"
_cell_formula_units_Z 37
_cell_length_a 17.098264
_cell_length_b 14.462280
_cell_length_c 7.783069
_cell_angle_alpha 90.000000
_cell_angle_beta 90.000000
_cell_angle_gamma 90.000000
_cell_volume 1924.596380
_symmetry_space_group_name_H-M "P M M M"
_symmetry_group_IT_number 47
_symmetry_cell_setting 'orthorhombic'
loop_
_space_group_symop_operation_xyz
x,y,z
-x,-y,z
x,-y,-z
-x,y,-z
-x,-y,-z
x,y,-z
-x,y,z
x,-y,z
loop_
_atom_site_type_symbol
_atom_site_label
_atom_site_fract_x
_atom_site_fract_y
_atom_site_fract_z
Si Si1 0.000000 0.651737 0.689986
Si Si2 0.307945 0.394944 0.210027
Si Si3 0.160850 0.723810 0.798789
Si Si4 0.411544 0.776123 0.792068
Si Si5 0.000000 0.500000 0.000000
Si Si6 0.735903 0.895613 0.704044
O O1 0.078554 0.712249 0.707783
O O2 0.000000 0.579771 0.846879
O O3 0.000000 0.608995 0.500000
O O4 0.318645 0.500000 0.267874
O O5 0.224834 0.351470 0.264148
O O6 0.374445 0.322176 0.263732
O O7 0.307774 0.395508 0.000000
O O8 0.202731 0.822582 0.779782
O O9 0.148535 0.705582 0.000000
O O10 0.500000 0.789018 0.730735
O O11 0.350365 0.854560 0.738215
O O12 0.412624 0.775370 0.000000
O O13 0.747999 0.896570 0.500000
O O14 0.743269 0.000000 0.770357
#
# Coordination Sequence:
#
# PCOD9386691 Si02
#       6
#     4   8   8   8   1   8
#     4  12  25  41  64  93 128 165 203 250 294 342
#     4   8  15  27  49  76 106 145 184 227 280 342
#     4  10  20  37  60  84 119 152 190 241 295 356
#     4   9  18  32  50  76 108 142 184 234 290 355
#     4  12  26  44  60  94 130 168 208 248 292 346
#     4  10  21  37  57  81 108 143 191 244 298 359
#
# _framework density 19.224809
#
# number of rings (size 3 to 8) (size 9 to 14) (size 15 to 20)
#    0.000    2.378    1.081    2.757    1.514    3.027 
#    0.000    4.865    0.000    9.081    0.000    6.054 
#    0.000    0.000    0.000    0.000    0.000    0.000 
#
# Total GULP energy -206187.577068 kJ/mol
# GULP energy per Si atom -5572.637218 kJ/mol
# Density = 1.918105 g / cm^3
# Si number density = 19.224809 Si / 1000 Ang^3
#
#
#
# Elastic Constant Matrix: (Units=GPa)
#
#
# Indices 1 2 3 4 5 6 
#
# 1 119.1873 35.0361 17.2155 0.0000 0.0000 0.0000
# 2 35.0361 120.8758 6.5870 0.0000 0.0000 0.0000
# 3 17.2155 6.5870 65.8538 0.0000 0.0000 0.0000
# 4 0.0000 0.0000 0.0000 53.5870 0.0000 0.0000
# 5 0.0000 0.0000 0.0000 0.0000 9.3590 0.0000
# 6 0.0000 0.0000 0.0000 0.0000 0.0000 36.9906
#
#
#
# Elastic Compliance Matrix: (Units=1/GPa)
#
#
# Indices 1 2 3 4 5 6 
#
# 1 0.009483 -0.002628 -0.002216 0.000000 0.000000 0.000000
# 2 -0.002628 0.009047 -0.000218 0.000000 0.000000 0.000000
# 3 -0.002216 -0.000218 0.015786 0.000000 0.000000 0.000000
# 4 0.000000 0.000000 0.000000 0.018661 0.000000 0.000000
# 5 0.000000 0.000000 0.000000 0.000000 0.106850 0.000000
# 6 0.000000 0.000000 0.000000 0.000000 0.000000 0.027034
#
#
# Mechanical properties :
#
#
# Convention : Reuss Voigt Hill
#
# Bulk Modulus (GPa) = 41.33630 47.06601 44.20116
# Shear Modulus (GPa) = 24.38455 36.45919 30.42187
#
# Velocity S-wave (km/s) = 3.56531 4.35957 3.98229
# Velocity P-wave (km/s) = 6.20458 7.06231 6.64729
#
# Compressibility (1/GPa) = 0.02419181
#
# Stress axis : x y z
#
# Youngs Moduli (GPa) = 105.45487 110.53990 63.34608
#
# Poissons Ratio (x) = 0.29048 0.14038
# Poissons Ratio (y) = 0.27712 0.01380
# Poissons Ratio (z) = 0.23370 0.02409
#
# Static dielectric constant tensor:
#      x y z
#    x 1.655230 0.000000 0.000000 
#    y 0.000000 1.652890 0.000000 
#    z 0.000000 0.000000 1.709950 
# 
# From -- ./inp_files/8875.got.cif
#   From: 2010.05.17/outbox.cif.g08.bks.cpg/sg47_5_cif.got.tgz:8875.got - 2010.06.03 20:15:42.
