data_PCOD9386395
_publ_section_title
;
Structure prediction by ZEFSAII (Michael W. Deem and Ramdas Pophale) SiO2 
 PCOD9386395
Probable space group: P M M M
;
_chemical_formula_sum "Si O2"
_cell_formula_units_Z 44
_cell_length_a 7.983053
_cell_length_b 15.180112
_cell_length_c 18.072839
_cell_angle_alpha 90.000000
_cell_angle_beta 90.000000
_cell_angle_gamma 90.000000
_cell_volume 2190.132391
_symmetry_space_group_name_H-M "P M M M"
_symmetry_group_IT_number 47
_symmetry_cell_setting 'orthorhombic'
loop_
_space_group_symop_operation_xyz
x,y,z
-x,-y,z
x,-y,-z
-x,y,-z
-x,-y,-z
x,y,-z
-x,y,z
x,-y,z
loop_
_atom_site_type_symbol
_atom_site_label
_atom_site_fract_x
_atom_site_fract_y
_atom_site_fract_z
Si Si1 0.206112 0.898136 0.000000
Si Si2 0.298127 0.595815 0.184246
Si Si3 0.690662 0.395936 0.500000
Si Si4 0.694027 0.850965 0.699429
Si Si5 0.303649 0.352092 0.343450
Si Si6 0.294529 0.000000 0.413795
Si Si7 0.803002 0.790888 0.141988
O O1 0.264978 0.845978 0.072843
O O2 0.000000 0.898448 0.000000
O O3 0.258217 0.000000 0.000000
O O4 0.500000 0.593858 0.187204
O O5 0.242562 0.500000 0.153783
O O6 0.233882 0.604729 0.268999
O O7 0.257746 0.689436 0.146782
O O8 0.674015 0.500000 0.500000
O O9 0.500000 0.355651 0.500000
O O10 0.774244 0.371526 0.577329
O O11 0.500000 0.875371 0.711214
O O12 0.700095 0.752012 0.668847
O O13 0.759988 0.916740 0.636474
O O14 0.771676 0.842564 0.780972
O O15 0.500000 0.380954 0.347689
O O16 0.500000 0.000000 0.417155
O O17 0.238892 0.000000 0.500000
O O18 0.000000 0.784471 0.132054
#
# Coordination Sequence:
#
# PCOD9386395 Si02
#       7
#     4   8   4   8   8   4   8
#     4   9  20  38  58  79 104 136 175 221 268 319
#     4   9  17  32  53  76 107 143 173 208 258 314
#     4   9  14  18  30  57  88 116 155 205 245 279
#     4   9  18  32  49  72 104 137 171 214 264 317
#     4   8  14  23  38  61  92 127 163 202 244 290
#     4   9  18  30  49  76 105 138 178 223 269 311
#     4  10  20  35  57  81 104 134 176 221 266 317
#
# _framework density 20.090108000000001
#
# number of rings (size 3 to 8) (size 9 to 14) (size 15 to 20)
#    0.000    3.000    0.000    2.182    2.545    2.545 
#    0.000    2.273    0.000    6.000    0.000    0.000 
#    0.000    6.909    0.000    0.000    0.000    0.000 
#
# Total GULP energy -244966.415379 kJ/mol
# GULP energy per Si atom -5567.418531 kJ/mol
# Density = 2.004438 g / cm^3
# Si number density = 20.090108 Si / 1000 Ang^3
#
#
#
# Elastic Constant Matrix: (Units=GPa)
#
#
# Indices 1 2 3 4 5 6 
#
# 1 16.9124 16.6157 11.6550 0.0000 0.0000 0.0000
# 2 16.6157 139.3053 88.9338 0.0000 0.0000 0.0000
# 3 11.6550 88.9338 151.1669 0.0000 0.0000 0.0000
# 4 0.0000 0.0000 0.0000 18.4626 0.0000 0.0000
# 5 0.0000 0.0000 0.0000 0.0000 10.8902 0.0000
# 6 0.0000 0.0000 0.0000 0.0000 0.0000 13.3928
#
#
#
# Elastic Compliance Matrix: (Units=1/GPa)
#
#
# Indices 1 2 3 4 5 6 
#
# 1 0.067029 -0.007520 -0.000744 0.000000 0.000000 0.000000
# 2 -0.007520 0.012340 -0.006680 0.000000 0.000000 0.000000
# 3 -0.000744 -0.006680 0.010603 0.000000 0.000000 0.000000
# 4 0.000000 0.000000 0.000000 0.054164 0.000000 0.000000
# 5 0.000000 0.000000 0.000000 0.000000 0.091826 0.000000
# 6 0.000000 0.000000 0.000000 0.000000 0.000000 0.074667
#
#
# Mechanical properties :
#
#
# Convention : Reuss Voigt Hill
#
# Bulk Modulus (GPa) = 16.64344 60.19928 38.42136
# Shear Modulus (GPa) = 13.86794 21.22778 17.54786
#
# Velocity S-wave (km/s) = 2.63018 3.25411 2.95864
# Velocity P-wave (km/s) = 4.18643 6.64445 5.55315
#
# Compressibility (1/GPa) = 0.06008373
#
# Stress axis : x y z
#
# Youngs Moduli (GPa) = 14.91893 81.03711 94.31726
#
# Poissons Ratio (x) = 0.60940 0.07015
# Poissons Ratio (y) = 0.11219 0.63004
# Poissons Ratio (z) = 0.01110 0.54133
#
# Static dielectric constant tensor:
#      x y z
#    x 1.745670 0.000000 0.000000 
#    y 0.000000 1.721910 0.000000 
#    z 0.000000 0.000000 1.740510 
# 
# From -- ./inp_files/26422.got.cif
#   From: 2010.05.17/outbox.cif.g08.bks.cpg/sg47_14_cif.got.tgz:26422.got - 2010.06.03 20:15:42.
