data_PCOD9386242
_publ_section_title
;
Structure prediction by ZEFSAII (Michael W. Deem and Ramdas Pophale) SiO2 
 PCOD9386242
Probable space group: P M M M
;
_chemical_formula_sum "Si O2"
_cell_formula_units_Z 45
_cell_length_a 7.785162
_cell_length_b 12.943584
_cell_length_c 24.150533
_cell_angle_alpha 90.000000
_cell_angle_beta 90.000000
_cell_angle_gamma 90.000000
_cell_volume 2433.598453
_symmetry_space_group_name_H-M "P M M M"
_symmetry_group_IT_number 47
_symmetry_cell_setting 'orthorhombic'
loop_
_space_group_symop_operation_xyz
x,y,z
-x,-y,z
x,-y,-z
-x,y,-z
-x,-y,-z
x,y,-z
-x,y,z
x,-y,z
loop_
_atom_site_type_symbol
_atom_site_label
_atom_site_fract_x
_atom_site_fract_y
_atom_site_fract_z
Si Si1 0.297414 0.115782 0.156245
Si Si2 0.500000 0.500000 0.500000
Si Si3 0.792166 0.723126 0.938423
Si Si4 0.793050 0.500000 0.403610
Si Si5 0.304960 0.500000 0.782521
Si Si6 0.793515 0.335176 0.308619
Si Si7 0.800002 0.114796 0.718863
Si Si8 0.803202 0.500000 0.095131
O O1 0.500000 0.116559 0.167946
O O2 0.260485 0.199144 0.109675
O O3 0.208254 0.134393 0.215138
O O4 0.248244 0.000000 0.137444
O O5 0.654324 0.500000 0.452021
O O6 0.726487 0.607575 0.925676
O O7 0.000000 0.720354 0.937636
O O8 0.737009 0.755388 0.000000
O O9 0.761054 0.400849 0.363859
O O10 0.000000 0.500000 0.418338
O O11 0.500000 0.500000 0.801782
O O12 0.273525 0.401078 0.743447
O O13 0.196086 0.500000 0.838207
O O14 0.725836 0.217987 0.308894
O O15 0.000000 0.331716 0.301902
O O16 0.000000 0.109177 0.702518
O O17 0.724147 0.000000 0.708872
O O18 0.000000 0.500000 0.074795
#
# Coordination Sequence:
#
# PCOD9386242 Si02
#       8
#     8   1   8   4   4   8   8   4
#     4  10  21  35  49  70 100 130 160 199 253 310
#     4  12  22  36  60  86 114 156 198 232 270 304
#     4  10  21  36  53  69  85 114 160 210 255 305
#     4   9  20  36  55  83 117 151 189 232 273 311
#     4  11  21  29  46  73 101 133 165 202 249 311
#     4   9  18  33  51  76 110 140 170 214 262 305
#     4   9  17  31  53  78 103 134 170 207 253 312
#     4  10  20  35  51  68  93 122 153 197 259 319
#
# _framework density 18.491136999999998
#
# number of rings (size 3 to 8) (size 9 to 14) (size 15 to 20)
#    0.000    2.311    0.000    3.333    2.489    8.533 
#    0.000    1.778    0.000    1.600    0.000    1.244 
#    0.000    4.267    0.000    0.000    0.000    0.000 
#
# Total GULP energy -250726.349176 kJ/mol
# GULP energy per Si atom -5571.696648 kJ/mol
# Density = 1.844905 g / cm^3
# Si number density = 18.491137 Si / 1000 Ang^3
#
#
#
# Elastic Constant Matrix: (Units=GPa)
#
#
# Indices 1 2 3 4 5 6 
#
# 1 46.2258 16.2058 17.1412 0.0000 0.0000 0.0000
# 2 16.2058 152.2805 42.3109 0.0000 0.0000 0.0000
# 3 17.1412 42.3109 59.7538 0.0000 0.0000 0.0000
# 4 0.0000 0.0000 0.0000 -1.5297 0.0000 0.0000
# 5 0.0000 0.0000 0.0000 0.0000 448.2241 0.0000
# 6 0.0000 0.0000 0.0000 0.0000 0.0000 -35.8267
#
#
#
# Elastic Compliance Matrix: (Units=1/GPa)
#
#
# Indices 1 2 3 4 5 6 
#
# 1 0.024288 -0.000808 -0.006395 0.000000 0.000000 0.000000
# 2 -0.000808 0.008202 -0.005576 0.000000 0.000000 0.000000
# 3 -0.006395 -0.005576 0.022518 0.000000 0.000000 0.000000
# 4 0.000000 0.000000 0.000000 -0.653736 0.000000 0.000000
# 5 0.000000 0.000000 0.000000 0.000000 0.002231 0.000000
# 6 0.000000 0.000000 0.000000 0.000000 0.000000 -0.027912
#
#
# Mechanical properties :
#
#
# Convention : Reuss Voigt Hill
#
# Bulk Modulus (GPa) = 33.95620 45.50844 39.73232
# Shear Modulus (GPa) = -8.48847 94.34701 42.92927
#
# Velocity S-wave (km/s) = -2.14488 7.15078 4.82354
# Velocity P-wave (km/s) = 3.50276 9.63548 7.24955
#
# Compressibility (1/GPa) = 0.02944970
#
# Stress axis : x y z
#
# Youngs Moduli (GPa) = 41.17329 121.92002 44.40838
#
# Poissons Ratio (x) = 0.09849 0.28400
# Poissons Ratio (y) = 0.03326 0.24762
# Poissons Ratio (z) = 0.26331 0.67984
#
# Static dielectric constant tensor:
#      x y z
#    x 1.673510 0.000000 0.000000 
#    y 0.000000 1.686490 0.000000 
#    z 0.000000 0.000000 1.584130 
# 
# From -- ./inp_files/31913.got.cif
#   From: 2010.05.17/outbox.cif.g08.bks.cpg/sg47_16_cif.got.tgz:31913.got - 2010.06.03 20:15:42.
