data_PCOD9386027
_publ_section_title
;
Structure prediction by ZEFSAII (Michael W. Deem and Ramdas Pophale) SiO2 
 PCOD9386027
Probable space group: P M M M
;
_chemical_formula_sum "Si O2"
_cell_formula_units_Z 56
_cell_length_a 8.066420
_cell_length_b 14.704535
_cell_length_c 22.056417
_cell_angle_alpha 90.000000
_cell_angle_beta 90.000000
_cell_angle_gamma 90.000000
_cell_volume 2616.176802
_symmetry_space_group_name_H-M "P M M M"
_symmetry_group_IT_number 47
_symmetry_cell_setting 'orthorhombic'
loop_
_space_group_symop_operation_xyz
x,y,z
-x,-y,z
x,-y,-z
-x,y,-z
-x,-y,-z
x,y,-z
-x,y,z
x,-y,z
loop_
_atom_site_type_symbol
_atom_site_label
_atom_site_fract_x
_atom_site_fract_y
_atom_site_fract_z
Si Si1 0.698279 0.287400 0.804450
Si Si2 0.799362 0.395662 0.684837
Si Si3 0.695209 0.898079 0.390833
Si Si4 0.308419 0.297185 0.067454
Si Si5 0.802599 0.102298 0.747144
Si Si6 0.810952 0.099033 0.072602
Si Si7 0.196401 0.707431 0.565728
O O1 0.500000 0.286966 0.808869
O O2 0.748281 0.344802 0.745909
O O3 0.765169 0.329062 0.868169
O O4 0.755102 0.184030 0.791219
O O5 0.744489 0.500000 0.685029
O O6 0.735698 0.343898 0.624813
O O7 0.000000 0.393882 0.682997
O O8 0.500000 0.895354 0.404268
O O9 0.720766 0.883864 0.318709
O O10 0.780092 0.814908 0.424423
O O11 0.757708 0.000000 0.404992
O O12 0.500000 0.326135 0.064153
O O13 0.299139 0.188232 0.078613
O O14 0.234378 0.315084 0.000000
O O15 0.000000 0.105459 0.738045
O O16 0.758286 0.000000 0.767410
O O17 0.000000 0.113063 0.096320
O O18 0.750658 0.000000 0.093975
O O19 0.826290 0.091915 0.000000
O O20 0.266503 0.680889 0.500000
O O21 0.000000 0.688498 0.564395
#
# Coordination Sequence:
#
# PCOD9386027 Si02
#       7
#     8   8   8   8   8   8   8
#     4  11  22  36  58  85 113 148 189 235 287 341
#     4  10  22  41  64  88 114 146 186 233 286 345
#     4  10  20  34  54  82 118 159 200 240 282 327
#     4   9  19  34  50  72 104 141 181 225 275 333
#     4  10  20  34  54  80 112 152 196 240 285 334
#     4   8  14  25  41  63  94 133 177 222 266 315
#     4  10  21  37  59  88 121 157 194 232 278 333
#
# _framework density 21.405280000000001
#
# number of rings (size 3 to 8) (size 9 to 14) (size 15 to 20)
#    0.000    2.286    1.429    1.714    0.000    4.857 
#    0.000    7.143    0.000    0.429    0.000    5.000 
#    0.000    0.000    0.000    0.000    0.000    0.000 
#
# Total GULP energy -312319.924647 kJ/mol
# GULP energy per Si atom -5577.141512 kJ/mol
# Density = 2.135656 g / cm^3
# Si number density = 21.405280 Si / 1000 Ang^3
#
#
#
# Elastic Constant Matrix: (Units=GPa)
#
#
# Indices 1 2 3 4 5 6 
#
# 1 22.3115 3.7895 5.1641 0.0000 0.0000 0.0000
# 2 3.7895 73.1913 61.5259 0.0000 0.0000 0.0000
# 3 5.1641 61.5259 178.0832 0.0000 0.0000 0.0000
# 4 0.0000 0.0000 0.0000 -3.6606 0.0000 0.0000
# 5 0.0000 0.0000 0.0000 0.0000 19.8813 0.0000
# 6 0.0000 0.0000 0.0000 0.0000 0.0000 -20.7797
#
#
#
# Elastic Compliance Matrix: (Units=1/GPa)
#
#
# Indices 1 2 3 4 5 6 
#
# 1 0.045281 -0.001748 -0.000709 0.000000 0.000000 0.000000
# 2 -0.001748 0.019322 -0.006625 0.000000 0.000000 0.000000
# 3 -0.000709 -0.006625 0.007925 0.000000 0.000000 0.000000
# 4 0.000000 0.000000 0.000000 -0.273181 0.000000 0.000000
# 5 0.000000 0.000000 0.000000 0.000000 0.050299 0.000000
# 6 0.000000 0.000000 0.000000 0.000000 0.000000 -0.048124
#
#
# Mechanical properties :
#
#
# Convention : Reuss Voigt Hill
#
# Bulk Modulus (GPa) = 18.39474 46.06054 32.22764
# Shear Modulus (GPa) = -30.82763 12.62865 -9.09949
#
# Velocity S-wave (km/s) = -3.79910 2.43158 -2.06404
# Velocity P-wave (km/s) = 3.26067 5.42664 3.06729
#
# Compressibility (1/GPa) = 0.05436336
#
# Stress axis : x y z
#
# Youngs Moduli (GPa) = 22.08432 51.75335 126.18654
#
# Poissons Ratio (x) = 0.09049 0.08947
# Poissons Ratio (y) = 0.03861 0.83598
# Poissons Ratio (z) = 0.01566 0.34287
#
# Static dielectric constant tensor:
#      x y z
#    x 1.776560 0.000000 0.000000 
#    y 0.000000 1.765130 0.000000 
#    z 0.000000 0.000000 1.850630 
# 
# From -- ./inp_files/7337.got.cif
#   From: 2010.05.17/outbox.cif.g08.bks.cpg/sg47_4_cif.got.tgz:7337.got - 2010.06.03 20:15:42.
