data_PCOD9386313
_publ_section_title
;
Structure prediction by ZEFSAII (Michael W. Deem and Ramdas Pophale) SiO2 
 PCOD9386313
Probable space group: P M M M
;
_chemical_formula_sum "Si O2"
_cell_formula_units_Z 64
_cell_length_a 19.023899
_cell_length_b 20.920335
_cell_length_c 8.702968
_cell_angle_alpha 90.000000
_cell_angle_beta 90.000000
_cell_angle_gamma 90.000000
_cell_volume 3463.662382
_symmetry_space_group_name_H-M "P M M M"
_symmetry_group_IT_number 47
_symmetry_cell_setting 'orthorhombic'
loop_
_space_group_symop_operation_xyz
x,y,z
-x,-y,z
x,-y,-z
-x,y,-z
-x,-y,-z
x,y,-z
-x,y,z
x,-y,z
loop_
_atom_site_type_symbol
_atom_site_label
_atom_site_fract_x
_atom_site_fract_y
_atom_site_fract_z
Si Si1 0.332176 0.073147 0.314831
Si Si2 0.675495 0.690303 0.186325
Si Si3 0.580542 0.810772 0.185381
Si Si4 0.081595 0.810023 0.184031
Si Si5 0.831947 0.690937 0.682601
Si Si6 0.580454 0.427482 0.812870
Si Si7 0.082266 0.426381 0.184910
Si Si8 0.830687 0.926189 0.685219
O O1 0.336033 0.076249 0.500000
O O2 0.384025 0.124458 0.243696
O O3 0.250829 0.086725 0.272163
O O4 0.348051 0.000000 0.269128
O O5 0.628370 0.750887 0.233813
O O6 0.753346 0.694360 0.251820
O O7 0.635358 0.625902 0.237038
O O8 0.679332 0.689913 0.000000
O O9 0.500000 0.804378 0.238035
O O10 0.580006 0.811095 0.000000
O O11 0.123019 0.750108 0.253433
O O12 0.118622 0.875028 0.238672
O O13 0.000000 0.808656 0.231496
O O14 0.084710 0.805875 0.000000
O O15 0.830033 0.694331 0.500000
O O16 0.868906 0.625505 0.736256
O O17 0.500000 0.412542 0.766624
O O18 0.597130 0.500000 0.764127
O O19 0.580743 0.427142 0.000000
O O20 0.098911 0.500000 0.225801
O O21 0.000000 0.414976 0.222279
O O22 0.089085 0.420648 0.000000
O O23 0.835519 0.921061 0.500000
O O24 0.846436 0.000000 0.726161
#
# Coordination Sequence:
#
# PCOD9386313 Si02
#       8
#     8   8   8   8   8   8   8   8
#     4   9  19  36  56  78 105 138 176 216 260 316
#     4  10  20  35  55  78 107 143 181 223 271 321
#     4  10  21  35  52  77 107 138 176 225 276 321
#     4  11  24  40  58  81 110 144 184 230 276 325
#     4  12  25  38  55  81 113 147 184 228 275 325
#     4   8  14  27  51  82 110 137 175 221 264 309
#     4   9  19  38  63  87 111 142 181 224 270 323
#     4   9  19  37  60  85 114 147 182 222 269 323
#
# _framework density 18.477551999999999
#
# number of rings (size 3 to 8) (size 9 to 14) (size 15 to 20)
#    0.000    2.250    0.000    4.500    0.000    9.250 
#    0.000    5.625    0.000    1.125    0.000    0.875 
#    0.000    0.000    0.000    0.000    0.000    0.000 
#
# Total GULP energy -357389.849174 kJ/mol
# GULP energy per Si atom -5584.216393 kJ/mol
# Density = 1.843550 g / cm^3
# Si number density = 18.477552 Si / 1000 Ang^3
#
#
#
# Elastic Constant Matrix: (Units=GPa)
#
#
# Indices 1 2 3 4 5 6 
#
# 1 178.8786 131.3557 49.8601 0.0000 0.0000 0.0000
# 2 131.3557 151.8545 44.0154 0.0000 0.0000 0.0000
# 3 49.8601 44.0154 28.3322 0.0000 0.0000 0.0000
# 4 0.0000 0.0000 0.0000 49.7453 0.0000 0.0000
# 5 0.0000 0.0000 0.0000 0.0000 1.7103 0.0000
# 6 0.0000 0.0000 0.0000 0.0000 0.0000 41.7172
#
#
#
# Elastic Compliance Matrix: (Units=1/GPa)
#
#
# Indices 1 2 3 4 5 6 
#
# 1 0.017751 -0.011461 -0.013434 0.000000 0.000000 0.000000
# 2 -0.011461 0.019380 -0.009938 0.000000 0.000000 0.000000
# 3 -0.013434 -0.009938 0.074375 0.000000 0.000000 0.000000
# 4 0.000000 0.000000 0.000000 0.020102 0.000000 0.000000
# 5 0.000000 0.000000 0.000000 0.000000 0.584704 0.000000
# 6 0.000000 0.000000 0.000000 0.000000 0.000000 0.023971
#
#
# Mechanical properties :
#
#
# Convention : Reuss Voigt Hill
#
# Bulk Modulus (GPa) = 23.89984 89.94753 56.92369
# Shear Modulus (GPa) = 6.06873 27.55681 16.81277
#
# Velocity S-wave (km/s) = 1.81425 3.86601 3.01973
# Velocity P-wave (km/s) = 4.16549 8.28934 6.55989
#
# Compressibility (1/GPa) = 0.04184128
#
# Stress axis : x y z
#
# Youngs Moduli (GPa) = 56.33475 51.60076 13.44533
#
# Poissons Ratio (x) = 0.59140 0.18062
# Poissons Ratio (y) = 0.64565 0.13361
# Poissons Ratio (z) = 0.75679 0.51278
#
# Static dielectric constant tensor:
#      x y z
#    x 1.612620 0.000000 0.000000 
#    y 0.000000 1.621260 0.000000 
#    z 0.000000 0.000000 1.624530 
# 
# From -- ./inp_files/11556.got.cif
#   From: 2010.05.17/outbox.cif.g08.bks.cpg/sg47_6_cif.got.tgz:11556.got - 2010.06.03 20:15:42.
