data_PCOD9386696
_publ_section_title
;
Structure prediction by ZEFSAII (Michael W. Deem and Ramdas Pophale) SiO2 
 PCOD9386696
Probable space group: P M M M
;
_chemical_formula_sum "Si O2"
_cell_formula_units_Z 48
_cell_length_a 29.903350
_cell_length_b 8.092692
_cell_length_c 9.883157
_cell_angle_alpha 90.000000
_cell_angle_beta 90.000000
_cell_angle_gamma 90.000000
_cell_volume 2391.710171
_symmetry_space_group_name_H-M "P M M M"
_symmetry_group_IT_number 47
_symmetry_cell_setting 'orthorhombic'
loop_
_space_group_symop_operation_xyz
x,y,z
-x,-y,z
x,-y,-z
-x,y,-z
-x,-y,-z
x,y,-z
-x,y,z
x,-y,z
loop_
_atom_site_type_symbol
_atom_site_label
_atom_site_fract_x
_atom_site_fract_y
_atom_site_fract_z
Si Si1 0.052225 0.198624 0.500000
Si Si2 0.948172 0.703439 0.000000
Si Si3 0.448086 0.199729 0.152971
Si Si4 0.712221 0.196567 0.844421
Si Si5 0.369632 0.696286 0.655581
Si Si6 0.890306 0.695376 0.750421
Si Si7 0.206024 0.699176 0.344637
O O1 0.077441 0.276153 0.625573
O O2 0.000000 0.238144 0.500000
O O3 0.057130 0.000000 0.500000
O O4 0.918837 0.762667 0.125722
O O5 0.949519 0.500000 0.000000
O O6 0.000000 0.756793 0.000000
O O7 0.500000 0.247383 0.170898
O O8 0.416312 0.265710 0.270077
O O9 0.445962 0.000000 0.155480
O O10 0.434119 0.251637 0.000000
O O11 0.668620 0.236208 0.755047
O O12 0.754405 0.259355 0.758236
O O13 0.715804 0.000000 0.853537
O O14 0.710112 0.261332 0.000000
O O15 0.367480 0.759951 0.500000
O O16 0.363540 0.500000 0.648804
O O17 0.883978 0.500000 0.775652
O O18 0.841300 0.762943 0.713888
O O19 0.213310 0.758347 0.500000
O O20 0.203225 0.500000 0.352812
#
# Coordination Sequence:
#
# PCOD9386696 Si02
#       7
#     4   4   8   8   8   8   8
#     4  11  23  37  55  83 117 153 193 233 280 339
#     4   9  18  32  55  87 115 143 187 237 282 333
#     4   9  19  37  61  89 122 161 205 251 297 349
#     4  11  25  42  61  87 116 150 194 238 288 352
#     4  11  24  40  59  87 122 158 199 248 298 347
#     4  10  20  37  60  85 113 149 190 236 285 337
#     4  10  21  38  60  87 115 145 188 236 287 345
#
# _framework density 20.069322
#
# number of rings (size 3 to 8) (size 9 to 14) (size 15 to 20)
#    0.000    1.833    0.833    3.250    1.167   10.000 
#    0.000    2.917    0.000    1.500    0.000    0.000 
#    0.000    0.000    0.000    0.000    0.000    0.000 
#
# Total GULP energy -267931.033396 kJ/mol
# GULP energy per Si atom -5581.896529 kJ/mol
# Density = 2.002364 g / cm^3
# Si number density = 20.069322 Si / 1000 Ang^3
#
#
#
# Elastic Constant Matrix: (Units=GPa)
#
#
# Indices 1 2 3 4 5 6 
#
# 1 123.8306 2.9194 89.1626 0.0000 0.0000 0.0000
# 2 2.9194 12.6383 3.3977 0.0000 0.0000 0.0000
# 3 89.1626 3.3977 208.8662 0.0000 0.0000 0.0000
# 4 0.0000 0.0000 0.0000 27.4209 0.0000 0.0000
# 5 0.0000 0.0000 0.0000 0.0000 42.1318 0.0000
# 6 0.0000 0.0000 0.0000 0.0000 0.0000 21.0258
#
#
#
# Elastic Compliance Matrix: (Units=1/GPa)
#
#
# Indices 1 2 3 4 5 6 
#
# 1 0.011683 -0.001364 -0.004965 0.000000 0.000000 0.000000
# 2 -0.001364 0.079631 -0.000713 0.000000 0.000000 0.000000
# 3 -0.004965 -0.000713 0.006919 0.000000 0.000000 0.000000
# 4 0.000000 0.000000 0.000000 0.036469 0.000000 0.000000
# 5 0.000000 0.000000 0.000000 0.000000 0.023735 0.000000
# 6 0.000000 0.000000 0.000000 0.000000 0.000000 0.047561
#
#
# Mechanical properties :
#
#
# Convention : Reuss Voigt Hill
#
# Bulk Modulus (GPa) = 11.88373 59.58828 35.73601
# Shear Modulus (GPa) = 20.15068 34.77272 27.46170
#
# Velocity S-wave (km/s) = 3.17212 4.16700 3.70312
# Velocity P-wave (km/s) = 4.39894 7.27376 6.01075
#
# Compressibility (1/GPa) = 0.08414867
#
# Stress axis : x y z
#
# Youngs Moduli (GPa) = 85.59663 12.55790 144.53228
#
# Poissons Ratio (x) = 0.01713 0.71761
# Poissons Ratio (y) = 0.11674 0.10308
# Poissons Ratio (z) = 0.42499 0.00896
#
# Static dielectric constant tensor:
#      x y z
#    x 1.688620 0.000000 0.000000 
#    y 0.000000 1.723410 0.000000 
#    z 0.000000 0.000000 1.667350 
# 
# From -- ./inp_files/13985.got.cif
#   From: 2010.05.17/outbox.cif.g08.bks.cpg/sg47_7_cif.got.tgz:13985.got - 2010.06.03 20:15:42.
