data_PCOD9386246
_publ_section_title
;
Structure prediction by ZEFSAII (Michael W. Deem and Ramdas Pophale) SiO2 
 PCOD9386246
Probable space group: P M M M
;
_chemical_formula_sum "Si O2"
_cell_formula_units_Z 52
_cell_length_a 9.169273
_cell_length_b 23.543791
_cell_length_c 14.406384
_cell_angle_alpha 90.000000
_cell_angle_beta 90.000000
_cell_angle_gamma 90.000000
_cell_volume 3110.042213
_symmetry_space_group_name_H-M "P M M M"
_symmetry_group_IT_number 47
_symmetry_cell_setting 'orthorhombic'
loop_
_space_group_symop_operation_xyz
x,y,z
-x,-y,z
x,-y,-z
-x,y,-z
-x,-y,-z
x,y,-z
-x,y,z
x,-y,z
loop_
_atom_site_type_symbol
_atom_site_label
_atom_site_fract_x
_atom_site_fract_y
_atom_site_fract_z
Si Si1 0.174456 0.434166 0.891381
Si Si2 0.825058 0.837165 0.106086
Si Si3 0.825696 0.240840 0.720163
Si Si4 0.325289 0.857053 0.393264
Si Si5 0.324786 0.065390 0.779784
Si Si6 0.500000 0.566734 0.389953
Si Si7 0.665030 0.357609 0.742684
O O1 0.212087 0.500000 0.870695
O O2 0.258471 0.391464 0.825309
O O3 0.000000 0.428030 0.879270
O O4 0.206486 0.424128 0.000000
O O5 0.790180 0.787235 0.179255
O O6 0.749590 0.893817 0.145074
O O7 0.000000 0.844697 0.108692
O O8 0.782308 0.824998 0.000000
O O9 0.757074 0.198336 0.644680
O O10 0.756204 0.302782 0.714705
O O11 0.000000 0.242969 0.710765
O O12 0.288253 0.869553 0.500000
O O13 0.500000 0.847356 0.388074
O O14 0.290767 0.907690 0.321285
O O15 0.500000 0.067775 0.791122
O O16 0.278704 0.000000 0.786539
O O17 0.500000 0.500000 0.367684
O O18 0.500000 0.573756 0.500000
O O19 0.636457 0.598627 0.342021
O O20 0.500000 0.339863 0.769853
#
# Coordination Sequence:
#
# PCOD9386246 Si02
#       7
#     8   8   8   8   8   4   8
#     4   9  18  33  53  78 109 142 173 209 258 313
#     4   9  19  35  53  71  97 138 178 212 255 305
#     4  10  20  35  52  75 105 134 171 219 266 314
#     4   9  18  33  53  74 100 135 171 211 264 320
#     4   9  18  32  50  75 105 133 169 216 261 308
#     4   9  20  38  57  77 103 137 175 216 262 310
#     4  10  21  33  54  80 105 137 177 217 263 314
#
# _framework density 16.720030000000001
#
# number of rings (size 3 to 8) (size 9 to 14) (size 15 to 20)
#    0.462    2.231    0.000    1.846    0.000    3.692 
#    0.000    5.385    0.000    1.385    0.000    9.692 
#    0.000    0.000    0.000    0.000    0.000    0.000 
#
# Total GULP energy -289733.213230 kJ/mol
# GULP energy per Si atom -5571.792562 kJ/mol
# Density = 1.668197 g / cm^3
# Si number density = 16.720030 Si / 1000 Ang^3
#
#
#
# Elastic Constant Matrix: (Units=GPa)
#
#
# Indices 1 2 3 4 5 6 
#
# 1 23.5988 25.3258 14.6339 0.0000 0.0000 0.0000
# 2 25.3258 97.1896 24.7123 0.0000 0.0000 0.0000
# 3 14.6339 24.7123 69.5253 0.0000 0.0000 0.0000
# 4 0.0000 0.0000 0.0000 3.1889 0.0000 0.0000
# 5 0.0000 0.0000 0.0000 0.0000 23.8980 0.0000
# 6 0.0000 0.0000 0.0000 0.0000 0.0000 30.5547
#
#
#
# Elastic Compliance Matrix: (Units=1/GPa)
#
#
# Indices 1 2 3 4 5 6 
#
# 1 0.062745 -0.014283 -0.008130 0.000000 0.000000 0.000000
# 2 -0.014283 0.014563 -0.002170 0.000000 0.000000 0.000000
# 3 -0.008130 -0.002170 0.016866 0.000000 0.000000 0.000000
# 4 0.000000 0.000000 0.000000 0.313590 0.000000 0.000000
# 5 0.000000 0.000000 0.000000 0.000000 0.041845 0.000000
# 6 0.000000 0.000000 0.000000 0.000000 0.000000 0.032728
#
#
# Mechanical properties :
#
#
# Convention : Reuss Voigt Hill
#
# Bulk Modulus (GPa) = 22.21842 35.51752 28.86797
# Shear Modulus (GPa) = 9.14907 19.90442 14.52674
#
# Velocity S-wave (km/s) = 2.34175 3.45404 2.95078
# Velocity P-wave (km/s) = 4.54193 6.09884 5.37703
#
# Compressibility (1/GPa) = 0.04500770
#
# Stress axis : x y z
#
# Youngs Moduli (GPa) = 15.93757 68.66824 59.29169
#
# Poissons Ratio (x) = 0.98078 0.48204
# Poissons Ratio (y) = 0.22763 0.12866
# Poissons Ratio (z) = 0.12957 0.14901
#
# Static dielectric constant tensor:
#      x y z
#    x 1.555820 0.000000 0.000000 
#    y 0.000000 1.543640 0.000000 
#    z 0.000000 0.000000 1.551500 
# 
# From -- ./inp_files/21757.got.cif
#   From: 2010.05.17/outbox.cif.g08.bks.cpg/sg47_11_cif.got.tgz:21757.got - 2010.06.03 20:15:42.
