data_PCOD9386266
_publ_section_title
;
Structure prediction by ZEFSAII (Michael W. Deem and Ramdas Pophale) SiO2 
 PCOD9386266
Probable space group: P M M M
;
_chemical_formula_sum "Si O2"
_cell_formula_units_Z 52
_cell_length_a 15.587266
_cell_length_b 9.551942
_cell_length_c 19.633280
_cell_angle_alpha 90.000000
_cell_angle_beta 90.000000
_cell_angle_gamma 90.000000
_cell_volume 2923.172766
_symmetry_space_group_name_H-M "P M M M"
_symmetry_group_IT_number 47
_symmetry_cell_setting 'orthorhombic'
loop_
_space_group_symop_operation_xyz
x,y,z
-x,-y,z
x,-y,-z
-x,y,-z
-x,-y,-z
x,y,-z
-x,y,z
x,-y,z
loop_
_atom_site_type_symbol
_atom_site_label
_atom_site_fract_x
_atom_site_fract_y
_atom_site_fract_z
Si Si1 0.000000 0.832072 0.271275
Si Si2 0.000000 0.664223 0.129998
Si Si3 0.500000 0.330150 0.420359
Si Si4 0.704979 0.159103 0.183689
Si Si5 0.310746 0.334094 0.582032
Si Si6 0.396988 0.662668 0.923031
Si Si7 0.856398 0.152824 0.075543
Si Si8 0.192507 0.168342 0.680209
O O1 0.000000 0.747783 0.200997
O O2 0.908693 0.799348 0.307751
O O3 0.000000 0.000000 0.258460
O O4 0.918833 0.719564 0.088611
O O5 0.000000 0.500000 0.140661
O O6 0.500000 0.500000 0.418432
O O7 0.500000 0.289850 0.500000
O O8 0.593518 0.286937 0.392917
O O9 0.638947 0.253830 0.141716
O O10 0.784762 0.153347 0.132239
O O11 0.747938 0.207689 0.254477
O O12 0.671957 0.000000 0.193139
O O13 0.309051 0.319203 0.500000
O O14 0.301881 0.500000 0.596860
O O15 0.235749 0.247289 0.617300
O O16 0.500000 0.667090 0.921056
O O17 0.369941 0.500000 0.918200
O O18 0.372209 0.712914 0.000000
O O19 0.900841 0.000000 0.080699
O O20 0.819630 0.161403 0.000000
O O21 0.198004 0.000000 0.672936
#
# Coordination Sequence:
#
# PCOD9386266 Si02
#       8
#     4   4   4   8   8   8   8   8
#     4  10  20  41  62  73 102 151 192 223 270 334
#     4  12  23  33  50  76 105 133 170 224 275 320
#     4   7  12  28  55  83 111 147 182 205 242 311
#     4  10  20  35  55  78 103 136 182 229 273 320
#     4   9  18  35  60  88 118 149 181 219 263 318
#     4   9  19  36  55  75 104 143 183 225 278 336
#     4  10  20  35  54  73  99 138 178 217 267 326
#     4  10  21  37  59  82 107 143 186 232 275 323
#
# _framework density 17.788889999999999
#
# number of rings (size 3 to 8) (size 9 to 14) (size 15 to 20)
#    0.000    2.385    1.538    2.769    0.000    4.615 
#    1.385    1.538    0.000    3.692    0.000    0.000 
#    0.000    0.000    0.000    0.000    0.000    0.000 
#
# Total GULP energy -289530.405228 kJ/mol
# GULP energy per Si atom -5567.892408 kJ/mol
# Density = 1.774840 g / cm^3
# Si number density = 17.788890 Si / 1000 Ang^3
#
#
#
# Elastic Constant Matrix: (Units=GPa)
#
#
# Indices 1 2 3 4 5 6 
#
# 1 79.4621 37.7954 33.5332 0.0000 0.0000 0.0000
# 2 37.7954 46.9554 25.5668 0.0000 0.0000 0.0000
# 3 33.5332 25.5668 56.9443 0.0000 0.0000 0.0000
# 4 0.0000 0.0000 0.0000 29.5621 0.0000 0.0000
# 5 0.0000 0.0000 0.0000 0.0000 26.6400 0.0000
# 6 0.0000 0.0000 0.0000 0.0000 0.0000 33.2912
#
#
#
# Elastic Compliance Matrix: (Units=1/GPa)
#
#
# Indices 1 2 3 4 5 6 
#
# 1 0.022154 -0.014200 -0.006670 0.000000 0.000000 0.000000
# 2 -0.014200 0.037290 -0.008380 0.000000 0.000000 0.000000
# 3 -0.006670 -0.008380 0.025252 0.000000 0.000000 0.000000
# 4 0.000000 0.000000 0.000000 0.033827 0.000000 0.000000
# 5 0.000000 0.000000 0.000000 0.000000 0.037538 0.000000
# 6 0.000000 0.000000 0.000000 0.000000 0.000000 0.030038
#
#
# Mechanical properties :
#
#
# Convention : Reuss Voigt Hill
#
# Bulk Modulus (GPa) = 38.17691 41.90584 40.04138
# Shear Modulus (GPa) = 19.73715 23.66309 21.70012
#
# Velocity S-wave (km/s) = 3.33456 3.65117 3.49645
# Velocity P-wave (km/s) = 6.02772 6.43298 6.23364
#
# Compressibility (1/GPa) = 0.02619384
#
# Stress axis : x y z
#
# Youngs Moduli (GPa) = 45.13953 26.81711 39.60157
#
# Poissons Ratio (x) = 0.38080 0.26415
# Poissons Ratio (y) = 0.64098 0.33187
# Poissons Ratio (z) = 0.30109 0.22473
#
# Static dielectric constant tensor:
#      x y z
#    x 1.634900 0.000000 0.000000 
#    y 0.000000 1.617190 0.000000 
#    z 0.000000 0.000000 1.596910 
# 
# From -- ./inp_files/30937.got.cif
#   From: 2010.05.17/outbox.cif.g08.bks.cpg/sg47_16_cif.got.tgz:30937.got - 2010.06.03 20:15:42.
