data_PCOD9386312
_publ_section_title
;
Structure prediction by ZEFSAII (Michael W. Deem and Ramdas Pophale) SiO2 
 PCOD9386312
Probable space group: P M M M
;
_chemical_formula_sum "Si O2"
_cell_formula_units_Z 52
_cell_length_a 27.869748
_cell_length_b 8.611182
_cell_length_c 12.471374
_cell_angle_alpha 90.000000
_cell_angle_beta 90.000000
_cell_angle_gamma 90.000000
_cell_volume 2993.023408
_symmetry_space_group_name_H-M "P M M M"
_symmetry_group_IT_number 47
_symmetry_cell_setting 'orthorhombic'
loop_
_space_group_symop_operation_xyz
x,y,z
-x,-y,z
x,-y,-z
-x,y,-z
-x,-y,-z
x,y,-z
-x,y,z
x,-y,z
loop_
_atom_site_type_symbol
_atom_site_label
_atom_site_fract_x
_atom_site_fract_y
_atom_site_fract_z
Si Si1 0.325756 0.814754 0.124409
Si Si2 0.943844 0.686833 0.000000
Si Si3 0.052783 0.188979 0.622394
Si Si4 0.120794 0.186683 0.193189
Si Si5 0.500000 0.813360 0.125182
Si Si6 0.221740 0.680807 0.871804
Si Si7 0.443904 0.311049 0.500000
Si Si8 0.411472 0.686376 0.736291
O O1 0.271151 0.769210 0.151524
O O2 0.362377 0.739815 0.208017
O O3 0.331413 0.000000 0.126805
O O4 0.334874 0.763376 0.000000
O O5 0.914526 0.750938 0.101210
O O6 0.941975 0.500000 0.000000
O O7 0.000000 0.734301 0.000000
O O8 0.057481 0.240148 0.500000
O O9 0.096006 0.238565 0.696698
O O10 0.000000 0.237539 0.663243
O O11 0.052717 0.000000 0.622217
O O12 0.174262 0.249863 0.180540
O O13 0.121974 0.000000 0.187070
O O14 0.546100 0.752193 0.189203
O O15 0.500000 0.000000 0.126577
O O16 0.500000 0.763842 0.000000
O O17 0.227299 0.500000 0.844256
O O18 0.214146 0.692063 0.000000
O O19 0.443404 0.500000 0.500000
O O20 0.500000 0.263330 0.500000
O O21 0.419543 0.261668 0.387604
O O22 0.414190 0.500000 0.737030
#
# Coordination Sequence:
#
# PCOD9386312 Si02
#       8
#     8   4   8   8   4   8   4   8
#     4  10  21  37  57  82 113 142 176 224 275 320
#     4  11  23  35  47  71 111 151 181 216 267 324
#     4   8  15  29  49  74 103 134 170 214 264 315
#     4  11  20  31  53  80 106 137 177 222 269 320
#     4  11  23  36  51  78 118 153 182 223 274 319
#     4  10  20  35  55  78 107 143 181 217 264 325
#     4   9  18  36  58  82 112 148 186 226 267 316
#     4  11  21  36  59  83 110 146 187 226 270 324
#
# _framework density 17.373736999999998
#
# number of rings (size 3 to 8) (size 9 to 14) (size 15 to 20)
#    0.000    1.923    1.538    3.692    0.000    5.231 
#    0.000    1.923    1.692    1.846    0.000    5.385 
#    0.000    0.000    0.000    0.000    0.000    0.000 
#
# Total GULP energy -290179.291190 kJ/mol
# GULP energy per Si atom -5580.370984 kJ/mol
# Density = 1.733419 g / cm^3
# Si number density = 17.373737 Si / 1000 Ang^3
#
#
#
# Elastic Constant Matrix: (Units=GPa)
#
#
# Indices 1 2 3 4 5 6 
#
# 1 135.9292 25.7087 80.7466 0.0000 0.0000 0.0000
# 2 25.7087 41.1244 28.8736 0.0000 0.0000 0.0000
# 3 80.7466 28.8736 121.3549 0.0000 0.0000 0.0000
# 4 0.0000 0.0000 0.0000 8.9068 0.0000 0.0000
# 5 0.0000 0.0000 0.0000 0.0000 52.4722 0.0000
# 6 0.0000 0.0000 0.0000 0.0000 0.0000 32.0169
#
#
#
# Elastic Compliance Matrix: (Units=1/GPa)
#
#
# Indices 1 2 3 4 5 6 
#
# 1 0.012350 -0.002342 -0.007660 0.000000 0.000000 0.000000
# 2 -0.002342 0.029637 -0.005493 0.000000 0.000000 0.000000
# 3 -0.007660 -0.005493 0.014644 0.000000 0.000000 0.000000
# 4 0.000000 0.000000 0.000000 0.112274 0.000000 0.000000
# 5 0.000000 0.000000 0.000000 0.000000 0.019058 0.000000
# 6 0.000000 0.000000 0.000000 0.000000 0.000000 0.031234
#
#
# Mechanical properties :
#
#
# Convention : Reuss Voigt Hill
#
# Bulk Modulus (GPa) = 39.00062 63.22960 51.11511
# Shear Modulus (GPa) = 19.32481 29.55114 24.43798
#
# Velocity S-wave (km/s) = 3.33873 4.12868 3.75454
# Velocity P-wave (km/s) = 6.11225 7.69421 6.94840
#
# Compressibility (1/GPa) = 0.02564062
#
# Stress axis : x y z
#
# Youngs Moduli (GPa) = 80.97010 33.74111 68.28669
#
# Poissons Ratio (x) = 0.07904 0.52309
# Poissons Ratio (y) = 0.18967 0.37510
# Poissons Ratio (z) = 0.62025 0.18534
#
# Static dielectric constant tensor:
#      x y z
#    x 1.575830 0.000000 0.000000 
#    y 0.000000 1.594020 0.000000 
#    z 0.000000 0.000000 1.593040 
# 
# From -- ./inp_files/19894.got.cif
#   From: 2010.05.17/outbox.cif.g08.bks.cpg/sg47_10_cif.got.tgz:19894.got - 2010.06.03 20:15:42.
