data_PCOD9386909
_publ_section_title
;
Structure prediction by ZEFSAII (Michael W. Deem and Ramdas Pophale) SiO2 
 PCOD9386909
Probable space group: P M M M
;
_chemical_formula_sum "Si O2"
_cell_formula_units_Z 36
_cell_length_a 24.802495
_cell_length_b 9.750015
_cell_length_c 7.677387
_cell_angle_alpha 90.000000
_cell_angle_beta 90.000000
_cell_angle_gamma 90.000000
_cell_volume 1856.581795
_symmetry_space_group_name_H-M "P M M M"
_symmetry_group_IT_number 47
_symmetry_cell_setting 'orthorhombic'
loop_
_space_group_symop_operation_xyz
x,y,z
-x,-y,z
x,-y,-z
-x,y,-z
-x,-y,-z
x,y,-z
-x,y,z
x,-y,z
loop_
_atom_site_type_symbol
_atom_site_label
_atom_site_fract_x
_atom_site_fract_y
_atom_site_fract_z
Si Si1 0.439100 0.844610 0.709956
Si Si2 0.339102 0.345780 0.207941
Si Si3 0.935410 0.339600 0.000000
Si Si4 0.118226 0.161172 0.700586
Si Si5 0.757964 0.843408 0.211361
O O1 0.440107 0.847550 0.500000
O O2 0.500000 0.810548 0.768997
O O3 0.393769 0.737981 0.762635
O O4 0.426357 0.000000 0.770005
O O5 0.341828 0.500000 0.278292
O O6 0.287947 0.259766 0.274483
O O7 0.331868 0.354571 0.000000
O O8 0.912235 0.260262 0.832452
O O9 0.919347 0.500000 0.000000
O O10 0.000000 0.332580 0.000000
O O11 0.102044 0.181236 0.500000
O O12 0.182420 0.185590 0.718548
O O13 0.109465 0.000000 0.746135
O O14 0.743476 0.000000 0.258416
O O15 0.761177 0.837189 0.000000
#
# Coordination Sequence:
#
# PCOD9386909 Si02
#       5
#     8   8   4   8   8
#     4   9  19  36  55  73  96 132 181 234 284 335
#     4  10  21  34  50  78 113 145 179 222 275 337
#     4  11  25  43  63  89 127 171 206 245 298 355
#     4  10  21  39  65  95 123 156 204 257 305 354
#     4   9  17  33  56  81 113 150 188 233 287 344
#
# _framework density 19.390471000000002
#
# number of rings (size 3 to 8) (size 9 to 14) (size 15 to 20)
#    0.000    2.333    1.111    1.667    0.000    6.222 
#    0.000    7.778    0.000    0.000    0.000    0.000 
#    0.000    0.000    0.000    0.000    0.000    0.000 
#
# Total GULP energy -201023.682434 kJ/mol
# GULP energy per Si atom -5583.991179 kJ/mol
# Density = 1.934634 g / cm^3
# Si number density = 19.390471 Si / 1000 Ang^3
#
#
#
# Elastic Constant Matrix: (Units=GPa)
#
#
# Indices 1 2 3 4 5 6 
#
# 1 100.5052 105.8780 38.0123 0.0000 0.0000 0.0000
# 2 105.8780 164.2037 59.5371 0.0000 0.0000 0.0000
# 3 38.0123 59.5371 70.1078 0.0000 0.0000 0.0000
# 4 0.0000 0.0000 0.0000 14.0415 0.0000 0.0000
# 5 0.0000 0.0000 0.0000 0.0000 68.0466 0.0000
# 6 0.0000 0.0000 0.0000 0.0000 0.0000 267.3052
#
#
#
# Elastic Compliance Matrix: (Units=1/GPa)
#
#
# Indices 1 2 3 4 5 6 
#
# 1 0.031025 -0.020092 0.000241 0.000000 0.000000 0.000000
# 2 -0.020092 0.021811 -0.007629 0.000000 0.000000 0.000000
# 3 0.000241 -0.007629 0.020612 0.000000 0.000000 0.000000
# 4 0.000000 0.000000 0.000000 0.071217 0.000000 0.000000
# 5 0.000000 0.000000 0.000000 0.000000 0.014696 0.000000
# 6 0.000000 0.000000 0.000000 0.000000 0.000000 0.003741
#
#
# Mechanical properties :
#
#
# Convention : Reuss Voigt Hill
#
# Bulk Modulus (GPa) = 54.08891 82.40795 68.24843
# Shear Modulus (GPa) = 22.29913 78.63793 50.46853
#
# Velocity S-wave (km/s) = 3.39485 6.37518 5.10725
# Velocity P-wave (km/s) = 6.58193 9.83779 8.36971
#
# Compressibility (1/GPa) = 0.01848808
#
# Stress axis : x y z
#
# Youngs Moduli (GPa) = 32.23245 45.84779 48.51639
#
# Poissons Ratio (x) = 0.92117 -0.01170
# Poissons Ratio (y) = 0.64761 0.37012
# Poissons Ratio (z) = -0.00777 0.34976
#
# Static dielectric constant tensor:
#      x y z
#    x 1.646360 0.000000 0.000000 
#    y 0.000000 1.666800 0.000000 
#    z 0.000000 0.000000 1.708550 
# 
# From -- ./inp_files/12050.got.cif
#   From: 2010.05.17/outbox.cif.g08.bks.cpg/sg47_7_cif.got.tgz:12050.got - 2010.06.03 20:15:42.
