data_PCOD9386752
_publ_section_title
;
Structure prediction by ZEFSAII (Michael W. Deem and Ramdas Pophale) SiO2 
 PCOD9386752
Probable space group: P M M M
;
_chemical_formula_sum "Si O2"
_cell_formula_units_Z 48
_cell_length_a 18.098923
_cell_length_b 9.089118
_cell_length_c 15.696224
_cell_angle_alpha 90.000000
_cell_angle_beta 90.000000
_cell_angle_gamma 90.000000
_cell_volume 2582.079811
_symmetry_space_group_name_H-M "P M M M"
_symmetry_group_IT_number 47
_symmetry_cell_setting 'orthorhombic'
loop_
_space_group_symop_operation_xyz
x,y,z
-x,-y,z
x,-y,-z
-x,y,-z
-x,-y,-z
x,y,-z
-x,y,z
x,-y,z
loop_
_atom_site_type_symbol
_atom_site_label
_atom_site_fract_x
_atom_site_fract_y
_atom_site_fract_z
Si Si1 0.849427 0.325502 0.338116
Si Si2 0.416639 0.176998 0.263016
Si Si3 0.084786 0.175609 0.000000
Si Si4 0.816065 0.326381 0.861184
Si Si5 0.645830 0.676907 0.903152
Si Si6 0.000000 0.173271 0.397685
Si Si7 0.703211 0.176513 0.596237
O O1 0.853833 0.500000 0.354425
O O2 0.830906 0.303209 0.238380
O O3 0.926412 0.249512 0.361842
O O4 0.781382 0.254447 0.388825
O O5 0.500000 0.214501 0.290113
O O6 0.399841 0.246960 0.171404
O O7 0.355717 0.224713 0.332369
O O8 0.411763 0.000000 0.256172
O O9 0.127409 0.236414 0.081876
O O10 0.000000 0.225378 0.000000
O O11 0.086538 0.000000 0.000000
O O12 0.825138 0.500000 0.879676
O O13 0.732084 0.287451 0.885909
O O14 0.638125 0.500000 0.896700
O O15 0.626351 0.720048 0.000000
O O16 0.000000 0.187644 0.500000
O O17 0.000000 0.000000 0.376503
O O18 0.676796 0.205615 0.500000
O O19 0.713260 0.000000 0.604584
#
# Coordination Sequence:
#
# PCOD9386752 Si02
#       7
#     8   8   4   8   8   4   8
#     4  11  23  39  62  90 118 152 198 248 296 348
#     4  10  22  39  59  87 122 157 196 245 298 353
#     4  11  25  39  55  87 122 153 194 241 291 346
#     4  10  21  39  60  83 113 153 196 239 289 346
#     4  10  20  38  62  86 114 151 195 239 289 351
#     4  11  25  43  61  84 119 158 193 237 294 353
#     4  10  21  38  61  88 119 158 201 244 297 358
#
# _framework density 18.589663999999999
#
# number of rings (size 3 to 8) (size 9 to 14) (size 15 to 20)
#    0.000    1.667    2.500    1.500    1.167    7.000 
#    0.000    3.333    0.000    0.000    0.000    2.333 
#    0.000    0.000    0.000    0.000    0.000    0.000 
#
# Total GULP energy -268181.655949 kJ/mol
# GULP energy per Si atom -5587.117832 kJ/mol
# Density = 1.854735 g / cm^3
# Si number density = 18.589664 Si / 1000 Ang^3
#
#
#
# Elastic Constant Matrix: (Units=GPa)
#
#
# Indices 1 2 3 4 5 6 
#
# 1 112.1377 31.9603 48.8388 0.0000 0.0000 0.0000
# 2 31.9603 31.2627 40.9323 0.0000 0.0000 0.0000
# 3 48.8388 40.9323 107.8197 0.0000 0.0000 0.0000
# 4 0.0000 0.0000 0.0000 32.2081 0.0000 0.0000
# 5 0.0000 0.0000 0.0000 0.0000 11.1053 0.0000
# 6 0.0000 0.0000 0.0000 0.0000 0.0000 14.1299
#
#
#
# Elastic Compliance Matrix: (Units=1/GPa)
#
#
# Indices 1 2 3 4 5 6 
#
# 1 0.012729 -0.010864 -0.001641 0.000000 0.000000 0.000000
# 2 -0.010864 0.072872 -0.022744 0.000000 0.000000 0.000000
# 3 -0.001641 -0.022744 0.018653 0.000000 0.000000 0.000000
# 4 0.000000 0.000000 0.000000 0.031048 0.000000 0.000000
# 5 0.000000 0.000000 0.000000 0.000000 0.090047 0.000000
# 6 0.000000 0.000000 0.000000 0.000000 0.000000 0.070772
#
#
# Mechanical properties :
#
#
# Convention : Reuss Voigt Hill
#
# Bulk Modulus (GPa) = 29.62511 54.96479 42.29495
# Shear Modulus (GPa) = 13.23208 20.12124 16.67666
#
# Velocity S-wave (km/s) = 2.67085 3.29354 2.99840
# Velocity P-wave (km/s) = 5.04799 6.64039 5.89817
#
# Compressibility (1/GPa) = 0.03375515
#
# Stress axis : x y z
#
# Youngs Moduli (GPa) = 78.56229 13.72276 53.61153
#
# Poissons Ratio (x) = 0.14908 0.08800
# Poissons Ratio (y) = 0.85347 1.21934
# Poissons Ratio (z) = 0.12896 0.31211
#
# Static dielectric constant tensor:
#      x y z
#    x 1.615650 0.000000 0.000000 
#    y 0.000000 1.621870 0.000000 
#    z 0.000000 0.000000 1.632120 
# 
# From -- ./inp_files/24485.got.cif
#   From: 2010.05.17/outbox.cif.g08.bks.cpg/sg47_13_cif.got.tgz:24485.got - 2010.06.03 20:15:42.
