data_PCOD9386576
_publ_section_title
;
Structure prediction by ZEFSAII (Michael W. Deem and Ramdas Pophale) SiO2 
 PCOD9386576
Probable space group: P M M M
;
_chemical_formula_sum "Si O2"
_cell_formula_units_Z 48
_cell_length_a 16.566873
_cell_length_b 9.068838
_cell_length_c 17.343282
_cell_angle_alpha 90.000000
_cell_angle_beta 90.000000
_cell_angle_gamma 90.000000
_cell_volume 2605.694359
_symmetry_space_group_name_H-M "P M M M"
_symmetry_group_IT_number 47
_symmetry_cell_setting 'orthorhombic'
loop_
_space_group_symop_operation_xyz
x,y,z
-x,-y,z
x,-y,-z
-x,y,-z
-x,-y,-z
x,y,-z
-x,y,z
x,-y,z
loop_
_atom_site_type_symbol
_atom_site_label
_atom_site_fract_x
_atom_site_fract_y
_atom_site_fract_z
Si Si1 0.175799 0.824035 0.642336
Si Si2 0.500000 0.324231 0.908432
Si Si3 0.162673 0.177796 0.821951
Si Si4 0.657372 0.670229 0.653638
Si Si5 0.095598 0.666152 0.500000
Si Si6 0.000000 0.820321 0.089242
Si Si7 0.331502 0.328897 0.161341
Si Si8 0.500000 0.169409 0.592146
O O1 0.154160 0.783598 0.730958
O O2 0.265725 0.764439 0.628608
O O3 0.122209 0.750153 0.577003
O O4 0.172375 0.000000 0.636120
O O5 0.500000 0.500000 0.889064
O O6 0.585589 0.267090 0.875553
O O7 0.500000 0.307831 0.000000
O O8 0.082462 0.225838 0.867741
O O9 0.246918 0.245490 0.852557
O O10 0.168576 0.000000 0.826670
O O11 0.664564 0.500000 0.629205
O O12 0.655519 0.672980 0.746603
O O13 0.577767 0.744713 0.621658
O O14 0.129813 0.500000 0.500000
O O15 0.000000 0.657563 0.500000
O O16 0.000000 0.000000 0.090879
O O17 0.000000 0.774164 0.000000
O O18 0.322292 0.500000 0.136519
O O19 0.500000 0.167968 0.500000
O O20 0.500000 0.000000 0.619841
#
# Coordination Sequence:
#
# PCOD9386576 Si02
#       8
#     8   4   8   8   4   4   8   4
#     4  10  21  37  59  83 111 145 186 234 280 328
#     4   9  17  30  51  79 110 145 182 222 272 330
#     4   9  19  35  57  83 110 145 189 230 276 332
#     4  10  20  36  57  78 106 144 187 228 274 330
#     4  11  25  41  57  82 113 144 183 227 279 339
#     4   9  18  34  57  84 115 150 186 227 275 331
#     4   9  18  34  55  79 107 141 182 226 273 327
#     4  11  24  37  51  75 108 141 182 230 276 322
#
# _framework density 18.421192000000001
#
# number of rings (size 3 to 8) (size 9 to 14) (size 15 to 20)
#    0.000    2.333    0.000    2.000    2.333    4.667 
#    0.000    0.833    0.000    1.000    0.000    0.000 
#    0.000    0.000    0.000    0.000    0.000    0.000 
#
# Total GULP energy -267776.967740 kJ/mol
# GULP energy per Si atom -5578.686828 kJ/mol
# Density = 1.837926 g / cm^3
# Si number density = 18.421192 Si / 1000 Ang^3
#
#
#
# Elastic Constant Matrix: (Units=GPa)
#
#
# Indices 1 2 3 4 5 6 
#
# 1 174.8696 45.0070 81.5435 0.0000 0.0000 0.0000
# 2 45.0070 56.9602 38.1215 0.0000 0.0000 0.0000
# 3 81.5435 38.1215 61.7659 0.0000 0.0000 0.0000
# 4 0.0000 0.0000 0.0000 15.1211 0.0000 0.0000
# 5 0.0000 0.0000 0.0000 0.0000 17.9952 0.0000
# 6 0.0000 0.0000 0.0000 0.0000 0.0000 30.0773
#
#
#
# Elastic Compliance Matrix: (Units=1/GPa)
#
#
# Indices 1 2 3 4 5 6 
#
# 1 0.015067 0.002398 -0.021372 0.000000 0.000000 0.000000
# 2 0.002398 0.030293 -0.021863 0.000000 0.000000 0.000000
# 3 -0.021372 -0.021863 0.057899 0.000000 0.000000 0.000000
# 4 0.000000 0.000000 0.000000 0.066133 0.000000 0.000000
# 5 0.000000 0.000000 0.000000 0.000000 0.055570 0.000000
# 6 0.000000 0.000000 0.000000 0.000000 0.000000 0.033248
#
#
# Mechanical properties :
#
#
# Convention : Reuss Voigt Hill
#
# Bulk Modulus (GPa) = 46.32568 69.21554 57.77061
# Shear Modulus (GPa) = 14.40591 21.23363 17.81977
#
# Velocity S-wave (km/s) = 2.79951 3.39879 3.11360
# Velocity P-wave (km/s) = 5.97096 7.28408 6.65996
#
# Compressibility (1/GPa) = 0.02158630
#
# Stress axis : x y z
#
# Youngs Moduli (GPa) = 66.36872 33.01057 17.27138
#
# Poissons Ratio (x) = -0.07916 0.36913
# Poissons Ratio (y) = -0.15916 0.37760
# Poissons Ratio (z) = 1.41844 0.72171
#
# Static dielectric constant tensor:
#      x y z
#    x 1.745750 0.000000 0.000000 
#    y 0.000000 1.630920 0.000000 
#    z 0.000000 0.000000 1.621530 
# 
# From -- ./inp_files/21183.got.cif
#   From: 2010.05.17/outbox.cif.g08.bks.cpg/sg47_11_cif.got.tgz:21183.got - 2010.06.03 20:15:42.
