data_PCOD9386044
_publ_section_title
;
Structure prediction by ZEFSAII (Michael W. Deem and Ramdas Pophale) SiO2 
 PCOD9386044
Probable space group: P M M M
;
_chemical_formula_sum "Si O2"
_cell_formula_units_Z 48
_cell_length_a 9.243975
_cell_length_b 31.797487
_cell_length_c 9.134245
_cell_angle_alpha 90.000000
_cell_angle_beta 90.000000
_cell_angle_gamma 90.000000
_cell_volume 2684.875902
_symmetry_space_group_name_H-M "P M M M"
_symmetry_group_IT_number 47
_symmetry_cell_setting 'orthorhombic'
loop_
_space_group_symop_operation_xyz
x,y,z
-x,-y,z
x,-y,-z
-x,y,-z
-x,-y,-z
x,y,-z
-x,y,z
x,-y,z
loop_
_atom_site_type_symbol
_atom_site_label
_atom_site_fract_x
_atom_site_fract_y
_atom_site_fract_z
Si Si1 0.829859 0.249252 0.675419
Si Si2 0.175931 0.500000 0.668458
Si Si3 0.671345 0.171669 0.825709
Si Si4 0.827341 0.586149 0.173910
Si Si5 0.329172 0.335885 0.675241
Si Si6 0.672166 0.915467 0.326099
Si Si7 0.166621 0.000000 0.321596
O O1 0.813433 0.243935 0.500000
O O2 0.759738 0.209592 0.755132
O O3 0.748226 0.292240 0.716827
O O4 0.000000 0.252753 0.708044
O O5 0.223984 0.500000 0.500000
O O6 0.220124 0.542509 0.750859
O O7 0.000000 0.500000 0.669168
O O8 0.500000 0.177363 0.793060
O O9 0.715380 0.126831 0.757583
O O10 0.689295 0.171077 0.000000
O O11 0.743387 0.625245 0.242467
O O12 0.000000 0.591303 0.200654
O O13 0.805617 0.583763 0.000000
O O14 0.309824 0.341442 0.500000
O O15 0.500000 0.333490 0.705348
O O16 0.698952 0.909795 0.500000
O O17 0.500000 0.921573 0.306942
O O18 0.753822 0.957332 0.274986
O O19 0.172063 0.000000 0.500000
O O20 0.000000 0.000000 0.276773
#
# Coordination Sequence:
#
# PCOD9386044 Si02
#       7
#     8   4   8   8   8   8   4
#     4  10  21  37  58  82 106 136 176 220 265 314
#     4   9  17  31  54  81 108 141 180 222 266 311
#     4  10  21  36  54  78 108 141 176 215 262 315
#     4  10  20  34  54  81 112 144 178 217 263 316
#     4  10  21  37  57  80 106 138 177 220 265 313
#     4   9  17  31  52  75 100 133 172 212 256 308
#     4   9  17  29  48  75 102 128 166 217 264 305
#
# _framework density 17.877921000000001
#
# number of rings (size 3 to 8) (size 9 to 14) (size 15 to 20)
#    0.000    2.333    0.000    2.500    0.000    7.333 
#    0.000    2.500    0.000    5.000    0.000    0.000 
#    0.000    0.000    0.000    0.000    0.000    0.000 
#
# Total GULP energy -267967.803156 kJ/mol
# GULP energy per Si atom -5582.662566 kJ/mol
# Density = 1.783723 g / cm^3
# Si number density = 17.877921 Si / 1000 Ang^3
#
#
#
# Elastic Constant Matrix: (Units=GPa)
#
#
# Indices 1 2 3 4 5 6 
#
# 1 85.3413 104.9006 64.7001 0.0000 0.0000 0.0000
# 2 104.9006 224.8634 87.4838 0.0000 0.0000 0.0000
# 3 64.7001 87.4838 57.6613 0.0000 0.0000 0.0000
# 4 0.0000 0.0000 0.0000 -18.0040 0.0000 0.0000
# 5 0.0000 0.0000 0.0000 0.0000 22.1413 0.0000
# 6 0.0000 0.0000 0.0000 0.0000 0.0000 36.2374
#
#
#
# Elastic Compliance Matrix: (Units=1/GPa)
#
#
# Indices 1 2 3 4 5 6 
#
# 1 0.081629 -0.005969 -0.082537 0.000000 0.000000 0.000000
# 2 -0.005969 0.011290 -0.010432 0.000000 0.000000 0.000000
# 3 -0.082537 -0.010432 0.125782 0.000000 0.000000 0.000000
# 4 0.000000 0.000000 0.000000 -0.055543 0.000000 0.000000
# 5 0.000000 0.000000 0.000000 0.000000 0.045164 0.000000
# 6 0.000000 0.000000 0.000000 0.000000 0.000000 0.027596
#
#
# Mechanical properties :
#
#
# Convention : Reuss Voigt Hill
#
# Bulk Modulus (GPa) = 48.01820 98.00388 73.01104
# Shear Modulus (GPa) = 11.34463 15.46037 13.40250
#
# Velocity S-wave (km/s) = 2.52178 2.94389 2.74098
# Velocity P-wave (km/s) = 5.94949 8.15431 7.13755
#
# Compressibility (1/GPa) = 0.02082544
#
# Stress axis : x y z
#
# Youngs Moduli (GPa) = 12.25049 88.57063 7.95026
#
# Poissons Ratio (x) = 0.52872 0.65619
# Poissons Ratio (y) = 0.07313 0.08293
# Poissons Ratio (z) = 1.01112 0.92394
#
# Static dielectric constant tensor:
#      x y z
#    x 1.599190 0.000000 0.000000 
#    y 0.000000 1.577050 0.000000 
#    z 0.000000 0.000000 1.593310 
# 
# From -- ./inp_files/2636.got.cif
#   From: 2010.05.17/outbox.cif.g08.bks.cpg/sg47_2_cif.got.tgz:2636.got - 2010.06.03 20:15:42.
