data_PCOD9386494
_publ_section_title
;
Structure prediction by ZEFSAII (Michael W. Deem and Ramdas Pophale) SiO2 
 PCOD9386494
Probable space group: P M M M
;
_chemical_formula_sum "Si O2"
_cell_formula_units_Z 37
_cell_length_a 13.810980
_cell_length_b 7.483818
_cell_length_c 17.411710
_cell_angle_alpha 90.000000
_cell_angle_beta 90.000000
_cell_angle_gamma 90.000000
_cell_volume 1799.654509
_symmetry_space_group_name_H-M "P M M M"
_symmetry_group_IT_number 47
_symmetry_cell_setting 'orthorhombic'
loop_
_space_group_symop_operation_xyz
x,y,z
-x,-y,z
x,-y,-z
-x,y,-z
-x,-y,-z
x,y,-z
-x,y,z
x,-y,z
loop_
_atom_site_type_symbol
_atom_site_label
_atom_site_fract_x
_atom_site_fract_y
_atom_site_fract_z
Si Si1 0.798286 0.785102 0.676183
Si Si2 0.000000 0.288946 0.587771
Si Si3 0.500000 0.500000 0.000000
Si Si4 0.793485 0.795500 0.151919
Si Si5 0.000000 0.284941 0.910805
Si Si6 0.606220 0.217575 0.410704
Si Si7 0.322560 0.220565 0.000000
O O1 0.788948 0.713745 0.763166
O O2 0.703789 0.720016 0.630229
O O3 0.901311 0.753069 0.634521
O O4 0.791891 0.000000 0.679783
O O5 0.000000 0.500000 0.579996
O O6 0.000000 0.213090 0.500000
O O7 0.416902 0.659036 0.000000
O O8 0.905110 0.788164 0.128941
O O9 0.736007 0.727773 0.077563
O O10 0.760358 0.000000 0.159893
O O11 0.000000 0.500000 0.905692
O O12 0.000000 0.234335 0.000000
O O13 0.610251 0.268236 0.500000
O O14 0.500000 0.273718 0.379800
O O15 0.606934 0.000000 0.407855
O O16 0.334969 0.000000 0.000000
#
# Coordination Sequence:
#
# PCOD9386494 Si02
#       7
#     8   4   1   8   4   8   4
#     4  10  20  35  57  86 114 150 198 246 293 356
#     4  11  24  39  54  79 119 164 200 241 308 373
#     4  12  26  44  72  88 120 168 224 264 312 396
#     4  10  21  37  58  86 122 156 194 247 312 370
#     4  11  22  33  56  84 110 145 192 238 290 359
#     4   8  14  27  50  80 109 136 176 234 291 340
#     4  10  23  44  66  93 126 165 211 265 318 370
#
# _framework density 20.559501999999998
#
# number of rings (size 3 to 8) (size 9 to 14) (size 15 to 20)
#    0.000    2.162    1.081    2.757    1.514    5.622 
#    1.946    0.000    0.000    0.649    0.000    3.027 
#    0.000    0.000    0.000    0.000    0.000    0.000 
#
# Total GULP energy -206037.115956 kJ/mol
# GULP energy per Si atom -5568.570702 kJ/mol
# Density = 2.051271 g / cm^3
# Si number density = 20.559502 Si / 1000 Ang^3
#
#
#
# Elastic Constant Matrix: (Units=GPa)
#
#
# Indices 1 2 3 4 5 6 
#
# 1 219.8135 14.3751 115.6211 0.0000 0.0000 0.0000
# 2 14.3751 69.9323 16.8247 0.0000 0.0000 0.0000
# 3 115.6211 16.8247 176.5084 0.0000 0.0000 0.0000
# 4 0.0000 0.0000 0.0000 -0.9704 0.0000 0.0000
# 5 0.0000 0.0000 0.0000 0.0000 -20.2501 0.0000
# 6 0.0000 0.0000 0.0000 0.0000 0.000011869.3364
#
#
#
# Elastic Compliance Matrix: (Units=1/GPa)
#
#
# Indices 1 2 3 4 5 6 
#
# 1 0.006949 -0.000341 -0.004519 0.000000 0.000000 0.000000
# 2 -0.000341 0.014652 -0.001173 0.000000 0.000000 0.000000
# 3 -0.004519 -0.001173 0.008738 0.000000 0.000000 0.000000
# 4 0.000000 0.000000 0.000000 -1.030542 0.000000 0.000000
# 5 0.000000 0.000000 0.000000 0.000000 -0.049382 0.000000
# 6 0.000000 0.000000 0.000000 0.000000 0.000000 0.000084
#
#
# Mechanical properties :
#
#
# Convention : Reuss Voigt Hill
#
# Bulk Modulus (GPa) = 54.73090 84.43288 69.58189
# Shear Modulus (GPa) = -4.84804 2390.91876 1193.03536
#
# Velocity S-wave (km/s) = -1.53726 34.13870 24.11522
# Velocity P-wave (km/s) = 4.85053 39.93860 28.44837
#
# Compressibility (1/GPa) = 0.01827121
#
# Stress axis : x y z
#
# Youngs Moduli (GPa) = 143.91182 68.25050 114.44842
#
# Poissons Ratio (x) = 0.02328 0.51722
# Poissons Ratio (y) = 0.04909 0.13427
# Poissons Ratio (z) = 0.65037 0.08007
#
# Static dielectric constant tensor:
#      x y z
#    x 1.705190 0.000000 0.000000 
#    y 0.000000 1.781450 0.000000 
#    z 0.000000 0.000000 1.813880 
# 
# From -- ./inp_files/27316.got.cif
#   From: 2010.05.17/outbox.cif.g08.bks.cpg/sg47_14_cif.got.tgz:27316.got - 2010.06.03 20:15:42.
