data_PCOD9386062
_publ_section_title
;
Structure prediction by ZEFSAII (Michael W. Deem and Ramdas Pophale) SiO2 
 PCOD9386062
Probable space group: P M M M
;
_chemical_formula_sum "Si O2"
_cell_formula_units_Z 48
_cell_length_a 15.709355
_cell_length_b 19.521044
_cell_length_c 8.796327
_cell_angle_alpha 90.000000
_cell_angle_beta 90.000000
_cell_angle_gamma 90.000000
_cell_volume 2697.508116
_symmetry_space_group_name_H-M "P M M M"
_symmetry_group_IT_number 47
_symmetry_cell_setting 'orthorhombic'
loop_
_space_group_symop_operation_xyz
x,y,z
-x,-y,z
x,-y,-z
-x,y,-z
-x,-y,-z
x,y,-z
-x,y,z
x,-y,z
loop_
_atom_site_type_symbol
_atom_site_label
_atom_site_fract_x
_atom_site_fract_y
_atom_site_fract_z
Si Si1 0.400831 0.805061 0.683985
Si Si2 0.664895 0.664352 0.182782
Si Si3 0.500000 0.422325 0.815274
Si Si4 0.820453 0.580451 0.318080
Si Si5 0.093141 0.082817 0.820271
Si Si6 0.270819 0.921238 0.682941
Si Si7 0.000000 0.416985 0.826055
O O1 0.399238 0.800815 0.500000
O O2 0.500000 0.806354 0.731412
O O3 0.353610 0.739344 0.752272
O O4 0.348263 0.872584 0.729999
O O5 0.584261 0.617957 0.231011
O O6 0.748864 0.628189 0.245869
O O7 0.668066 0.666682 0.000000
O O8 0.500000 0.500000 0.759435
O O9 0.500000 0.424039 0.000000
O O10 0.817651 0.584254 0.500000
O O11 0.806867 0.500000 0.274716
O O12 0.913431 0.602257 0.258903
O O13 0.179400 0.106194 0.740012
O O14 0.000000 0.107579 0.764884
O O15 0.092191 0.000000 0.802939
O O16 0.098509 0.097246 0.000000
O O17 0.268673 0.922395 0.500000
O O18 0.281401 0.000000 0.736011
O O19 0.000000 0.500000 0.828597
O O20 0.000000 0.392617 0.000000
#
# Coordination Sequence:
#
# PCOD9386062 Si02
#       7
#     8   8   4   8   8   8   4
#     4  10  21  37  55  74 103 141 177 219 272 328
#     4  11  21  35  55  78 106 142 182 224 270 324
#     4   9  18  32  51  77 106 133 168 218 269 313
#     4  10  20  34  54  82 114 146 180 221 269 319
#     4   8  14  26  46  73 104 135 164 200 253 310
#     4   9  18  32  52  79 106 135 175 219 262 312
#     4   9  17  31  53  81 111 145 184 223 264 313
#
# _framework density 17.794201000000001
#
# number of rings (size 3 to 8) (size 9 to 14) (size 15 to 20)
#    0.000    2.500    0.833    2.250    0.000    4.000 
#    0.000    3.333    1.833    2.000    0.000    3.500 
#    0.000    0.000    0.000    0.000    0.000    0.000 
#
# Total GULP energy -267620.572108 kJ/mol
# GULP energy per Si atom -5575.428586 kJ/mol
# Density = 1.775370 g / cm^3
# Si number density = 17.794201 Si / 1000 Ang^3
#
#
#
# Elastic Constant Matrix: (Units=GPa)
#
#
# Indices 1 2 3 4 5 6 
#
# 1 182.7727 77.5115 42.9644 0.0000 0.0000 0.0000
# 2 77.5115 90.0490 27.0696 0.0000 0.0000 0.0000
# 3 42.9644 27.0696 29.9601 0.0000 0.0000 0.0000
# 4 0.0000 0.0000 0.0000 18.4919 0.0000 0.0000
# 5 0.0000 0.0000 0.0000 0.0000 22.1498 0.0000
# 6 0.0000 0.0000 0.0000 0.0000 0.0000 -74.6444
#
#
#
# Elastic Compliance Matrix: (Units=1/GPa)
#
#
# Indices 1 2 3 4 5 6 
#
# 1 0.010169 -0.005999 -0.009163 0.000000 0.000000 0.000000
# 2 -0.005999 0.018785 -0.008370 0.000000 0.000000 0.000000
# 3 -0.009163 -0.008370 0.054081 0.000000 0.000000 0.000000
# 4 0.000000 0.000000 0.000000 0.054078 0.000000 0.000000
# 5 0.000000 0.000000 0.000000 0.000000 0.045147 0.000000
# 6 0.000000 0.000000 0.000000 0.000000 0.000000 -0.013397
#
#
# Mechanical properties :
#
#
# Convention : Reuss Voigt Hill
#
# Bulk Modulus (GPa) = 27.80021 66.43032 47.11526
# Shear Modulus (GPa) = 21.93786 3.54855 12.74320
#
# Velocity S-wave (km/s) = 3.51503 1.41370 2.67899
# Velocity P-wave (km/s) = 5.66842 6.33075 6.00872
#
# Compressibility (1/GPa) = 0.03597096
#
# Stress axis : x y z
#
# Youngs Moduli (GPa) = 98.33480 53.23471 18.49095
#
# Poissons Ratio (x) = 0.31935 0.16944
# Poissons Ratio (y) = 0.58990 0.15476
# Poissons Ratio (z) = 0.90107 0.44556
#
# Static dielectric constant tensor:
#      x y z
#    x 1.609860 0.000000 0.000000 
#    y 0.000000 1.602330 0.000000 
#    z 0.000000 0.000000 1.599090 
# 
# From -- ./inp_files/6425.got.cif
#   From: 2010.05.17/outbox.cif.g08.bks.cpg/sg47_4_cif.got.tgz:6425.got - 2010.06.03 20:15:42.
