data_PCOD9386464
_publ_section_title
;
Structure prediction by ZEFSAII (Michael W. Deem and Ramdas Pophale) SiO2 
 PCOD9386464
Probable space group: P M M M
;
_chemical_formula_sum "Si O2"
_cell_formula_units_Z 64
_cell_length_a 7.728393
_cell_length_b 16.027713
_cell_length_c 24.501224
_cell_angle_alpha 90.000000
_cell_angle_beta 90.000000
_cell_angle_gamma 90.000000
_cell_volume 3034.929006
_symmetry_space_group_name_H-M "P M M M"
_symmetry_group_IT_number 47
_symmetry_cell_setting 'orthorhombic'
loop_
_space_group_symop_operation_xyz
x,y,z
-x,-y,z
x,-y,-z
-x,y,-z
-x,-y,-z
x,y,-z
-x,y,z
x,-y,z
loop_
_atom_site_type_symbol
_atom_site_label
_atom_site_fract_x
_atom_site_fract_y
_atom_site_fract_z
Si Si1 0.207448 0.256881 0.561727
Si Si2 0.291096 0.092800 0.371271
Si Si3 0.711794 0.092558 0.863798
Si Si4 0.704693 0.243404 0.938691
Si Si5 0.288748 0.156643 0.746483
Si Si6 0.791191 0.591880 0.637034
Si Si7 0.705676 0.348706 0.756755
Si Si8 0.798642 0.408499 0.874768
O O1 0.274848 0.261956 0.500000
O O2 0.242078 0.167283 0.588506
O O3 0.274810 0.331218 0.600558
O O4 0.000000 0.266615 0.559383
O O5 0.500000 0.090834 0.369682
O O6 0.230290 0.116181 0.310144
O O7 0.230460 0.000000 0.386672
O O8 0.500000 0.094548 0.863798
O O9 0.775055 0.167379 0.902191
O O10 0.764981 0.109745 0.801367
O O11 0.764598 0.000000 0.881370
O O12 0.500000 0.227616 0.943190
O O13 0.722710 0.330537 0.907161
O O14 0.776861 0.247046 0.000000
O O15 0.500000 0.156081 0.745396
O O16 0.233433 0.253009 0.750706
O O17 0.731458 0.500000 0.619046
O O18 0.743179 0.606027 0.700017
O O19 0.000000 0.592690 0.634017
O O20 0.500000 0.346747 0.765631
O O21 0.783280 0.391084 0.810165
O O22 0.722531 0.500000 0.886839
O O23 0.000000 0.410469 0.889141
#
# Coordination Sequence:
#
# PCOD9386464 Si02
#       8
#     8   8   8   8   8   8   8   8
#     4  10  22  39  57  78 107 146 191 236 279 324
#     4  10  20  35  57  84 112 143 182 229 280 333
#     4   9  16  29  53  84 115 144 176 219 271 326
#     4  10  21  37  57  84 115 146 187 236 281 326
#     4   9  16  29  52  82 112 140 173 218 270 323
#     4  10  21  37  57  82 112 145 183 227 277 334
#     4  11  20  34  59  87 115 145 179 223 277 335
#     4  11  24  40  58  81 111 148 189 231 277 332
#
# _framework density 21.087807000000002
#
# number of rings (size 3 to 8) (size 9 to 14) (size 15 to 20)
#    0.000    2.000    2.500    1.500    0.000    6.000 
#    0.000    5.000    0.000    0.375    0.000    2.625 
#    0.000    0.000    0.000    0.000    0.000    0.000 
#
# Total GULP energy -357518.880553 kJ/mol
# GULP energy per Si atom -5586.232509 kJ/mol
# Density = 2.103981 g / cm^3
# Si number density = 21.087807 Si / 1000 Ang^3
#
#
#
# Elastic Constant Matrix: (Units=GPa)
#
#
# Indices 1 2 3 4 5 6 
#
# 1 31.2978 -5.4059 -7.6815 0.0000 0.0000 0.0000
# 2 -5.4059 154.6784 49.1707 0.0000 0.0000 0.0000
# 3 -7.6815 49.1707 124.0880 0.0000 0.0000 0.0000
# 4 0.0000 0.0000 0.0000 -22.8294 0.0000 0.0000
# 5 0.0000 0.0000 0.0000 0.0000 -13.4321 0.0000
# 6 0.0000 0.0000 0.0000 0.0000 0.0000 35.6588
#
#
#
# Elastic Compliance Matrix: (Units=1/GPa)
#
#
# Indices 1 2 3 4 5 6 
#
# 1 0.032488 0.000568 0.001786 0.000000 0.000000 0.000000
# 2 0.000568 0.007407 -0.002900 0.000000 0.000000 0.000000
# 3 0.001786 -0.002900 0.009318 0.000000 0.000000 0.000000
# 4 0.000000 0.000000 0.000000 -0.043803 0.000000 0.000000
# 5 0.000000 0.000000 0.000000 0.000000 -0.074449 0.000000
# 6 0.000000 0.000000 0.000000 0.000000 0.000000 0.028044
#
#
# Mechanical properties :
#
#
# Convention : Reuss Voigt Hill
#
# Bulk Modulus (GPa) = 20.78110 42.47008 31.62559
# Shear Modulus (GPa) = -209.52672 18.14485 -95.69093
#
# Velocity S-wave (km/s) = -9.97872 2.93651 -6.74358
# Velocity P-wave (km/s) = 11.08560 5.62857 6.75314
#
# Compressibility (1/GPa) = 0.04812065
#
# Stress axis : x y z
#
# Youngs Moduli (GPa) = 30.78100 135.01316 107.31411
#
# Poissons Ratio (x) = -0.07664 -0.19168
# Poissons Ratio (y) = -0.01747 0.31119
# Poissons Ratio (z) = -0.05498 0.39151
#
# Static dielectric constant tensor:
#      x y z
#    x 1.804840 0.000000 0.000000 
#    y 0.000000 1.759260 0.000000 
#    z 0.000000 0.000000 1.724970 
# 
# From -- ./inp_files/7772.got.cif
#   From: 2010.05.17/outbox.cif.g08.bks.cpg/sg47_4_cif.got.tgz:7772.got - 2010.06.03 20:15:42.
