data_PCOD9386704
_publ_section_title
;
Structure prediction by ZEFSAII (Michael W. Deem and Ramdas Pophale) SiO2 
 PCOD9386704
Probable space group: P M M M
;
_chemical_formula_sum "Si O2"
_cell_formula_units_Z 44
_cell_length_a 16.297581
_cell_length_b 17.204605
_cell_length_c 7.795606
_cell_angle_alpha 90.000000
_cell_angle_beta 90.000000
_cell_angle_gamma 90.000000
_cell_volume 2185.836811
_symmetry_space_group_name_H-M "P M M M"
_symmetry_group_IT_number 47
_symmetry_cell_setting 'orthorhombic'
loop_
_space_group_symop_operation_xyz
x,y,z
-x,-y,z
x,-y,-z
-x,y,-z
-x,-y,-z
x,y,-z
-x,y,z
x,-y,z
loop_
_atom_site_type_symbol
_atom_site_label
_atom_site_fract_x
_atom_site_fract_y
_atom_site_fract_z
Si Si1 0.410552 0.172305 0.795975
Si Si2 0.829919 0.000000 0.289867
Si Si3 0.500000 0.594838 0.697603
Si Si4 0.360757 0.000000 0.293735
Si Si5 0.322423 0.588516 0.707686
Si Si6 0.752736 0.743225 0.202142
Si Si7 0.908938 0.159961 0.704530
O O1 0.500000 0.197504 0.726225
O O2 0.400818 0.079875 0.768923
O O3 0.328571 0.213441 0.723587
O O4 0.411863 0.187114 0.000000
O O5 0.875501 0.922637 0.229115
O O6 0.830171 0.000000 0.500000
O O7 0.734734 0.000000 0.238309
O O8 0.500000 0.500000 0.693517
O O9 0.500000 0.621510 0.500000
O O10 0.412297 0.615533 0.775779
O O11 0.364091 0.000000 0.500000
O O12 0.327659 0.586951 0.500000
O O13 0.306921 0.500000 0.764143
O O14 0.257569 0.652384 0.760838
O O15 0.837742 0.777873 0.266253
O O16 0.751760 0.756698 0.000000
O O17 0.915705 0.151222 0.500000
O O18 0.000000 0.178502 0.771535
#
# Coordination Sequence:
#
# PCOD9386704 Si02
#       7
#     8   4   4   4   8   8   8
#     4  10  22  38  52  70 106 155 194 222 262 317
#     4   9  17  32  55  82 108 133 170 222 273 321
#     4   7  12  26  49  77 105 134 171 216 263 309
#     4  11  20  33  55  79 105 138 185 238 275 310
#     4   9  18  34  56  80 108 143 182 223 271 325
#     4  11  23  36  54  80 112 146 182 226 270 319
#     4  10  20  37  61  84 108 140 177 221 277 333
#
# _framework density 20.129591000000001
#
# number of rings (size 3 to 8) (size 9 to 14) (size 15 to 20)
#    0.000    2.273    1.818    2.455    1.273    4.000 
#    0.000    0.455    0.000    3.273    0.000    3.818 
#    0.000    0.000    0.000    0.000    0.000    0.000 
#
# Total GULP energy -245635.936043 kJ/mol
# GULP energy per Si atom -5582.634910 kJ/mol
# Density = 2.008377 g / cm^3
# Si number density = 20.129591 Si / 1000 Ang^3
#
#
#
# Elastic Constant Matrix: (Units=GPa)
#
#
# Indices 1 2 3 4 5 6 
#
# 1 182.4032 70.3915 10.5424 0.0000 0.0000 0.0000
# 2 70.3915 91.2891 -11.3612 0.0000 0.0000 0.0000
# 3 10.5424 -11.3612 27.4065 0.0000 0.0000 0.0000
# 4 0.0000 0.0000 0.0000 3.5460 0.0000 0.0000
# 5 0.0000 0.0000 0.0000 0.0000 10.7675 0.0000
# 6 0.0000 0.0000 0.0000 0.0000 0.0000 -28.4067
#
#
#
# Elastic Compliance Matrix: (Units=1/GPa)
#
#
# Indices 1 2 3 4 5 6 
#
# 1 0.008788 -0.007589 -0.006526 0.000000 0.000000 0.000000
# 2 -0.007589 0.018103 0.010423 0.000000 0.000000 0.000000
# 3 -0.006526 0.010423 0.043319 0.000000 0.000000 0.000000
# 4 0.000000 0.000000 0.000000 0.282005 0.000000 0.000000
# 5 0.000000 0.000000 0.000000 0.000000 0.092872 0.000000
# 6 0.000000 0.000000 0.000000 0.000000 0.000000 -0.035203
#
#
# Mechanical properties :
#
#
# Convention : Reuss Voigt Hill
#
# Bulk Modulus (GPa) = 15.91662 48.91603 32.41633
# Shear Modulus (GPa) = 11.41007 12.61644 12.01325
#
# Velocity S-wave (km/s) = 2.38340 2.50623 2.44559
# Velocity P-wave (km/s) = 3.93680 5.72086 4.91053
#
# Compressibility (1/GPa) = 0.06282740
#
# Stress axis : x y z
#
# Youngs Moduli (GPa) = 113.79060 55.23996 23.08447
#
# Poissons Ratio (x) = 0.41919 0.15066
# Poissons Ratio (y) = 0.86351 -0.24062
# Poissons Ratio (z) = 0.74263 -0.57579
#
# Static dielectric constant tensor:
#      x y z
#    x 1.743620 0.000000 0.000000 
#    y 0.000000 1.703630 0.000000 
#    z 0.000000 0.000000 1.737440 
# 
# From -- ./inp_files/6292.got.cif
#   From: 2010.05.17/outbox.cif.g08.bks.cpg/sg47_4_cif.got.tgz:6292.got - 2010.06.03 20:15:42.
