data_PCOD9386489
_publ_section_title
;
Structure prediction by ZEFSAII (Michael W. Deem and Ramdas Pophale) SiO2 
 PCOD9386489
Probable space group: P M M M
;
_chemical_formula_sum "Si O2"
_cell_formula_units_Z 64
_cell_length_a 25.993315
_cell_length_b 8.841893
_cell_length_c 14.802623
_cell_angle_alpha 90.000000
_cell_angle_beta 90.000000
_cell_angle_gamma 90.000000
_cell_volume 3402.088472
_symmetry_space_group_name_H-M "P M M M"
_symmetry_group_IT_number 47
_symmetry_cell_setting 'orthorhombic'
loop_
_space_group_symop_operation_xyz
x,y,z
-x,-y,z
x,-y,-z
-x,y,-z
-x,-y,-z
x,y,-z
-x,y,z
x,-y,z
loop_
_atom_site_type_symbol
_atom_site_label
_atom_site_fract_x
_atom_site_fract_y
_atom_site_fract_z
Si Si1 0.437561 0.322916 0.598505
Si Si2 0.655738 0.817159 0.896325
Si Si3 0.441424 0.181558 0.214277
Si Si4 0.252888 0.318778 0.780028
Si Si5 0.848538 0.317682 0.895083
Si Si6 0.098643 0.318803 0.397684
Si Si7 0.057867 0.180730 0.216702
Si Si8 0.213034 0.819559 0.602264
O O1 0.419478 0.266842 0.500000
O O2 0.500000 0.313506 0.597148
O O3 0.424284 0.500000 0.606101
O O4 0.421469 0.235940 0.687991
O O5 0.599085 0.772552 0.861635
O O6 0.698080 0.742904 0.832816
O O7 0.659582 0.000000 0.890337
O O8 0.663858 0.772953 0.000000
O O9 0.500000 0.237854 0.200621
O O10 0.443578 0.000000 0.215256
O O11 0.254345 0.500000 0.774018
O O12 0.201835 0.275016 0.837263
O O13 0.247862 0.248053 0.680851
O O14 0.852373 0.500000 0.892128
O O15 0.898645 0.248677 0.848011
O O16 0.843697 0.271930 0.000000
O O17 0.080769 0.283169 0.500000
O O18 0.099182 0.500000 0.387461
O O19 0.066586 0.245618 0.317240
O O20 0.156785 0.256487 0.389160
O O21 0.000000 0.218623 0.186258
O O22 0.063200 0.000000 0.219381
O O23 0.231543 0.789318 0.500000
O O24 0.207748 0.000000 0.613153
#
# Coordination Sequence:
#
# PCOD9386489 Si02
#       8
#     8   8   8   8   8   8   8   8
#     4   8  14  26  46  73 105 141 180 221 268 325
#     4  10  22  39  58  82 113 150 191 236 289 343
#     4   9  18  33  54  81 112 147 189 235 282 335
#     4  11  22  38  62  89 116 147 187 234 282 337
#     4  10  22  40  61  84 109 143 188 236 290 348
#     4  10  20  35  57  85 116 152 193 233 278 336
#     4  11  24  39  56  82 116 153 194 240 289 342
#     4  10  20  35  59  90 121 152 186 226 276 335
#
# _framework density 18.811975
#
# number of rings (size 3 to 8) (size 9 to 14) (size 15 to 20)
#    0.000    2.125    1.250    2.250    0.000    5.500 
#    0.000    5.625    0.000    0.750    0.000    2.625 
#    0.000    0.000    0.000    0.000    0.000    0.000 
#
# Total GULP energy -357247.273732 kJ/mol
# GULP energy per Si atom -5581.988652 kJ/mol
# Density = 1.876916 g / cm^3
# Si number density = 18.811975 Si / 1000 Ang^3
#
#
#
# Elastic Constant Matrix: (Units=GPa)
#
#
# Indices 1 2 3 4 5 6 
#
# 1 87.4894 27.9611 55.2242 0.0000 0.0000 0.0000
# 2 27.9611 24.2830 31.4110 0.0000 0.0000 0.0000
# 3 55.2242 31.4110 111.4096 0.0000 0.0000 0.0000
# 4 0.0000 0.0000 0.0000 23.0803 0.0000 0.0000
# 5 0.0000 0.0000 0.0000 0.0000 12.4539 0.0000
# 6 0.0000 0.0000 0.0000 0.0000 0.0000 -10.5431
#
#
#
# Elastic Compliance Matrix: (Units=1/GPa)
#
#
# Indices 1 2 3 4 5 6 
#
# 1 0.019935 -0.016012 -0.005367 0.000000 0.000000 0.000000
# 2 -0.016012 0.077683 -0.013965 0.000000 0.000000 0.000000
# 3 -0.005367 -0.013965 0.015574 0.000000 0.000000 0.000000
# 4 0.000000 0.000000 0.000000 0.043327 0.000000 0.000000
# 5 0.000000 0.000000 0.000000 0.000000 0.080296 0.000000
# 6 0.000000 0.000000 0.000000 0.000000 0.000000 -0.094849
#
#
# Mechanical properties :
#
#
# Convention : Reuss Voigt Hill
#
# Bulk Modulus (GPa) = 23.52776 50.26386 36.89581
# Shear Modulus (GPa) = 22.04375 12.23726 17.14051
#
# Velocity S-wave (km/s) = 3.42686 2.55326 3.02180
# Velocity P-wave (km/s) = 5.30959 5.95561 5.64186
#
# Compressibility (1/GPa) = 0.04250298
#
# Stress axis : x y z
#
# Youngs Moduli (GPa) = 50.16281 12.87290 64.21134
#
# Poissons Ratio (x) = 0.20612 0.34463
# Poissons Ratio (y) = 0.80321 0.89671
# Poissons Ratio (z) = 0.26923 0.17977
#
# Static dielectric constant tensor:
#      x y z
#    x 1.646820 0.000000 0.000000 
#    y 0.000000 1.629630 0.000000 
#    z 0.000000 0.000000 1.653920 
# 
# From -- ./inp_files/25559.got.cif
#   From: 2010.05.17/outbox.cif.g08.bks.cpg/sg47_13_cif.got.tgz:25559.got - 2010.06.03 20:15:42.
