data_PCOD9386594
_publ_section_title
;
Structure prediction by ZEFSAII (Michael W. Deem and Ramdas Pophale) SiO2 
 PCOD9386594
Probable space group: P M M M
;
_chemical_formula_sum "Si O2"
_cell_formula_units_Z 37
_cell_length_a 12.468887
_cell_length_b 18.736492
_cell_length_c 7.616600
_cell_angle_alpha 90.000000
_cell_angle_beta 90.000000
_cell_angle_gamma 90.000000
_cell_volume 1779.414477
_symmetry_space_group_name_H-M "P M M M"
_symmetry_group_IT_number 47
_symmetry_cell_setting 'orthorhombic'
loop_
_space_group_symop_operation_xyz
x,y,z
-x,-y,z
x,-y,-z
-x,y,-z
-x,-y,-z
x,y,-z
-x,y,z
x,-y,z
loop_
_atom_site_type_symbol
_atom_site_label
_atom_site_fract_x
_atom_site_fract_y
_atom_site_fract_z
Si Si1 0.122272 0.282542 0.789898
Si Si2 0.000000 0.000000 0.500000
Si Si3 0.728963 0.845237 0.207344
Si Si4 0.500000 0.380954 0.714863
Si Si5 0.737466 0.577779 0.288292
Si Si6 0.500000 0.781826 0.291455
Si Si7 0.191630 0.000000 0.784852
O O1 0.188790 0.214328 0.718054
O O2 0.189885 0.354751 0.760461
O O3 0.000000 0.286306 0.721770
O O4 0.114861 0.274393 0.000000
O O5 0.091018 0.000000 0.343085
O O6 0.608248 0.820653 0.238261
O O7 0.747394 0.926612 0.260565
O O8 0.747770 0.844435 0.000000
O O9 0.500000 0.384217 0.500000
O O10 0.613678 0.413477 0.771306
O O11 0.500000 0.299085 0.775397
O O12 0.734960 0.577421 0.500000
O O13 0.778144 0.500000 0.228913
O O14 0.500000 0.776531 0.500000
O O15 0.170158 0.000000 0.000000
#
# Coordination Sequence:
#
# PCOD9386594 Si02
#       7
#     8   1   8   4   8   4   4
#     4  10  22  39  59  83 114 157 204 251 305 367
#     4  12  26  44  72 104 136 176 220 272 330 374
#     4  10  22  42  65  90 124 166 210 256 316 378
#     4   9  17  33  55  86 116 152 192 248 310 365
#     4  10  20  36  58  84 115 152 197 248 307 371
#     4  11  21  35  64  93 126 158 202 261 314 377
#     4  10  25  46  68  99 136 175 222 272 317 378
#
# _framework density 20.793358000000001
#
# number of rings (size 3 to 8) (size 9 to 14) (size 15 to 20)
#    0.000    1.946    2.162    0.811    3.027    3.027 
#    0.000    4.865    0.000    1.297    0.000    0.000 
#    0.000    0.000    0.000    0.000    0.000    0.000 
#
# Total GULP energy -206219.696943 kJ/mol
# GULP energy per Si atom -5573.505323 kJ/mol
# Density = 2.074603 g / cm^3
# Si number density = 20.793358 Si / 1000 Ang^3
#
#
#
# Elastic Constant Matrix: (Units=GPa)
#
#
# Indices 1 2 3 4 5 6 
#
# 1 160.0573 102.7658 -0.7847 0.0000 0.0000 0.0000
# 2 102.7658 205.9120 14.9142 0.0000 0.0000 0.0000
# 3 -0.7847 14.9142 39.2236 0.0000 0.0000 0.0000
# 4 0.0000 0.0000 0.0000 49.2165 0.0000 0.0000
# 5 0.0000 0.0000 0.0000 0.0000 24.6634 0.0000
# 6 0.0000 0.0000 0.0000 0.0000 0.0000 30.9830
#
#
#
# Elastic Compliance Matrix: (Units=1/GPa)
#
#
# Indices 1 2 3 4 5 6 
#
# 1 0.009346 -0.004811 0.002016 0.000000 0.000000 0.000000
# 2 -0.004811 0.007470 -0.002937 0.000000 0.000000 0.000000
# 3 0.002016 -0.002937 0.026652 0.000000 0.000000 0.000000
# 4 0.000000 0.000000 0.000000 0.020318 0.000000 0.000000
# 5 0.000000 0.000000 0.000000 0.000000 0.040546 0.000000
# 6 0.000000 0.000000 0.000000 0.000000 0.000000 0.032276
#
#
# Mechanical properties :
#
#
# Convention : Reuss Voigt Hill
#
# Bulk Modulus (GPa) = 31.24414 70.99818 51.12116
# Shear Modulus (GPa) = 31.49830 40.19243 35.84536
#
# Velocity S-wave (km/s) = 3.89630 4.40130 4.15647
# Velocity P-wave (km/s) = 5.94139 7.74902 6.90462
#
# Compressibility (1/GPa) = 0.03200600
#
# Stress axis : x y z
#
# Youngs Moduli (GPa) = 106.99442 133.86946 37.52095
#
# Poissons Ratio (x) = 0.64398 -0.07565
# Poissons Ratio (y) = 0.51470 0.11018
# Poissons Ratio (z) = -0.21571 0.39312
#
# Static dielectric constant tensor:
#      x y z
#    x 1.701560 0.000000 0.000000 
#    y 0.000000 1.768160 0.000000 
#    z 0.000000 0.000000 1.784600 
# 
# From -- ./inp_files/3799.got.cif
#   From: 2010.05.17/outbox.cif.g08.bks.cpg/sg47_2_cif.got.tgz:3799.got - 2010.06.03 20:15:42.
