data_PCOD9386068
_publ_section_title
;
Structure prediction by ZEFSAII (Michael W. Deem and Ramdas Pophale) SiO2 
 PCOD9386068
Probable space group: P M M M
;
_chemical_formula_sum "Si O2"
_cell_formula_units_Z 48
_cell_length_a 7.602790
_cell_length_b 9.916473
_cell_length_c 29.807216
_cell_angle_alpha 90.000000
_cell_angle_beta 90.000000
_cell_angle_gamma 90.000000
_cell_volume 2247.251315
_symmetry_space_group_name_H-M "P M M M"
_symmetry_group_IT_number 47
_symmetry_cell_setting 'orthorhombic'
loop_
_space_group_symop_operation_xyz
x,y,z
-x,-y,z
x,-y,-z
-x,y,-z
-x,-y,-z
x,y,-z
-x,y,z
x,-y,z
loop_
_atom_site_type_symbol
_atom_site_label
_atom_site_fract_x
_atom_site_fract_y
_atom_site_fract_z
Si Si1 0.205649 0.152853 0.791933
Si Si2 0.787853 0.000000 0.947952
Si Si3 0.287835 0.651048 0.551517
Si Si4 0.791645 0.153486 0.368522
Si Si5 0.701625 0.252854 0.110712
Si Si6 0.784107 0.656050 0.712382
Si Si7 0.716417 0.500000 0.948026
O O1 0.216656 0.210731 0.842109
O O2 0.275723 0.261246 0.756374
O O3 0.000000 0.139533 0.780747
O O4 0.281057 0.000000 0.790068
O O5 0.712977 0.872690 0.922329
O O6 0.000000 0.000000 0.943939
O O7 0.741298 0.000000 0.000000
O O8 0.229984 0.670942 0.500000
O O9 0.500000 0.649115 0.551384
O O10 0.228817 0.500000 0.566104
O O11 0.232250 0.769444 0.584544
O O12 0.724154 0.254555 0.330018
O O13 0.000000 0.142134 0.360431
O O14 0.720498 0.000000 0.367722
O O15 0.500000 0.287127 0.121103
O O16 0.777428 0.373402 0.081170
O O17 0.726252 0.500000 0.711162
O O18 0.000000 0.651693 0.712114
O O19 0.500000 0.500000 0.949505
O O20 0.773440 0.500000 0.000000
#
# Coordination Sequence:
#
# PCOD9386068 Si02
#       7
#     8   4   8   8   8   8   4
#     4  10  20  35  55  79 111 145 179 223 275 328
#     4  11  23  39  59  85 115 145 183 229 274 323
#     4   9  19  36  56  78 108 148 192 236 285 340
#     4  10  20  34  54  82 115 148 187 234 281 331
#     4  11  22  37  59  84 112 147 185 225 272 328
#     4   9  18  33  55  81 107 144 190 231 275 329
#     4   9  20  38  57  79 109 145 183 223 270 323
#
# _framework density 21.359425999999999
#
# number of rings (size 3 to 8) (size 9 to 14) (size 15 to 20)
#    0.000    2.167    0.833    2.750    1.167    5.333 
#    0.000    4.583    0.000    6.000    0.000    0.000 
#    0.000    0.000    0.000    0.000    0.000    0.000 
#
# Total GULP energy -267957.980389 kJ/mol
# GULP energy per Si atom -5582.457925 kJ/mol
# Density = 2.131081 g / cm^3
# Si number density = 21.359426 Si / 1000 Ang^3
#
#
#
# Elastic Constant Matrix: (Units=GPa)
#
#
# Indices 1 2 3 4 5 6 
#
# 1 43.2230 1.2077 -3.6673 0.0000 0.0000 0.0000
# 2 1.2077 240.7354 115.9625 0.0000 0.0000 0.0000
# 3 -3.6673 115.9625 147.4056 0.0000 0.0000 0.0000
# 4 0.0000 0.0000 0.0000 20.8507 0.0000 0.0000
# 5 0.0000 0.0000 0.0000 0.0000 40.0221 0.0000
# 6 0.0000 0.0000 0.0000 0.0000 0.0000 13.5672
#
#
#
# Elastic Compliance Matrix: (Units=1/GPa)
#
#
# Indices 1 2 3 4 5 6 
#
# 1 0.023245 -0.000636 0.001079 0.000000 0.000000 0.000000
# 2 -0.000636 0.006706 -0.005291 0.000000 0.000000 0.000000
# 3 0.001079 -0.005291 0.010974 0.000000 0.000000 0.000000
# 4 0.000000 0.000000 0.000000 0.047960 0.000000 0.000000
# 5 0.000000 0.000000 0.000000 0.000000 0.024986 0.000000
# 6 0.000000 0.000000 0.000000 0.000000 0.000000 0.073707
#
#
# Mechanical properties :
#
#
# Convention : Reuss Voigt Hill
#
# Bulk Modulus (GPa) = 32.02349 73.15218 52.58783
# Shear Modulus (GPa) = 24.07500 36.07875 30.07688
#
# Velocity S-wave (km/s) = 3.36093 4.11436 3.75658
# Velocity P-wave (km/s) = 5.48510 7.54275 6.59467
#
# Compressibility (1/GPa) = 0.03122708
#
# Stress axis : x y z
#
# Youngs Moduli (GPa) = 43.01975 149.12050 91.12855
#
# Poissons Ratio (x) = 0.09489 -0.09832
# Poissons Ratio (y) = 0.02737 0.48219
# Poissons Ratio (z) = -0.04641 0.78905
#
# Static dielectric constant tensor:
#      x y z
#    x 1.838360 0.000000 0.000000 
#    y 0.000000 1.743220 0.000000 
#    z 0.000000 0.000000 1.731490 
# 
# From -- ./inp_files/34080.got.cif
#   From: 2010.05.17/outbox.cif.g08.bks.cpg/sg47_18_cif.got.tgz:34080.got - 2010.06.03 20:15:42.
