data_PCOD9386798
_publ_section_title
;
Structure prediction by ZEFSAII (Michael W. Deem and Ramdas Pophale) SiO2 
 PCOD9386798
Probable space group: P M M M
;
_chemical_formula_sum "Si O2"
_cell_formula_units_Z 37
_cell_length_a 17.219909
_cell_length_b 7.383468
_cell_length_c 14.420096
_cell_angle_alpha 90.000000
_cell_angle_beta 90.000000
_cell_angle_gamma 90.000000
_cell_volume 1833.409176
_symmetry_space_group_name_H-M "P M M M"
_symmetry_group_IT_number 47
_symmetry_cell_setting 'orthorhombic'
loop_
_space_group_symop_operation_xyz
x,y,z
-x,-y,z
x,-y,-z
-x,y,-z
-x,-y,-z
x,y,-z
-x,y,z
x,-y,z
loop_
_atom_site_type_symbol
_atom_site_label
_atom_site_fract_x
_atom_site_fract_y
_atom_site_fract_z
Si Si1 0.841445 0.795711 0.267505
Si Si2 0.000000 0.224301 0.175516
Si Si3 0.000000 0.500000 0.000000
Si Si4 0.705984 0.778190 0.606026
Si Si5 0.588234 0.218490 0.764948
Si Si6 0.273165 0.288052 0.895409
O O1 0.786256 0.713839 0.346662
O O2 0.785843 0.799609 0.176959
O O3 0.923306 0.722906 0.233615
O O4 0.857927 0.000000 0.298537
O O5 0.000000 0.339469 0.081369
O O6 0.000000 0.000000 0.161226
O O7 0.697227 0.722276 0.500000
O O8 0.635836 0.721845 0.673705
O O9 0.706873 0.000000 0.607991
O O10 0.500000 0.283859 0.768267
O O11 0.640966 0.269845 0.852779
O O12 0.586256 0.000000 0.762639
O O13 0.252750 0.500000 0.897113
O O14 0.268218 0.218068 0.000000
#
# Coordination Sequence:
#
# PCOD9386798 Si02
#       6
#     8   4   1   8   8   8
#     4   9  19  35  53  76 108 139 173 220 270 318
#     4  10  23  39  56  84 119 150 188 236 273 321
#     4  12  26  36  60  86 114 156 192 228 280 330
#     4   8  14  28  52  79 104 133 171 217 269 324
#     4   9  18  32  49  72 102 134 169 214 268 321
#     4  10  21  33  49  71  97 133 177 218 261 317
#
# _framework density 20.180983000000001
#
# number of rings (size 3 to 8) (size 9 to 14) (size 15 to 20)
#    0.000    2.811    0.000    2.108    3.027    3.027 
#    0.000    4.865    0.000   13.622    0.000    6.811 
#    0.000    0.000    0.000    0.000    0.000    0.432 
#
# Total GULP energy -206038.321848 kJ/mol
# GULP energy per Si atom -5568.603293 kJ/mol
# Density = 2.013505 g / cm^3
# Si number density = 20.180983 Si / 1000 Ang^3
#
#
#
# Elastic Constant Matrix: (Units=GPa)
#
#
# Indices 1 2 3 4 5 6 
#
# 1 103.5809 -11.6411 -2.8979 0.0000 0.0000 0.0000
# 2 -11.6411 84.2599 -13.0362 0.0000 0.0000 0.0000
# 3 -2.8979 -13.0362 70.9289 0.0000 0.0000 0.0000
# 4 0.0000 0.0000 0.0000 16.0996 0.0000 0.0000
# 5 0.0000 0.0000 0.0000 0.0000 -2.5583 0.0000
# 6 0.0000 0.0000 0.0000 0.0000 0.0000 21.9249
#
#
#
# Elastic Compliance Matrix: (Units=1/GPa)
#
#
# Indices 1 2 3 4 5 6 
#
# 1 0.009837 0.001463 0.000671 0.000000 0.000000 0.000000
# 2 0.001463 0.012433 0.002345 0.000000 0.000000 0.000000
# 3 0.000671 0.002345 0.014557 0.000000 0.000000 0.000000
# 4 0.000000 0.000000 0.000000 0.062114 0.000000 0.000000
# 5 0.000000 0.000000 0.000000 0.000000 -0.390883 0.000000
# 6 0.000000 0.000000 0.000000 0.000000 0.000000 0.045610
#
#
# Mechanical properties :
#
#
# Convention : Reuss Voigt Hill
#
# Bulk Modulus (GPa) = 21.84145 22.62436 22.23291
# Shear Modulus (GPa) = -20.83091 26.18289 2.67599
#
# Velocity S-wave (km/s) = -3.21628 3.60586 1.15277
# Velocity P-wave (km/s) = 1.71649 5.34522 3.57946
#
# Compressibility (1/GPa) = 0.04578450
#
# Stress axis : x y z
#
# Youngs Moduli (GPa) = 101.65222 80.43153 68.69543
#
# Poissons Ratio (x) = -0.11766 -0.04608
# Poissons Ratio (y) = -0.14871 -0.16108
# Poissons Ratio (z) = -0.06819 -0.18860
#
# Static dielectric constant tensor:
#      x y z
#    x 1.709940 0.000000 0.000000 
#    y 0.000000 1.826750 0.000000 
#    z 0.000000 0.000000 1.677340 
# 
# From -- ./inp_files/20853.got.cif
#   From: 2010.05.17/outbox.cif.g08.bks.cpg/sg47_11_cif.got.tgz:20853.got - 2010.06.03 20:15:42.
