data_PCOD9386791
_publ_section_title
;
Structure prediction by ZEFSAII (Michael W. Deem and Ramdas Pophale) SiO2 
 PCOD9386791
Probable space group: P M M M
;
_chemical_formula_sum "Si O2"
_cell_formula_units_Z 32
_cell_length_a 13.019812
_cell_length_b 7.407131
_cell_length_c 14.963181
_cell_angle_alpha 90.000000
_cell_angle_beta 90.000000
_cell_angle_gamma 90.000000
_cell_volume 1443.040992
_symmetry_space_group_name_H-M "P M M M"
_symmetry_group_IT_number 47
_symmetry_cell_setting 'orthorhombic'
loop_
_space_group_symop_operation_xyz
x,y,z
-x,-y,z
x,-y,-z
-x,y,-z
-x,-y,-z
x,y,-z
-x,y,z
x,-y,z
loop_
_atom_site_type_symbol
_atom_site_label
_atom_site_fract_x
_atom_site_fract_y
_atom_site_fract_z
Si Si1 0.000000 0.709825 0.109315
Si Si2 0.615492 0.213934 0.253210
Si Si3 0.000000 0.790347 0.609068
Si Si4 0.222297 0.282426 0.101959
Si Si5 0.223058 0.778678 0.396663
O O1 0.110848 0.786843 0.136057
O O2 0.000000 0.500000 0.136883
O O3 0.000000 0.714043 0.000000
O O4 0.500000 0.287028 0.247294
O O5 0.682956 0.237084 0.164500
O O6 0.685432 0.285232 0.333994
O O7 0.606760 0.000000 0.268469
O O8 0.889512 0.714236 0.635787
O O9 0.000000 0.786572 0.500000
O O10 0.000000 0.000000 0.636434
O O11 0.214246 0.500000 0.099365
O O12 0.237236 0.220441 0.000000
O O13 0.237007 0.727477 0.500000
O O14 0.220044 0.000000 0.394832
#
# Coordination Sequence:
#
# PCOD9386791 Si02
#       5
#     4   8   4   8   8
#     4   7  12  27  51  75  94 113 146 193 239 284
#     4  10  21  33  45  68 100 130 163 202 238 270
#     4   7  10  19  38  64  90 115 148 191 235 278
#     4   9  18  34  55  74  93 122 158 194 236 289
#     4   8  14  26  44  65  91 123 156 191 234 284
#
# _framework density 22.175391999999999
#
# number of rings (size 3 to 8) (size 9 to 14) (size 15 to 20)
#    0.000    3.500    0.000    3.000    0.000    3.000 
#    0.000    6.875    0.000    3.000    0.000    1.750 
#    0.000    6.000    0.000    0.000    0.000    0.000 
#
# Total GULP energy -178493.372168 kJ/mol
# GULP energy per Si atom -5577.917880 kJ/mol
# Density = 2.212492 g / cm^3
# Si number density = 22.175392 Si / 1000 Ang^3
#
#
#
# Elastic Constant Matrix: (Units=GPa)
#
#
# Indices 1 2 3 4 5 6 
#
# 1 287.6183 12.4104 108.7350 0.0000 0.0000 0.0000
# 2 12.4104 76.2688 -2.1824 0.0000 0.0000 0.0000
# 3 108.7350 -2.1824 105.8270 0.0000 0.0000 0.0000
# 4 0.0000 0.0000 0.0000 20.3208 0.0000 0.0000
# 5 0.0000 0.0000 0.0000 0.0000 30.1713 0.0000
# 6 0.0000 0.0000 0.0000 0.0000 0.0000 6.9831
#
#
#
# Elastic Compliance Matrix: (Units=1/GPa)
#
#
# Indices 1 2 3 4 5 6 
#
# 1 0.005778 -0.001111 -0.005959 0.000000 0.000000 0.000000
# 2 -0.001111 0.013333 0.001416 0.000000 0.000000 0.000000
# 3 -0.005959 0.001416 0.015602 0.000000 0.000000 0.000000
# 4 0.000000 0.000000 0.000000 0.049211 0.000000 0.000000
# 5 0.000000 0.000000 0.000000 0.000000 0.033144 0.000000
# 6 0.000000 0.000000 0.000000 0.000000 0.000000 0.143202
#
#
# Mechanical properties :
#
#
# Convention : Reuss Voigt Hill
#
# Bulk Modulus (GPa) = 42.72703 78.62667 60.67685
# Shear Modulus (GPa) = 17.89686 34.87845 26.38765
#
# Velocity S-wave (km/s) = 2.84396 3.97021 3.45331
# Velocity P-wave (km/s) = 5.48578 7.52001 6.58195
#
# Compressibility (1/GPa) = 0.02340439
#
# Stress axis : x y z
#
# Youngs Moduli (GPa) = 173.07870 75.00313 64.09549
#
# Poissons Ratio (x) = 0.08330 0.38197
# Poissons Ratio (y) = 0.19223 -0.09077
# Poissons Ratio (z) = 1.03144 -0.10621
#
# Static dielectric constant tensor:
#      x y z
#    x 1.834580 0.000000 0.000000 
#    y 0.000000 1.897230 0.000000 
#    z 0.000000 0.000000 1.798700 
# 
# From -- ./inp_files/14699.got.cif
#   From: 2010.05.17/outbox.cif.g08.bks.cpg/sg47_8_cif.got.tgz:14699.got - 2010.06.03 20:15:42.
