data_PCOD9386203
_publ_section_title
;
Structure prediction by ZEFSAII (Michael W. Deem and Ramdas Pophale) SiO2 
 PCOD9386203
Probable space group: P M M M
;
_chemical_formula_sum "Si O2"
_cell_formula_units_Z 64
_cell_length_a 8.394803
_cell_length_b 15.973791
_cell_length_c 24.628959
_cell_angle_alpha 90.000000
_cell_angle_beta 90.000000
_cell_angle_gamma 90.000000
_cell_volume 3302.665294
_symmetry_space_group_name_H-M "P M M M"
_symmetry_group_IT_number 47
_symmetry_cell_setting 'orthorhombic'
loop_
_space_group_symop_operation_xyz
x,y,z
-x,-y,z
x,-y,-z
-x,y,-z
-x,-y,-z
x,y,-z
-x,y,z
x,-y,z
loop_
_atom_site_type_symbol
_atom_site_label
_atom_site_fract_x
_atom_site_fract_y
_atom_site_fract_z
Si Si1 0.189648 0.856522 0.439569
Si Si2 0.189966 0.749150 0.258105
Si Si3 0.692195 0.592073 0.326509
Si Si4 0.807432 0.749356 0.865927
Si Si5 0.310561 0.908493 0.675621
Si Si6 0.805833 0.094242 0.937335
Si Si7 0.692367 0.595550 0.062587
Si Si8 0.307828 0.333684 0.559920
O O1 0.242360 0.884253 0.500000
O O2 0.269816 0.898733 0.387979
O O3 0.229409 0.757706 0.435667
O O4 0.000000 0.868637 0.436040
O O5 0.250746 0.667234 0.289078
O O6 0.249798 0.750908 0.196151
O O7 0.238729 0.831654 0.291202
O O8 0.000000 0.745731 0.256851
O O9 0.500000 0.591802 0.325322
O O10 0.749093 0.500000 0.309759
O O11 0.740276 0.611376 0.388698
O O12 0.750190 0.831225 0.898782
O O13 0.757172 0.665668 0.897346
O O14 0.000000 0.752204 0.865311
O O15 0.500000 0.904805 0.681732
O O16 0.252758 0.000000 0.694250
O O17 0.000000 0.094662 0.936499
O O18 0.755695 0.000000 0.921540
O O19 0.758295 0.108747 0.000000
O O20 0.500000 0.597636 0.064014
O O21 0.741539 0.500000 0.076079
O O22 0.741332 0.612501 0.000000
O O23 0.270236 0.368329 0.500000
O O24 0.500000 0.322436 0.562571
#
# Coordination Sequence:
#
# PCOD9386203 Si02
#       8
#     8   8   8   8   8   8   8   8
#     4  10  20  34  56  86 117 146 177 221 282 346
#     4  11  24  40  57  80 112 150 192 239 287 333
#     4  10  21  37  58  82 109 146 189 231 281 340
#     4  10  21  35  55  83 111 144 188 233 276 325
#     4  11  24  41  61  83 109 146 192 238 284 339
#     4   8  14  27  50  80 111 139 168 209 264 323
#     4   9  19  36  57  83 116 152 188 227 276 333
#     4   9  17  31  54  82 111 142 177 222 276 336
#
# _framework density 19.378287
#
# number of rings (size 3 to 8) (size 9 to 14) (size 15 to 20)
#    0.000    2.250    1.250    2.250    0.000    5.500 
#    0.000    6.875    0.000    0.375    0.000    4.375 
#    0.000    0.000    0.000    0.000    0.000    0.000 
#
# Total GULP energy -357237.122124 kJ/mol
# GULP energy per Si atom -5581.830033 kJ/mol
# Density = 1.933418 g / cm^3
# Si number density = 19.378287 Si / 1000 Ang^3
#
#
#
# Elastic Constant Matrix: (Units=GPa)
#
#
# Indices 1 2 3 4 5 6 
#
# 1 8.8468 17.6663 17.8104 0.0000 0.0000 0.0000
# 2 17.6663 167.2808 105.3083 0.0000 0.0000 0.0000
# 3 17.8104 105.3083 144.9961 0.0000 0.0000 0.0000
# 4 0.0000 0.0000 0.0000 -7.4590 0.0000 0.0000
# 5 0.0000 0.0000 0.0000 0.0000 22.1627 0.0000
# 6 0.0000 0.0000 0.0000 0.0000 0.0000 81.6269
#
#
#
# Elastic Compliance Matrix: (Units=1/GPa)
#
#
# Indices 1 2 3 4 5 6 
#
# 1 0.155943 -0.008125 -0.013254 0.000000 0.000000 0.000000
# 2 -0.008125 0.011437 -0.007308 0.000000 0.000000 0.000000
# 3 -0.013254 -0.007308 0.013833 0.000000 0.000000 0.000000
# 4 0.000000 0.000000 0.000000 -0.134066 0.000000 0.000000
# 5 0.000000 0.000000 0.000000 0.000000 0.045121 0.000000
# 6 0.000000 0.000000 0.000000 0.000000 0.000000 0.012251
#
#
# Mechanical properties :
#
#
# Convention : Reuss Voigt Hill
#
# Bulk Modulus (GPa) = 8.07507 66.96597 37.52052
# Shear Modulus (GPa) = 24.60953 31.28869 27.94911
#
# Velocity S-wave (km/s) = 3.56751 4.02260 3.80187
# Velocity P-wave (km/s) = 4.59843 7.49715 6.21904
#
# Compressibility (1/GPa) = 0.12383787
#
# Stress axis : x y z
#
# Youngs Moduli (GPa) = 6.41259 87.43609 72.29225
#
# Poissons Ratio (x) = 0.71044 0.95815
# Poissons Ratio (y) = 0.05210 0.52834
# Poissons Ratio (z) = 0.08499 0.63902
#
# Static dielectric constant tensor:
#      x y z
#    x 1.669700 0.000000 0.000000 
#    y 0.000000 1.674980 0.000000 
#    z 0.000000 0.000000 1.670950 
# 
# From -- ./inp_files/12778.got.cif
#   From: 2010.05.17/outbox.cif.g08.bks.cpg/sg47_7_cif.got.tgz:12778.got - 2010.06.03 20:15:42.
