data_PCOD9386446
_publ_section_title
;
Structure prediction by ZEFSAII (Michael W. Deem and Ramdas Pophale) SiO2 
 PCOD9386446
Probable space group: P M M M
;
_chemical_formula_sum "Si O2"
_cell_formula_units_Z 56
_cell_length_a 20.955250
_cell_length_b 8.825772
_cell_length_c 15.696588
_cell_angle_alpha 90.000000
_cell_angle_beta 90.000000
_cell_angle_gamma 90.000000
_cell_volume 2903.025225
_symmetry_space_group_name_H-M "P M M M"
_symmetry_group_IT_number 47
_symmetry_cell_setting 'orthorhombic'
loop_
_space_group_symop_operation_xyz
x,y,z
-x,-y,z
x,-y,-z
-x,y,-z
-x,-y,-z
x,y,-z
-x,y,z
x,-y,z
loop_
_atom_site_type_symbol
_atom_site_label
_atom_site_fract_x
_atom_site_fract_y
_atom_site_fract_z
Si Si1 0.380306 0.682297 0.904974
Si Si2 0.930198 0.817271 0.280548
Si Si3 0.572095 0.819091 0.268713
Si Si4 0.233697 0.676086 0.867411
Si Si5 0.897069 0.180850 0.091385
Si Si6 0.199503 0.323546 0.668843
Si Si7 0.669621 0.683132 0.595591
O O1 0.386668 0.500000 0.896876
O O2 0.415352 0.760143 0.826710
O O3 0.304737 0.716611 0.895734
O O4 0.401840 0.725869 0.000000
O O5 0.924484 0.762979 0.181561
O O6 0.868402 0.758588 0.330100
O O7 0.000000 0.771311 0.313460
O O8 0.927585 0.000000 0.279333
O O9 0.500000 0.777169 0.294381
O O10 0.623388 0.748916 0.332954
O O11 0.577988 0.000000 0.269846
O O12 0.222130 0.500000 0.891245
O O13 0.177815 0.779167 0.904139
O O14 0.227235 0.686070 0.765201
O O15 0.906461 0.000000 0.091519
O O16 0.921854 0.238880 0.000000
O O17 0.188361 0.500000 0.649276
O O18 0.257223 0.265697 0.610724
O O19 0.648930 0.722821 0.500000
O O20 0.669831 0.500000 0.603830
#
# Coordination Sequence:
#
# PCOD9386446 Si02
#       7
#     8   8   8   8   8   8   8
#     4  10  20  35  57  83 112 151 199 245 287 333
#     4   9  18  31  47  70 102 143 187 226 270 328
#     4  11  25  42  59  83 120 160 192 231 283 339
#     4   9  16  29  49  72 101 136 175 224 279 328
#     4   9  17  27  40  63  96 134 178 227 276 324
#     4   9  17  32  55  81 108 137 174 224 280 334
#     4  10  21  40  67  94 116 142 183 234 288 348
#
# _framework density 19.290220999999999
#
# number of rings (size 3 to 8) (size 9 to 14) (size 15 to 20)
#    0.000    2.429    1.429    0.857    0.000    4.857 
#    0.000    4.286    0.000    0.429    0.000    7.000 
#    0.000    0.000    0.000    0.000    0.000    0.000 
#
# Total GULP energy -312352.451028 kJ/mol
# GULP energy per Si atom -5577.722340 kJ/mol
# Density = 1.924632 g / cm^3
# Si number density = 19.290221 Si / 1000 Ang^3
#
#
#
# Elastic Constant Matrix: (Units=GPa)
#
#
# Indices 1 2 3 4 5 6 
#
# 1 119.3712 33.0066 46.5145 0.0000 0.0000 0.0000
# 2 33.0066 14.0946 22.4283 0.0000 0.0000 0.0000
# 3 46.5145 22.4283 76.7367 0.0000 0.0000 0.0000
# 4 0.0000 0.0000 0.0000 11.8414 0.0000 0.0000
# 5 0.0000 0.0000 0.0000 0.0000 -7.4405 0.0000
# 6 0.0000 0.0000 0.0000 0.0000 0.0000 26.9354
#
#
#
# Elastic Compliance Matrix: (Units=1/GPa)
#
#
# Indices 1 2 3 4 5 6 
#
# 1 0.024273 -0.062497 0.003553 0.000000 0.000000 0.000000
# 2 -0.062497 0.293548 -0.047914 0.000000 0.000000 0.000000
# 3 0.003553 -0.047914 0.024882 0.000000 0.000000 0.000000
# 4 0.000000 0.000000 0.000000 0.084450 0.000000 0.000000
# 5 0.000000 0.000000 0.000000 0.000000 -0.134399 0.000000
# 6 0.000000 0.000000 0.000000 0.000000 0.000000 0.037126
#
#
# Mechanical properties :
#
#
# Convention : Reuss Voigt Hill
#
# Bulk Modulus (GPa) = 7.75270 46.01125 26.88197
# Shear Modulus (GPa) = 8.52379 13.48411 11.00395
#
# Velocity S-wave (km/s) = 2.10435 2.64675 2.39098
# Velocity P-wave (km/s) = 3.15152 5.76579 4.64631
#
# Compressibility (1/GPa) = 0.12898740
#
# Stress axis : x y z
#
# Youngs Moduli (GPa) = 41.19737 3.40659 40.18927
#
# Poissons Ratio (x) = 0.21290 -0.14279
# Poissons Ratio (y) = 2.57470 1.92565
# Poissons Ratio (z) = -0.14637 0.16323
#
# Static dielectric constant tensor:
#      x y z
#    x 1.673480 0.000000 0.000000 
#    y 0.000000 1.656030 0.000000 
#    z 0.000000 0.000000 1.692510 
# 
# From -- ./inp_files/11187.got.cif
#   From: 2010.05.17/outbox.cif.g08.bks.cpg/sg47_6_cif.got.tgz:11187.got - 2010.06.03 20:15:42.
