data_PCOD9386258
_publ_section_title
;
Structure prediction by ZEFSAII (Michael W. Deem and Ramdas Pophale) SiO2 
 PCOD9386258
Probable space group: P M M M
;
_chemical_formula_sum "Si O2"
_cell_formula_units_Z 52
_cell_length_a 29.204886
_cell_length_b 7.368288
_cell_length_c 13.867421
_cell_angle_alpha 90.000000
_cell_angle_beta 90.000000
_cell_angle_gamma 90.000000
_cell_volume 2984.130478
_symmetry_space_group_name_H-M "P M M M"
_symmetry_group_IT_number 47
_symmetry_cell_setting 'orthorhombic'
loop_
_space_group_symop_operation_xyz
x,y,z
-x,-y,z
x,-y,-z
-x,y,-z
-x,-y,-z
x,y,-z
-x,y,z
x,-y,z
loop_
_atom_site_type_symbol
_atom_site_label
_atom_site_fract_x
_atom_site_fract_y
_atom_site_fract_z
Si Si1 0.089840 0.218882 0.233233
Si Si2 0.229076 0.500000 0.386016
Si Si3 0.549160 0.718180 0.887735
Si Si4 0.735021 0.780970 0.761762
Si Si5 0.349160 0.212531 0.889512
Si Si6 0.821887 0.780541 0.891418
Si Si7 0.000000 0.779758 0.888456
Si Si8 0.881389 0.500000 0.385716
O O1 0.133679 0.271402 0.168798
O O2 0.044874 0.270823 0.172451
O O3 0.096442 0.326420 0.332451
O O4 0.089623 0.000000 0.247073
O O5 0.236645 0.500000 0.500000
O O6 0.252003 0.673668 0.334510
O O7 0.173896 0.500000 0.369938
O O8 0.500000 0.779374 0.845809
O O9 0.548647 0.500000 0.886643
O O10 0.598937 0.772263 0.850657
O O11 0.549324 0.776804 0.000000
O O12 0.688200 0.719478 0.813839
O O13 0.775671 0.733904 0.836176
O O14 0.734488 0.000000 0.746912
O O15 0.338656 0.000000 0.899086
O O16 0.347071 0.287935 0.000000
O O17 0.822865 0.000000 0.895912
O O18 0.822818 0.711778 0.000000
O O19 0.000000 0.000000 0.893175
O O20 0.000000 0.716769 0.000000
O O21 0.889242 0.500000 0.500000
#
# Coordination Sequence:
#
# PCOD9386258 Si02
#       8
#     8   4   8   8   8   8   4   4
#     4  10  20  37  58  82 110 141 176 214 258 309
#     4  11  24  40  57  77  99 130 177 223 263 313
#     4   8  14  24  37  57  91 137 182 214 240 279
#     4  10  20  35  53  77 106 133 167 211 262 314
#     4   9  17  28  44  69 102 138 171 206 250 301
#     4   9  16  29  51  76 106 140 167 199 246 302
#     4   9  18  35  61  88 115 147 176 208 254 308
#     4  11  24  41  59  80 105 134 179 230 268 309
#
# _framework density 17.425511
#
# number of rings (size 3 to 8) (size 9 to 14) (size 15 to 20)
#    0.000    2.538    1.538    1.385    1.077    4.923 
#    0.000    7.692    0.000    1.385    0.000    0.000 
#    0.000    1.231    0.000    3.385    0.000    0.154 
#
# Total GULP energy -289851.088993 kJ/mol
# GULP energy per Si atom -5574.059404 kJ/mol
# Density = 1.738585 g / cm^3
# Si number density = 17.425511 Si / 1000 Ang^3
#
#
#
# Elastic Constant Matrix: (Units=GPa)
#
#
# Indices 1 2 3 4 5 6 
#
# 1 159.1369 25.1131 73.4121 0.0000 0.0000 0.0000
# 2 25.1131 81.6150 39.8893 0.0000 0.0000 0.0000
# 3 73.4121 39.8893 130.4012 0.0000 0.0000 0.0000
# 4 0.0000 0.0000 0.0000 26.0386 0.0000 0.0000
# 5 0.0000 0.0000 0.0000 0.0000 12.7966 0.0000
# 6 0.0000 0.0000 0.0000 0.0000 0.0000 26.7387
#
#
#
# Elastic Compliance Matrix: (Units=1/GPa)
#
#
# Indices 1 2 3 4 5 6 
#
# 1 0.008496 -0.000325 -0.004683 0.000000 0.000000 0.000000
# 2 -0.000325 0.014419 -0.004228 0.000000 0.000000 0.000000
# 3 -0.004683 -0.004228 0.011598 0.000000 0.000000 0.000000
# 4 0.000000 0.000000 0.000000 0.038404 0.000000 0.000000
# 5 0.000000 0.000000 0.000000 0.000000 0.078146 0.000000
# 6 0.000000 0.000000 0.000000 0.000000 0.000000 0.037399
#
#
# Mechanical properties :
#
#
# Convention : Reuss Voigt Hill
#
# Bulk Modulus (GPa) = 62.34113 71.99801 67.16957
# Shear Modulus (GPa) = 23.55363 28.63070 26.09216
#
# Velocity S-wave (km/s) = 3.68050 4.05783 3.87376
# Velocity P-wave (km/s) = 7.34268 7.96002 7.65757
#
# Compressibility (1/GPa) = 0.01604077
#
# Stress axis : x y z
#
# Youngs Moduli (GPa) = 117.70636 69.35309 86.21821
#
# Poissons Ratio (x) = 0.02255 0.40379
# Poissons Ratio (y) = 0.03827 0.36450
# Poissons Ratio (z) = 0.55126 0.29320
#
# Static dielectric constant tensor:
#      x y z
#    x 1.613820 0.000000 0.000000 
#    y 0.000000 1.657790 0.000000 
#    z 0.000000 0.000000 1.550430 
# 
# From -- ./inp_files/19854.got.cif
#   From: 2010.05.17/outbox.cif.g08.bks.cpg/sg47_10_cif.got.tgz:19854.got - 2010.06.03 20:15:42.
