data_PCOD9386019
_publ_section_title
;
Structure prediction by ZEFSAII (Michael W. Deem and Ramdas Pophale) SiO2 
 PCOD9386019
Probable space group: P M M M
;
_chemical_formula_sum "Si O2"
_cell_formula_units_Z 44
_cell_length_a 31.091980
_cell_length_b 7.985732
_cell_length_c 9.496703
_cell_angle_alpha 90.000000
_cell_angle_beta 90.000000
_cell_angle_gamma 90.000000
_cell_volume 2357.957467
_symmetry_space_group_name_H-M "P M M M"
_symmetry_group_IT_number 47
_symmetry_cell_setting 'orthorhombic'
loop_
_space_group_symop_operation_xyz
x,y,z
-x,-y,z
x,-y,-z
-x,y,-z
-x,-y,-z
x,y,-z
-x,y,z
x,-y,z
loop_
_atom_site_type_symbol
_atom_site_label
_atom_site_fract_x
_atom_site_fract_y
_atom_site_fract_z
Si Si1 0.390354 0.191444 0.831856
Si Si2 0.129640 0.199039 0.840678
Si Si3 0.223291 0.299477 0.161201
Si Si4 0.549020 0.500000 0.170900
Si Si5 0.694049 0.296240 0.664200
Si Si6 0.952645 0.701815 0.662028
O O1 0.424751 0.333075 0.788851
O O2 0.346675 0.224168 0.747085
O O3 0.405092 0.000000 0.809500
O O4 0.382246 0.211909 0.000000
O O5 0.175584 0.260177 0.783490
O O6 0.087911 0.244516 0.752189
O O7 0.132096 0.000000 0.847976
O O8 0.125575 0.267794 0.000000
O O9 0.227034 0.500000 0.153906
O O10 0.262121 0.239995 0.258881
O O11 0.226597 0.233890 0.000000
O O12 0.500000 0.500000 0.222574
O O13 0.547475 0.500000 0.000000
O O14 0.693671 0.249718 0.500000
O O15 0.691805 0.500000 0.672094
O O16 0.948080 0.757939 0.500000
O O17 0.953237 0.500000 0.661286
O O18 0.000000 0.758481 0.713552
#
# Coordination Sequence:
#
# PCOD9386019 Si02
#       6
#     8   8   8   4   8   8
#     4  10  20  34  56  84 113 149 189 229 278 333
#     4  10  21  35  51  75 107 138 169 210 260 315
#     4   9  18  33  53  75 103 142 183 221 263 315
#     4   9  18  34  57  85 117 149 185 235 284 327
#     4  10  20  34  54  80 110 144 182 226 275 325
#     4   9  19  36  56  76  98 128 169 215 261 312
#
# _framework density 18.660218
#
# number of rings (size 3 to 8) (size 9 to 14) (size 15 to 20)
#    0.000    2.455    0.909    1.636    0.000    5.091 
#    0.000    8.182    0.000    1.091    0.000    1.273 
#    0.000    0.000    0.000    0.000    0.000    0.000 
#
# Total GULP energy -245430.852407 kJ/mol
# GULP energy per Si atom -5577.973918 kJ/mol
# Density = 1.861775 g / cm^3
# Si number density = 18.660218 Si / 1000 Ang^3
#
#
#
# Elastic Constant Matrix: (Units=GPa)
#
#
# Indices 1 2 3 4 5 6 
#
# 1 199.6601 55.7933 75.4521 0.0000 0.0000 0.0000
# 2 55.7933 61.3155 34.1476 0.0000 0.0000 0.0000
# 3 75.4521 34.1476 59.8669 0.0000 0.0000 0.0000
# 4 0.0000 0.0000 0.0000 12.5895 0.0000 0.0000
# 5 0.0000 0.0000 0.0000 0.0000 -107.2855 0.0000
# 6 0.0000 0.0000 0.0000 0.0000 0.0000 -12.3091
#
#
#
# Elastic Compliance Matrix: (Units=1/GPa)
#
#
# Indices 1 2 3 4 5 6 
#
# 1 0.009933 -0.003028 -0.010791 0.000000 0.000000 0.000000
# 2 -0.003028 0.024825 -0.010343 0.000000 0.000000 0.000000
# 3 -0.010791 -0.010343 0.036204 0.000000 0.000000 0.000000
# 4 0.000000 0.000000 0.000000 0.079431 0.000000 0.000000
# 5 0.000000 0.000000 0.000000 0.000000 -0.009321 0.000000
# 6 0.000000 0.000000 0.000000 0.000000 0.000000 -0.081241
#
#
# Mechanical properties :
#
#
# Convention : Reuss Voigt Hill
#
# Bulk Modulus (GPa) = 44.17727 72.40319 58.29023
# Shear Modulus (GPa) = 43.21424 -11.03772 16.08826
#
# Velocity S-wave (km/s) = 4.81755 -2.43474 2.93946
# Velocity P-wave (km/s) = 7.39398 5.56607 6.54416
#
# Compressibility (1/GPa) = 0.02263607
#
# Stress axis : x y z
#
# Youngs Moduli (GPa) = 100.67624 40.28184 27.62127
#
# Poissons Ratio (x) = 0.12199 0.29807
# Poissons Ratio (y) = 0.30489 0.28569
# Poissons Ratio (z) = 1.08642 0.41664
#
# Static dielectric constant tensor:
#      x y z
#    x 1.627290 0.000000 0.000000 
#    y 0.000000 1.664160 0.000000 
#    z 0.000000 0.000000 1.636910 
# 
# From -- ./inp_files/2152.got.cif
#   From: 2010.05.17/outbox.cif.g08.bks.cpg/sg47_2_cif.got.tgz:2152.got - 2010.06.03 20:15:42.
