data_PCOD9386731
_publ_section_title
;
Structure prediction by ZEFSAII (Michael W. Deem and Ramdas Pophale) SiO2 
 PCOD9386731
Probable space group: P M M M
;
_chemical_formula_sum "Si O2"
_cell_formula_units_Z 48
_cell_length_a 17.657257
_cell_length_b 9.196152
_cell_length_c 15.957405
_cell_angle_alpha 90.000000
_cell_angle_beta 90.000000
_cell_angle_gamma 90.000000
_cell_volume 2591.144583
_symmetry_space_group_name_H-M "P M M M"
_symmetry_group_IT_number 47
_symmetry_cell_setting 'orthorhombic'
loop_
_space_group_symop_operation_xyz
x,y,z
-x,-y,z
x,-y,-z
-x,y,-z
-x,-y,-z
x,y,-z
-x,y,z
x,-y,z
loop_
_atom_site_type_symbol
_atom_site_label
_atom_site_fract_x
_atom_site_fract_y
_atom_site_fract_z
Si Si1 0.841272 0.670586 0.161523
Si Si2 0.090551 0.168299 0.000000
Si Si3 0.812809 0.823432 0.338066
Si Si4 0.349524 0.670671 0.659745
Si Si5 0.500000 0.165540 0.599539
Si Si6 0.589451 0.163382 0.000000
Si Si7 0.337893 0.659470 0.856866
Si Si8 0.086629 0.823965 0.500000
O O1 0.863908 0.500000 0.170157
O O2 0.844163 0.754066 0.251067
O O3 0.752462 0.671871 0.138161
O O4 0.882924 0.749601 0.084613
O O5 0.000000 0.166306 0.000000
O O6 0.117950 0.000000 0.000000
O O7 0.729553 0.755250 0.356483
O O8 0.867468 0.784908 0.415864
O O9 0.807734 0.000000 0.330700
O O10 0.343983 0.500000 0.634274
O O11 0.423553 0.748842 0.623772
O O12 0.358508 0.673874 0.760080
O O13 0.500000 0.154798 0.500000
O O14 0.500000 0.000000 0.634592
O O15 0.622022 0.230628 0.916418
O O16 0.500000 0.176205 0.000000
O O17 0.614249 0.000000 0.000000
O O18 0.360398 0.500000 0.886386
O O19 0.000000 0.769861 0.500000
O O20 0.083565 0.000000 0.500000
#
# Coordination Sequence:
#
# PCOD9386731 Si02
#       8
#     8   4   8   8   4   4   8   4
#     4  10  21  39  61  87 118 153 197 245 298 357
#     4  11  24  39  58  88 122 157 198 245 302 367
#     4  10  20  37  63  91 121 160 205 250 302 362
#     4  10  22  40  61  87 118 155 199 247 301 355
#     4  11  25  41  59  86 119 154 197 245 300 363
#     4  11  24  35  48  78 112 143 186 237 284 325
#     4   9  20  38  58  79 107 148 191 231 281 343
#     4   9  20  38  61  90 123 158 197 245 298 355
#
# _framework density 18.524633999999999
#
# number of rings (size 3 to 8) (size 9 to 14) (size 15 to 20)
#    0.000    2.000    0.000    3.750    2.333    8.667 
#    0.000    2.917    0.000    3.500    0.000    0.000 
#    0.000    0.000    0.000    0.000    0.000    0.000 
#
# Total GULP energy -267799.861245 kJ/mol
# GULP energy per Si atom -5579.163776 kJ/mol
# Density = 1.848247 g / cm^3
# Si number density = 18.524634 Si / 1000 Ang^3
#
#
#
# Elastic Constant Matrix: (Units=GPa)
#
#
# Indices 1 2 3 4 5 6 
#
# 1 94.7887 73.8296 86.2179 0.0000 0.0000 0.0000
# 2 73.8296 155.1437 78.6871 0.0000 0.0000 0.0000
# 3 86.2179 78.6871 105.8351 0.0000 0.0000 0.0000
# 4 0.0000 0.0000 0.0000 20.0437 0.0000 0.0000
# 5 0.0000 0.0000 0.0000 0.0000 -36.6582 0.0000
# 6 0.0000 0.0000 0.0000 0.0000 0.0000 -36.8777
#
#
#
# Elastic Compliance Matrix: (Units=1/GPa)
#
#
# Indices 1 2 3 4 5 6 
#
# 1 0.042422 -0.004270 -0.031384 0.000000 0.000000 0.000000
# 2 -0.004270 0.010777 -0.004534 0.000000 0.000000 0.000000
# 3 -0.031384 -0.004534 0.038387 0.000000 0.000000 0.000000
# 4 0.000000 0.000000 0.000000 0.049891 0.000000 0.000000
# 5 0.000000 0.000000 0.000000 0.000000 -0.027279 0.000000
# 6 0.000000 0.000000 0.000000 0.000000 0.000000 -0.027117
#
#
# Mechanical properties :
#
#
# Convention : Reuss Voigt Hill
#
# Bulk Modulus (GPa) = 89.21211 92.58183 90.89697
# Shear Modulus (GPa) = 29.20661 -2.89624 13.15518
#
# Velocity S-wave (km/s) = 3.97500 -1.25174 2.66775
# Velocity P-wave (km/s) = 8.32650 6.92799 7.65923
#
# Compressibility (1/GPa) = 0.01120924
#
# Stress axis : x y z
#
# Youngs Moduli (GPa) = 23.57273 92.78663 26.05082
#
# Poissons Ratio (x) = 0.39621 0.81758
# Poissons Ratio (y) = 0.10066 0.11812
# Poissons Ratio (z) = 0.73980 0.42072
#
# Static dielectric constant tensor:
#      x y z
#    x 1.689810 0.000000 0.000000 
#    y 0.000000 1.651390 0.000000 
#    z 0.000000 0.000000 1.381030 
# 
# From -- ./inp_files/24530.got.cif
#   From: 2010.05.17/outbox.cif.g08.bks.cpg/sg47_13_cif.got.tgz:24530.got - 2010.06.03 20:15:42.
