data_PCOD9386391
_publ_section_title
;
Structure prediction by ZEFSAII (Michael W. Deem and Ramdas Pophale) SiO2 
 PCOD9386391
Probable space group: P M M M
;
_chemical_formula_sum "Si O2"
_cell_formula_units_Z 56
_cell_length_a 15.411274
_cell_length_b 7.595240
_cell_length_c 20.447019
_cell_angle_alpha 90.000000
_cell_angle_beta 90.000000
_cell_angle_gamma 90.000000
_cell_volume 2393.371108
_symmetry_space_group_name_H-M "P M M M"
_symmetry_group_IT_number 47
_symmetry_cell_setting 'orthorhombic'
loop_
_space_group_symop_operation_xyz
x,y,z
-x,-y,z
x,-y,-z
-x,y,-z
-x,-y,-z
x,y,-z
-x,y,z
x,-y,z
loop_
_atom_site_type_symbol
_atom_site_label
_atom_site_fract_x
_atom_site_fract_y
_atom_site_fract_z
Si Si1 0.278578 0.713283 0.575190
Si Si2 0.280651 0.704825 0.805311
Si Si3 0.403590 0.793629 0.309697
Si Si4 0.896320 0.200582 0.069159
Si Si5 0.098247 0.698193 0.213704
Si Si6 0.908408 0.710679 0.578874
Si Si7 0.399296 0.285271 0.075696
O O1 0.289588 0.770284 0.500000
O O2 0.275342 0.500000 0.574699
O O3 0.353775 0.770028 0.622611
O O4 0.184562 0.777203 0.601283
O O5 0.260765 0.500000 0.818306
O O6 0.351870 0.708601 0.749147
O O7 0.192103 0.783842 0.772550
O O8 0.327063 0.776354 0.871473
O O9 0.500000 0.722040 0.314713
O O10 0.407009 0.000000 0.294795
O O11 0.888017 0.306813 0.135020
O O12 0.000000 0.188243 0.062766
O O13 0.864256 0.000000 0.078162
O O14 0.861696 0.271172 0.000000
O O15 0.095637 0.500000 0.241737
O O16 0.000000 0.773010 0.224591
O O17 0.908270 0.734765 0.500000
O O18 0.909746 0.500000 0.589649
O O19 0.000000 0.782276 0.604746
O O20 0.500000 0.233477 0.091545
O O21 0.398197 0.500000 0.077660
O O22 0.381924 0.233467 0.000000
#
# Coordination Sequence:
#
# PCOD9386391 Si02
#       7
#     8   8   8   8   8   8   8
#     4   9  18  34  59  90 118 145 182 224 262 307
#     4  10  20  35  57  80 103 138 182 223 264 320
#     4  11  25  42  58  78 107 143 180 221 273 328
#     4   8  14  25  41  62  91 131 177 217 254 304
#     4   9  18  31  47  71 102 133 169 219 275 322
#     4   7  10  20  43  77 114 146 175 211 255 300
#     4   8  14  26  47  76 104 127 161 217 277 322
#
# _framework density 23.397957999999999
#
# number of rings (size 3 to 8) (size 9 to 14) (size 15 to 20)
#    0.000    3.143    0.000    3.000    0.000    3.714 
#    0.000    5.000    0.000    5.143    0.000    4.000 
#    0.000    0.000    0.000    0.000    0.000    0.000 
#
# Total GULP energy -311956.429082 kJ/mol
# GULP energy per Si atom -5570.650519 kJ/mol
# Density = 2.334470 g / cm^3
# Si number density = 23.397958 Si / 1000 Ang^3
#
#
#
# Elastic Constant Matrix: (Units=GPa)
#
#
# Indices 1 2 3 4 5 6 
#
# 1 222.5691 9.1336 61.4290 0.0000 0.0000 0.0000
# 2 9.1336 51.4209 0.7238 0.0000 0.0000 0.0000
# 3 61.4290 0.7238 76.1086 0.0000 0.0000 0.0000
# 4 0.0000 0.0000 0.0000 3.9112 0.0000 0.0000
# 5 0.0000 0.0000 0.0000 0.0000 105.7241 0.0000
# 6 0.0000 0.0000 0.0000 0.0000 0.0000 3.7931
#
#
#
# Elastic Compliance Matrix: (Units=1/GPa)
#
#
# Indices 1 2 3 4 5 6 
#
# 1 0.005829 -0.000969 -0.004695 0.000000 0.000000 0.000000
# 2 -0.000969 0.019611 0.000596 0.000000 0.000000 0.000000
# 3 -0.004695 0.000596 0.016923 0.000000 0.000000 0.000000
# 4 0.000000 0.000000 0.000000 0.255678 0.000000 0.000000
# 5 0.000000 0.000000 0.000000 0.000000 0.009459 0.000000
# 6 0.000000 0.000000 0.000000 0.000000 0.000000 0.263636
#
#
# Mechanical properties :
#
#
# Convention : Reuss Voigt Hill
#
# Bulk Modulus (GPa) = 31.03133 54.74127 42.88630
# Shear Modulus (GPa) = 8.44573 41.27315 24.85944
#
# Velocity S-wave (km/s) = 1.90196 4.20451 3.26308
# Velocity P-wave (km/s) = 4.25611 6.85690 5.70664
#
# Compressibility (1/GPa) = 0.03222550
#
# Stress axis : x y z
#
# Youngs Moduli (GPa) = 171.56673 50.99146 59.09098
#
# Poissons Ratio (x) = 0.04942 0.27744
# Poissons Ratio (y) = 0.16629 -0.03520
# Poissons Ratio (z) = 0.80554 -0.03038
#
# Static dielectric constant tensor:
#      x y z
#    x 1.965790 0.000000 0.000000 
#    y 0.000000 1.892040 0.000000 
#    z 0.000000 0.000000 1.909930 
# 
# From -- ./inp_files/30975.got.cif
#   From: 2010.05.17/outbox.cif.g08.bks.cpg/sg47_16_cif.got.tgz:30975.got - 2010.06.03 20:15:42.
