data_PCOD9386898
_publ_section_title
;
Structure prediction by ZEFSAII (Michael W. Deem and Ramdas Pophale) SiO2 
 PCOD9386898
Probable space group: P M M M
;
_chemical_formula_sum "Si O2"
_cell_formula_units_Z 64
_cell_length_a 8.922280
_cell_length_b 14.495419
_cell_length_c 26.891490
_cell_angle_alpha 90.000000
_cell_angle_beta 90.000000
_cell_angle_gamma 90.000000
_cell_volume 3477.935214
_symmetry_space_group_name_H-M "P M M M"
_symmetry_group_IT_number 47
_symmetry_cell_setting 'orthorhombic'
loop_
_space_group_symop_operation_xyz
x,y,z
-x,-y,z
x,-y,-z
-x,y,-z
-x,-y,-z
x,y,-z
-x,y,z
x,-y,z
loop_
_atom_site_type_symbol
_atom_site_label
_atom_site_fract_x
_atom_site_fract_y
_atom_site_fract_z
Si Si1 0.817487 0.107309 0.849317
Si Si2 0.177738 0.392411 0.311049
Si Si3 0.322258 0.218807 0.353194
Si Si4 0.178278 0.888734 0.738788
Si Si5 0.180679 0.219499 0.054396
Si Si6 0.680998 0.606749 0.097450
Si Si7 0.820163 0.107891 0.557385
Si Si8 0.329278 0.611977 0.208886
O O1 0.769943 0.140535 0.794321
O O2 0.765008 0.162029 0.897786
O O3 0.000000 0.110543 0.848688
O O4 0.775271 0.000000 0.853784
O O5 0.220091 0.500000 0.317839
O O6 0.259857 0.322195 0.347278
O O7 0.225286 0.364062 0.255007
O O8 0.000000 0.384544 0.316366
O O9 0.500000 0.219147 0.352831
O O10 0.261876 0.161390 0.305760
O O11 0.260622 0.170847 0.402685
O O12 0.000000 0.869918 0.734276
O O13 0.196433 0.000000 0.735662
O O14 0.244016 0.322172 0.060466
O O15 0.000000 0.221568 0.056496
O O16 0.223375 0.181709 0.000000
O O17 0.500000 0.611246 0.094943
O O18 0.723907 0.500000 0.089705
O O19 0.724293 0.636858 0.153752
O O20 0.782063 0.129207 0.500000
O O21 0.000000 0.117221 0.562746
O O22 0.784016 0.000000 0.566274
O O23 0.500000 0.645160 0.217008
O O24 0.336324 0.500000 0.207560
#
# Coordination Sequence:
#
# PCOD9386898 Si02
#       8
#     8   8   8   8   8   8   8   8
#     4   8  16  33  55  76  99 131 170 214 267 322
#     4  10  21  36  54  77 107 146 191 233 273 322
#     4  12  24  34  52  84 120 155 187 226 276 328
#     4   9  18  34  55  78 107 142 181 225 270 324
#     4  10  21  34  50  76 103 127 167 223 272 316
#     4   9  19  35  53  72  98 134 171 207 256 324
#     4   9  19  38  63  88 116 153 196 239 279 321
#     4   8  15  30  50  72  99 129 165 213 267 320
#
# _framework density 18.401721999999999
#
# number of rings (size 3 to 8) (size 9 to 14) (size 15 to 20)
#    0.000    2.625    0.000    3.750    1.750    4.500 
#    0.000    4.375    0.000    1.500    0.000    3.500 
#    0.000    0.000    0.000    0.000    0.000    0.000 
#
# Total GULP energy -357110.894121 kJ/mol
# GULP energy per Si atom -5579.857721 kJ/mol
# Density = 1.835984 g / cm^3
# Si number density = 18.401722 Si / 1000 Ang^3
#
#
#
# Elastic Constant Matrix: (Units=GPa)
#
#
# Indices 1 2 3 4 5 6 
#
# 1 39.1998 34.8137 53.4152 0.0000 0.0000 0.0000
# 2 34.8137 77.6305 74.0716 0.0000 0.0000 0.0000
# 3 53.4152 74.0716 133.7872 0.0000 0.0000 0.0000
# 4 0.0000 0.0000 0.0000 31.9918 0.0000 0.0000
# 5 0.0000 0.0000 0.0000 0.0000 5.6030 0.0000
# 6 0.0000 0.0000 0.0000 0.0000 0.0000 10.6305
#
#
#
# Elastic Compliance Matrix: (Units=1/GPa)
#
#
# Indices 1 2 3 4 5 6 
#
# 1 0.058399 -0.008357 -0.018689 0.000000 0.000000 0.000000
# 2 -0.008357 0.028503 -0.012444 0.000000 0.000000 0.000000
# 3 -0.018689 -0.012444 0.021826 0.000000 0.000000 0.000000
# 4 0.000000 0.000000 0.000000 0.031258 0.000000 0.000000
# 5 0.000000 0.000000 0.000000 0.000000 0.178476 0.000000
# 6 0.000000 0.000000 0.000000 0.000000 0.000000 0.094069
#
#
# Mechanical properties :
#
#
# Convention : Reuss Voigt Hill
#
# Bulk Modulus (GPa) = 33.61642 63.91315 48.76479
# Shear Modulus (GPa) = 9.97152 15.53284 12.75218
#
# Velocity S-wave (km/s) = 2.33036 2.90849 2.63532
# Velocity P-wave (km/s) = 5.05455 6.78871 5.98478
#
# Compressibility (1/GPa) = 0.02974736
#
# Stress axis : x y z
#
# Youngs Moduli (GPa) = 17.12363 35.08415 45.81664
#
# Poissons Ratio (x) = 0.29319 0.85628
# Poissons Ratio (y) = 0.14310 0.57015
# Poissons Ratio (z) = 0.32003 0.43660
#
# Static dielectric constant tensor:
#      x y z
#    x 1.610330 0.000000 0.000000 
#    y 0.000000 1.646260 0.000000 
#    z 0.000000 0.000000 1.639830 
# 
# From -- ./inp_files/7926.got.cif
#   From: 2010.05.17/outbox.cif.g08.bks.cpg/sg47_4_cif.got.tgz:7926.got - 2010.06.03 20:15:42.
