data_PCOD9386595
_publ_section_title
;
Structure prediction by ZEFSAII (Michael W. Deem and Ramdas Pophale) SiO2 
 PCOD9386595
Probable space group: P M M M
;
_chemical_formula_sum "Si O2"
_cell_formula_units_Z 48
_cell_length_a 8.158700
_cell_length_b 17.245641
_cell_length_c 16.487660
_cell_angle_alpha 90.000000
_cell_angle_beta 90.000000
_cell_angle_gamma 90.000000
_cell_volume 2319.846922
_symmetry_space_group_name_H-M "P M M M"
_symmetry_group_IT_number 47
_symmetry_cell_setting 'orthorhombic'
loop_
_space_group_symop_operation_xyz
x,y,z
-x,-y,z
x,-y,-z
-x,y,-z
-x,-y,-z
x,y,-z
-x,y,z
x,-y,z
loop_
_atom_site_type_symbol
_atom_site_label
_atom_site_fract_x
_atom_site_fract_y
_atom_site_fract_z
Si Si1 0.805356 0.338182 0.669690
Si Si2 0.800563 0.179941 0.410492
Si Si3 0.303267 0.500000 0.594490
Si Si4 0.192517 0.176616 0.911423
Si Si5 0.687223 0.333085 0.149795
Si Si6 0.200553 0.090103 0.249561
Si Si7 0.188893 0.500000 0.097140
O O1 0.760489 0.269748 0.607625
O O2 0.763093 0.422540 0.636210
O O3 0.717043 0.323697 0.754650
O O4 0.000000 0.332812 0.684775
O O5 0.741905 0.156434 0.500000
O O6 0.743759 0.130434 0.333095
O O7 0.000000 0.174330 0.411599
O O8 0.500000 0.500000 0.600576
O O9 0.256229 0.500000 0.500000
O O10 0.208190 0.268599 0.896533
O O11 0.260333 0.133980 0.831481
O O12 0.000000 0.156888 0.914039
O O13 0.263575 0.156731 0.000000
O O14 0.500000 0.317863 0.128612
O O15 0.730612 0.421172 0.128134
O O16 0.000000 0.095125 0.249793
O O17 0.244839 0.000000 0.247481
O O18 0.000000 0.500000 0.124078
O O19 0.195355 0.500000 0.000000
#
# Coordination Sequence:
#
# PCOD9386595 Si02
#       7
#     8   8   4   8   8   8   4
#     4  11  21  37  59  81 112 153 201 246 288 344
#     4   9  17  30  52  83 116 149 187 234 288 344
#     4  11  24  39  54  81 121 157 196 246 297 348
#     4  10  20  36  58  84 116 155 197 238 287 347
#     4  12  24  38  58  84 116 152 194 241 295 348
#     4   9  17  31  53  84 120 151 185 236 294 349
#     4  11  24  41  60  83 113 151 194 238 287 342
#
# _framework density 20.691019000000001
#
# number of rings (size 3 to 8) (size 9 to 14) (size 15 to 20)
#    0.000    1.667    1.667    4.000    0.000    5.000 
#    0.000    3.333    0.000    0.500    0.000    1.167 
#    0.000    1.333    0.000    0.000    0.000    0.000 
#
# Total GULP energy -268182.538733 kJ/mol
# GULP energy per Si atom -5587.136224 kJ/mol
# Density = 2.064393 g / cm^3
# Si number density = 20.691019 Si / 1000 Ang^3
#
#
#
# Elastic Constant Matrix: (Units=GPa)
#
#
# Indices 1 2 3 4 5 6 
#
# 1 19.5806 -6.8609 2.8577 0.0000 0.0000 0.0000
# 2 -6.8609 121.1385 70.3730 0.0000 0.0000 0.0000
# 3 2.8577 70.3730 168.3595 0.0000 0.0000 0.0000
# 4 0.0000 0.0000 0.0000 -13.9900 0.0000 0.0000
# 5 0.0000 0.0000 0.0000 0.0000 -0.2544 0.0000
# 6 0.0000 0.0000 0.0000 0.0000 0.0000 -37.1493
#
#
#
# Elastic Compliance Matrix: (Units=1/GPa)
#
#
# Indices 1 2 3 4 5 6 
#
# 1 0.053122 0.004665 -0.002852 0.000000 0.000000 0.000000
# 2 0.004665 0.011312 -0.004808 0.000000 0.000000 0.000000
# 3 -0.002852 -0.004808 0.007998 0.000000 0.000000 0.000000
# 4 0.000000 0.000000 0.000000 -0.071480 0.000000 0.000000
# 5 0.000000 0.000000 0.000000 0.000000 -3.931403 0.000000
# 6 0.000000 0.000000 0.000000 0.000000 0.000000 -0.026918
#
#
# Mechanical properties :
#
#
# Convention : Reuss Voigt Hill
#
# Bulk Modulus (GPa) = 15.05037 49.09092 32.07064
# Shear Modulus (GPa) = -1.27251 5.90186 2.31467
#
# Velocity S-wave (km/s) = -0.78507 1.69073 1.05883
# Velocity P-wave (km/s) = 2.54320 5.25249 4.12653
#
# Compressibility (1/GPa) = 0.06644356
#
# Stress axis : x y z
#
# Youngs Moduli (GPa) = 18.82464 88.40094 125.03751
#
# Poissons Ratio (x) = -0.41242 0.35658
# Poissons Ratio (y) = -0.08782 0.60113
# Poissons Ratio (z) = 0.05368 0.42499
#
# Static dielectric constant tensor:
#      x y z
#    x 1.724180 0.000000 0.000000 
#    y 0.000000 1.707920 0.000000 
#    z 0.000000 0.000000 1.744400 
# 
# From -- ./inp_files/21157.got.cif
#   From: 2010.05.17/outbox.cif.g08.bks.cpg/sg47_11_cif.got.tgz:21157.got - 2010.06.03 20:15:42.
