data_PCOD9386317
_publ_section_title
;
Structure prediction by ZEFSAII (Michael W. Deem and Ramdas Pophale) SiO2 
 PCOD9386317
Probable space group: P M M M
;
_chemical_formula_sum "Si O2"
_cell_formula_units_Z 56
_cell_length_a 8.161629
_cell_length_b 15.375321
_cell_length_c 21.909015
_cell_angle_alpha 90.000000
_cell_angle_beta 90.000000
_cell_angle_gamma 90.000000
_cell_volume 2749.311151
_symmetry_space_group_name_H-M "P M M M"
_symmetry_group_IT_number 47
_symmetry_cell_setting 'orthorhombic'
loop_
_space_group_symop_operation_xyz
x,y,z
-x,-y,z
x,-y,-z
-x,y,-z
-x,-y,-z
x,y,-z
-x,y,z
x,-y,z
loop_
_atom_site_type_symbol
_atom_site_label
_atom_site_fract_x
_atom_site_fract_y
_atom_site_fract_z
Si Si1 0.800524 0.768456 0.111879
Si Si2 0.801661 0.400231 0.819803
Si Si3 0.189538 0.603969 0.432925
Si Si4 0.692772 0.000000 0.566880
Si Si5 0.689796 0.679913 0.309638
Si Si6 0.800091 0.908889 0.204708
Si Si7 0.200094 0.103921 0.000000
Si Si8 0.190634 0.130691 0.335830
O O1 0.747691 0.669570 0.127879
O O2 0.747312 0.823031 0.170898
O O3 0.750274 0.833536 0.056982
O O4 0.000000 0.765224 0.107681
O O5 0.745260 0.500000 0.828994
O O6 0.751882 0.366971 0.752022
O O7 0.000000 0.400527 0.820955
O O8 0.249115 0.635940 0.500000
O O9 0.185743 0.500000 0.436298
O O10 0.287961 0.626269 0.372140
O O11 0.000000 0.633848 0.425831
O O12 0.736159 0.914287 0.605302
O O13 0.500000 0.000000 0.560817
O O14 0.770990 0.000000 0.500000
O O15 0.500000 0.701030 0.300506
O O16 0.786567 0.767599 0.325507
O O17 0.739289 0.908590 0.273438
O O18 0.000000 0.905682 0.205416
O O19 0.755137 0.000000 0.173539
O O20 0.000000 0.099534 0.000000
O O21 0.251946 0.000000 0.000000
O O22 0.000000 0.109218 0.337766
#
# Coordination Sequence:
#
# PCOD9386317 Si02
#       8
#     8   8   8   4   8   8   4   8
#     4   9  16  28  47  76 115 152 189 234 283 340
#     4  10  20  35  55  78 109 153 199 241 288 345
#     4   9  19  37  59  80 103 136 180 227 277 341
#     4  11  25  43  59  81 119 156 187 238 304 358
#     4  12  24  36  54  82 114 144 180 236 300 349
#     4   9  15  26  49  78 103 133 178 232 279 323
#     4   9  16  26  45  79 122 159 185 225 292 354
#     4  11  21  37  60  81 104 142 194 239 280 339
#
# _framework density 20.368739000000001
#
# number of rings (size 3 to 8) (size 9 to 14) (size 15 to 20)
#    0.000    2.000    2.143    3.214    0.000    5.429 
#    0.000    1.071    0.000    2.143    0.000    0.500 
#    0.000    1.714    0.000    0.000    0.000    0.000 
#
# Total GULP energy -311854.294171 kJ/mol
# GULP energy per Si atom -5568.826682 kJ/mol
# Density = 2.032238 g / cm^3
# Si number density = 20.368739 Si / 1000 Ang^3
#
#
#
# Elastic Constant Matrix: (Units=GPa)
#
#
# Indices 1 2 3 4 5 6 
#
# 1 18.6641 2.5206 8.4728 0.0000 0.0000 0.0000
# 2 2.5206 154.7605 70.6580 0.0000 0.0000 0.0000
# 3 8.4728 70.6580 123.3959 0.0000 0.0000 0.0000
# 4 0.0000 0.0000 0.0000 20.6977 0.0000 0.0000
# 5 0.0000 0.0000 0.0000 0.0000 -54.8036 0.0000
# 6 0.0000 0.0000 0.0000 0.0000 0.0000 18.5241
#
#
#
# Elastic Compliance Matrix: (Units=1/GPa)
#
#
# Indices 1 2 3 4 5 6 
#
# 1 0.055448 0.001131 -0.004455 0.000000 0.000000 0.000000
# 2 0.001131 0.008772 -0.005101 0.000000 0.000000 0.000000
# 3 -0.004455 -0.005101 0.011331 0.000000 0.000000 0.000000
# 4 0.000000 0.000000 0.000000 0.048315 0.000000 0.000000
# 5 0.000000 0.000000 0.000000 0.000000 -0.018247 0.000000
# 6 0.000000 0.000000 0.000000 0.000000 0.000000 0.053984
#
#
# Mechanical properties :
#
#
# Convention : Reuss Voigt Hill
#
# Bulk Modulus (GPa) = 17.03529 51.12482 34.08006
# Shear Modulus (GPa) = 25.50782 11.22825 18.36803
#
# Velocity S-wave (km/s) = 3.54263 2.35042 3.00622
# Velocity P-wave (km/s) = 5.01151 5.70264 5.36821
#
# Compressibility (1/GPa) = 0.05870167
#
# Stress axis : x y z
#
# Youngs Moduli (GPa) = 18.03480 114.00044 88.25733
#
# Poissons Ratio (x) = -0.12891 0.39317
# Poissons Ratio (y) = -0.02039 0.45016
# Poissons Ratio (z) = 0.08034 0.58146
#
# Static dielectric constant tensor:
#      x y z
#    x 1.722700 0.000000 0.000000 
#    y 0.000000 1.834700 0.000000 
#    z 0.000000 0.000000 1.773580 
# 
# From -- ./inp_files/29790.got.cif
#   From: 2010.05.17/outbox.cif.g08.bks.cpg/sg47_15_cif.got.tgz:29790.got - 2010.06.03 20:15:42.
