data_PCOD9386370
_publ_section_title
;
Structure prediction by ZEFSAII (Michael W. Deem and Ramdas Pophale) SiO2 
 PCOD9386370
Probable space group: P M M M
;
_chemical_formula_sum "Si O2"
_cell_formula_units_Z 56
_cell_length_a 8.146523
_cell_length_b 20.577034
_cell_length_c 16.184458
_cell_angle_alpha 90.000000
_cell_angle_beta 90.000000
_cell_angle_gamma 90.000000
_cell_volume 2713.021423
_symmetry_space_group_name_H-M "P M M M"
_symmetry_group_IT_number 47
_symmetry_cell_setting 'orthorhombic'
loop_
_space_group_symop_operation_xyz
x,y,z
-x,-y,z
x,-y,-z
-x,y,-z
-x,-y,-z
x,y,-z
-x,y,z
x,-y,z
loop_
_atom_site_type_symbol
_atom_site_label
_atom_site_fract_x
_atom_site_fract_y
_atom_site_fract_z
Si Si1 0.195692 0.106050 0.907385
Si Si2 0.698371 0.817446 0.404473
Si Si3 0.696654 0.500000 0.905174
Si Si4 0.801753 0.928498 0.275448
Si Si5 0.691671 0.672524 0.363531
Si Si6 0.313358 0.746964 0.903613
Si Si7 0.187403 0.627176 0.192084
Si Si8 0.701986 0.425977 0.500000
O O1 0.257742 0.077447 0.820265
O O2 0.232520 0.182516 0.897650
O O3 0.000000 0.094256 0.909917
O O4 0.259302 0.086791 0.000000
O O5 0.751142 0.829930 0.500000
O O6 0.500000 0.816932 0.404647
O O7 0.748987 0.871334 0.337234
O O8 0.759239 0.745362 0.377070
O O9 0.500000 0.500000 0.907174
O O10 0.753468 0.564258 0.857344
O O11 0.757459 0.500000 0.000000
O O12 0.000000 0.926079 0.271720
O O13 0.752151 0.000000 0.306680
O O14 0.500000 0.678717 0.384850
O O15 0.709339 0.645100 0.272330
O O16 0.759227 0.616841 0.422873
O O17 0.500000 0.748587 0.868946
O O18 0.207428 0.691021 0.863381
O O19 0.326340 0.731726 0.000000
O O20 0.000000 0.617591 0.216984
O O21 0.759103 0.500000 0.500000
O O22 0.500000 0.428880 0.500000
#
# Coordination Sequence:
#
# PCOD9386370 Si02
#       8
#     8   8   4   8   8   8   8   4
#     4   9  18  34  57  84 115 151 190 235 293 359
#     4  10  21  39  62  87 117 154 202 254 301 356
#     4  11  25  45  65  84 111 154 207 253 294 345
#     4  10  22  38  56  83 118 154 197 248 302 363
#     4  10  20  38  63  90 119 153 196 241 288 348
#     4  10  20  35  56  82 111 146 191 239 285 337
#     4  12  25  38  56  85 120 153 190 237 293 352
#     4   9  18  34  61  93 118 147 189 235 284 342
#
# _framework density 20.641195
#
# number of rings (size 3 to 8) (size 9 to 14) (size 15 to 20)
#    0.000    1.857    0.714    3.214    1.000    7.714 
#    0.000    3.214    0.000    0.429    0.000    3.000 
#    0.000    0.000    0.000    0.000    0.000    0.000 
#
# Total GULP energy -312459.723454 kJ/mol
# GULP energy per Si atom -5579.637919 kJ/mol
# Density = 2.059421 g / cm^3
# Si number density = 20.641195 Si / 1000 Ang^3
#
#
#
# Elastic Constant Matrix: (Units=GPa)
#
#
# Indices 1 2 3 4 5 6 
#
# 1 16.1903 4.4682 -0.3453 0.0000 0.0000 0.0000
# 2 4.4682 160.5168 93.8167 0.0000 0.0000 0.0000
# 3 -0.3453 93.8167 132.4682 0.0000 0.0000 0.0000
# 4 0.0000 0.0000 0.0000 38.5922 0.0000 0.0000
# 5 0.0000 0.0000 0.0000 0.0000 -0.1784 0.0000
# 6 0.0000 0.0000 0.0000 0.0000 0.0000 20.1669
#
#
#
# Elastic Compliance Matrix: (Units=1/GPa)
#
#
# Indices 1 2 3 4 5 6 
#
# 1 0.062683 -0.003140 0.002387 0.000000 0.000000 0.000000
# 2 -0.003140 0.010787 -0.007648 0.000000 0.000000 0.000000
# 3 0.002387 -0.007648 0.012972 0.000000 0.000000 0.000000
# 4 0.000000 0.000000 0.000000 0.025912 0.000000 0.000000
# 5 0.000000 0.000000 0.000000 0.000000 -5.604599 0.000000
# 6 0.000000 0.000000 0.000000 0.000000 0.000000 0.049586
#
#
# Mechanical properties :
#
#
# Convention : Reuss Voigt Hill
#
# Bulk Modulus (GPa) = 14.35954 56.11716 35.23835
# Shear Modulus (GPa) = -0.92547 25.79851 12.43652
#
# Velocity S-wave (km/s) = -0.67032 3.53916 2.45727
# Velocity P-wave (km/s) = 2.52443 6.62925 5.01596
#
# Compressibility (1/GPa) = 0.06964011
#
# Stress axis : x y z
#
# Youngs Moduli (GPa) = 15.95334 92.70199 77.09129
#
# Poissons Ratio (x) = 0.29110 -0.18404
# Poissons Ratio (y) = 0.05010 0.58959
# Poissons Ratio (z) = -0.03809 0.70898
#
# Static dielectric constant tensor:
#      x y z
#    x 1.754850 0.000000 0.000000 
#    y 0.000000 1.710860 0.000000 
#    z 0.000000 0.000000 1.897990 
# 
# From -- ./inp_files/21688.got.cif
#   From: 2010.05.17/outbox.cif.g08.bks.cpg/sg47_11_cif.got.tgz:21688.got - 2010.06.03 20:15:42.
