data_PCOD9386032
_publ_section_title
;
Structure prediction by ZEFSAII (Michael W. Deem and Ramdas Pophale) SiO2 
 PCOD9386032
Probable space group: P M M M
;
_chemical_formula_sum "Si O2"
_cell_formula_units_Z 48
_cell_length_a 9.467935
_cell_length_b 8.060448
_cell_length_c 32.755689
_cell_angle_alpha 90.000000
_cell_angle_beta 90.000000
_cell_angle_gamma 90.000000
_cell_volume 2499.776536
_symmetry_space_group_name_H-M "P M M M"
_symmetry_group_IT_number 47
_symmetry_cell_setting 'orthorhombic'
loop_
_space_group_symop_operation_xyz
x,y,z
-x,-y,z
x,-y,-z
-x,y,-z
-x,-y,-z
x,y,-z
-x,y,z
x,-y,z
loop_
_atom_site_type_symbol
_atom_site_label
_atom_site_fract_x
_atom_site_fract_y
_atom_site_fract_z
Si Si1 0.839611 0.301228 0.921564
Si Si2 0.837507 0.799479 0.323724
Si Si3 0.660817 0.302055 0.754651
Si Si4 0.828580 0.197377 0.412153
Si Si5 0.168895 0.201532 0.500000
Si Si6 0.337905 0.197175 0.156135
Si Si7 0.337073 0.703401 0.000000
O O1 0.847852 0.500000 0.925979
O O2 0.760671 0.265140 0.879361
O O3 0.746180 0.240436 0.959645
O O4 0.000000 0.235925 0.922152
O O5 0.749454 0.748940 0.284557
O O6 0.781071 0.737621 0.367938
O O7 0.000000 0.743816 0.319285
O O8 0.838959 0.000000 0.325814
O O9 0.500000 0.238517 0.750419
O O10 0.657583 0.500000 0.756651
O O11 0.714942 0.238857 0.798364
O O12 0.777227 0.264736 0.456021
O O13 0.000000 0.212427 0.411722
O O14 0.798108 0.000000 0.412771
O O15 0.000000 0.231899 0.500000
O O16 0.185045 0.000000 0.500000
O O17 0.500000 0.262279 0.152569
O O18 0.343099 0.000000 0.151940
O O19 0.338096 0.500000 0.000000
O O20 0.500000 0.757027 0.000000
#
# Coordination Sequence:
#
# PCOD9386032 Si02
#       7
#     8   8   8   8   4   8   4
#     4  10  20  34  54  81 111 140 170 205 245 289
#     4   9  17  29  46  70  99 127 155 192 241 294
#     4  10  21  36  53  72  94 124 164 206 245 289
#     4   7  10  17  31  55  87 119 149 183 227 279
#     4   7   8  12  26  50  82 117 148 180 222 273
#     4  10  21  37  56  76  98 127 164 205 249 296
#     4   9  17  31  54  81 108 141 178 212 244 279
#
# _framework density 19.201716000000001
#
# number of rings (size 3 to 8) (size 9 to 14) (size 15 to 20)
#    0.000    3.000    0.000    3.750    0.000    5.000 
#    0.000    0.417    0.000    2.500    0.000    1.167 
#    0.000    8.000    0.000    0.000    0.000    0.000 
#
# Total GULP energy -267392.270694 kJ/mol
# GULP energy per Si atom -5570.672306 kJ/mol
# Density = 1.915801 g / cm^3
# Si number density = 19.201716 Si / 1000 Ang^3
#
#
#
# Elastic Constant Matrix: (Units=GPa)
#
#
# Indices 1 2 3 4 5 6 
#
# 1 79.0516 8.3579 91.8335 0.0000 0.0000 0.0000
# 2 8.3579 12.0656 5.7521 0.0000 0.0000 0.0000
# 3 91.8335 5.7521 222.6854 0.0000 0.0000 0.0000
# 4 0.0000 0.0000 0.0000 21.3612 0.0000 0.0000
# 5 0.0000 0.0000 0.0000 0.0000 87.7186 0.0000
# 6 0.0000 0.0000 0.0000 0.0000 0.0000 14.4960
#
#
#
# Elastic Compliance Matrix: (Units=1/GPa)
#
#
# Indices 1 2 3 4 5 6 
#
# 1 0.026196 -0.013158 -0.010463 0.000000 0.000000 0.000000
# 2 -0.013158 0.090523 0.003088 0.000000 0.000000 0.000000
# 3 -0.010463 0.003088 0.008726 0.000000 0.000000 0.000000
# 4 0.000000 0.000000 0.000000 0.046814 0.000000 0.000000
# 5 0.000000 0.000000 0.000000 0.000000 0.011400 0.000000
# 6 0.000000 0.000000 0.000000 0.000000 0.000000 0.068985
#
#
# Mechanical properties :
#
#
# Convention : Reuss Voigt Hill
#
# Bulk Modulus (GPa) = 11.85139 58.40995 35.13067
# Shear Modulus (GPa) = 15.53589 38.57243 27.05416
#
# Velocity S-wave (km/s) = 2.84753 4.48683 3.75766
# Velocity P-wave (km/s) = 4.12271 7.57148 6.09607
#
# Compressibility (1/GPa) = 0.08437831
#
# Stress axis : x y z
#
# Youngs Moduli (GPa) = 38.17373 11.04695 114.60292
#
# Poissons Ratio (x) = 0.14535 1.19911
# Poissons Ratio (y) = 0.50229 -0.35389
# Poissons Ratio (z) = 0.39942 -0.03411
#
# Static dielectric constant tensor:
#      x y z
#    x 1.663460 0.000000 0.000000 
#    y 0.000000 1.694100 0.000000 
#    z 0.000000 0.000000 1.699660 
# 
# From -- ./inp_files/34098.got.cif
#   From: 2010.05.17/outbox.cif.g08.bks.cpg/sg47_18_cif.got.tgz:34098.got - 2010.06.03 20:15:42.
