data_PCOD9386638
_publ_section_title
;
Structure prediction by ZEFSAII (Michael W. Deem and Ramdas Pophale) SiO2 
 PCOD9386638
Probable space group: P M M M
;
_chemical_formula_sum "Si O2"
_cell_formula_units_Z 60
_cell_length_a 14.345909
_cell_length_b 14.686405
_cell_length_c 14.994861
_cell_angle_alpha 90.000000
_cell_angle_beta 90.000000
_cell_angle_gamma 90.000000
_cell_volume 3159.264710
_symmetry_space_group_name_H-M "P M M M"
_symmetry_group_IT_number 47
_symmetry_cell_setting 'orthorhombic'
loop_
_space_group_symop_operation_xyz
x,y,z
-x,-y,z
x,-y,-z
-x,y,-z
-x,-y,-z
x,y,-z
-x,y,z
x,-y,z
loop_
_atom_site_type_symbol
_atom_site_label
_atom_site_fract_x
_atom_site_fract_y
_atom_site_fract_z
Si Si1 0.284665 0.392010 0.819288
Si Si2 0.388980 0.764266 0.738569
Si Si3 0.108744 0.720057 0.785855
Si Si4 0.394132 0.609974 0.000000
Si Si5 0.112836 0.101308 0.103431
Si Si6 0.612835 0.104989 0.900104
Si Si7 0.300097 0.900315 0.605402
Si Si8 0.894961 0.186088 0.603041
O O1 0.290959 0.500000 0.806611
O O2 0.338753 0.332424 0.746082
O O3 0.178587 0.357579 0.817813
O O4 0.336906 0.367206 0.911638
O O5 0.500000 0.753804 0.740639
O O6 0.358478 0.826162 0.823285
O O7 0.355340 0.821228 0.654162
O O8 0.138278 0.814624 0.833964
O O9 0.115958 0.738126 0.679644
O O10 0.000000 0.702622 0.806994
O O11 0.402153 0.500000 0.000000
O O12 0.500000 0.648085 0.000000
O O13 0.000000 0.099504 0.104308
O O14 0.143983 0.000000 0.131866
O O15 0.140551 0.115014 0.000000
O O16 0.500000 0.104853 0.899579
O O17 0.641385 0.000000 0.885008
O O18 0.642253 0.132136 0.000000
O O19 0.318444 0.898030 0.500000
O O20 0.189399 0.883688 0.616780
O O21 0.326654 0.000000 0.640502
O O22 0.888288 0.218431 0.500000
O O23 0.000000 0.147718 0.614846
#
# Coordination Sequence:
#
# PCOD9386638 Si02
#       8
#     8   8   8   4   8   8   8   8
#     4  11  24  41  60  87 118 153 202 258 309 361
#     4  11  22  37  59  83 111 152 199 248 299 356
#     4  10  20  36  60  89 120 157 196 247 307 367
#     4   9  20  40  63  85 114 153 199 253 307 358
#     4   8  15  29  50  78 114 154 192 230 276 340
#     4   8  15  29  50  78 111 144 180 226 280 339
#     4  10  21  37  58  88 125 160 196 239 291 357
#     4   9  18  35  59  86 118 155 195 240 293 354
#
# _framework density 18.991761
#
# number of rings (size 3 to 8) (size 9 to 14) (size 15 to 20)
#    0.000    2.467    1.333    1.600    1.867    2.933 
#    0.000    3.333    0.000    4.400    0.000    2.800 
#    0.000    0.000    0.000    0.000    0.000    0.000 
#
# Total GULP energy -334856.557045 kJ/mol
# GULP energy per Si atom -5580.942617 kJ/mol
# Density = 1.894853 g / cm^3
# Si number density = 18.991761 Si / 1000 Ang^3
#
#
#
# Elastic Constant Matrix: (Units=GPa)
#
#
# Indices 1 2 3 4 5 6 
#
# 1 117.1359 46.0010 27.3613 0.0000 0.0000 0.0000
# 2 46.0010 111.6060 43.4812 0.0000 0.0000 0.0000
# 3 27.3613 43.4812 61.6612 0.0000 0.0000 0.0000
# 4 0.0000 0.0000 0.0000 22.4143 0.0000 0.0000
# 5 0.0000 0.0000 0.0000 0.0000 12.5829 0.0000
# 6 0.0000 0.0000 0.0000 0.0000 0.0000 12.2627
#
#
#
# Elastic Compliance Matrix: (Units=1/GPa)
#
#
# Indices 1 2 3 4 5 6 
#
# 1 0.010397 -0.003430 -0.002195 0.000000 0.000000 0.000000
# 2 -0.003430 0.013486 -0.007988 0.000000 0.000000 0.000000
# 3 -0.002195 -0.007988 0.022824 0.000000 0.000000 0.000000
# 4 0.000000 0.000000 0.000000 0.044614 0.000000 0.000000
# 5 0.000000 0.000000 0.000000 0.000000 0.079473 0.000000
# 6 0.000000 0.000000 0.000000 0.000000 0.000000 0.081548
#
#
# Mechanical properties :
#
#
# Convention : Reuss Voigt Hill
#
# Bulk Modulus (GPa) = 51.32980 58.23223 54.78102
# Shear Modulus (GPa) = 17.47875 21.02260 19.25067
#
# Velocity S-wave (km/s) = 3.03699 3.33067 3.18721
# Velocity P-wave (km/s) = 6.27565 6.74682 6.51550
#
# Compressibility (1/GPa) = 0.01948186
#
# Stress axis : x y z
#
# Youngs Moduli (GPa) = 96.18310 74.15141 43.81352
#
# Poissons Ratio (x) = 0.25436 0.09615
# Poissons Ratio (y) = 0.32994 0.34997
# Poissons Ratio (z) = 0.21107 0.59229
#
# Static dielectric constant tensor:
#      x y z
#    x 1.694250 0.000000 0.000000 
#    y 0.000000 1.640630 0.000000 
#    z 0.000000 0.000000 1.664650 
# 
# From -- ./inp_files/23933.got.cif
#   From: 2010.05.17/outbox.cif.g08.bks.cpg/sg47_12_cif.got.tgz:23933.got - 2010.06.03 20:15:42.
