data_PCOD9386384
_publ_section_title
;
Structure prediction by ZEFSAII (Michael W. Deem and Ramdas Pophale) SiO2 
 PCOD9386384
Probable space group: P M M M
;
_chemical_formula_sum "Si O2"
_cell_formula_units_Z 40
_cell_length_a 16.074431
_cell_length_b 9.006115
_cell_length_c 14.054291
_cell_angle_alpha 90.000000
_cell_angle_beta 90.000000
_cell_angle_gamma 90.000000
_cell_volume 2034.614047
_symmetry_space_group_name_H-M "P M M M"
_symmetry_group_IT_number 47
_symmetry_cell_setting 'orthorhombic'
loop_
_space_group_symop_operation_xyz
x,y,z
-x,-y,z
x,-y,-z
-x,y,-z
-x,-y,-z
x,y,-z
-x,y,z
x,-y,z
loop_
_atom_site_type_symbol
_atom_site_label
_atom_site_fract_x
_atom_site_fract_y
_atom_site_fract_z
Si Si1 0.327541 0.327282 0.384994
Si Si2 0.000000 0.675020 0.386439
Si Si3 0.163437 0.177963 0.700583
Si Si4 0.500000 0.172164 0.616487
Si Si5 0.590100 0.326982 0.115664
Si Si6 0.761324 0.177900 0.892068
O O1 0.325939 0.322169 0.500000
O O2 0.323755 0.500000 0.356407
O O3 0.247190 0.240449 0.347662
O O4 0.415193 0.254991 0.354036
O O5 0.917550 0.749911 0.344762
O O6 0.000000 0.500000 0.364994
O O7 0.000000 0.693019 0.500000
O O8 0.171197 0.216111 0.812685
O O9 0.160977 0.000000 0.690299
O O10 0.500000 0.173914 0.500000
O O11 0.500000 0.000000 0.646178
O O12 0.500000 0.267716 0.147400
O O13 0.595862 0.500000 0.142450
O O14 0.672721 0.240734 0.142707
O O15 0.589169 0.322160 0.000000
O O16 0.754857 0.000000 0.895053
O O17 0.777686 0.230857 0.000000
#
# Coordination Sequence:
#
# PCOD9386384 Si02
#       6
#     8   4   8   4   8   8
#     4  10  20  35  56  83 117 155 193 236 290 350
#     4  11  25  45  68  93 120 148 181 231 296 361
#     4  11  23  39  61  89 117 151 194 240 290 348
#     4   9  17  31  53  81 114 153 196 241 287 342
#     4   8  14  26  46  73 105 144 192 242 288 332
#     4   9  19  36  56  80 113 153 195 239 287 338
#
# _framework density 19.659748
#
# number of rings (size 3 to 8) (size 9 to 14) (size 15 to 20)
#    0.000    2.400    0.000    3.000    0.000    7.600 
#    1.800    2.500    0.000    3.000    0.000    0.000 
#    0.000    0.000    0.000    0.000    0.000    0.000 
#
# Total GULP energy -223427.000446 kJ/mol
# GULP energy per Si atom -5585.675011 kJ/mol
# Density = 1.961500 g / cm^3
# Si number density = 19.659748 Si / 1000 Ang^3
#
#
#
# Elastic Constant Matrix: (Units=GPa)
#
#
# Indices 1 2 3 4 5 6 
#
# 1 172.4420 81.6731 67.8352 0.0000 0.0000 0.0000
# 2 81.6731 91.7680 53.2598 0.0000 0.0000 0.0000
# 3 67.8352 53.2598 83.0968 0.0000 0.0000 0.0000
# 4 0.0000 0.0000 0.0000 11.6677 0.0000 0.0000
# 5 0.0000 0.0000 0.0000 0.0000 35.4127 0.0000
# 6 0.0000 0.0000 0.0000 0.0000 0.0000 35.1641
#
#
#
# Elastic Compliance Matrix: (Units=1/GPa)
#
#
# Indices 1 2 3 4 5 6 
#
# 1 0.010899 -0.007223 -0.004268 0.000000 0.000000 0.000000
# 2 -0.007223 0.022139 -0.008293 0.000000 0.000000 0.000000
# 3 -0.004268 -0.008293 0.020833 0.000000 0.000000 0.000000
# 4 0.000000 0.000000 0.000000 0.085707 0.000000 0.000000
# 5 0.000000 0.000000 0.000000 0.000000 0.028238 0.000000
# 6 0.000000 0.000000 0.000000 0.000000 0.000000 0.028438
#
#
# Mechanical properties :
#
#
# Convention : Reuss Voigt Hill
#
# Bulk Modulus (GPa) = 69.91356 83.64921 76.78138
# Shear Modulus (GPa) = 20.78230 26.08482 23.43356
#
# Velocity S-wave (km/s) = 3.25483 3.64650 3.45622
# Velocity P-wave (km/s) = 7.05438 7.76982 7.42072
#
# Compressibility (1/GPa) = 0.01430338
#
# Stress axis : x y z
#
# Youngs Moduli (GPa) = 91.75199 45.16989 48.00030
#
# Poissons Ratio (x) = 0.32627 0.20485
# Poissons Ratio (y) = 0.66274 0.39806
# Poissons Ratio (z) = 0.39156 0.37459
#
# Static dielectric constant tensor:
#      x y z
#    x 1.642180 0.000000 0.000000 
#    y 0.000000 1.654550 0.000000 
#    z 0.000000 0.000000 1.755450 
# 
# From -- ./inp_files/23348.got.cif
#   From: 2010.05.17/outbox.cif.g08.bks.cpg/sg47_12_cif.got.tgz:23348.got - 2010.06.03 20:15:42.
