data_PCOD9386899
_publ_section_title
;
Structure prediction by ZEFSAII (Michael W. Deem and Ramdas Pophale) SiO2 
 PCOD9386899
Probable space group: P M M M
;
_chemical_formula_sum "Si O2"
_cell_formula_units_Z 64
_cell_length_a 8.669275
_cell_length_b 14.603530
_cell_length_c 27.168009
_cell_angle_alpha 90.000000
_cell_angle_beta 90.000000
_cell_angle_gamma 90.000000
_cell_volume 3439.524752
_symmetry_space_group_name_H-M "P M M M"
_symmetry_group_IT_number 47
_symmetry_cell_setting 'orthorhombic'
loop_
_space_group_symop_operation_xyz
x,y,z
-x,-y,z
x,-y,-z
-x,y,-z
-x,-y,-z
x,y,-z
-x,y,z
x,-y,z
loop_
_atom_site_type_symbol
_atom_site_label
_atom_site_fract_x
_atom_site_fract_y
_atom_site_fract_z
Si Si1 0.317213 0.105235 0.810405
Si Si2 0.175889 0.111157 0.707157
Si Si3 0.814002 0.289230 0.553597
Si Si4 0.316032 0.609178 0.648261
Si Si5 0.314074 0.608391 0.242642
Si Si6 0.188118 0.103874 0.401676
Si Si7 0.187921 0.394141 0.944806
Si Si8 0.184233 0.717731 0.850346
O O1 0.500000 0.107894 0.816480
O O2 0.275684 0.134408 0.754476
O O3 0.238598 0.177965 0.845788
O O4 0.264181 0.000000 0.816859
O O5 0.236935 0.135721 0.653173
O O6 0.000000 0.144615 0.713643
O O7 0.168995 0.000000 0.705393
O O8 0.760365 0.323131 0.500000
O O9 0.756973 0.343634 0.601013
O O10 0.767689 0.182878 0.560797
O O11 0.000000 0.292432 0.553921
O O12 0.500000 0.623630 0.646673
O O13 0.288794 0.500000 0.645974
O O14 0.260982 0.639978 0.702757
O O15 0.500000 0.616821 0.241397
O O16 0.277737 0.500000 0.237961
O O17 0.244684 0.663551 0.197400
O O18 0.000000 0.100488 0.399951
O O19 0.240828 0.000000 0.411638
O O20 0.233128 0.500000 0.936589
O O21 0.241423 0.331019 0.900166
O O22 0.000000 0.392412 0.944673
O O23 0.237386 0.367042 0.000000
O O24 0.000000 0.714349 0.849908
#
# Coordination Sequence:
#
# PCOD9386899 Si02
#       8
#     8   8   8   8   8   8   8   8
#     4  10  21  35  49  69 103 145 184 220 262 311
#     4   8  14  27  47  69  93 123 164 212 255 298
#     4  10  21  34  50  76 104 128 163 212 260 307
#     4   9  20  39  58  73  94 130 172 210 253 309
#     4   9  19  36  55  77 108 140 169 208 260 317
#     4   8  15  29  49  72  99 130 161 197 246 304
#     4   8  15  30  52  79 112 145 176 214 259 307
#     4  11  21  31  52  84 112 141 178 219 262 311
#
# _framework density 18.607220999999999
#
# number of rings (size 3 to 8) (size 9 to 14) (size 15 to 20)
#    0.000    2.875    0.000    3.000    1.750    3.000 
#    0.000    3.750    0.000    2.250    0.000    7.875 
#    0.000    0.000    0.000    0.000    0.000    0.000 
#
# Total GULP energy -356862.769474 kJ/mol
# GULP energy per Si atom -5575.980773 kJ/mol
# Density = 1.856487 g / cm^3
# Si number density = 18.607221 Si / 1000 Ang^3
#
#
#
# Elastic Constant Matrix: (Units=GPa)
#
#
# Indices 1 2 3 4 5 6 
#
# 1 15.8055 23.2784 29.5391 0.0000 0.0000 0.0000
# 2 23.2784 64.6816 74.8481 0.0000 0.0000 0.0000
# 3 29.5391 74.8481 158.3222 0.0000 0.0000 0.0000
# 4 0.0000 0.0000 0.0000 29.3681 0.0000 0.0000
# 5 0.0000 0.0000 0.0000 0.0000 -21.9597 0.0000
# 6 0.0000 0.0000 0.0000 0.0000 0.0000 20.3221
#
#
#
# Elastic Compliance Matrix: (Units=1/GPa)
#
#
# Indices 1 2 3 4 5 6 
#
# 1 0.136364 -0.043351 -0.004948 0.000000 0.000000 0.000000
# 2 -0.043351 0.047915 -0.014564 0.000000 0.000000 0.000000
# 3 -0.004948 -0.014564 0.014125 0.000000 0.000000 0.000000
# 4 0.000000 0.000000 0.000000 0.034051 0.000000 0.000000
# 5 0.000000 0.000000 0.000000 0.000000 -0.045538 0.000000
# 6 0.000000 0.000000 0.000000 0.000000 0.000000 0.049207
#
#
# Mechanical properties :
#
#
# Convention : Reuss Voigt Hill
#
# Bulk Modulus (GPa) = 13.75928 54.90450 34.33189
# Shear Modulus (GPa) = 12.95082 12.95568 12.95325
#
# Velocity S-wave (km/s) = 2.64106 2.64156 2.64131
# Velocity P-wave (km/s) = 4.08790 6.23498 5.27190
#
# Compressibility (1/GPa) = 0.07267824
#
# Stress axis : x y z
#
# Youngs Moduli (GPa) = 7.33332 20.87011 70.79826
#
# Poissons Ratio (x) = 0.90474 0.35028
# Poissons Ratio (y) = 0.31791 1.03111
# Poissons Ratio (z) = 0.03628 0.30395
#
# Static dielectric constant tensor:
#      x y z
#    x 1.634060 0.000000 0.000000 
#    y 0.000000 1.663780 0.000000 
#    z 0.000000 0.000000 1.650220 
# 
# From -- ./inp_files/32160.got.cif
#   From: 2010.05.17/outbox.cif.g08.bks.cpg/sg47_17_cif.got.tgz:32160.got - 2010.06.03 20:15:42.
