data_PCOD9386250
_publ_section_title
;
Structure prediction by ZEFSAII (Michael W. Deem and Ramdas Pophale) SiO2 
 PCOD9386250
Probable space group: P M M M
;
_chemical_formula_sum "Si O2"
_cell_formula_units_Z 56
_cell_length_a 16.234213
_cell_length_b 7.535280
_cell_length_c 20.632644
_cell_angle_alpha 90.000000
_cell_angle_beta 90.000000
_cell_angle_gamma 90.000000
_cell_volume 2523.977734
_symmetry_space_group_name_H-M "P M M M"
_symmetry_group_IT_number 47
_symmetry_cell_setting 'orthorhombic'
loop_
_space_group_symop_operation_xyz
x,y,z
-x,-y,z
x,-y,-z
-x,y,-z
-x,-y,-z
x,y,-z
-x,y,z
x,-y,z
loop_
_atom_site_type_symbol
_atom_site_label
_atom_site_fract_x
_atom_site_fract_y
_atom_site_fract_z
Si Si1 0.587528 0.297845 0.077795
Si Si2 0.231941 0.199578 0.927664
Si Si3 0.408120 0.286575 0.714171
Si Si4 0.760430 0.213687 0.789725
Si Si5 0.910720 0.783252 0.297453
Si Si6 0.354076 0.708317 0.427489
Si Si7 0.839303 0.785130 0.429436
O O1 0.500000 0.228324 0.102189
O O2 0.598382 0.500000 0.102467
O O3 0.669748 0.189771 0.085642
O O4 0.580921 0.310792 0.000000
O O5 0.209704 0.287494 0.859752
O O6 0.197955 0.000000 0.930927
O O7 0.220526 0.279422 0.000000
O O8 0.500000 0.226919 0.734589
O O9 0.410058 0.500000 0.710871
O O10 0.331479 0.247244 0.762116
O O11 0.390591 0.219991 0.640291
O O12 0.829221 0.276213 0.739576
O O13 0.765872 0.000000 0.795030
O O14 0.896943 0.728114 0.371365
O O15 0.000000 0.725455 0.272626
O O16 0.910304 0.000000 0.295184
O O17 0.375582 0.780961 0.500000
O O18 0.376016 0.500000 0.429376
O O19 0.255239 0.725197 0.420888
O O20 0.867555 0.726760 0.500000
O O21 0.836745 0.000000 0.428450
#
# Coordination Sequence:
#
# PCOD9386250 Si02
#       7
#     8   8   8   8   8   8   8
#     4   8  14  25  41  62  88 116 147 185 228 275
#     4   9  18  31  47  67  90 119 155 194 239 292
#     4  10  21  35  51  73 101 134 171 208 245 286
#     4  10  20  35  53  72  98 130 163 203 250 297
#     4   9  17  30  50  75 100 128 163 201 243 291
#     4   9  17  30  49  71  97 131 168 205 244 283
#     4   9  16  27  47  74 101 128 160 199 241 286
#
# _framework density 22.187201000000002
#
# number of rings (size 3 to 8) (size 9 to 14) (size 15 to 20)
#    0.000    2.857    1.429    0.429    0.000    2.286 
#    0.000    7.143    0.000    2.143    0.000    8.000 
#    0.000    0.000    0.000    4.857    0.000    5.143 
#
# Total GULP energy -311858.576167 kJ/mol
# GULP energy per Si atom -5568.903146 kJ/mol
# Density = 2.213670 g / cm^3
# Si number density = 22.187201 Si / 1000 Ang^3
#
#
#
# Elastic Constant Matrix: (Units=GPa)
#
#
# Indices 1 2 3 4 5 6 
#
# 1 89.8836 -3.4260 51.8398 0.0000 0.0000 0.0000
# 2 -3.4260 56.5395 5.1114 0.0000 0.0000 0.0000
# 3 51.8398 5.1114 164.3525 0.0000 0.0000 0.0000
# 4 0.0000 0.0000 0.0000 4.7317 0.0000 0.0000
# 5 0.0000 0.0000 0.0000 0.0000 -0.0328 0.0000
# 6 0.0000 0.0000 0.0000 0.0000 0.0000 13.1970
#
#
#
# Elastic Compliance Matrix: (Units=1/GPa)
#
#
# Indices 1 2 3 4 5 6 
#
# 1 0.013683 0.001223 -0.004354 0.000000 0.000000 0.000000
# 2 0.001223 0.017846 -0.000941 0.000000 0.000000 0.000000
# 3 -0.004354 -0.000941 0.007487 0.000000 0.000000 0.000000
# 4 0.000000 0.000000 0.000000 0.211339 0.000000 0.000000
# 5 0.000000 0.000000 0.000000 0.000000-30.531178 0.000000
# 6 0.000000 0.000000 0.000000 0.000000 0.000000 0.075775
#
#
# Mechanical properties :
#
#
# Convention : Reuss Voigt Hill
#
# Bulk Modulus (GPa) = 32.39141 46.42509 39.40825
# Shear Modulus (GPa) = -0.16564 20.72923 10.28180
#
# Velocity S-wave (km/s) = -0.27353 3.05993 2.15503
# Velocity P-wave (km/s) = 3.81197 5.78394 4.89821
#
# Compressibility (1/GPa) = 0.03087239
#
# Stress axis : x y z
#
# Youngs Moduli (GPa) = 73.08217 56.03529 133.56381
#
# Poissons Ratio (x) = -0.06852 0.58153
# Poissons Ratio (y) = -0.08936 0.12564
# Poissons Ratio (z) = 0.31820 0.05271
#
# Static dielectric constant tensor:
#      x y z
#    x 1.797350 0.000000 0.000000 
#    y 0.000000 1.896730 0.000000 
#    z 0.000000 0.000000 1.895260 
# 
# From -- ./inp_files/29715.got.cif
#   From: 2010.05.17/outbox.cif.g08.bks.cpg/sg47_15_cif.got.tgz:29715.got - 2010.06.03 20:15:42.
