data_PCOD9386721
_publ_section_title
;
Structure prediction by ZEFSAII (Michael W. Deem and Ramdas Pophale) SiO2 
 PCOD9386721
Probable space group: P M M M
;
_chemical_formula_sum "Si O2"
_cell_formula_units_Z 37
_cell_length_a 9.829556
_cell_length_b 7.581791
_cell_length_c 24.000481
_cell_angle_alpha 90.000000
_cell_angle_beta 90.000000
_cell_angle_gamma 90.000000
_cell_volume 1788.651188
_symmetry_space_group_name_H-M "P M M M"
_symmetry_group_IT_number 47
_symmetry_cell_setting 'orthorhombic'
loop_
_space_group_symop_operation_xyz
x,y,z
-x,-y,z
x,-y,-z
-x,y,-z
-x,-y,-z
x,y,-z
-x,y,z
x,-y,z
loop_
_atom_site_type_symbol
_atom_site_label
_atom_site_fract_x
_atom_site_fract_y
_atom_site_fract_z
Si Si1 0.844622 0.208937 0.182270
Si Si2 0.730242 0.304600 0.500000
Si Si3 0.343787 0.216186 0.717252
Si Si4 0.151470 0.213507 0.382789
Si Si5 0.158845 0.287742 0.059890
Si Si6 0.500000 0.000000 0.500000
O O1 0.744613 0.277253 0.229849
O O2 0.786468 0.232145 0.119828
O O3 0.000000 0.281410 0.184580
O O4 0.856193 0.000000 0.191806
O O5 0.670197 0.500000 0.500000
O O6 0.818535 0.282169 0.555786
O O7 0.617971 0.153428 0.500000
O O8 0.500000 0.274031 0.718810
O O9 0.265670 0.270221 0.661170
O O10 0.345348 0.000000 0.717783
O O11 0.000000 0.264017 0.363787
O O12 0.156079 0.000000 0.385040
O O13 0.160798 0.500000 0.059444
O O14 0.000000 0.231246 0.060314
O O15 0.217312 0.227789 0.000000
#
# Coordination Sequence:
#
# PCOD9386721 Si02
#       6
#     8   4   8   8   8   1
#     4   9  16  27  45  72 101 129 171 224 274 324
#     4  12  26  42  68  97 126 165 207 250 297 357
#     4   9  18  31  52  77 107 148 191 228 275 344
#     4  10  20  37  62  89 120 158 199 245 300 354
#     4   8  14  25  42  65  93 126 164 208 265 331
#     4  12  26  48  66  94 136 168 200 248 302 362
#
# _framework density 20.685977999999999
#
# number of rings (size 3 to 8) (size 9 to 14) (size 15 to 20)
#    0.000    2.595    1.081    1.784    1.514    4.757 
#    0.000    3.243    0.000    5.189    0.000    4.541 
#    0.000    0.000    0.000    0.000    0.000    0.000 
#
# Total GULP energy -206122.848305 kJ/mol
# GULP energy per Si atom -5570.887792 kJ/mol
# Density = 2.063890 g / cm^3
# Si number density = 20.685978 Si / 1000 Ang^3
#
#
#
# Elastic Constant Matrix: (Units=GPa)
#
#
# Indices 1 2 3 4 5 6 
#
# 1 122.1347 19.1090 84.7229 0.0000 0.0000 0.0000
# 2 19.1090 70.0947 0.2620 0.0000 0.0000 0.0000
# 3 84.7229 0.2620 196.8577 0.0000 0.0000 0.0000
# 4 0.0000 0.0000 0.0000 29.3690 0.0000 0.0000
# 5 0.0000 0.0000 0.0000 0.0000 -6.2418 0.0000
# 6 0.0000 0.0000 0.0000 0.0000 0.0000 -30.3296
#
#
#
# Elastic Compliance Matrix: (Units=1/GPa)
#
#
# Indices 1 2 3 4 5 6 
#
# 1 0.012419 -0.003366 -0.005340 0.000000 0.000000 0.000000
# 2 -0.003366 0.015179 0.001428 0.000000 0.000000 0.000000
# 3 -0.005340 0.001428 0.007376 0.000000 0.000000 0.000000
# 4 0.000000 0.000000 0.000000 0.034050 0.000000 0.000000
# 5 0.000000 0.000000 0.000000 0.000000 -0.160211 0.000000
# 6 0.000000 0.000000 0.000000 0.000000 0.000000 -0.032971
#
#
# Mechanical properties :
#
#
# Convention : Reuss Voigt Hill
#
# Bulk Modulus (GPa) = 48.97543 66.36388 57.66965
# Shear Modulus (GPa) = -48.63935 17.55907 -15.54014
#
# Velocity S-wave (km/s) = -4.85430 2.91665 -2.74385
# Velocity P-wave (km/s) = 2.77343 6.59497 4.23094
#
# Compressibility (1/GPa) = 0.02041840
#
# Stress axis : x y z
#
# Youngs Moduli (GPa) = 80.52387 65.88228 135.57091
#
# Poissons Ratio (x) = 0.22173 0.72398
# Poissons Ratio (y) = 0.27101 -0.19363
# Poissons Ratio (z) = 0.43002 -0.09410
#
# Static dielectric constant tensor:
#      x y z
#    x 1.707650 0.000000 0.000000 
#    y 0.000000 1.764740 0.000000 
#    z 0.000000 0.000000 1.755150 
# 
# From -- ./inp_files/31696.got.cif
#   From: 2010.05.17/outbox.cif.g08.bks.cpg/sg47_16_cif.got.tgz:31696.got - 2010.06.03 20:15:42.
