data_PCOD9386290
_publ_section_title
;
Structure prediction by ZEFSAII (Michael W. Deem and Ramdas Pophale) SiO2 
 PCOD9386290
Probable space group: P M M M
;
_chemical_formula_sum "Si O2"
_cell_formula_units_Z 52
_cell_length_a 14.898065
_cell_length_b 24.249698
_cell_length_c 7.772426
_cell_angle_alpha 90.000000
_cell_angle_beta 90.000000
_cell_angle_gamma 90.000000
_cell_volume 2807.972143
_symmetry_space_group_name_H-M "P M M M"
_symmetry_group_IT_number 47
_symmetry_cell_setting 'orthorhombic'
loop_
_space_group_symop_operation_xyz
x,y,z
-x,-y,z
x,-y,-z
-x,y,-z
-x,-y,-z
x,y,-z
-x,y,z
x,-y,z
loop_
_atom_site_type_symbol
_atom_site_label
_atom_site_fract_x
_atom_site_fract_y
_atom_site_fract_z
Si Si1 0.712698 0.274430 0.788536
Si Si2 0.100010 0.897704 0.791921
Si Si3 0.602382 0.500000 0.295209
Si Si4 0.397129 0.619854 0.205579
Si Si5 0.708531 0.059990 0.701731
Si Si6 0.099119 0.768786 0.209590
Si Si7 0.399023 0.831530 0.203948
O O1 0.664064 0.330172 0.730326
O O2 0.815455 0.266045 0.732655
O O3 0.656498 0.220936 0.729632
O O4 0.713214 0.274536 0.000000
O O5 0.185122 0.930606 0.725257
O O6 0.110785 0.833221 0.742708
O O7 0.000000 0.915798 0.737313
O O8 0.102455 0.900193 0.000000
O O9 0.500000 0.500000 0.223707
O O10 0.598422 0.500000 0.500000
O O11 0.641165 0.441161 0.240681
O O12 0.500000 0.622822 0.273845
O O13 0.402998 0.626018 0.000000
O O14 0.688753 0.059340 0.500000
O O15 0.655600 0.112078 0.774660
O O16 0.683952 0.000000 0.775714
O O17 0.000000 0.750856 0.267327
O O18 0.098753 0.768019 0.000000
O O19 0.500000 0.835068 0.275220
O O20 0.406530 0.822165 0.000000
#
# Coordination Sequence:
#
# PCOD9386290 Si02
#       7
#     8   8   4   8   8   8   8
#     4   9  15  26  47  74 100 122 149 192 241 286
#     4   9  17  32  55  78  97 120 154 197 243 291
#     4   9  17  29  43  61  92 131 164 194 227 263
#     4   9  16  26  43  68  96 126 158 190 227 273
#     4  11  24  38  50  67  95 130 163 197 243 298
#     4   8  13  23  44  73  99 120 144 182 235 286
#     4  10  20  35  55  75  94 120 159 206 249 290
#
# _framework density 18.518702999999999
#
# number of rings (size 3 to 8) (size 9 to 14) (size 15 to 20)
#    0.000    2.692    1.538    2.077    0.000    5.231 
#    0.000    3.846    0.000    1.846    0.000    0.538 
#    0.000    4.308    0.000    0.000    0.000    0.000 
#
# Total GULP energy -289939.488496 kJ/mol
# GULP energy per Si atom -5575.759394 kJ/mol
# Density = 1.847655 g / cm^3
# Si number density = 18.518703 Si / 1000 Ang^3
#
#
#
# Elastic Constant Matrix: (Units=GPa)
#
#
# Indices 1 2 3 4 5 6 
#
# 1 118.6047 76.6875 0.9882 0.0000 0.0000 0.0000
# 2 76.6875 151.3964 0.1081 0.0000 0.0000 0.0000
# 3 0.9882 0.1081 22.2625 0.0000 0.0000 0.0000
# 4 0.0000 0.0000 0.0000 32.6225 0.0000 0.0000
# 5 0.0000 0.0000 0.0000 0.0000 -5.9603 0.0000
# 6 0.0000 0.0000 0.0000 0.0000 0.0000 -18.3796
#
#
#
# Elastic Compliance Matrix: (Units=1/GPa)
#
#
# Indices 1 2 3 4 5 6 
#
# 1 0.012544 -0.006353 -0.000526 0.000000 0.000000 0.000000
# 2 -0.006353 0.009823 0.000234 0.000000 0.000000 0.000000
# 3 -0.000526 0.000234 0.044941 0.000000 0.000000 0.000000
# 4 0.000000 0.000000 0.000000 0.030654 0.000000 0.000000
# 5 0.000000 0.000000 0.000000 0.000000 -0.167776 0.000000
# 6 0.000000 0.000000 0.000000 0.000000 0.000000 -0.054408
#
#
# Mechanical properties :
#
#
# Convention : Reuss Voigt Hill
#
# Bulk Modulus (GPa) = 18.51245 49.75902 34.13574
# Shear Modulus (GPa) = -53.80619 15.95518 -18.92551
#
# Velocity S-wave (km/s) = -5.39612 2.93844 -3.20029
# Velocity P-wave (km/s) = 5.36711 6.20004 2.19484
#
# Compressibility (1/GPa) = 0.05401770
#
# Stress axis : x y z
#
# Youngs Moduli (GPa) = 79.72060 101.79902 22.25146
#
# Poissons Ratio (x) = 0.64678 0.01170
# Poissons Ratio (y) = 0.50650 -0.00521
# Poissons Ratio (z) = 0.04193 -0.02386
#
# Static dielectric constant tensor:
#      x y z
#    x 1.646890 0.000000 0.000000 
#    y 0.000000 1.641170 0.000000 
#    z 0.000000 0.000000 1.676890 
# 
# From -- ./inp_files/7663.got.cif
#   From: 2010.05.17/outbox.cif.g08.bks.cpg/sg47_4_cif.got.tgz:7663.got - 2010.06.03 20:15:42.
