data_PCOD9386816
_publ_section_title
;
Structure prediction by ZEFSAII (Michael W. Deem and Ramdas Pophale) SiO2 
 PCOD9386816
Probable space group: P M M M
;
_chemical_formula_sum "Si O2"
_cell_formula_units_Z 64
_cell_length_a 29.546524
_cell_length_b 7.415724
_cell_length_c 15.395752
_cell_angle_alpha 90.000000
_cell_angle_beta 90.000000
_cell_angle_gamma 90.000000
_cell_volume 3373.345780
_symmetry_space_group_name_H-M "P M M M"
_symmetry_group_IT_number 47
_symmetry_cell_setting 'orthorhombic'
loop_
_space_group_symop_operation_xyz
x,y,z
-x,-y,z
x,-y,-z
-x,y,-z
-x,-y,-z
x,y,-z
-x,y,z
x,-y,z
loop_
_atom_site_type_symbol
_atom_site_label
_atom_site_fract_x
_atom_site_fract_y
_atom_site_fract_z
Si Si1 0.734356 0.780041 0.098666
Si Si2 0.313196 0.217766 0.598181
Si Si3 0.851897 0.779503 0.601117
Si Si4 0.451202 0.284067 0.223276
Si Si5 0.768532 0.779599 0.279948
Si Si6 0.951384 0.216796 0.603893
Si Si7 0.581559 0.710572 0.595797
Si Si8 0.631600 0.784830 0.096567
O O1 0.765021 0.722478 0.179650
O O2 0.682446 0.722033 0.117887
O O3 0.735069 0.000000 0.097972
O O4 0.745725 0.723020 0.000000
O O5 0.299745 0.271134 0.500000
O O6 0.276666 0.277327 0.668403
O O7 0.364466 0.279916 0.612534
O O8 0.314325 0.000000 0.600591
O O9 0.844905 0.725841 0.500000
O O10 0.811993 0.721167 0.664851
O O11 0.901858 0.719549 0.632468
O O12 0.851972 0.000000 0.600328
O O13 0.500000 0.220470 0.189125
O O14 0.453332 0.500000 0.229743
O O15 0.442842 0.211505 0.320310
O O16 0.407956 0.249736 0.163946
O O17 0.768809 0.000000 0.280698
O O18 0.951505 0.248012 0.500000
O O19 0.000000 0.285014 0.637993
O O20 0.951714 0.000000 0.615968
O O21 0.573093 0.789315 0.500000
O O22 0.569034 0.500000 0.590977
O O23 0.635559 0.000000 0.091829
O O24 0.619826 0.717408 0.000000
#
# Coordination Sequence:
#
# PCOD9386816 Si02
#       8
#     8   8   8   8   8   8   8   8
#     4   8  14  24  37  52  68  87 113 142 170 206
#     4   9  16  25  39  59  79  98 122 152 186 223
#     4   8  12  16  22  36  60  86 111 140 174 213
#     4  10  21  34  47  65  86 105 126 155 191 225
#     4   9  14  19  30  48  70  92 111 138 179 219
#     4   7   9  13  20  29  45  75 113 146 172 201
#     4   9  18  32  47  61  79 105 135 161 183 214
#     4   9  18  33  51  67  82 102 127 153 185 229
#
# _framework density 18.972261
#
# number of rings (size 3 to 8) (size 9 to 14) (size 15 to 20)
#    0.000    3.375    0.000    3.000    0.000    4.000 
#    0.000    2.500    0.000    0.000    0.000    2.625 
#    0.000    0.500    0.000    7.000    0.000    0.875 
#
# Total GULP energy -356647.506187 kJ/mol
# GULP energy per Si atom -5572.617284 kJ/mol
# Density = 1.892908 g / cm^3
# Si number density = 18.972261 Si / 1000 Ang^3
#
#
#
# Elastic Constant Matrix: (Units=GPa)
#
#
# Indices 1 2 3 4 5 6 
#
# 1 79.2474 0.5947 71.2164 0.0000 0.0000 0.0000
# 2 0.5947 58.4776 3.6328 0.0000 0.0000 0.0000
# 3 71.2164 3.6328 111.1053 0.0000 0.0000 0.0000
# 4 0.0000 0.0000 0.0000 0.0952 0.0000 0.0000
# 5 0.0000 0.0000 0.0000 0.0000 11.7595 0.0000
# 6 0.0000 0.0000 0.0000 0.0000 0.0000 3.6385
#
#
#
# Elastic Compliance Matrix: (Units=1/GPa)
#
#
# Indices 1 2 3 4 5 6 
#
# 1 0.029809 0.000886 -0.019136 0.000000 0.000000 0.000000
# 2 0.000886 0.017162 -0.001129 0.000000 0.000000 0.000000
# 3 -0.019136 -0.001129 0.021303 0.000000 0.000000 0.000000
# 4 0.000000 0.000000 0.000000 10.500898 0.000000 0.000000
# 5 0.000000 0.000000 0.000000 0.000000 0.085038 0.000000
# 6 0.000000 0.000000 0.000000 0.000000 0.000000 0.274842
#
#
# Mechanical properties :
#
#
# Convention : Reuss Voigt Hill
#
# Bulk Modulus (GPa) = 33.88053 44.41313 39.14683
# Shear Modulus (GPa) = 0.45547 14.65773 7.55660
#
# Velocity S-wave (km/s) = 0.49050 2.78256 1.99790
# Velocity P-wave (km/s) = 4.26819 5.81239 5.09909
#
# Compressibility (1/GPa) = 0.02951548
#
# Stress axis : x y z
#
# Youngs Moduli (GPa) = 33.54744 58.26939 46.94177
#
# Poissons Ratio (x) = -0.05160 0.89826
# Poissons Ratio (y) = -0.02971 0.05299
# Poissons Ratio (z) = 0.64195 0.06577
#
# Static dielectric constant tensor:
#      x y z
#    x 1.675520 0.000000 0.000000 
#    y 0.000000 1.720880 0.000000 
#    z 0.000000 0.000000 1.661960 
# 
# From -- ./inp_files/25879.got.cif
#   From: 2010.05.17/outbox.cif.g08.bks.cpg/sg47_13_cif.got.tgz:25879.got - 2010.06.03 20:15:42.
