data_PCOD9386122
_publ_section_title
;
Structure prediction by ZEFSAII (Michael W. Deem and Ramdas Pophale) SiO2 
 PCOD9386122
Probable space group: P M M M
;
_chemical_formula_sum "Si O2"
_cell_formula_units_Z 52
_cell_length_a 23.527741
_cell_length_b 8.870509
_cell_length_c 14.469426
_cell_angle_alpha 90.000000
_cell_angle_beta 90.000000
_cell_angle_gamma 90.000000
_cell_volume 3019.813169
_symmetry_space_group_name_H-M "P M M M"
_symmetry_group_IT_number 47
_symmetry_cell_setting 'orthorhombic'
loop_
_space_group_symop_operation_xyz
x,y,z
-x,-y,z
x,-y,-z
-x,y,-z
-x,-y,-z
x,y,-z
-x,y,z
x,-y,z
loop_
_atom_site_type_symbol
_atom_site_label
_atom_site_fract_x
_atom_site_fract_y
_atom_site_fract_z
Si Si1 0.777383 0.179137 0.610213
Si Si2 0.889195 0.680539 0.297232
Si Si3 0.565900 0.819748 0.608658
Si Si4 0.669687 0.321004 0.285474
Si Si5 0.159872 0.680360 0.895700
Si Si6 0.000000 0.819209 0.608393
Si Si7 0.284478 0.179360 0.106448
O O1 0.775730 0.201843 0.500000
O O2 0.832674 0.258582 0.652696
O O3 0.721087 0.246114 0.656775
O O4 0.780211 0.000000 0.628290
O O5 0.892206 0.500000 0.306750
O O6 0.881944 0.717396 0.188309
O O7 0.944146 0.754631 0.342532
O O8 0.575785 0.787129 0.500000
O O9 0.500000 0.784305 0.629153
O O10 0.610709 0.732275 0.670379
O O11 0.573541 0.000000 0.620727
O O12 0.675365 0.500000 0.288986
O O13 0.677152 0.262430 0.181182
O O14 0.170650 0.500000 0.891246
O O15 0.219691 0.763971 0.880719
O O16 0.139763 0.715257 0.000000
O O17 0.000000 0.776794 0.500000
O O18 0.000000 0.000000 0.613912
O O19 0.286704 0.000000 0.120844
O O20 0.299930 0.211952 0.000000
#
# Coordination Sequence:
#
# PCOD9386122 Si02
#       7
#     8   8   8   8   8   4   8
#     4  11  23  37  54  78 111 148 184 228 280 331
#     4  11  22  37  59  85 110 142 182 229 281 333
#     4   9  19  37  59  81 109 149 193 234 278 330
#     4  12  23  34  53  83 116 149 184 228 281 332
#     4   9  18  34  56  83 114 144 175 218 277 338
#     4  11  25  43  60  77 104 148 193 231 276 333
#     4  10  20  34  55  82 111 146 187 229 275 330
#
# _framework density 17.219608999999998
#
# number of rings (size 3 to 8) (size 9 to 14) (size 15 to 20)
#    0.000    1.615    1.538    4.385    0.000    7.692 
#    0.000    1.154    0.000    2.769    0.000    3.231 
#    0.000    0.000    0.000    0.000    0.000    0.000 
#
# Total GULP energy -290504.170648 kJ/mol
# GULP energy per Si atom -5586.618666 kJ/mol
# Density = 1.718042 g / cm^3
# Si number density = 17.219609 Si / 1000 Ang^3
#
#
#
# Elastic Constant Matrix: (Units=GPa)
#
#
# Indices 1 2 3 4 5 6 
#
# 1 99.5597 50.2759 76.0063 0.0000 0.0000 0.0000
# 2 50.2759 70.9466 70.5579 0.0000 0.0000 0.0000
# 3 76.0063 70.5579 134.3051 0.0000 0.0000 0.0000
# 4 0.0000 0.0000 0.0000 26.3970 0.0000 0.0000
# 5 0.0000 0.0000 0.0000 0.0000 29.0849 0.0000
# 6 0.0000 0.0000 0.0000 0.0000 0.0000 38.2398
#
#
#
# Elastic Compliance Matrix: (Units=1/GPa)
#
#
# Indices 1 2 3 4 5 6 
#
# 1 0.018731 -0.005720 -0.007595 0.000000 0.000000 0.000000
# 2 -0.005720 0.031264 -0.013188 0.000000 0.000000 0.000000
# 3 -0.007595 -0.013188 0.018672 0.000000 0.000000 0.000000
# 4 0.000000 0.000000 0.000000 0.037883 0.000000 0.000000
# 5 0.000000 0.000000 0.000000 0.000000 0.034382 0.000000
# 6 0.000000 0.000000 0.000000 0.000000 0.000000 0.026151
#
#
# Mechanical properties :
#
#
# Convention : Reuss Voigt Hill
#
# Bulk Modulus (GPa) = 63.85092 77.61017 70.73055
# Shear Modulus (GPa) = 22.19166 25.94242 24.06704
#
# Velocity S-wave (km/s) = 3.59380 3.88566 3.74258
# Velocity P-wave (km/s) = 7.37438 8.08083 7.73567
#
# Compressibility (1/GPa) = 0.01566148
#
# Stress axis : x y z
#
# Youngs Moduli (GPa) = 53.38672 31.98579 53.55525
#
# Poissons Ratio (x) = 0.18296 0.40677
# Poissons Ratio (y) = 0.30537 0.70626
# Poissons Ratio (z) = 0.40549 0.42181
#
# Static dielectric constant tensor:
#      x y z
#    x 1.542090 0.000000 0.000000 
#    y 0.000000 1.572240 0.000000 
#    z 0.000000 0.000000 1.597200 
# 
# From -- ./inp_files/6949.got.cif
#   From: 2010.05.17/outbox.cif.g08.bks.cpg/sg47_4_cif.got.tgz:6949.got - 2010.06.03 20:15:42.
