data_PCOD9387606
_publ_section_title
;
Structure prediction by ZEFSAII (Michael W. Deem and Ramdas Pophale) SiO2 
 PCOD9387606
Probable space group: P M M M
;
_chemical_formula_sum "Si O2"
_cell_formula_units_Z 64
_cell_length_a 19.790871
_cell_length_b 20.045695
_cell_length_c 7.960152
_cell_angle_alpha 90.000000
_cell_angle_beta 90.000000
_cell_angle_gamma 90.000000
_cell_volume 3157.965542
_symmetry_space_group_name_H-M "P M M M"
_symmetry_group_IT_number 47
_symmetry_cell_setting 'orthorhombic'
loop_
_space_group_symop_operation_xyz
x,y,z
-x,-y,z
x,-y,-z
-x,y,-z
-x,-y,-z
x,y,-z
-x,y,z
x,-y,z
loop_
_atom_site_type_symbol
_atom_site_label
_atom_site_fract_x
_atom_site_fract_y
_atom_site_fract_z
Si Si1 0.575458 0.078359 0.297940
Si Si2 0.079504 0.574997 0.201386
Si Si3 0.423286 0.424595 0.701280
Si Si4 0.300759 0.835686 0.195996
Si Si5 0.922965 0.812496 0.297533
Si Si6 0.171186 0.307585 0.693884
Si Si7 0.318746 0.311042 0.806145
Si Si8 0.824546 0.076600 0.797015
O O1 0.581744 0.085509 0.500000
O O2 0.500000 0.100310 0.249977
O O3 0.633829 0.118763 0.210348
O O4 0.581571 0.000000 0.259784
O O5 0.100865 0.500000 0.246288
O O6 0.120528 0.630995 0.294968
O O7 0.000000 0.581234 0.236602
O O8 0.088126 0.582893 0.000000
O O9 0.426801 0.428322 0.500000
O O10 0.500000 0.408703 0.761635
O O11 0.405848 0.500000 0.762320
O O12 0.368200 0.367992 0.738598
O O13 0.319326 0.763643 0.272106
O O14 0.237624 0.877505 0.268124
O O15 0.283745 0.823698 0.000000
O O16 0.924425 0.806466 0.500000
O O17 0.869748 0.756369 0.235621
O O18 0.892488 0.884202 0.250666
O O19 0.000000 0.802619 0.236824
O O20 0.188952 0.293836 0.500000
O O21 0.239480 0.327400 0.788410
O O22 0.338114 0.304723 0.000000
O O23 0.821256 0.000000 0.736752
O O24 0.819790 0.074297 0.000000
#
# Coordination Sequence:
#
# PCOD9387606 Si02
#       8
#     8   8   8   8   8   8   8   8
#     4   9  19  35  54  79 111 146 186 230 276 332
#     4   9  19  36  57  82 113 149 188 230 280 339
#     4   9  20  41  66  90 119 156 196 237 284 338
#     4  10  21  37  56  80 113 149 187 234 284 337
#     4  10  22  39  58  82 112 146 186 235 291 347
#     4  11  22  37  58  83 114 151 192 239 287 341
#     4  11  23  38  59  86 117 151 191 236 283 336
#     4  10  21  38  59  82 110 146 189 236 287 343
#
# _framework density 20.266213
#
# number of rings (size 3 to 8) (size 9 to 14) (size 15 to 20)
#    0.000    2.125    1.250    2.625    0.000    6.250 
#    0.000    5.625    0.000    0.000    0.000    0.000 
#    0.000    0.000    0.000    0.000    0.000    0.000 
#
# Total GULP energy -357090.751701 kJ/mol
# GULP energy per Si atom -5579.542995 kJ/mol
# Density = 2.022009 g / cm^3
# Si number density = 20.266213 Si / 1000 Ang^3
#
#
#
# Elastic Constant Matrix: (Units=GPa)
#
#
# Indices 1 2 3 4 5 6 
#
# 1 112.0452 77.2892 9.9794 0.0000 0.0000 0.0000
# 2 77.2892 128.1993 14.6866 0.0000 0.0000 0.0000
# 3 9.9794 14.6866 13.2878 0.0000 0.0000 0.0000
# 4 0.0000 0.0000 0.0000 22.6070 0.0000 0.0000
# 5 0.0000 0.0000 0.0000 0.0000 23.6274 0.0000
# 6 0.0000 0.0000 0.0000 0.0000 0.0000 43.3292
#
#
#
# Elastic Compliance Matrix: (Units=1/GPa)
#
#
# Indices 1 2 3 4 5 6 
#
# 1 0.015305 -0.009057 -0.001484 0.000000 0.000000 0.000000
# 2 -0.009057 0.014291 -0.008993 0.000000 0.000000 0.000000
# 3 -0.001484 -0.008993 0.086311 0.000000 0.000000 0.000000
# 4 0.000000 0.000000 0.000000 0.044234 0.000000 0.000000
# 5 0.000000 0.000000 0.000000 0.000000 0.042324 0.000000
# 6 0.000000 0.000000 0.000000 0.000000 0.000000 0.023079
#
#
# Mechanical properties :
#
#
# Convention : Reuss Voigt Hill
#
# Bulk Modulus (GPa) = 13.01425 50.82697 31.92061
# Shear Modulus (GPa) = 17.22802 28.01787 22.62295
#
# Velocity S-wave (km/s) = 2.91879 3.72222 3.34472
# Velocity P-wave (km/s) = 4.21837 6.60359 5.54085
#
# Compressibility (1/GPa) = 0.07683887
#
# Stress axis : x y z
#
# Youngs Moduli (GPa) = 65.33980 69.97456 11.58595
#
# Poissons Ratio (x) = 0.63375 0.01719
# Poissons Ratio (y) = 0.59178 0.10420
# Poissons Ratio (z) = 0.09695 0.62931
#
# Static dielectric constant tensor:
#      x y z
#    x 1.704390 0.000000 0.000000 
#    y 0.000000 1.727510 0.000000 
#    z 0.000000 0.000000 1.749330 
# 
# From -- ./inp_files/10031.got.cif
#   From: 2010.05.17/outbox.cif.g08.bks.cpg/sg47_6_cif.got.tgz:10031.got - 2010.06.03 20:15:42.
