data_PCOD9387654
_publ_section_title
;
Structure prediction by ZEFSAII (Michael W. Deem and Ramdas Pophale) SiO2 
 PCOD9387654
Probable space group: P M M M
;
_chemical_formula_sum "Si O2"
_cell_formula_units_Z 48
_cell_length_a 9.474368
_cell_length_b 8.013840
_cell_length_c 32.230600
_cell_angle_alpha 90.000000
_cell_angle_beta 90.000000
_cell_angle_gamma 90.000000
_cell_volume 2447.142768
_symmetry_space_group_name_H-M "P M M M"
_symmetry_group_IT_number 47
_symmetry_cell_setting 'orthorhombic'
loop_
_space_group_symop_operation_xyz
x,y,z
-x,-y,z
x,-y,-z
-x,y,-z
-x,-y,-z
x,y,-z
-x,y,z
x,-y,z
loop_
_atom_site_type_symbol
_atom_site_label
_atom_site_fract_x
_atom_site_fract_y
_atom_site_fract_z
Si Si1 0.341141 0.698643 0.500000
Si Si2 0.337667 0.704332 0.749916
Si Si3 0.337637 0.801096 0.000000
Si Si4 0.838364 0.700554 0.670687
Si Si5 0.662384 0.299624 0.089363
Si Si6 0.839259 0.801076 0.420712
Si Si7 0.162542 0.704310 0.830947
O O1 0.349552 0.500000 0.500000
O O2 0.500000 0.768468 0.500000
O O3 0.257134 0.749619 0.541118
O O4 0.500000 0.758363 0.752110
O O5 0.338198 0.500000 0.749731
O O6 0.260499 0.760719 0.707861
O O7 0.248677 0.756063 0.790161
O O8 0.277111 0.743595 0.956022
O O9 0.500000 0.735620 0.000000
O O10 0.340771 0.000000 0.000000
O O11 0.843646 0.500000 0.673778
O O12 0.787683 0.743779 0.624504
O O13 0.000000 0.763256 0.674943
O O14 0.500000 0.236189 0.092200
O O15 0.655725 0.500000 0.092228
O O16 0.756918 0.239600 0.127521
O O17 0.000000 0.735286 0.426047
O O18 0.846137 0.000000 0.420230
O O19 0.162159 0.500000 0.831191
O O20 0.000000 0.758230 0.829696
#
# Coordination Sequence:
#
# PCOD9387654 Si02
#       7
#     4   8   4   8   8   8   8
#     4  11  24  39  56  80 108 137 172 215 260 304
#     4   9  16  26  43  69  99 128 159 198 242 286
#     4   9  17  29  46  67  90 118 152 189 230 278
#     4   9  17  30  49  73 101 133 167 203 244 290
#     4   9  16  27  45  68  92 118 151 191 233 278
#     4  10  21  37  57  80 106 138 175 212 253 304
#     4   9  16  26  42  66  95 124 154 192 239 286
#
# _framework density 19.614712000000001
#
# number of rings (size 3 to 8) (size 9 to 14) (size 15 to 20)
#    0.000    2.667    0.000    2.250    0.000    8.333 
#    0.000    2.083    0.000    4.000    0.000    0.000 
#    0.000    0.000    0.000    0.000    0.000    0.000 
#
# Total GULP energy -267801.603544 kJ/mol
# GULP energy per Si atom -5579.200074 kJ/mol
# Density = 1.957007 g / cm^3
# Si number density = 19.614712 Si / 1000 Ang^3
#
#
#
# Elastic Constant Matrix: (Units=GPa)
#
#
# Indices 1 2 3 4 5 6 
#
# 1 130.6636 8.3871 126.5149 0.0000 0.0000 0.0000
# 2 8.3871 14.2996 9.2733 0.0000 0.0000 0.0000
# 3 126.5149 9.2733 237.9106 0.0000 0.0000 0.0000
# 4 0.0000 0.0000 0.0000 -41.4592 0.0000 0.0000
# 5 0.0000 0.0000 0.0000 0.0000 35.6374 0.0000
# 6 0.0000 0.0000 0.0000 0.0000 0.0000 6.8626
#
#
#
# Elastic Compliance Matrix: (Units=1/GPa)
#
#
# Indices 1 2 3 4 5 6 
#
# 1 0.015992 -0.003965 -0.008350 0.000000 0.000000 0.000000
# 2 -0.003965 0.072729 -0.000726 0.000000 0.000000 0.000000
# 3 -0.008350 -0.000726 0.008672 0.000000 0.000000 0.000000
# 4 0.000000 0.000000 0.000000 -0.024120 0.000000 0.000000
# 5 0.000000 0.000000 0.000000 0.000000 0.028060 0.000000
# 6 0.000000 0.000000 0.000000 0.000000 0.000000 0.145716
#
#
# Mechanical properties :
#
#
# Convention : Reuss Voigt Hill
#
# Bulk Modulus (GPa) = 14.02316 74.58047 44.30182
# Shear Modulus (GPa) = 16.84055 16.12141 16.48098
#
# Velocity S-wave (km/s) = 2.93331 2.87000 2.90183
# Velocity P-wave (km/s) = 4.31709 7.00627 5.81915
#
# Compressibility (1/GPa) = 0.07131058
#
# Stress axis : x y z
#
# Youngs Moduli (GPa) = 62.52934 13.74972 115.31614
#
# Poissons Ratio (x) = 0.05452 0.96287
# Poissons Ratio (y) = 0.24793 0.08375
# Poissons Ratio (z) = 0.52211 0.00999
#
# Static dielectric constant tensor:
#      x y z
#    x 1.686940 0.000000 0.000000 
#    y 0.000000 1.686060 0.000000 
#    z 0.000000 0.000000 1.689060 
# 
# From -- ./inp_files/34122.got.cif
#   From: 2010.05.17/outbox.cif.g08.bks.cpg/sg47_18_cif.got.tgz:34122.got - 2010.06.03 20:15:42.
