data_PCOD9387112
_publ_section_title
;
Structure prediction by ZEFSAII (Michael W. Deem and Ramdas Pophale) SiO2 
 PCOD9387112
Probable space group: P M M M
;
_chemical_formula_sum "Si O2"
_cell_formula_units_Z 64
_cell_length_a 25.897129
_cell_length_b 15.136912
_cell_length_c 7.878809
_cell_angle_alpha 90.000000
_cell_angle_beta 90.000000
_cell_angle_gamma 90.000000
_cell_volume 3088.513319
_symmetry_space_group_name_H-M "P M M M"
_symmetry_group_IT_number 47
_symmetry_cell_setting 'orthorhombic'
loop_
_space_group_symop_operation_xyz
x,y,z
-x,-y,z
x,-y,-z
-x,y,-z
-x,-y,-z
x,y,-z
-x,y,z
x,-y,z
loop_
_atom_site_type_symbol
_atom_site_label
_atom_site_fract_x
_atom_site_fract_y
_atom_site_fract_z
Si Si1 0.556806 0.214524 0.702428
Si Si2 0.154125 0.900703 0.299244
Si Si3 0.652555 0.899966 0.297461
Si Si4 0.279225 0.596689 0.206537
Si Si5 0.249393 0.214966 0.800961
Si Si6 0.062668 0.405156 0.798714
Si Si7 0.400839 0.597601 0.204552
Si Si8 0.059496 0.212432 0.794049
O O1 0.555306 0.200070 0.500000
O O2 0.500000 0.193276 0.771997
O O3 0.603773 0.155340 0.771917
O O4 0.569273 0.317608 0.729817
O O5 0.163326 0.903205 0.500000
O O6 0.195403 0.833405 0.223665
O O7 0.097249 0.863631 0.265664
O O8 0.160533 0.000000 0.231247
O O9 0.645696 0.906574 0.500000
O O10 0.704784 0.845142 0.271002
O O11 0.656024 0.000000 0.229560
O O12 0.261429 0.500000 0.267515
O O13 0.251087 0.684933 0.268298
O O14 0.340061 0.606055 0.248729
O O15 0.275736 0.594158 0.000000
O O16 0.260220 0.221781 0.000000
O O17 0.080305 0.500000 0.726674
O O18 0.078891 0.309322 0.732028
O O19 0.000000 0.404142 0.787427
O O20 0.075142 0.406304 0.000000
O O21 0.418493 0.500000 0.262046
O O22 0.404005 0.598884 0.000000
O O23 0.000000 0.200272 0.741072
O O24 0.059950 0.214786 0.000000
#
# Coordination Sequence:
#
# PCOD9387112 Si02
#       8
#     8   8   8   8   8   8   8   8
#     4  10  21  35  51  75 108 144 183 227 270 317
#     4  11  25  42  57  76 108 149 187 224 271 327
#     4  10  21  37  56  77 104 140 180 223 275 331
#     4   8  15  30  54  83 111 137 168 210 263 322
#     4  11  21  36  62  88 108 134 174 225 273 319
#     4   7  10  20  43  76 110 140 171 209 254 305
#     4   9  17  32  54  78 106 141 179 218 265 324
#     4   9  18  34  58  87 115 144 183 230 273 313
#
# _framework density 20.721941999999999
#
# number of rings (size 3 to 8) (size 9 to 14) (size 15 to 20)
#    0.000    2.625    1.250    3.000    0.000    4.250 
#    0.000    4.375    0.000    5.625    0.000    3.500 
#    0.000    0.000    0.000    0.000    0.000    0.000 
#
# Total GULP energy -356936.190957 kJ/mol
# GULP energy per Si atom -5577.127984 kJ/mol
# Density = 2.067478 g / cm^3
# Si number density = 20.721942 Si / 1000 Ang^3
#
#
#
# Elastic Constant Matrix: (Units=GPa)
#
#
# Indices 1 2 3 4 5 6 
#
# 1 63.7158 59.1182 -5.3356 0.0000 0.0000 0.0000
# 2 59.1182 150.2909 5.1455 0.0000 0.0000 0.0000
# 3 -5.3356 5.1455 19.5497 0.0000 0.0000 0.0000
# 4 0.0000 0.0000 0.0000 18.8018 0.0000 0.0000
# 5 0.0000 0.0000 0.0000 0.0000 18.5191 0.0000
# 6 0.0000 0.0000 0.0000 0.0000 0.0000 -37.4427
#
#
#
# Elastic Compliance Matrix: (Units=1/GPa)
#
#
# Indices 1 2 3 4 5 6 
#
# 1 0.026550 -0.010789 0.010086 0.000000 0.000000 0.000000
# 2 -0.010789 0.011098 -0.005866 0.000000 0.000000 0.000000
# 3 0.010086 -0.005866 0.055448 0.000000 0.000000 0.000000
# 4 0.000000 0.000000 0.000000 0.053186 0.000000 0.000000
# 5 0.000000 0.000000 0.000000 0.000000 0.053998 0.000000
# 6 0.000000 0.000000 0.000000 0.000000 0.000000 -0.026707
#
#
# Mechanical properties :
#
#
# Convention : Reuss Voigt Hill
#
# Bulk Modulus (GPa) = 12.50645 39.04583 25.77614
# Shear Modulus (GPa) = 23.43414 11.61753 17.52584
#
# Velocity S-wave (km/s) = 3.36651 2.37035 2.91135
# Velocity P-wave (km/s) = 4.59997 5.13567 4.87518
#
# Compressibility (1/GPa) = 0.07995871
#
# Stress axis : x y z
#
# Youngs Moduli (GPa) = 37.66533 90.10256 18.03486
#
# Poissons Ratio (x) = 0.97210 -0.18189
# Poissons Ratio (y) = 0.40636 0.10579
# Poissons Ratio (z) = -0.37988 0.52851
#
# Static dielectric constant tensor:
#      x y z
#    x 1.716670 0.000000 0.000000 
#    y 0.000000 1.779140 0.000000 
#    z 0.000000 0.000000 1.768140 
# 
# From -- ./inp_files/12739.got.cif
#   From: 2010.05.17/outbox.cif.g08.bks.cpg/sg47_7_cif.got.tgz:12739.got - 2010.06.03 20:15:42.
