data_PCOD9387152
_publ_section_title
;
Structure prediction by ZEFSAII (Michael W. Deem and Ramdas Pophale) SiO2 
 PCOD9387152
Probable space group: P M M M
;
_chemical_formula_sum "Si O2"
_cell_formula_units_Z 36
_cell_length_a 9.596119
_cell_length_b 8.889973
_cell_length_c 23.550687
_cell_angle_alpha 90.000000
_cell_angle_beta 90.000000
_cell_angle_gamma 90.000000
_cell_volume 2009.091182
_symmetry_space_group_name_H-M "P M M M"
_symmetry_group_IT_number 47
_symmetry_cell_setting 'orthorhombic'
loop_
_space_group_symop_operation_xyz
x,y,z
-x,-y,z
x,-y,-z
-x,y,-z
-x,-y,-z
x,y,-z
-x,y,z
x,-y,z
loop_
_atom_site_type_symbol
_atom_site_label
_atom_site_fract_x
_atom_site_fract_y
_atom_site_fract_z
Si Si1 0.836906 0.819724 0.500000
Si Si2 0.338178 0.681188 0.064971
Si Si3 0.336637 0.679775 0.397693
Si Si4 0.662880 0.180295 0.275880
Si Si5 0.161223 0.181585 0.833994
O O1 0.759508 0.754709 0.555101
O O2 0.000000 0.778242 0.500000
O O3 0.826523 0.000000 0.500000
O O4 0.500000 0.723013 0.075401
O O5 0.329575 0.500000 0.068301
O O6 0.239211 0.753576 0.111387
O O7 0.303488 0.724546 0.000000
O O8 0.500000 0.717751 0.408223
O O9 0.323308 0.500000 0.400118
O O10 0.301698 0.739172 0.334842
O O11 0.500000 0.211170 0.263029
O O12 0.758060 0.228097 0.223249
O O13 0.677315 0.000000 0.283484
O O14 0.000000 0.227738 0.832459
O O15 0.166835 0.000000 0.836343
#
# Coordination Sequence:
#
# PCOD9387152 Si02
#       5
#     4   8   8   8   8
#     4  11  24  39  56  80 110 145 182 219 262 312
#     4   9  19  36  56  77 102 135 177 223 268 315
#     4  10  21  37  58  84 111 139 175 220 267 314
#     4   9  18  34  55  77 104 141 182 220 259 307
#     4  10  21  35  52  78 111 143 175 215 263 315
#
# _framework density 17.91855
#
# number of rings (size 3 to 8) (size 9 to 14) (size 15 to 20)
#    0.000    2.333    0.000    2.667    0.000    8.000 
#    0.000    7.778    0.000    0.000    0.000    0.000 
#    0.000    0.000    0.000    0.000    0.000    0.000 
#
# Total GULP energy -201000.404488 kJ/mol
# GULP energy per Si atom -5583.344569 kJ/mol
# Density = 1.787777 g / cm^3
# Si number density = 17.918550 Si / 1000 Ang^3
#
#
#
# Elastic Constant Matrix: (Units=GPa)
#
#
# Indices 1 2 3 4 5 6 
#
# 1 142.4062 54.5102 140.2608 0.0000 0.0000 0.0000
# 2 54.5102 29.0983 56.4379 0.0000 0.0000 0.0000
# 3 140.2608 56.4379 188.3673 0.0000 0.0000 0.0000
# 4 0.0000 0.0000 0.0000 53.5454 0.0000 0.0000
# 5 0.0000 0.0000 0.0000 0.0000 -13.4851 0.0000
# 6 0.0000 0.0000 0.0000 0.0000 0.0000 25.7128
#
#
#
# Elastic Compliance Matrix: (Units=1/GPa)
#
#
# Indices 1 2 3 4 5 6 
#
# 1 0.039721 -0.040689 -0.017385 0.000000 0.000000 0.000000
# 2 -0.040689 0.123726 -0.006772 0.000000 0.000000 0.000000
# 3 -0.017385 -0.006772 0.020283 0.000000 0.000000 0.000000
# 4 0.000000 0.000000 0.000000 0.018676 0.000000 0.000000
# 5 0.000000 0.000000 0.000000 0.000000 -0.074156 0.000000
# 6 0.000000 0.000000 0.000000 0.000000 0.000000 0.038891
#
#
# Mechanical properties :
#
#
# Convention : Reuss Voigt Hill
#
# Bulk Modulus (GPa) = 18.50636 95.80993 57.15815
# Shear Modulus (GPa) = 15.88077 20.39881 18.13979
#
# Velocity S-wave (km/s) = 2.98027 3.37771 3.18519
# Velocity P-wave (km/s) = 4.71096 8.29443 6.74503
#
# Compressibility (1/GPa) = 0.05403548
#
# Stress axis : x y z
#
# Youngs Moduli (GPa) = 25.17588 8.08240 49.30180
#
# Poissons Ratio (x) = 0.32887 0.85713
# Poissons Ratio (y) = 1.02439 0.33389
# Poissons Ratio (z) = 0.43769 0.05474
#
# Static dielectric constant tensor:
#      x y z
#    x 1.597880 0.000000 0.000000 
#    y 0.000000 1.600560 0.000000 
#    z 0.000000 0.000000 1.580710 
# 
# From -- ./inp_files/1392.got.cif
#   From: 2010.05.17/outbox.cif.g08.bks.cpg/sg47_1_cif.got.tgz:1392.got - 2010.06.03 20:15:42.
