data_PCOD9387061
_publ_section_title
;
Structure prediction by ZEFSAII (Michael W. Deem and Ramdas Pophale) SiO2 
 PCOD9387061
Probable space group: P M M M
;
_chemical_formula_sum "Si O2"
_cell_formula_units_Z 64
_cell_length_a 19.265516
_cell_length_b 7.776415
_cell_length_c 20.940179
_cell_angle_alpha 90.000000
_cell_angle_beta 90.000000
_cell_angle_gamma 90.000000
_cell_volume 3137.187418
_symmetry_space_group_name_H-M "P M M M"
_symmetry_group_IT_number 47
_symmetry_cell_setting 'orthorhombic'
loop_
_space_group_symop_operation_xyz
x,y,z
-x,-y,z
x,-y,-z
-x,y,-z
-x,-y,-z
x,y,-z
-x,y,z
x,-y,z
loop_
_atom_site_type_symbol
_atom_site_label
_atom_site_fract_x
_atom_site_fract_y
_atom_site_fract_z
Si Si1 0.578218 0.704187 0.315245
Si Si2 0.668584 0.202477 0.193821
Si Si3 0.825406 0.794241 0.810017
Si Si4 0.323492 0.707770 0.572517
Si Si5 0.078350 0.707355 0.072777
Si Si6 0.835473 0.206312 0.571773
Si Si7 0.420520 0.292059 0.927650
Si Si8 0.920547 0.210956 0.693340
O O1 0.500000 0.774807 0.310804
O O2 0.572262 0.500000 0.326037
O O3 0.620697 0.725407 0.250019
O O4 0.623047 0.774120 0.374577
O O5 0.746901 0.274277 0.192941
O O6 0.631700 0.230323 0.126041
O O7 0.672975 0.000000 0.205956
O O8 0.864566 0.760969 0.876326
O O9 0.873079 0.729540 0.752064
O O10 0.821025 0.000000 0.802821
O O11 0.337527 0.768215 0.500000
O O12 0.326815 0.500000 0.571787
O O13 0.244427 0.755979 0.588943
O O14 0.077088 0.500000 0.071900
O O15 0.000000 0.765865 0.090597
O O16 0.092283 0.765275 0.000000
O O17 0.848023 0.274028 0.500000
O O18 0.886677 0.268948 0.626738
O O19 0.842944 0.000000 0.569197
O O20 0.500000 0.237476 0.913855
O O21 0.420058 0.500000 0.926866
O O22 0.403230 0.236994 0.000000
O O23 0.000000 0.265584 0.700251
O O24 0.920123 0.000000 0.693565
#
# Coordination Sequence:
#
# PCOD9387061 Si02
#       8
#     8   8   8   8   8   8   8   8
#     4  10  21  36  54  76 102 134 173 215 258 307
#     4  11  23  36  52  77 108 139 172 213 259 306
#     4  10  21  35  51  73 102 136 172 209 250 299
#     4   9  18  33  53  76 102 133 168 207 253 304
#     4   9  19  36  56  78 104 132 164 206 254 301
#     4   9  17  30  50  75 102 132 165 203 248 298
#     4   9  19  37  59  80 103 134 172 212 255 306
#     4   9  17  30  49  72  98 129 167 210 250 288
#
# _framework density 20.400438999999999
#
# number of rings (size 3 to 8) (size 9 to 14) (size 15 to 20)
#    0.000    2.500    0.000    2.625    0.000    6.750 
#    0.000    6.875    0.000    1.125    0.000    4.375 
#    0.000    0.000    0.000    0.000    0.000    0.000 
#
# Total GULP energy -357305.280714 kJ/mol
# GULP energy per Si atom -5582.895011 kJ/mol
# Density = 2.035401 g / cm^3
# Si number density = 20.400439 Si / 1000 Ang^3
#
#
#
# Elastic Constant Matrix: (Units=GPa)
#
#
# Indices 1 2 3 4 5 6 
#
# 1 167.3699 -1.4355 106.2566 0.0000 0.0000 0.0000
# 2 -1.4355 25.1345 -4.2322 0.0000 0.0000 0.0000
# 3 106.2566 -4.2322 120.8581 0.0000 0.0000 0.0000
# 4 0.0000 0.0000 0.0000 30.2636 0.0000 0.0000
# 5 0.0000 0.0000 0.0000 0.0000 41.3079 0.0000
# 6 0.0000 0.0000 0.0000 0.0000 0.0000 20.4440
#
#
#
# Elastic Compliance Matrix: (Units=1/GPa)
#
#
# Indices 1 2 3 4 5 6 
#
# 1 0.013561 -0.001240 -0.011966 0.000000 0.000000 0.000000
# 2 -0.001240 0.040135 0.002496 0.000000 0.000000 0.000000
# 3 -0.011966 0.002496 0.018882 0.000000 0.000000 0.000000
# 4 0.000000 0.000000 0.000000 0.033043 0.000000 0.000000
# 5 0.000000 0.000000 0.000000 0.000000 0.024208 0.000000
# 6 0.000000 0.000000 0.000000 0.000000 0.000000 0.048914
#
#
# Mechanical properties :
#
#
# Convention : Reuss Voigt Hill
#
# Bulk Modulus (GPa) = 19.54748 57.17116 38.35932
# Shear Modulus (GPa) = 23.01846 32.58799 27.80323
#
# Velocity S-wave (km/s) = 3.36271 4.00110 3.69572
# Velocity P-wave (km/s) = 4.96787 7.03068 6.08729
#
# Compressibility (1/GPa) = 0.05115748
#
# Stress axis : x y z
#
# Youngs Moduli (GPa) = 73.74161 24.91563 52.96093
#
# Poissons Ratio (x) = 0.03090 0.63373
# Poissons Ratio (y) = 0.09147 -0.13219
# Poissons Ratio (z) = 0.88239 -0.06219
#
# Static dielectric constant tensor:
#      x y z
#    x 1.706300 0.000000 0.000000 
#    y 0.000000 1.763130 0.000000 
#    z 0.000000 0.000000 1.706750 
# 
# From -- ./inp_files/11566.got.cif
#   From: 2010.05.17/outbox.cif.g08.bks.cpg/sg47_6_cif.got.tgz:11566.got - 2010.06.03 20:15:42.
