data_PCOD9387184
_publ_section_title
;
Structure prediction by ZEFSAII (Michael W. Deem and Ramdas Pophale) SiO2 
 PCOD9387184
Probable space group: P M M M
;
_chemical_formula_sum "Si O2"
_cell_formula_units_Z 32
_cell_length_a 17.780932
_cell_length_b 7.555931
_cell_length_c 10.939214
_cell_angle_alpha 90.000000
_cell_angle_beta 90.000000
_cell_angle_gamma 90.000000
_cell_volume 1469.699758
_symmetry_space_group_name_H-M "P M M M"
_symmetry_group_IT_number 47
_symmetry_cell_setting 'orthorhombic'
loop_
_space_group_symop_operation_xyz
x,y,z
-x,-y,z
x,-y,-z
-x,y,-z
-x,-y,-z
x,y,-z
-x,y,z
x,-y,z
loop_
_atom_site_type_symbol
_atom_site_label
_atom_site_fract_x
_atom_site_fract_y
_atom_site_fract_z
Si Si1 0.000000 0.798088 0.643413
Si Si2 0.411996 0.715816 0.864092
Si Si3 0.685667 0.294006 0.638321
Si Si4 0.846703 0.793402 0.260289
Si Si5 0.910831 0.712949 0.000000
O O1 0.922528 0.712609 0.683242
O O2 0.000000 0.812054 0.500000
O O3 0.000000 0.000000 0.696752
O O4 0.500000 0.761162 0.852712
O O5 0.407177 0.500000 0.864538
O O6 0.365454 0.782816 0.747603
O O7 0.385684 0.773448 0.000000
O O8 0.680391 0.219290 0.500000
O O9 0.663878 0.500000 0.628457
O O10 0.770789 0.287329 0.688037
O O11 0.864223 0.776013 0.117336
O O12 0.842212 0.000000 0.295072
O O13 0.912341 0.500000 0.000000
O O14 0.000000 0.770612 0.000000
#
# Coordination Sequence:
#
# PCOD9387184 Si02
#       5
#     4   8   8   8   4
#     4   9  18  33  53  74 100 141 188 231 272 319
#     4   8  15  30  53  80 110 147 190 234 283 340
#     4  10  21  35  53  83 118 149 188 239 291 339
#     4  11  22  37  57  80 111 148 192 234 277 337
#     4  11  23  39  59  83 112 143 182 235 295 342
#
# _framework density 21.773154000000002
#
# number of rings (size 3 to 8) (size 9 to 14) (size 15 to 20)
#    0.000    2.250    1.250    2.625    1.750    2.500 
#    0.000    2.500    0.000    3.750    0.000    3.500 
#    0.000    0.000    0.000    0.000    0.000    0.000 
#
# Total GULP energy -178517.295589 kJ/mol
# GULP energy per Si atom -5578.665487 kJ/mol
# Density = 2.172360 g / cm^3
# Si number density = 21.773154 Si / 1000 Ang^3
#
#
#
# Elastic Constant Matrix: (Units=GPa)
#
#
# Indices 1 2 3 4 5 6 
#
# 1 112.3814 -2.6410 103.4693 0.0000 0.0000 0.0000
# 2 -2.6410 59.0699 -4.1474 0.0000 0.0000 0.0000
# 3 103.4693 -4.1474 215.3797 0.0000 0.0000 0.0000
# 4 0.0000 0.0000 0.0000 -11.8745 0.0000 0.0000
# 5 0.0000 0.0000 0.0000 0.0000 300.9987 0.0000
# 6 0.0000 0.0000 0.0000 0.0000 0.0000 -17.9590
#
#
#
# Elastic Compliance Matrix: (Units=1/GPa)
#
#
# Indices 1 2 3 4 5 6 
#
# 1 0.015957 0.000175 -0.007663 0.000000 0.000000 0.000000
# 2 0.000175 0.016954 0.000242 0.000000 0.000000 0.000000
# 3 -0.007663 0.000242 0.008329 0.000000 0.000000 0.000000
# 4 0.000000 0.000000 0.000000 -0.084214 0.000000 0.000000
# 5 0.000000 0.000000 0.000000 0.000000 0.003322 0.000000
# 6 0.000000 0.000000 0.000000 0.000000 0.000000 -0.055682
#
#
# Mechanical properties :
#
#
# Convention : Reuss Voigt Hill
#
# Bulk Modulus (GPa) = 37.38301 64.46586 50.92443
# Shear Modulus (GPa) = -69.51438 73.57637 2.03100
#
# Velocity S-wave (km/s) = -5.65650 5.81942 0.96686
# Velocity P-wave (km/s) = 5.04526 8.65022 4.96848
#
# Compressibility (1/GPa) = 0.02675012
#
# Stress axis : x y z
#
# Youngs Moduli (GPa) = 62.66721 58.98332 120.06589
#
# Poissons Ratio (x) = -0.01035 0.92001
# Poissons Ratio (y) = -0.01099 -0.02908
# Poissons Ratio (z) = 0.48019 -0.01428
#
# Static dielectric constant tensor:
#      x y z
#    x 1.774470 0.000000 0.000000 
#    y 0.000000 1.845920 0.000000 
#    z 0.000000 0.000000 1.869450 
# 
# From -- ./inp_files/3408.got.cif
#   From: 2010.05.17/outbox.cif.g08.bks.cpg/sg47_2_cif.got.tgz:3408.got - 2010.06.03 20:15:42.
