data_PCOD9387491
_publ_section_title
;
Structure prediction by ZEFSAII (Michael W. Deem and Ramdas Pophale) SiO2 
 PCOD9387491
Probable space group: P M M M
;
_chemical_formula_sum "Si O2"
_cell_formula_units_Z 64
_cell_length_a 8.937989
_cell_length_b 19.275067
_cell_length_c 18.747885
_cell_angle_alpha 90.000000
_cell_angle_beta 90.000000
_cell_angle_gamma 90.000000
_cell_volume 3229.891942
_symmetry_space_group_name_H-M "P M M M"
_symmetry_group_IT_number 47
_symmetry_cell_setting 'orthorhombic'
loop_
_space_group_symop_operation_xyz
x,y,z
-x,-y,z
x,-y,-z
-x,y,-z
-x,-y,-z
x,y,-z
-x,y,z
x,-y,z
loop_
_atom_site_type_symbol
_atom_site_label
_atom_site_fract_x
_atom_site_fract_y
_atom_site_fract_z
Si Si1 0.827906 0.322478 0.321290
Si Si2 0.678688 0.420951 0.794204
Si Si3 0.820386 0.080700 0.812775
Si Si4 0.321767 0.210150 0.419143
Si Si5 0.321626 0.193868 0.916131
Si Si6 0.335456 0.419806 0.415144
Si Si7 0.824795 0.342635 0.915247
Si Si8 0.178111 0.081053 0.645796
O O1 0.747546 0.361126 0.255948
O O2 0.751314 0.255382 0.356038
O O3 0.801600 0.378833 0.383419
O O4 0.000000 0.308870 0.304947
O O5 0.500000 0.418204 0.790069
O O6 0.725565 0.500000 0.775493
O O7 0.736234 0.400895 0.872326
O O8 0.739336 0.133569 0.865302
O O9 0.785099 0.094102 0.729390
O O10 0.000000 0.087852 0.820536
O O11 0.782561 0.000000 0.827799
O O12 0.276401 0.231982 0.500000
O O13 0.500000 0.216193 0.415341
O O14 0.269059 0.132092 0.404407
O O15 0.500000 0.201198 0.908110
O O16 0.242850 0.266843 0.898192
O O17 0.290116 0.178861 0.000000
O O18 0.334690 0.416207 0.500000
O O19 0.500000 0.392107 0.391121
O O20 0.330326 0.500000 0.394146
O O21 0.000000 0.344453 0.896230
O O22 0.810669 0.352123 0.000000
O O23 0.000000 0.093271 0.637148
O O24 0.206306 0.000000 0.631637
#
# Coordination Sequence:
#
# PCOD9387491 Si02
#       8
#     8   8   8   8   8   8   8   8
#     4  12  25  39  59  87 120 156 195 246 300 352
#     4  11  25  44  66  92 123 161 203 247 300 363
#     4   9  19  36  58  85 120 162 207 256 311 369
#     4  11  25  43  63  89 122 161 204 250 303 365
#     4  10  21  36  56  85 123 166 210 257 308 363
#     4   9  18  34  56  80 110 151 193 234 287 350
#     4  10  22  41  65  92 123 161 204 252 306 361
#     4   9  20  40  64  90 121 158 201 252 310 368
#
# _framework density 19.814906000000001
#
# number of rings (size 3 to 8) (size 9 to 14) (size 15 to 20)
#    0.000    1.875    0.000    4.500    1.750    8.750 
#    0.000    5.625    0.000    0.000    0.000    0.000 
#    0.000    0.000    0.000    0.000    0.000    0.000 
#
# Total GULP energy -357468.589565 kJ/mol
# GULP energy per Si atom -5585.446712 kJ/mol
# Density = 1.976981 g / cm^3
# Si number density = 19.814906 Si / 1000 Ang^3
#
#
#
# Elastic Constant Matrix: (Units=GPa)
#
#
# Indices 1 2 3 4 5 6 
#
# 1 70.0517 37.8664 35.9275 0.0000 0.0000 0.0000
# 2 37.8664 72.0704 44.3133 0.0000 0.0000 0.0000
# 3 35.9275 44.3133 56.6063 0.0000 0.0000 0.0000
# 4 0.0000 0.0000 0.0000 36.4344 0.0000 0.0000
# 5 0.0000 0.0000 0.0000 0.0000 33.3319 0.0000
# 6 0.0000 0.0000 0.0000 0.0000 0.0000 35.0833
#
#
#
# Elastic Compliance Matrix: (Units=1/GPa)
#
#
# Indices 1 2 3 4 5 6 
#
# 1 0.022366 -0.005829 -0.009633 0.000000 0.000000 0.000000
# 2 -0.005829 0.028271 -0.018432 0.000000 0.000000 0.000000
# 3 -0.009633 -0.018432 0.038209 0.000000 0.000000 0.000000
# 4 0.000000 0.000000 0.000000 0.027447 0.000000 0.000000
# 5 0.000000 0.000000 0.000000 0.000000 0.030001 0.000000
# 6 0.000000 0.000000 0.000000 0.000000 0.000000 0.028504
#
#
# Mechanical properties :
#
#
# Convention : Reuss Voigt Hill
#
# Bulk Modulus (GPa) = 47.48527 48.32700 47.90613
# Shear Modulus (GPa) = 20.03171 26.34465 23.18818
#
# Velocity S-wave (km/s) = 3.18298 3.65024 3.42459
# Velocity P-wave (km/s) = 6.12576 6.49675 6.31398
#
# Compressibility (1/GPa) = 0.02105916
#
# Stress axis : x y z
#
# Youngs Moduli (GPa) = 44.71029 35.37214 26.17181
#
# Poissons Ratio (x) = 0.20617 0.25211
# Poissons Ratio (y) = 0.26059 0.48240
# Poissons Ratio (z) = 0.43069 0.65198
#
# Static dielectric constant tensor:
#      x y z
#    x 1.675750 0.000000 0.000000 
#    y 0.000000 1.694930 0.000000 
#    z 0.000000 0.000000 1.719240 
# 
# From -- ./inp_files/30025.got.cif
#   From: 2010.05.17/outbox.cif.g08.bks.cpg/sg47_16_cif.got.tgz:30025.got - 2010.06.03 20:15:42.
