data_PCOD9387627
_publ_section_title
;
Structure prediction by ZEFSAII (Michael W. Deem and Ramdas Pophale) SiO2 
 PCOD9387627
Probable space group: P M M M
;
_chemical_formula_sum "Si O2"
_cell_formula_units_Z 64
_cell_length_a 7.787012
_cell_length_b 14.525304
_cell_length_c 24.905782
_cell_angle_alpha 90.000000
_cell_angle_beta 90.000000
_cell_angle_gamma 90.000000
_cell_volume 2817.061037
_symmetry_space_group_name_H-M "P M M M"
_symmetry_group_IT_number 47
_symmetry_cell_setting 'orthorhombic'
loop_
_space_group_symop_operation_xyz
x,y,z
-x,-y,z
x,-y,-z
-x,y,-z
-x,-y,-z
x,y,-z
-x,y,z
x,-y,z
loop_
_atom_site_type_symbol
_atom_site_label
_atom_site_fract_x
_atom_site_fract_y
_atom_site_fract_z
Si Si1 0.804401 0.897339 0.675213
Si Si2 0.709775 0.892304 0.940145
Si Si3 0.794955 0.399511 0.772168
Si Si4 0.207141 0.298576 0.329714
Si Si5 0.706500 0.394480 0.560472
Si Si6 0.798724 0.395670 0.063734
Si Si7 0.310376 0.249382 0.857545
Si Si8 0.695929 0.889560 0.557840
O O1 0.722884 0.800324 0.691686
O O2 0.805858 0.879285 0.610895
O O3 0.000000 0.901829 0.695223
O O4 0.727285 0.000000 0.684032
O O5 0.500000 0.884955 0.939626
O O6 0.776007 0.836497 0.888361
O O7 0.752258 0.000000 0.936432
O O8 0.765798 0.859308 0.000000
O O9 0.727682 0.500000 0.790076
O O10 0.732738 0.375434 0.712315
O O11 0.762245 0.311875 0.810026
O O12 0.000000 0.407189 0.770264
O O13 0.246491 0.327868 0.390581
O O14 0.000000 0.292266 0.326167
O O15 0.765980 0.369232 0.500000
O O16 0.500000 0.396156 0.558626
O O17 0.765368 0.500000 0.571226
O O18 0.755018 0.500000 0.078803
O O19 0.686615 0.322337 0.093802
O O20 0.000000 0.380997 0.078101
O O21 0.783988 0.388018 0.000000
O O22 0.500000 0.219888 0.840542
O O23 0.759257 0.855183 0.500000
O O24 0.500000 0.854741 0.565980
O O25 0.682700 0.000000 0.553386
#
# Coordination Sequence:
#
# PCOD9387627 Si02
#       8
#     8   8   8   8   8   8   8   8
#     4   9  18  32  49  70  97 127 160 203 253 299
#     4   8  15  30  52  78 111 150 186 221 267 319
#     4  10  22  40  58  75 102 141 179 218 272 335
#     4  10  21  37  57  79 102 135 182 226 263 316
#     4   9  19  36  57  82 111 138 164 206 273 344
#     4   9  18  32  49  71 104 146 182 210 253 314
#     4  11  21  32  52  82 109 135 177 229 270 307
#     4   8  14  25  41  62  90 125 162 195 229 278
#
# _framework density 22.718712
#
# number of rings (size 3 to 8) (size 9 to 14) (size 15 to 20)
#    0.000    2.750    0.000    3.000    0.000    5.500 
#    0.000    5.625    0.000    2.250    0.000    4.375 
#    0.000    0.000    0.000    0.000    0.000    0.000 
#
# Total GULP energy -356553.440648 kJ/mol
# GULP energy per Si atom -5571.147510 kJ/mol
# Density = 2.266700 g / cm^3
# Si number density = 22.718712 Si / 1000 Ang^3
#
#
#
# Elastic Constant Matrix: (Units=GPa)
#
#
# Indices 1 2 3 4 5 6 
#
# 1 26.1501 6.2590 2.4203 0.0000 0.0000 0.0000
# 2 6.2590 128.6025 51.4766 0.0000 0.0000 0.0000
# 3 2.4203 51.4766 85.0229 0.0000 0.0000 0.0000
# 4 0.0000 0.0000 0.0000 30.0227 0.0000 0.0000
# 5 0.0000 0.0000 0.0000 0.0000 18.0585 0.0000
# 6 0.0000 0.0000 0.0000 0.0000 0.0000 18.3609
#
#
#
# Elastic Compliance Matrix: (Units=1/GPa)
#
#
# Indices 1 2 3 4 5 6 
#
# 1 0.038692 -0.001904 0.000051 0.000000 0.000000 0.000000
# 2 -0.001904 0.010357 -0.006216 0.000000 0.000000 0.000000
# 3 0.000051 -0.006216 0.015524 0.000000 0.000000 0.000000
# 4 0.000000 0.000000 0.000000 0.033308 0.000000 0.000000
# 5 0.000000 0.000000 0.000000 0.000000 0.055376 0.000000
# 6 0.000000 0.000000 0.000000 0.000000 0.000000 0.054463
#
#
# Mechanical properties :
#
#
# Convention : Reuss Voigt Hill
#
# Bulk Modulus (GPa) = 20.64638 40.00971 30.32804
# Shear Modulus (GPa) = 20.83320 25.26307 23.04814
#
# Velocity S-wave (km/s) = 3.03150 3.33828 3.18858
# Velocity P-wave (km/s) = 4.62178 5.70157 5.18983
#
# Compressibility (1/GPa) = 0.04843465
#
# Stress axis : x y z
#
# Youngs Moduli (GPa) = 25.84535 96.55532 64.41781
#
# Poissons Ratio (x) = 0.18380 -0.00329
# Poissons Ratio (y) = 0.04920 0.40044
# Poissons Ratio (z) = -0.00132 0.60021
#
# Static dielectric constant tensor:
#      x y z
#    x 1.878930 0.000000 0.000000 
#    y 0.000000 1.921640 0.000000 
#    z 0.000000 0.000000 1.868320 
# 
# From -- ./inp_files/21901.got.cif
#   From: 2010.05.17/outbox.cif.g08.bks.cpg/sg47_11_cif.got.tgz:21901.got - 2010.06.03 20:15:42.
