data_PCOD9387635
_publ_section_title
;
Structure prediction by ZEFSAII (Michael W. Deem and Ramdas Pophale) SiO2 
 PCOD9387635
Probable space group: P M M M
;
_chemical_formula_sum "Si O2"
_cell_formula_units_Z 32
_cell_length_a 15.604042
_cell_length_b 8.842917
_cell_length_c 12.912598
_cell_angle_alpha 90.000000
_cell_angle_beta 90.000000
_cell_angle_gamma 90.000000
_cell_volume 1781.748041
_symmetry_space_group_name_H-M "P M M M"
_symmetry_group_IT_number 47
_symmetry_cell_setting 'orthorhombic'
loop_
_space_group_symop_operation_xyz
x,y,z
-x,-y,z
x,-y,-z
-x,y,-z
-x,-y,-z
x,y,-z
-x,y,z
x,-y,z
loop_
_atom_site_type_symbol
_atom_site_label
_atom_site_fract_x
_atom_site_fract_y
_atom_site_fract_z
Si Si1 0.820877 0.819975 0.120134
Si Si2 0.594658 0.829024 0.623174
Si Si3 0.770310 0.677878 0.672916
Si Si4 0.102873 0.817560 0.500000
Si Si5 0.000000 0.670580 0.876010
O O1 0.769908 0.735421 0.208844
O O2 0.916895 0.767278 0.147481
O O3 0.812392 0.000000 0.128315
O O4 0.803373 0.777547 0.000000
O O5 0.587180 0.841786 0.500000
O O6 0.500000 0.782402 0.662838
O O7 0.674710 0.720421 0.638181
O O8 0.613482 0.000000 0.663031
O O9 0.786254 0.500000 0.667324
O O10 0.842498 0.757659 0.599796
O O11 0.000000 0.775151 0.500000
O O12 0.106250 0.000000 0.500000
O O13 0.000000 0.500000 0.831228
O O14 0.000000 0.653815 0.000000
#
# Coordination Sequence:
#
# PCOD9387635 Si02
#       5
#     8   8   8   4   4
#     4  10  21  37  57  79 107 149 197 238 278 333
#     4   9  18  35  60  86 113 147 187 232 280 336
#     4  12  24  37  58  87 120 152 186 236 291 343
#     4  11  25  43  60  79 112 159 203 238 277 336
#     4   9  17  31  51  76 105 136 179 237 288 323
#
# _framework density 17.959890999999999
#
# number of rings (size 3 to 8) (size 9 to 14) (size 15 to 20)
#    0.000    1.750    1.250    4.500    1.750    4.500 
#    0.000    1.250    0.000    0.750    0.000    5.250 
#    0.000    0.000    0.000    0.000    0.000    0.000 
#
# Total GULP energy -178230.857157 kJ/mol
# GULP energy per Si atom -5569.714286 kJ/mol
# Density = 1.791901 g / cm^3
# Si number density = 17.959891 Si / 1000 Ang^3
#
#
#
# Elastic Constant Matrix: (Units=GPa)
#
#
# Indices 1 2 3 4 5 6 
#
# 1 93.9566 44.2010 40.7224 0.0000 0.0000 0.0000
# 2 44.2010 100.8710 44.4665 0.0000 0.0000 0.0000
# 3 40.7224 44.4665 84.3976 0.0000 0.0000 0.0000
# 4 0.0000 0.0000 0.0000 18.6688 0.0000 0.0000
# 5 0.0000 0.0000 0.0000 0.0000 13.0239 0.0000
# 6 0.0000 0.0000 0.0000 0.0000 0.0000 -5.8200
#
#
#
# Elastic Compliance Matrix: (Units=1/GPa)
#
#
# Indices 1 2 3 4 5 6 
#
# 1 0.014787 -0.004343 -0.004847 0.000000 0.000000 0.000000
# 2 -0.004343 0.014188 -0.005380 0.000000 0.000000 0.000000
# 3 -0.004847 -0.005380 0.017022 0.000000 0.000000 0.000000
# 4 0.000000 0.000000 0.000000 0.053565 0.000000 0.000000
# 5 0.000000 0.000000 0.000000 0.000000 0.076782 0.000000
# 6 0.000000 0.000000 0.000000 0.000000 0.000000 -0.171821
#
#
# Mechanical properties :
#
#
# Convention : Reuss Voigt Hill
#
# Bulk Modulus (GPa) = 59.31909 59.77835 59.54872
# Shear Modulus (GPa) = 127.28649 15.16355 71.22502
#
# Velocity S-wave (km/s) = 8.42772 2.90884 6.30428
# Velocity P-wave (km/s) = 11.30497 6.68120 9.28549
#
# Compressibility (1/GPa) = 0.01685798
#
# Stress axis : x y z
#
# Youngs Moduli (GPa) = 67.62723 70.48057 58.74868
#
# Poissons Ratio (x) = 0.30610 0.28473
# Poissons Ratio (y) = 0.29371 0.31606
# Poissons Ratio (z) = 0.32776 0.37917
#
# Static dielectric constant tensor:
#      x y z
#    x 1.559000 0.000000 0.000000 
#    y 0.000000 1.620840 0.000000 
#    z 0.000000 0.000000 1.637760 
# 
# From -- ./inp_files/3433.got.cif
#   From: 2010.05.17/outbox.cif.g08.bks.cpg/sg47_2_cif.got.tgz:3433.got - 2010.06.03 20:15:42.
