data_PCOD9387370
_publ_section_title
;
Structure prediction by ZEFSAII (Michael W. Deem and Ramdas Pophale) SiO2 
 PCOD9387370
Probable space group: P M M M
;
_chemical_formula_sum "Si O2"
_cell_formula_units_Z 40
_cell_length_a 8.176266
_cell_length_b 28.229181
_cell_length_c 9.392262
_cell_angle_alpha 90.000000
_cell_angle_beta 90.000000
_cell_angle_gamma 90.000000
_cell_volume 2167.821350
_symmetry_space_group_name_H-M "P M M M"
_symmetry_group_IT_number 47
_symmetry_cell_setting 'orthorhombic'
loop_
_space_group_symop_operation_xyz
x,y,z
-x,-y,z
x,-y,-z
-x,y,-z
-x,-y,-z
x,y,-z
-x,y,z
x,-y,z
loop_
_atom_site_type_symbol
_atom_site_label
_atom_site_fract_x
_atom_site_fract_y
_atom_site_fract_z
Si Si1 0.805026 0.693791 0.337284
Si Si2 0.308001 0.119157 0.328458
Si Si3 0.303625 0.784754 0.838127
Si Si4 0.695000 0.590571 0.662544
Si Si5 0.000000 0.945804 0.327065
Si Si6 0.194838 0.500000 0.839654
O O1 0.741399 0.699787 0.500000
O O2 0.752597 0.737391 0.240547
O O3 0.746705 0.642461 0.284250
O O4 0.000000 0.692927 0.343070
O O5 0.301203 0.124868 0.500000
O O6 0.500000 0.107345 0.293833
O O7 0.262924 0.168470 0.252399
O O8 0.168096 0.081306 0.286737
O O9 0.500000 0.783336 0.843935
O O10 0.240627 0.787539 0.000000
O O11 0.759072 0.585843 0.500000
O O12 0.500000 0.589128 0.657092
O O13 0.752975 0.547055 0.756657
O O14 0.000000 0.946614 0.500000
O O15 0.000000 0.000000 0.276457
O O16 0.000000 0.500000 0.846706
O O17 0.262418 0.500000 0.000000
#
# Coordination Sequence:
#
# PCOD9387370 Si02
#       6
#     8   8   8   8   4   4
#     4  10  21  36  56  82 110 141 178 222 272 325
#     4   9  18  33  54  79 109 146 186 230 280 333
#     4  10  21  36  54  78 109 145 183 225 274 327
#     4  10  21  38  60  83 106 137 179 223 268 322
#     4   9  18  32  53  83 113 141 183 236 283 330
#     4  11  24  39  56  80 110 143 178 219 268 322
#
# _framework density 18.451705
#
# number of rings (size 3 to 8) (size 9 to 14) (size 15 to 20)
#    0.000    2.200    0.000    2.400    1.400    6.800 
#    0.000    2.000    0.000    1.200    0.000    2.800 
#    0.000    0.000    0.000    0.000    0.000    0.000 
#
# Total GULP energy -223176.792538 kJ/mol
# GULP energy per Si atom -5579.419813 kJ/mol
# Density = 1.840971 g / cm^3
# Si number density = 18.451705 Si / 1000 Ang^3
#
#
#
# Elastic Constant Matrix: (Units=GPa)
#
#
# Indices 1 2 3 4 5 6 
#
# 1 66.1422 75.5732 36.2897 0.0000 0.0000 0.0000
# 2 75.5732 201.2525 78.2254 0.0000 0.0000 0.0000
# 3 36.2897 78.2254 63.7264 0.0000 0.0000 0.0000
# 4 0.0000 0.0000 0.0000 -7.8253 0.0000 0.0000
# 5 0.0000 0.0000 0.0000 0.0000 18.7785 0.0000
# 6 0.0000 0.0000 0.0000 0.0000 0.0000 40.2026
#
#
#
# Elastic Compliance Matrix: (Units=1/GPa)
#
#
# Indices 1 2 3 4 5 6 
#
# 1 0.027527 -0.008116 -0.005713 0.000000 0.000000 0.000000
# 2 -0.008116 0.011896 -0.009981 0.000000 0.000000 0.000000
# 3 -0.005713 -0.009981 0.031197 0.000000 0.000000 0.000000
# 4 0.000000 0.000000 0.000000 -0.127790 0.000000 0.000000
# 5 0.000000 0.000000 0.000000 0.000000 0.053252 0.000000
# 6 0.000000 0.000000 0.000000 0.000000 0.000000 0.024874
#
#
# Mechanical properties :
#
#
# Convention : Reuss Voigt Hill
#
# Bulk Modulus (GPa) = 43.47748 79.03307 61.25528
# Shear Modulus (GPa) = 65.58090 19.63334 42.60712
#
# Velocity S-wave (km/s) = 5.96817 3.26550 4.81054
# Velocity P-wave (km/s) = 8.43244 7.55932 8.00779
#
# Compressibility (1/GPa) = 0.02300041
#
# Stress axis : x y z
#
# Youngs Moduli (GPa) = 36.32840 84.06090 32.05448
#
# Poissons Ratio (x) = 0.68226 0.18311
# Poissons Ratio (y) = 0.29485 0.31993
# Poissons Ratio (z) = 0.20753 0.83900
#
# Static dielectric constant tensor:
#      x y z
#    x 1.641690 0.000000 0.000000 
#    y 0.000000 1.649720 0.000000 
#    z 0.000000 0.000000 1.644010 
# 
# From -- ./inp_files/1835.got.cif
#   From: 2010.05.17/outbox.cif.g08.bks.cpg/sg47_1_cif.got.tgz:1835.got - 2010.06.03 20:15:42.
