data_PCOD9387227
_publ_section_title
;
Structure prediction by ZEFSAII (Michael W. Deem and Ramdas Pophale) SiO2 
 PCOD9387227
Probable space group: P M M M
;
_chemical_formula_sum "Si O2"
_cell_formula_units_Z 52
_cell_length_a 8.036569
_cell_length_b 36.273270
_cell_length_c 9.937470
_cell_angle_alpha 90.000000
_cell_angle_beta 90.000000
_cell_angle_gamma 90.000000
_cell_volume 2896.898087
_symmetry_space_group_name_H-M "P M M M"
_symmetry_group_IT_number 47
_symmetry_cell_setting 'orthorhombic'
loop_
_space_group_symop_operation_xyz
x,y,z
-x,-y,z
x,-y,-z
-x,y,-z
-x,-y,-z
x,y,-z
-x,y,z
x,-y,z
loop_
_atom_site_type_symbol
_atom_site_label
_atom_site_fract_x
_atom_site_fract_y
_atom_site_fract_z
Si Si1 0.700353 0.458770 0.153451
Si Si2 0.797921 0.835942 0.845809
Si Si3 0.197842 0.393052 0.347455
Si Si4 0.302151 0.312363 0.347509
Si Si5 0.196542 0.095125 0.661388
Si Si6 0.500000 0.042009 0.336872
Si Si7 0.799633 0.246765 0.153110
O O1 0.500000 0.459668 0.150266
O O2 0.757664 0.500000 0.193788
O O3 0.750197 0.426523 0.253262
O O4 0.758173 0.451983 0.000000
O O5 0.754019 0.867963 0.742021
O O6 0.741673 0.794558 0.808506
O O7 0.000000 0.835140 0.847547
O O8 0.744159 0.843499 0.000000
O O9 0.266549 0.397002 0.500000
O O10 0.250090 0.352710 0.295861
O O11 0.000000 0.393277 0.355374
O O12 0.233393 0.308491 0.500000
O O13 0.500000 0.312090 0.355298
O O14 0.249799 0.278844 0.253710
O O15 0.207879 0.100851 0.500000
O O16 0.330853 0.063863 0.699911
O O17 0.000000 0.086583 0.690303
O O18 0.500000 0.040744 0.500000
O O19 0.500000 0.000000 0.286951
O O20 0.000000 0.245672 0.150168
O O21 0.741984 0.254015 0.000000
#
# Coordination Sequence:
#
# PCOD9387227 Si02
#       7
#     8   8   8   8   8   4   8
#     4   9  19  36  56  78 104 133 165 201 244 296
#     4   8  15  30  51  73  99 131 165 203 250 301
#     4  10  21  36  54  76 101 131 168 208 250 297
#     4  10  21  36  52  72 100 134 171 209 251 299
#     4   9  17  30  50  75 100 131 172 212 255 309
#     4   9  18  32  49  73 105 135 167 215 265 305
#     4   9  18  33  53  76 101 131 168 208 252 305
#
# _framework density 17.950234999999999
#
# number of rings (size 3 to 8) (size 9 to 14) (size 15 to 20)
#    0.000    2.846    0.000    2.308    0.000    4.615 
#    1.385    5.769    0.000    0.923    0.000    2.154 
#    0.000    0.000    0.000    0.000    0.000    0.000 
#
# Total GULP energy -289746.099359 kJ/mol
# GULP energy per Si atom -5572.040372 kJ/mol
# Density = 1.790938 g / cm^3
# Si number density = 17.950235 Si / 1000 Ang^3
#
#
#
# Elastic Constant Matrix: (Units=GPa)
#
#
# Indices 1 2 3 4 5 6 
#
# 1 47.7743 50.5932 27.8569 0.0000 0.0000 0.0000
# 2 50.5932 197.5043 93.3275 0.0000 0.0000 0.0000
# 3 27.8569 93.3275 64.1395 0.0000 0.0000 0.0000
# 4 0.0000 0.0000 0.0000 432.7987 0.0000 0.0000
# 5 0.0000 0.0000 0.0000 0.0000 18.9245 0.0000
# 6 0.0000 0.0000 0.0000 0.0000 0.0000 32.8379
#
#
#
# Elastic Compliance Matrix: (Units=1/GPa)
#
#
# Indices 1 2 3 4 5 6 
#
# 1 0.029381 -0.004790 -0.005791 0.000000 0.000000 0.000000
# 2 -0.004790 0.016987 -0.022637 0.000000 0.000000 0.000000
# 3 -0.005791 -0.022637 0.051044 0.000000 0.000000 0.000000
# 4 0.000000 0.000000 0.000000 0.002311 0.000000 0.000000
# 5 0.000000 0.000000 0.000000 0.000000 0.052841 0.000000
# 6 0.000000 0.000000 0.000000 0.000000 0.000000 0.030453
#
#
# Mechanical properties :
#
#
# Convention : Reuss Voigt Hill
#
# Bulk Modulus (GPa) = 32.28245 72.55258 52.41752
# Shear Modulus (GPa) = 19.24728 106.08827 62.66778
#
# Velocity S-wave (km/s) = 3.27809 7.69608 5.91504
# Velocity P-wave (km/s) = 5.68782 10.93066 8.71294
#
# Compressibility (1/GPa) = 0.03097659
#
# Stress axis : x y z
#
# Youngs Moduli (GPa) = 34.03562 58.86974 19.59091
#
# Poissons Ratio (x) = 0.28197 0.11346
# Poissons Ratio (y) = 0.16302 0.44347
# Poissons Ratio (z) = 0.19711 1.33261
#
# Static dielectric constant tensor:
#      x y z
#    x 1.638200 0.000000 0.000000 
#    y 0.000000 1.607560 0.000000 
#    z 0.000000 0.000000 1.616940 
# 
# From -- ./inp_files/15667.got.cif
#   From: 2010.05.17/outbox.cif.g08.bks.cpg/sg47_8_cif.got.tgz:15667.got - 2010.06.03 20:15:42.
