data_PCOD9387232
_publ_section_title
;
Structure prediction by ZEFSAII (Michael W. Deem and Ramdas Pophale) SiO2 
 PCOD9387232
Probable space group: P M M M
;
_chemical_formula_sum "Si O2"
_cell_formula_units_Z 64
_cell_length_a 26.789997
_cell_length_b 9.146704
_cell_length_c 14.358404
_cell_angle_alpha 90.000000
_cell_angle_beta 90.000000
_cell_angle_gamma 90.000000
_cell_volume 3518.385796
_symmetry_space_group_name_H-M "P M M M"
_symmetry_group_IT_number 47
_symmetry_cell_setting 'orthorhombic'
loop_
_space_group_symop_operation_xyz
x,y,z
-x,-y,z
x,-y,-z
-x,y,-z
-x,-y,-z
x,y,-z
-x,y,z
x,-y,z
loop_
_atom_site_type_symbol
_atom_site_label
_atom_site_fract_x
_atom_site_fract_y
_atom_site_fract_z
Si Si1 0.945085 0.825045 0.793798
Si Si2 0.148281 0.670429 0.887431
Si Si3 0.792754 0.334572 0.387033
Si Si4 0.309462 0.826947 0.389732
Si Si5 0.258529 0.677740 0.107616
Si Si6 0.894637 0.174130 0.607068
Si Si7 0.355971 0.675230 0.225271
Si Si8 0.558201 0.825903 0.890498
O O1 0.898620 0.755931 0.847253
O O2 0.936480 0.796513 0.683802
O O3 0.000000 0.772063 0.823094
O O4 0.943632 0.000000 0.806659
O O5 0.143750 0.500000 0.860916
O O6 0.203556 0.725120 0.857822
O O7 0.148135 0.677736 0.000000
O O8 0.793244 0.341516 0.500000
O O9 0.788416 0.500000 0.350581
O O10 0.744391 0.240436 0.363167
O O11 0.844862 0.259510 0.362421
O O12 0.316717 0.801660 0.500000
O O13 0.349726 0.745720 0.326604
O O14 0.309852 0.000000 0.373257
O O15 0.256912 0.500000 0.107157
O O16 0.306251 0.721136 0.167560
O O17 0.264766 0.724461 0.000000
O O18 0.907096 0.213186 0.500000
O O19 0.884162 0.000000 0.608361
O O20 0.356742 0.500000 0.230457
O O21 0.403969 0.735503 0.171994
O O22 0.500000 0.793859 0.870904
O O23 0.565677 0.000000 0.876696
O O24 0.567016 0.795084 0.000000
#
# Coordination Sequence:
#
# PCOD9387232 Si02
#       8
#     8   8   8   8   8   8   8   8
#     4  10  22  37  52  74 101 129 168 219 268 314
#     4   9  19  37  58  76  98 132 172 212 259 320
#     4   9  17  30  49  73 100 131 170 216 264 313
#     4  10  21  36  52  73 108 152 192 228 269 322
#     4   8  16  32  52  77 109 139 167 206 261 323
#     4   9  18  33  52  73  99 133 170 207 255 319
#     4  11  21  32  54  87 117 147 185 232 283 329
#     4   9  19  37  59  83 116 158 199 236 274 322
#
# _framework density 18.190161
#
# number of rings (size 3 to 8) (size 9 to 14) (size 15 to 20)
#    0.000    2.625    0.000    2.625    1.750    4.750 
#    0.000    3.750    0.000    1.875    0.000    5.250 
#    0.000    0.000    0.000    0.000    0.000    0.000 
#
# Total GULP energy -357108.581127 kJ/mol
# GULP energy per Si atom -5579.821580 kJ/mol
# Density = 1.814876 g / cm^3
# Si number density = 18.190161 Si / 1000 Ang^3
#
#
#
# Elastic Constant Matrix: (Units=GPa)
#
#
# Indices 1 2 3 4 5 6 
#
# 1 111.1829 54.2787 50.0870 0.0000 0.0000 0.0000
# 2 54.2787 53.1982 38.9685 0.0000 0.0000 0.0000
# 3 50.0870 38.9685 57.2694 0.0000 0.0000 0.0000
# 4 0.0000 0.0000 0.0000 21.9367 0.0000 0.0000
# 5 0.0000 0.0000 0.0000 0.0000 27.9161 0.0000
# 6 0.0000 0.0000 0.0000 0.0000 0.0000 28.1764
#
#
#
# Elastic Compliance Matrix: (Units=1/GPa)
#
#
# Indices 1 2 3 4 5 6 
#
# 1 0.019198 -0.014532 -0.006902 0.000000 0.000000 0.000000
# 2 -0.014532 0.048478 -0.020277 0.000000 0.000000 0.000000
# 3 -0.006902 -0.020277 0.037295 0.000000 0.000000 0.000000
# 4 0.000000 0.000000 0.000000 0.045586 0.000000 0.000000
# 5 0.000000 0.000000 0.000000 0.000000 0.035822 0.000000
# 6 0.000000 0.000000 0.000000 0.000000 0.000000 0.035491
#
#
# Mechanical properties :
#
#
# Convention : Reuss Voigt Hill
#
# Bulk Modulus (GPa) = 46.40600 56.47985 51.44293
# Shear Modulus (GPa) = 16.00135 20.82695 18.41415
#
# Velocity S-wave (km/s) = 2.96914 3.38739 3.18514
# Velocity P-wave (km/s) = 6.10912 6.81295 6.47061
#
# Compressibility (1/GPa) = 0.02154894
#
# Stress axis : x y z
#
# Youngs Moduli (GPa) = 52.08908 20.62797 26.81319
#
# Poissons Ratio (x) = 0.29976 0.18507
# Poissons Ratio (y) = 0.75695 0.54369
# Poissons Ratio (z) = 0.35952 0.41827
#
# Static dielectric constant tensor:
#      x y z
#    x 1.605670 0.000000 0.000000 
#    y 0.000000 1.607010 0.000000 
#    z 0.000000 0.000000 1.658430 
# 
# From -- ./inp_files/12694.got.cif
#   From: 2010.05.17/outbox.cif.g08.bks.cpg/sg47_7_cif.got.tgz:12694.got - 2010.06.03 20:15:42.
