data_PCOD9387544
_publ_section_title
;
Structure prediction by ZEFSAII (Michael W. Deem and Ramdas Pophale) SiO2 
 PCOD9387544
Probable space group: P M M M
;
_chemical_formula_sum "Si O2"
_cell_formula_units_Z 48
_cell_length_a 17.897835
_cell_length_b 15.362129
_cell_length_c 9.204375
_cell_angle_alpha 90.000000
_cell_angle_beta 90.000000
_cell_angle_gamma 90.000000
_cell_volume 2530.732322
_symmetry_space_group_name_H-M "P M M M"
_symmetry_group_IT_number 47
_symmetry_cell_setting 'orthorhombic'
loop_
_space_group_symop_operation_xyz
x,y,z
-x,-y,z
x,-y,-z
-x,y,-z
-x,-y,-z
x,y,-z
-x,y,z
x,-y,z
loop_
_atom_site_type_symbol
_atom_site_label
_atom_site_fract_x
_atom_site_fract_y
_atom_site_fract_z
Si Si1 0.311970 0.103538 0.326895
Si Si2 0.150274 0.395867 0.336448
Si Si3 0.300188 0.398051 0.826210
Si Si4 0.412730 0.755418 0.174304
Si Si5 0.000000 0.354433 0.836340
Si Si6 0.000000 0.852170 0.835067
Si Si7 0.838504 0.103882 0.834383
O O1 0.311130 0.114122 0.500000
O O2 0.374765 0.163363 0.254565
O O3 0.232337 0.132173 0.258905
O O4 0.322709 0.000000 0.295970
O O5 0.146161 0.359896 0.500000
O O6 0.157039 0.500000 0.346317
O O7 0.224574 0.366974 0.252493
O O8 0.074707 0.379106 0.248865
O O9 0.314969 0.500000 0.789182
O O10 0.367248 0.332666 0.789206
O O11 0.288464 0.394725 0.000000
O O12 0.500000 0.747506 0.210187
O O13 0.406113 0.768041 0.000000
O O14 0.000000 0.250779 0.846021
O O15 0.000000 0.390765 0.000000
O O16 0.920316 0.877434 0.769129
O O17 0.000000 0.890722 0.000000
O O18 0.832926 0.000000 0.845109
O O19 0.835330 0.140415 0.000000
#
# Coordination Sequence:
#
# PCOD9387544 Si02
#       7
#     8   8   8   8   4   4   8
#     4  10  22  39  58  83 116 153 192 234 282 334
#     4  10  21  37  55  76 106 145 189 234 277 325
#     4   9  19  37  61  87 115 148 185 228 282 341
#     4  10  22  39  61  89 117 146 183 229 281 340
#     4  11  22  33  49  77 112 147 186 233 279 326
#     4   9  19  32  49  78 110 141 180 227 274 321
#     4   9  17  33  57  80 105 142 186 230 276 327
#
# _framework density 18.966842
#
# number of rings (size 3 to 8) (size 9 to 14) (size 15 to 20)
#    0.000    2.333    0.000    1.750    2.333    5.667 
#    0.000    4.583    0.000    2.000    0.000    3.500 
#    0.000    0.000    0.000    0.000    0.000    0.000 
#
# Total GULP energy -267793.215337 kJ/mol
# GULP energy per Si atom -5579.025320 kJ/mol
# Density = 1.892367 g / cm^3
# Si number density = 18.966842 Si / 1000 Ang^3
#
#
#
# Elastic Constant Matrix: (Units=GPa)
#
#
# Indices 1 2 3 4 5 6 
#
# 1 213.0083 67.4907 84.8227 0.0000 0.0000 0.0000
# 2 67.4907 67.2860 45.4029 0.0000 0.0000 0.0000
# 3 84.8227 45.4029 71.8818 0.0000 0.0000 0.0000
# 4 0.0000 0.0000 0.0000 18.4269 0.0000 0.0000
# 5 0.0000 0.0000 0.0000 0.0000 2.3029 0.0000
# 6 0.0000 0.0000 0.0000 0.0000 0.0000 37.2027
#
#
#
# Elastic Compliance Matrix: (Units=1/GPa)
#
#
# Indices 1 2 3 4 5 6 
#
# 1 0.009268 -0.003340 -0.008827 0.000000 0.000000 0.000000
# 2 -0.003340 0.027105 -0.013179 0.000000 0.000000 0.000000
# 3 -0.008827 -0.013179 0.032652 0.000000 0.000000 0.000000
# 4 0.000000 0.000000 0.000000 0.054269 0.000000 0.000000
# 5 0.000000 0.000000 0.000000 0.000000 0.434237 0.000000
# 6 0.000000 0.000000 0.000000 0.000000 0.000000 0.026880
#
#
# Mechanical properties :
#
#
# Convention : Reuss Voigt Hill
#
# Bulk Modulus (GPa) = 54.54614 83.06764 68.80689
# Shear Modulus (GPa) = 7.79772 21.88381 14.84077
#
# Velocity S-wave (km/s) = 2.02982 3.40044 2.80028
# Velocity P-wave (km/s) = 5.85787 7.70121 6.84190
#
# Compressibility (1/GPa) = 0.01833310
#
# Stress axis : x y z
#
# Youngs Moduli (GPa) = 107.90061 36.89343 30.62619
#
# Poissons Ratio (x) = 0.12322 0.27033
# Poissons Ratio (y) = 0.36039 0.40363
# Poissons Ratio (z) = 0.95240 0.48622
#
# Static dielectric constant tensor:
#      x y z
#    x 1.649310 0.000000 0.000000 
#    y 0.000000 1.665280 0.000000 
#    z 0.000000 0.000000 1.670780 
# 
# From -- ./inp_files/9197.got.cif
#   From: 2010.05.17/outbox.cif.g08.bks.cpg/sg47_5_cif.got.tgz:9197.got - 2010.06.03 20:15:42.
