data_PCOD9387106
_publ_section_title
;
Structure prediction by ZEFSAII (Michael W. Deem and Ramdas Pophale) SiO2 
 PCOD9387106
Probable space group: P M M M
;
_chemical_formula_sum "Si O2"
_cell_formula_units_Z 48
_cell_length_a 13.097575
_cell_length_b 19.150081
_cell_length_c 7.497169
_cell_angle_alpha 90.000000
_cell_angle_beta 90.000000
_cell_angle_gamma 90.000000
_cell_volume 1880.437096
_symmetry_space_group_name_H-M "P M M M"
_symmetry_group_IT_number 47
_symmetry_cell_setting 'orthorhombic'
loop_
_space_group_symop_operation_xyz
x,y,z
-x,-y,z
x,-y,-z
-x,y,-z
-x,-y,-z
x,y,-z
-x,y,z
x,-y,z
loop_
_atom_site_type_symbol
_atom_site_label
_atom_site_fract_x
_atom_site_fract_y
_atom_site_fract_z
Si Si1 0.390299 0.583566 0.794599
Si Si2 0.840132 0.421800 0.296808
Si Si3 0.170121 0.273826 0.281121
Si Si4 0.665911 0.075461 0.205911
Si Si5 0.110218 0.881079 0.283967
Si Si6 0.390443 0.228935 0.705550
O O1 0.500000 0.608253 0.719706
O O2 0.398174 0.500000 0.800714
O O3 0.282374 0.592229 0.699289
O O4 0.381912 0.607302 0.000000
O O5 0.877161 0.425741 0.500000
O O6 0.857029 0.500000 0.217776
O O7 0.875702 0.347695 0.217799
O O8 0.169244 0.276331 0.500000
O O9 0.116766 0.201071 0.234157
O O10 0.287452 0.262122 0.218217
O O11 0.788870 0.082044 0.213694
O O12 0.624912 0.145433 0.294413
O O13 0.635751 0.000000 0.280356
O O14 0.633893 0.078268 0.000000
O O15 0.116261 0.884765 0.500000
O O16 0.000000 0.909086 0.228783
O O17 0.393255 0.251784 0.500000
O O18 0.500000 0.243543 0.790420
#
# Coordination Sequence:
#
# PCOD9387106 Si02
#       6
#     8   8   8   8   8   8
#     4   8  14  24  35  48  72 106 141 179 223 268
#     4   9  16  25  40  62  86 115 150 188 234 286
#     4   8  15  29  47  68  95 123 156 201 245 284
#     4  10  21  35  51  75 107 135 156 188 239 293
#     4   9  18  34  56  76  93 122 164 203 239 284
#     4   9  18  33  52  71  94 132 178 213 238 270
#
# _framework density 25.525977999999999
#
# number of rings (size 3 to 8) (size 9 to 14) (size 15 to 20)
#    0.000    3.167    0.000    2.000    0.000    3.667 
#    0.000   10.000    0.000    0.500    0.000    3.500 
#    0.000    0.000    0.000   10.167    0.000   11.000 
#
# Total GULP energy -267835.665136 kJ/mol
# GULP energy per Si atom -5579.909690 kJ/mol
# Density = 2.546788 g / cm^3
# Si number density = 25.525978 Si / 1000 Ang^3
#
#
#
# Elastic Constant Matrix: (Units=GPa)
#
#
# Indices 1 2 3 4 5 6 
#
# 1 112.5422 -3.3563 3.6379 0.0000 0.0000 0.0000
# 2 -3.3563 182.0965 -1.3488 0.0000 0.0000 0.0000
# 3 3.6379 -1.3488 75.7030 0.0000 0.0000 0.0000
# 4 0.0000 0.0000 0.0000 28.6258 0.0000 0.0000
# 5 0.0000 0.0000 0.0000 0.0000 -0.9118 0.0000
# 6 0.0000 0.0000 0.0000 0.0000 0.0000 -15.7397
#
#
#
# Elastic Compliance Matrix: (Units=1/GPa)
#
#
# Indices 1 2 3 4 5 6 
#
# 1 0.008904 0.000161 -0.000425 0.000000 0.000000 0.000000
# 2 0.000161 0.005495 0.000090 0.000000 0.000000 0.000000
# 3 -0.000425 0.000090 0.013232 0.000000 0.000000 0.000000
# 4 0.000000 0.000000 0.000000 0.034934 0.000000 0.000000
# 5 0.000000 0.000000 0.000000 0.000000 -1.096760 0.000000
# 6 0.000000 0.000000 0.000000 0.000000 0.000000 -0.063534
#
#
# Mechanical properties :
#
#
# Convention : Reuss Voigt Hill
#
# Bulk Modulus (GPa) = 36.65271 40.91193 38.78232
# Shear Modulus (GPa) = -4.59437 27.15544 11.28053
#
# Velocity S-wave (km/s) = -1.34305 3.26519 2.10448
# Velocity P-wave (km/s) = 3.46195 5.50251 4.59689
#
# Compressibility (1/GPa) = 0.02728311
#
# Stress axis : x y z
#
# Youngs Moduli (GPa) = 112.30786 181.97605 75.57696
#
# Poissons Ratio (x) = -0.02929 0.03212
# Poissons Ratio (y) = -0.01808 -0.00681
# Poissons Ratio (z) = 0.04773 -0.01641
#
# Static dielectric constant tensor:
#      x y z
#    x 2.074870 0.000000 0.000000 
#    y 0.000000 2.030400 0.000000 
#    z 0.000000 0.000000 1.997780 
# 
# From -- ./inp_files/6742.got.cif
#   From: 2010.05.17/outbox.cif.g08.bks.cpg/sg47_4_cif.got.tgz:6742.got - 2010.06.03 20:15:42.
