data_PCOD9387817
_publ_section_title
;
Structure prediction by ZEFSAII (Michael W. Deem and Ramdas Pophale) SiO2 
 PCOD9387817
Probable space group: P M M M
;
_chemical_formula_sum "Si O2"
_cell_formula_units_Z 52
_cell_length_a 15.750072
_cell_length_b 7.800624
_cell_length_c 22.912026
_cell_angle_alpha 90.000000
_cell_angle_beta 90.000000
_cell_angle_gamma 90.000000
_cell_volume 2814.980442
_symmetry_space_group_name_H-M "P M M M"
_symmetry_group_IT_number 47
_symmetry_cell_setting 'orthorhombic'
loop_
_space_group_symop_operation_xyz
x,y,z
-x,-y,z
x,-y,-z
-x,y,-z
-x,-y,-z
x,y,-z
-x,y,z
x,-y,z
loop_
_atom_site_type_symbol
_atom_site_label
_atom_site_fract_x
_atom_site_fract_y
_atom_site_fract_z
Si Si1 0.181920 0.000000 0.935030
Si Si2 0.404164 0.702446 0.839464
Si Si3 0.597083 0.795680 0.500000
Si Si4 0.716127 0.290016 0.268434
Si Si5 0.906809 0.700349 0.265100
Si Si6 0.096937 0.687027 0.124913
Si Si7 0.382298 0.000000 0.932695
Si Si8 0.403139 0.295243 0.373274
O O1 0.151503 0.834533 0.901381
O O2 0.281723 0.000000 0.937239
O O3 0.145374 0.000000 0.000000
O O4 0.500000 0.713704 0.812901
O O5 0.391462 0.500000 0.854598
O O6 0.331591 0.753660 0.792433
O O7 0.404105 0.831205 0.894374
O O8 0.500000 0.726039 0.500000
O O9 0.633518 0.739370 0.437874
O O10 0.594282 0.000000 0.500000
O O11 0.719936 0.500000 0.268093
O O12 0.812962 0.227664 0.278551
O O13 0.656162 0.231721 0.321336
O O14 0.907087 0.500000 0.283751
O O15 0.906626 0.700523 0.194678
O O16 0.000000 0.773162 0.283225
O O17 0.131244 0.500000 0.109786
O O18 0.000000 0.700350 0.103798
O O19 0.412833 0.000000 0.000000
O O20 0.500000 0.226207 0.370522
O O21 0.408486 0.500000 0.366342
#
# Coordination Sequence:
#
# PCOD9387817 Si02
#       8
#     4   8   4   8   8   8   4   8
#     4  11  23  35  49  71  97 127 164 205 251 304
#     4  10  21  38  59  80 103 133 170 217 272 322
#     4   9  17  29  43  63  96 135 170 202 237 285
#     4   9  16  28  49  76 104 131 163 206 254 305
#     4   8  14  26  46  71  97 126 157 191 240 298
#     4   9  18  33  52  72  96 128 164 205 257 314
#     4  11  25  41  55  75 103 136 176 218 259 313
#     4   9  16  27  45  69  98 132 167 202 243 292
#
# _framework density 18.472595999999999
#
# number of rings (size 3 to 8) (size 9 to 14) (size 15 to 20)
#    0.000    2.692    0.000    3.000    0.000    6.462 
#    1.385    3.077    0.000    0.000    0.000    0.538 
#    0.000    4.308    0.000    0.000    0.000    0.000 
#
# Total GULP energy -289637.185351 kJ/mol
# GULP energy per Si atom -5569.945872 kJ/mol
# Density = 1.843055 g / cm^3
# Si number density = 18.472596 Si / 1000 Ang^3
#
#
#
# Elastic Constant Matrix: (Units=GPa)
#
#
# Indices 1 2 3 4 5 6 
#
# 1 120.1899 32.6810 53.2572 0.0000 0.0000 0.0000
# 2 32.6810 55.2709 27.9699 0.0000 0.0000 0.0000
# 3 53.2572 27.9699 94.2764 0.0000 0.0000 0.0000
# 4 0.0000 0.0000 0.0000 10.0911 0.0000 0.0000
# 5 0.0000 0.0000 0.0000 0.0000 14.7155 0.0000
# 6 0.0000 0.0000 0.0000 0.0000 0.0000 15.2425
#
#
#
# Elastic Compliance Matrix: (Units=1/GPa)
#
#
# Indices 1 2 3 4 5 6 
#
# 1 0.011899 -0.004276 -0.005453 0.000000 0.000000 0.000000
# 2 -0.004276 0.022826 -0.004356 0.000000 0.000000 0.000000
# 3 -0.005453 -0.004356 0.014980 0.000000 0.000000 0.000000
# 4 0.000000 0.000000 0.000000 0.099097 0.000000 0.000000
# 5 0.000000 0.000000 0.000000 0.000000 0.067956 0.000000
# 6 0.000000 0.000000 0.000000 0.000000 0.000000 0.065606
#
#
# Mechanical properties :
#
#
# Convention : Reuss Voigt Hill
#
# Bulk Modulus (GPa) = 46.43925 55.28368 50.86147
# Shear Modulus (GPa) = 15.73748 18.39844 17.06796
#
# Velocity S-wave (km/s) = 2.92196 3.15935 3.04297
# Velocity P-wave (km/s) = 6.04797 6.58035 6.31977
#
# Compressibility (1/GPa) = 0.02153351
#
# Stress axis : x y z
#
# Youngs Moduli (GPa) = 84.03823 43.81034 66.75517
#
# Poissons Ratio (x) = 0.18734 0.36404
# Poissons Ratio (y) = 0.35937 0.29080
# Poissons Ratio (z) = 0.45829 0.19085
#
# Static dielectric constant tensor:
#      x y z
#    x 1.687540 0.000000 0.000000 
#    y 0.000000 1.642650 0.000000 
#    z 0.000000 0.000000 1.627340 
# 
# From -- ./inp_files/30931.got.cif
#   From: 2010.05.17/outbox.cif.g08.bks.cpg/sg47_16_cif.got.tgz:30931.got - 2010.06.03 20:15:42.
