data_PCOD9387373
_publ_section_title
;
Structure prediction by ZEFSAII (Michael W. Deem and Ramdas Pophale) SiO2 
 PCOD9387373
Probable space group: P M M M
;
_chemical_formula_sum "Si O2"
_cell_formula_units_Z 52
_cell_length_a 20.873382
_cell_length_b 15.322517
_cell_length_c 7.644524
_cell_angle_alpha 90.000000
_cell_angle_beta 90.000000
_cell_angle_gamma 90.000000
_cell_volume 2444.969138
_symmetry_space_group_name_H-M "P M M M"
_symmetry_group_IT_number 47
_symmetry_cell_setting 'orthorhombic'
loop_
_space_group_symop_operation_xyz
x,y,z
-x,-y,z
x,-y,-z
-x,y,-z
-x,-y,-z
x,y,-z
-x,y,z
x,-y,z
loop_
_atom_site_type_symbol
_atom_site_label
_atom_site_fract_x
_atom_site_fract_y
_atom_site_fract_z
Si Si1 0.926550 0.898466 0.786781
Si Si2 0.572636 0.216702 0.704739
Si Si3 0.575412 0.406860 0.789437
Si Si4 0.931214 0.395862 0.500000
Si Si5 0.687152 0.903453 0.794281
Si Si6 0.803087 0.211823 0.787155
Si Si7 0.170585 0.599436 0.208613
O O1 0.870862 0.831290 0.728908
O O2 0.000000 0.878279 0.731604
O O3 0.912464 0.000000 0.737311
O O4 0.926529 0.896768 0.000000
O O5 0.568174 0.199662 0.500000
O O6 0.500000 0.214899 0.778680
O O7 0.600622 0.314288 0.728045
O O8 0.620477 0.146778 0.781243
O O9 0.500000 0.407340 0.738761
O O10 0.603305 0.500000 0.729426
O O11 0.578267 0.406299 0.000000
O O12 0.938378 0.500000 0.500000
O O13 0.892102 0.380529 0.323210
O O14 0.000000 0.352238 0.500000
O O15 0.745030 0.846669 0.719294
O O16 0.683523 0.000000 0.718232
O O17 0.701454 0.911347 0.000000
O O18 0.789346 0.313827 0.747525
O O19 0.804834 0.208370 0.000000
O O20 0.192834 0.500000 0.252536
O O21 0.158606 0.599692 0.000000
#
# Coordination Sequence:
#
# PCOD9387373 Si02
#       7
#     8   8   8   4   8   8   8
#     4   8  13  22  40  69 102 133 167 209 256 306
#     4  10  21  36  54  78 110 146 183 226 275 331
#     4   8  14  27  50  79 109 141 176 214 258 311
#     4   9  18  32  50  76 111 149 190 233 275 327
#     4  10  21  37  57  80 106 138 180 231 283 339
#     4   9  17  31  51  76 106 138 175 220 271 328
#     4   9  18  33  53  77 108 147 187 230 281 335
#
# _framework density 21.268163999999999
#
# number of rings (size 3 to 8) (size 9 to 14) (size 15 to 20)
#    0.000    3.000    0.000    1.846    0.000    4.615 
#    1.385    6.923    0.000    2.769    0.000    0.000 
#    0.000    2.462    0.000    0.154    0.000    0.000 
#
# Total GULP energy -289578.701072 kJ/mol
# GULP energy per Si atom -5568.821174 kJ/mol
# Density = 2.121976 g / cm^3
# Si number density = 21.268164 Si / 1000 Ang^3
#
#
#
# Elastic Constant Matrix: (Units=GPa)
#
#
# Indices 1 2 3 4 5 6 
#
# 1 79.4289 80.2341 -1.0645 0.0000 0.0000 0.0000
# 2 80.2341 197.9023 10.6976 0.0000 0.0000 0.0000
# 3 -1.0645 10.6976 34.8450 0.0000 0.0000 0.0000
# 4 0.0000 0.0000 0.0000 -85.7981 0.0000 0.0000
# 5 0.0000 0.0000 0.0000 0.0000 123.0080 0.0000
# 6 0.0000 0.0000 0.0000 0.0000 0.0000 13.9069
#
#
#
# Elastic Compliance Matrix: (Units=1/GPa)
#
#
# Indices 1 2 3 4 5 6 
#
# 1 0.021716 -0.008989 0.003423 0.000000 0.000000 0.000000
# 2 -0.008989 0.008859 -0.002994 0.000000 0.000000 0.000000
# 3 0.003423 -0.002994 0.029722 0.000000 0.000000 0.000000
# 4 0.000000 0.000000 0.000000 -0.011655 0.000000 0.000000
# 5 0.000000 0.000000 0.000000 0.000000 0.008130 0.000000
# 6 0.000000 0.000000 0.000000 0.000000 0.000000 0.071907
#
#
# Mechanical properties :
#
#
# Convention : Reuss Voigt Hill
#
# Bulk Modulus (GPa) = 23.16062 54.65673 38.90867
# Shear Modulus (GPa) = 31.21246 25.04395 28.12821
#
# Velocity S-wave (km/s) = 3.83504 3.43524 3.64063
# Velocity P-wave (km/s) = 5.52481 6.44121 6.00053
#
# Compressibility (1/GPa) = 0.04317674
#
# Stress axis : x y z
#
# Youngs Moduli (GPa) = 46.04871 112.87554 33.64462
#
# Poissons Ratio (x) = 1.01467 -0.11517
# Poissons Ratio (y) = 0.41394 0.10075
# Poissons Ratio (z) = -0.15763 0.33800
#
# Static dielectric constant tensor:
#      x y z
#    x 1.800820 0.000000 0.000000 
#    y 0.000000 1.802720 0.000000 
#    z 0.000000 0.000000 1.686390 
# 
# From -- ./inp_files/11098.got.cif
#   From: 2010.05.17/outbox.cif.g08.bks.cpg/sg47_6_cif.got.tgz:11098.got - 2010.06.03 20:15:42.
