data_PCOD9387774
_publ_section_title
;
Structure prediction by ZEFSAII (Michael W. Deem and Ramdas Pophale) SiO2 
 PCOD9387774
Probable space group: P M M M
;
_chemical_formula_sum "Si O2"
_cell_formula_units_Z 48
_cell_length_a 10.042711
_cell_length_b 8.655505
_cell_length_c 27.836240
_cell_angle_alpha 90.000000
_cell_angle_beta 90.000000
_cell_angle_gamma 90.000000
_cell_volume 2419.657793
_symmetry_space_group_name_H-M "P M M M"
_symmetry_group_IT_number 47
_symmetry_cell_setting 'orthorhombic'
loop_
_space_group_symop_operation_xyz
x,y,z
-x,-y,z
x,-y,-z
-x,y,-z
-x,-y,-z
x,y,-z
-x,y,z
x,-y,z
loop_
_atom_site_type_symbol
_atom_site_label
_atom_site_fract_x
_atom_site_fract_y
_atom_site_fract_z
Si Si1 0.347608 0.185011 0.192432
Si Si2 0.644149 0.183108 0.346862
Si Si3 0.652965 0.313578 0.913902
Si Si4 0.000000 0.825325 0.442667
Si Si5 0.846794 0.684576 0.273111
Si Si6 0.846031 0.311474 0.000000
Si Si7 0.716331 0.683240 0.444420
O O1 0.500000 0.234130 0.204421
O O2 0.322295 0.240314 0.138080
O O3 0.238979 0.252184 0.228588
O O4 0.343317 0.000000 0.194959
O O5 0.500000 0.229181 0.325834
O O6 0.765357 0.264279 0.320118
O O7 0.641826 0.226616 0.402829
O O8 0.658567 0.000000 0.341224
O O9 0.500000 0.275952 0.928475
O O10 0.660004 0.500000 0.909614
O O11 0.761043 0.264033 0.953278
O O12 0.868938 0.727414 0.432999
O O13 0.000000 0.844870 0.500000
O O14 0.000000 0.000000 0.421485
O O15 0.849026 0.500000 0.270819
O O16 0.000000 0.740331 0.273370
O O17 0.847506 0.500000 0.000000
O O18 0.000000 0.260177 0.000000
O O19 0.687643 0.727449 0.500000
O O20 0.694227 0.500000 0.440439
#
# Coordination Sequence:
#
# PCOD9387774 Si02
#       7
#     8   8   8   4   8   4   8
#     4  10  21  38  61  89 120 154 194 241 295 354
#     4  11  25  43  63  88 119 156 195 238 292 351
#     4   9  17  31  53  80 111 151 197 242 291 348
#     4   9  17  31  53  81 113 149 187 229 279 332
#     4  11  25  43  64  90 118 150 191 240 293 351
#     4   9  17  29  48  77 112 150 196 251 300 341
#     4  10  21  37  59  87 119 155 195 239 287 342
#
# _framework density 19.837516000000001
#
# number of rings (size 3 to 8) (size 9 to 14) (size 15 to 20)
#    0.000    2.000    0.000    3.000    1.167    9.667 
#    0.000    3.750    0.000    2.500    0.000    0.000 
#    0.000    0.000    0.000    0.000    0.000    0.000 
#
# Total GULP energy -267995.994257 kJ/mol
# GULP energy per Si atom -5583.249880 kJ/mol
# Density = 1.979237 g / cm^3
# Si number density = 19.837516 Si / 1000 Ang^3
#
#
#
# Elastic Constant Matrix: (Units=GPa)
#
#
# Indices 1 2 3 4 5 6 
#
# 1 167.1883 33.0615 86.7859 0.0000 0.0000 0.0000
# 2 33.0615 31.9942 22.0757 0.0000 0.0000 0.0000
# 3 86.7859 22.0757 121.6327 0.0000 0.0000 0.0000
# 4 0.0000 0.0000 0.0000 -43.2487 0.0000 0.0000
# 5 0.0000 0.0000 0.0000 0.0000 -32.1254 0.0000
# 6 0.0000 0.0000 0.0000 0.0000 0.0000 19.4890
#
#
#
# Elastic Compliance Matrix: (Units=1/GPa)
#
#
# Indices 1 2 3 4 5 6 
#
# 1 0.010575 -0.006541 -0.006358 0.000000 0.000000 0.000000
# 2 -0.006541 0.039776 -0.002552 0.000000 0.000000 0.000000
# 3 -0.006358 -0.002552 0.013221 0.000000 0.000000 0.000000
# 4 0.000000 0.000000 0.000000 -0.023122 0.000000 0.000000
# 5 0.000000 0.000000 0.000000 0.000000 -0.031128 0.000000
# 6 0.000000 0.000000 0.000000 0.000000 0.000000 0.051311
#
#
# Mechanical properties :
#
#
# Convention : Reuss Voigt Hill
#
# Bulk Modulus (GPa) = 30.60946 67.18459 48.89702
# Shear Modulus (GPa) = 48.81566 0.74913 24.78240
#
# Velocity S-wave (km/s) = 4.96600 0.61519 3.53833
# Velocity P-wave (km/s) = 6.95307 5.86903 6.43392
#
# Compressibility (1/GPa) = 0.03266964
#
# Stress axis : x y z
#
# Youngs Moduli (GPa) = 94.55943 25.14098 75.63444
#
# Poissons Ratio (x) = 0.16444 0.48092
# Poissons Ratio (y) = 0.61850 0.19303
# Poissons Ratio (z) = 0.60125 0.06416
#
# Static dielectric constant tensor:
#      x y z
#    x 1.680520 0.000000 0.000000 
#    y 0.000000 1.667160 0.000000 
#    z 0.000000 0.000000 1.693850 
# 
# From -- ./inp_files/34115.got.cif
#   From: 2010.05.17/outbox.cif.g08.bks.cpg/sg47_18_cif.got.tgz:34115.got - 2010.06.03 20:15:42.
