data_PCOD9387047
_publ_section_title
;
Structure prediction by ZEFSAII (Michael W. Deem and Ramdas Pophale) SiO2 
 PCOD9387047
Probable space group: P M M M
;
_chemical_formula_sum "Si O2"
_cell_formula_units_Z 48
_cell_length_a 7.591135
_cell_length_b 9.283441
_cell_length_c 34.113941
_cell_angle_alpha 90.000000
_cell_angle_beta 90.000000
_cell_angle_gamma 90.000000
_cell_volume 2404.072666
_symmetry_space_group_name_H-M "P M M M"
_symmetry_group_IT_number 47
_symmetry_cell_setting 'orthorhombic'
loop_
_space_group_symop_operation_xyz
x,y,z
-x,-y,z
x,-y,-z
-x,y,-z
-x,-y,-z
x,y,-z
-x,y,z
x,-y,z
loop_
_atom_site_type_symbol
_atom_site_label
_atom_site_fract_x
_atom_site_fract_y
_atom_site_fract_z
Si Si1 0.784073 0.667294 0.914985
Si Si2 0.791084 0.662057 0.325038
Si Si3 0.291167 0.163891 0.752640
Si Si4 0.788453 0.828703 0.402845
Si Si5 0.500000 0.330086 0.453148
Si Si6 0.788977 0.163353 0.160989
Si Si7 0.208644 0.674894 0.000000
O O1 0.734838 0.500000 0.911813
O O2 0.722394 0.751033 0.876659
O O3 0.000000 0.671774 0.915648
O O4 0.722461 0.723897 0.957623
O O5 0.716428 0.500000 0.326215
O O6 0.764739 0.737853 0.283363
O O7 0.730902 0.762088 0.360907
O O8 0.000000 0.650128 0.330506
O O9 0.500000 0.153063 0.750577
O O10 0.246701 0.223941 0.795734
O O11 0.217145 0.000000 0.749617
O O12 0.671448 0.747381 0.434950
O O13 0.000000 0.806683 0.408089
O O14 0.756688 0.000000 0.403527
O O15 0.500000 0.500000 0.442865
O O16 0.500000 0.317179 0.500000
O O17 0.000000 0.157368 0.157068
O O18 0.719691 0.000000 0.160822
O O19 0.224245 0.500000 0.000000
O O20 0.000000 0.707586 0.000000
#
# Coordination Sequence:
#
# PCOD9387047 Si02
#       7
#     8   8   8   8   4   8   4
#     4   8  13  22  38  59  83 113 148 187 236 297
#     4  10  21  37  58  84 113 145 182 228 282 336
#     4  10  21  35  51  72 100 137 178 218 263 318
#     4  10  22  41  66  94 125 164 209 255 303 359
#     4  11  25  43  65  95 131 171 211 255 309 362
#     4   9  17  29  44  63  90 123 158 200 251 305
#     4   7  10  18  33  55  82 109 140 182 234 293
#
# _framework density 19.966118999999999
#
# number of rings (size 3 to 8) (size 9 to 14) (size 15 to 20)
#    0.000    2.667    0.000    2.750    1.167    4.667 
#    0.000    3.750    0.000    2.500    0.000    0.583 
#    0.000    4.667    0.000    0.000    0.000    0.000 
#
# Total GULP energy -267685.557377 kJ/mol
# GULP energy per Si atom -5576.782445 kJ/mol
# Density = 1.992068 g / cm^3
# Si number density = 19.966119 Si / 1000 Ang^3
#
#
#
# Elastic Constant Matrix: (Units=GPa)
#
#
# Indices 1 2 3 4 5 6 
#
# 1 55.6860 33.0305 29.0120 0.0000 0.0000 0.0000
# 2 33.0305 111.5645 96.0875 0.0000 0.0000 0.0000
# 3 29.0120 96.0875 184.7089 0.0000 0.0000 0.0000
# 4 0.0000 0.0000 0.0000 34.6961 0.0000 0.0000
# 5 0.0000 0.0000 0.0000 0.0000 62.9733 0.0000
# 6 0.0000 0.0000 0.0000 0.0000 0.0000 9.8964
#
#
#
# Elastic Compliance Matrix: (Units=1/GPa)
#
#
# Indices 1 2 3 4 5 6 
#
# 1 0.021785 -0.006346 -0.000120 0.000000 0.000000 0.000000
# 2 -0.006346 0.018088 -0.008413 0.000000 0.000000 0.000000
# 3 -0.000120 -0.008413 0.009809 0.000000 0.000000 0.000000
# 4 0.000000 0.000000 0.000000 0.028822 0.000000 0.000000
# 5 0.000000 0.000000 0.000000 0.000000 0.015880 0.000000
# 6 0.000000 0.000000 0.000000 0.000000 0.000000 0.101047
#
#
# Mechanical properties :
#
#
# Convention : Reuss Voigt Hill
#
# Bulk Modulus (GPa) = 50.19194 74.24660 62.21927
# Shear Modulus (GPa) = 21.56754 34.43512 28.00133
#
# Velocity S-wave (km/s) = 3.29022 4.15743 3.74898
# Velocity P-wave (km/s) = 6.29501 7.76612 7.06894
#
# Compressibility (1/GPa) = 0.01992352
#
# Stress axis : x y z
#
# Youngs Moduli (GPa) = 45.90366 55.28535 101.94443
#
# Poissons Ratio (x) = 0.35084 0.01228
# Poissons Ratio (y) = 0.29130 0.85764
# Poissons Ratio (z) = 0.00553 0.46510
#
# Static dielectric constant tensor:
#      x y z
#    x 1.763220 0.000000 0.000000 
#    y 0.000000 1.685310 0.000000 
#    z 0.000000 0.000000 1.710050 
# 
# From -- ./inp_files/34092.got.cif
#   From: 2010.05.17/outbox.cif.g08.bks.cpg/sg47_18_cif.got.tgz:34092.got - 2010.06.03 20:15:42.
