data_PCOD9387662
_publ_section_title
;
Structure prediction by ZEFSAII (Michael W. Deem and Ramdas Pophale) SiO2 
 PCOD9387662
Probable space group: P M M M
;
_chemical_formula_sum "Si O2"
_cell_formula_units_Z 52
_cell_length_a 8.164022
_cell_length_b 20.067748
_cell_length_c 16.222643
_cell_angle_alpha 90.000000
_cell_angle_beta 90.000000
_cell_angle_gamma 90.000000
_cell_volume 2657.812969
_symmetry_space_group_name_H-M "P M M M"
_symmetry_group_IT_number 47
_symmetry_cell_setting 'orthorhombic'
loop_
_space_group_symop_operation_xyz
x,y,z
-x,-y,z
x,-y,-z
-x,y,-z
-x,-y,-z
x,y,-z
-x,y,z
x,-y,z
loop_
_atom_site_type_symbol
_atom_site_label
_atom_site_fract_x
_atom_site_fract_y
_atom_site_fract_z
Si Si1 0.198395 0.426345 0.826801
Si Si2 0.700573 0.281886 0.410574
Si Si3 0.196748 0.290448 0.091429
Si Si4 0.303990 0.572838 0.363052
Si Si5 0.314337 0.919060 0.500000
Si Si6 0.693248 0.207173 0.753672
Si Si7 0.194096 0.923967 0.319820
O O1 0.243024 0.500000 0.858851
O O2 0.255270 0.363787 0.880214
O O3 0.267103 0.420650 0.734268
O O4 0.000000 0.423788 0.821550
O O5 0.750546 0.254210 0.500000
O O6 0.500000 0.280471 0.408688
O O7 0.754284 0.359121 0.404377
O O8 0.759412 0.244128 0.328770
O O9 0.238396 0.238843 0.163287
O O10 0.000000 0.293963 0.087295
O O11 0.258653 0.273494 0.000000
O O12 0.500000 0.571423 0.375005
O O13 0.239439 0.500000 0.389876
O O14 0.500000 0.893321 0.500000
O O15 0.232025 0.901566 0.413687
O O16 0.317705 0.000000 0.500000
O O17 0.500000 0.218222 0.754845
O O18 0.729072 0.129466 0.741175
O O19 0.000000 0.924559 0.308654
O O20 0.255791 0.000000 0.310091
#
# Coordination Sequence:
#
# PCOD9387662 Si02
#       7
#     8   8   8   8   4   8   8
#     4   9  17  30  50  75 103 136 176 224 275 327
#     4   9  18  31  47  73 107 141 181 225 268 315
#     4  10  21  37  57  80 108 143 182 227 281 340
#     4   9  16  28  48  71  98 136 182 228 271 315
#     4   9  17  31  53  83 117 151 188 227 266 313
#     4  11  22  36  57  82 111 146 182 227 279 331
#     4  10  21  37  57  82 114 151 188 227 273 327
#
# _framework density 19.564959999999999
#
# number of rings (size 3 to 8) (size 9 to 14) (size 15 to 20)
#    0.000    2.385    1.538    1.154    1.077    2.769 
#    0.000    3.077    0.000    2.769    0.000    8.615 
#    0.000    0.000    0.000    0.000    0.000    0.000 
#
# Total GULP energy -290148.099584 kJ/mol
# GULP energy per Si atom -5579.771146 kJ/mol
# Density = 1.952043 g / cm^3
# Si number density = 19.564960 Si / 1000 Ang^3
#
#
#
# Elastic Constant Matrix: (Units=GPa)
#
#
# Indices 1 2 3 4 5 6 
#
# 1 5.1453 -1.6945 3.3030 0.0000 0.0000 0.0000
# 2 -1.6945 107.9184 68.0706 0.0000 0.0000 0.0000
# 3 3.3030 68.0706 129.3430 0.0000 0.0000 0.0000
# 4 0.0000 0.0000 0.0000 15.2392 0.0000 0.0000
# 5 0.0000 0.0000 0.0000 0.0000 -6.8929 0.0000
# 6 0.0000 0.0000 0.0000 0.0000 0.0000 15.3465
#
#
#
# Elastic Compliance Matrix: (Units=1/GPa)
#
#
# Indices 1 2 3 4 5 6 
#
# 1 0.204186 0.009723 -0.010331 0.000000 0.000000 0.000000
# 2 0.009723 0.014334 -0.007792 0.000000 0.000000 0.000000
# 3 -0.010331 -0.007792 0.012096 0.000000 0.000000 0.000000
# 4 0.000000 0.000000 0.000000 0.065620 0.000000 0.000000
# 5 0.000000 0.000000 0.000000 0.000000 -0.145076 0.000000
# 6 0.000000 0.000000 0.000000 0.000000 0.000000 0.065162
#
#
# Mechanical properties :
#
#
# Convention : Reuss Voigt Hill
#
# Bulk Modulus (GPa) = 4.67694 42.41833 23.54764
# Shear Modulus (GPa) = 16.42608 16.25373 16.33990
#
# Velocity S-wave (km/s) = 2.90067 2.88541 2.89305
# Velocity P-wave (km/s) = 3.68974 5.72963 4.81886
#
# Compressibility (1/GPa) = 0.21381520
#
# Stress axis : x y z
#
# Youngs Moduli (GPa) = 4.89749 69.76571 82.67277
#
# Poissons Ratio (x) = -0.67830 0.85410
# Poissons Ratio (y) = -0.04762 0.64417
# Poissons Ratio (z) = 0.05060 0.54360
#
# Static dielectric constant tensor:
#      x y z
#    x 1.702440 0.000000 0.000000 
#    y 0.000000 1.725980 0.000000 
#    z 0.000000 0.000000 1.850140 
# 
# From -- ./inp_files/21379.got.cif
#   From: 2010.05.17/outbox.cif.g08.bks.cpg/sg47_11_cif.got.tgz:21379.got - 2010.06.03 20:15:42.
