data_PCOD9387651
_publ_section_title
;
Structure prediction by ZEFSAII (Michael W. Deem and Ramdas Pophale) SiO2 
 PCOD9387651
Probable space group: P M M M
;
_chemical_formula_sum "Si O2"
_cell_formula_units_Z 48
_cell_length_a 9.606468
_cell_length_b 31.170464
_cell_length_c 9.009904
_cell_angle_alpha 90.000000
_cell_angle_beta 90.000000
_cell_angle_gamma 90.000000
_cell_volume 2697.908219
_symmetry_space_group_name_H-M "P M M M"
_symmetry_group_IT_number 47
_symmetry_cell_setting 'orthorhombic'
loop_
_space_group_symop_operation_xyz
x,y,z
-x,-y,z
x,-y,-z
-x,y,-z
-x,-y,-z
x,y,-z
-x,y,z
x,-y,z
loop_
_atom_site_type_symbol
_atom_site_label
_atom_site_fract_x
_atom_site_fract_y
_atom_site_fract_z
Si Si1 0.160089 0.000000 0.680930
Si Si2 0.662728 0.674550 0.822103
Si Si3 0.663278 0.082554 0.322390
Si Si4 0.336497 0.826039 0.822809
Si Si5 0.337981 0.425188 0.822072
Si Si6 0.838335 0.500000 0.322520
Si Si7 0.163176 0.749663 0.322454
O O1 0.241996 0.957183 0.726610
O O2 0.161450 0.000000 0.500000
O O3 0.000000 0.000000 0.729402
O O4 0.500000 0.683189 0.787219
O O5 0.691115 0.624659 0.786611
O O6 0.762053 0.707139 0.738438
O O7 0.678290 0.679828 0.000000
O O8 0.680887 0.088558 0.500000
O O9 0.500000 0.072592 0.296674
O O10 0.696747 0.126855 0.240501
O O11 0.500000 0.817583 0.788758
O O12 0.241348 0.790162 0.748723
O O13 0.320446 0.825224 0.000000
O O14 0.500000 0.433788 0.784926
O O15 0.238823 0.458293 0.741081
O O16 0.324361 0.430149 0.000000
O O17 0.829876 0.500000 0.500000
O O18 0.000000 0.500000 0.278302
O O19 0.175561 0.751540 0.500000
O O20 0.000000 0.749775 0.283333
#
# Coordination Sequence:
#
# PCOD9387651 Si02
#       7
#     4   8   8   8   8   4   8
#     4   9  17  29  48  75 104 134 170 213 258 305
#     4   9  19  37  60  84 108 136 174 220 267 315
#     4   9  17  31  52  76 102 134 172 213 259 311
#     4  10  21  37  57  80 105 136 177 223 268 314
#     4   9  19  37  60  83 106 136 178 224 266 313
#     4  11  24  37  50  76 114 149 180 219 266 314
#     4  11  24  38  53  78 111 144 177 215 261 314
#
# _framework density 17.791561000000002
#
# number of rings (size 3 to 8) (size 9 to 14) (size 15 to 20)
#    0.000    2.333    0.000    3.250    0.000    9.667 
#    0.000    7.083    0.000    2.500    0.000    0.000 
#    0.000    0.000    0.000    0.000    0.000    0.000 
#
# Total GULP energy -268009.760094 kJ/mol
# GULP energy per Si atom -5583.536669 kJ/mol
# Density = 1.775107 g / cm^3
# Si number density = 17.791561 Si / 1000 Ang^3
#
#
#
# Elastic Constant Matrix: (Units=GPa)
#
#
# Indices 1 2 3 4 5 6 
#
# 1 149.0646 136.9848 71.1872 0.0000 0.0000 0.0000
# 2 136.9848 163.7611 70.7847 0.0000 0.0000 0.0000
# 3 71.1872 70.7847 45.4219 0.0000 0.0000 0.0000
# 4 0.0000 0.0000 0.0000 32.8001 0.0000 0.0000
# 5 0.0000 0.0000 0.0000 0.0000 31.7387 0.0000
# 6 0.0000 0.0000 0.0000 0.0000 0.0000 -20.0144
#
#
#
# Elastic Compliance Matrix: (Units=1/GPa)
#
#
# Indices 1 2 3 4 5 6 
#
# 1 0.040317 -0.019647 -0.032569 0.000000 0.000000 0.000000
# 2 -0.019647 0.028283 -0.013284 0.000000 0.000000 0.000000
# 3 -0.032569 -0.013284 0.093760 0.000000 0.000000 0.000000
# 4 0.000000 0.000000 0.000000 0.030488 0.000000 0.000000
# 5 0.000000 0.000000 0.000000 0.000000 0.031507 0.000000
# 6 0.000000 0.000000 0.000000 0.000000 0.000000 -0.049964
#
#
# Mechanical properties :
#
#
# Convention : Reuss Voigt Hill
#
# Bulk Modulus (GPa) = 31.88698 101.79567 66.84133
# Shear Modulus (GPa) = 15.83054 14.19093 15.01074
#
# Velocity S-wave (km/s) = 2.98615 2.82728 2.90780
# Velocity P-wave (km/s) = 5.46360 8.24609 6.99460
#
# Compressibility (1/GPa) = 0.03136076
#
# Stress axis : x y z
#
# Youngs Moduli (GPa) = 24.80323 35.35682 10.66550
#
# Poissons Ratio (x) = 0.69467 0.34736
# Poissons Ratio (y) = 0.48732 0.14168
# Poissons Ratio (z) = 0.80782 0.46967
#
# Static dielectric constant tensor:
#      x y z
#    x 1.589430 0.000000 0.000000 
#    y 0.000000 1.583510 0.000000 
#    z 0.000000 0.000000 1.591350 
# 
# From -- ./inp_files/2574.got.cif
#   From: 2010.05.17/outbox.cif.g08.bks.cpg/sg47_2_cif.got.tgz:2574.got - 2010.06.03 20:15:42.
