data_PCOD9387159
_publ_section_title
;
Structure prediction by ZEFSAII (Michael W. Deem and Ramdas Pophale) SiO2 
 PCOD9387159
Probable space group: P M M M
;
_chemical_formula_sum "Si O2"
_cell_formula_units_Z 56
_cell_length_a 14.391038
_cell_length_b 9.922559
_cell_length_c 22.580287
_cell_angle_alpha 90.000000
_cell_angle_beta 90.000000
_cell_angle_gamma 90.000000
_cell_volume 3224.372938
_symmetry_space_group_name_H-M "P M M M"
_symmetry_group_IT_number 47
_symmetry_cell_setting 'orthorhombic'
loop_
_space_group_symop_operation_xyz
x,y,z
-x,-y,z
x,-y,-z
-x,y,-z
-x,-y,-z
x,y,-z
-x,y,z
x,-y,z
loop_
_atom_site_type_symbol
_atom_site_label
_atom_site_fract_x
_atom_site_fract_y
_atom_site_fract_z
Si Si1 0.112774 0.341251 0.500000
Si Si2 0.605711 0.340198 0.898631
Si Si3 0.804295 0.663059 0.280740
Si Si4 0.887625 0.840506 0.386454
Si Si5 0.236724 0.854368 0.935761
Si Si6 0.110348 0.742400 0.845899
Si Si7 0.888833 0.500000 0.065545
Si Si8 0.601629 0.337460 0.758838
O O1 0.143742 0.500000 0.500000
O O2 0.140313 0.251426 0.443024
O O3 0.000000 0.346836 0.500000
O O4 0.500000 0.312624 0.917974
O O5 0.621713 0.500000 0.904624
O O6 0.684305 0.256744 0.930349
O O7 0.611940 0.305904 0.828495
O O8 0.813923 0.500000 0.291433
O O9 0.850408 0.757719 0.330032
O O10 0.851568 0.697511 0.217636
O O11 0.695144 0.700160 0.275156
O O12 0.000000 0.841393 0.384538
O O13 0.859273 0.000000 0.389129
O O14 0.168680 0.855060 0.879383
O O15 0.283889 0.000000 0.936303
O O16 0.187050 0.838604 0.000000
O O17 0.131959 0.625405 0.893340
O O18 0.000000 0.766083 0.842563
O O19 0.000000 0.500000 0.058966
O O20 0.847126 0.500000 0.000000
O O21 0.500000 0.286899 0.738546
O O22 0.598678 0.500000 0.755917
#
# Coordination Sequence:
#
# PCOD9387159 Si02
#       8
#     4   8   8   8   8   8   4   8
#     4   9  17  33  57  83 112 151 200 241 267 300
#     4   9  18  36  61  83 101 126 165 215 272 333
#     4  11  20  33  56  83 110 140 179 226 275 325
#     4  10  21  35  52  79 119 161 193 224 266 317
#     4  11  25  40  53  73 101 135 174 218 274 337
#     4  11  22  36  53  74 102 137 179 228 277 326
#     4   9  18  32  50  72  95 126 174 230 284 328
#     4   8  15  30  53  79 105 132 166 214 271 325
#
# _framework density 17.367718
#
# number of rings (size 3 to 8) (size 9 to 14) (size 15 to 20)
#    0.000    2.143    2.143    2.357    1.000    4.857 
#    0.000    2.143    0.000    0.429    0.000    0.500 
#    0.000    4.000    0.000    0.000    0.000    0.000 
#
# Total GULP energy -311879.527248 kJ/mol
# GULP energy per Si atom -5569.277272 kJ/mol
# Density = 1.732819 g / cm^3
# Si number density = 17.367718 Si / 1000 Ang^3
#
#
#
# Elastic Constant Matrix: (Units=GPa)
#
#
# Indices 1 2 3 4 5 6 
#
# 1 78.0063 42.3516 33.9036 0.0000 0.0000 0.0000
# 2 42.3516 108.0594 59.3869 0.0000 0.0000 0.0000
# 3 33.9036 59.3869 124.7326 0.0000 0.0000 0.0000
# 4 0.0000 0.0000 0.0000 29.4883 0.0000 0.0000
# 5 0.0000 0.0000 0.0000 0.0000 14.4855 0.0000
# 6 0.0000 0.0000 0.0000 0.0000 0.0000 11.0106
#
#
#
# Elastic Compliance Matrix: (Units=1/GPa)
#
#
# Indices 1 2 3 4 5 6 
#
# 1 0.016617 -0.005459 -0.001918 0.000000 0.000000 0.000000
# 2 -0.005459 0.014327 -0.005338 0.000000 0.000000 0.000000
# 3 -0.001918 -0.005338 0.011080 0.000000 0.000000 0.000000
# 4 0.000000 0.000000 0.000000 0.033912 0.000000 0.000000
# 5 0.000000 0.000000 0.000000 0.000000 0.069035 0.000000
# 6 0.000000 0.000000 0.000000 0.000000 0.000000 0.090821
#
#
# Mechanical properties :
#
#
# Convention : Reuss Voigt Hill
#
# Bulk Modulus (GPa) = 60.25703 64.67584 62.46643
# Shear Modulus (GPa) = 18.74412 22.67396 20.70904
#
# Velocity S-wave (km/s) = 3.28876 3.61712 3.45684
# Velocity P-wave (km/s) = 7.01366 7.40032 7.20958
#
# Compressibility (1/GPa) = 0.01659557
#
# Stress axis : x y z
#
# Youngs Moduli (GPa) = 60.18090 69.79844 90.25547
#
# Poissons Ratio (x) = 0.38100 0.17308
# Poissons Ratio (y) = 0.32851 0.48174
# Poissons Ratio (z) = 0.11540 0.37255
#
# Static dielectric constant tensor:
#      x y z
#    x 1.601860 0.000000 0.000000 
#    y 0.000000 1.683130 0.000000 
#    z 0.000000 0.000000 1.592460 
# 
# From -- ./inp_files/31068.got.cif
#   From: 2010.05.17/outbox.cif.g08.bks.cpg/sg47_16_cif.got.tgz:31068.got - 2010.06.03 20:15:42.
