data_PCOD9387688
_publ_section_title
;
Structure prediction by ZEFSAII (Michael W. Deem and Ramdas Pophale) SiO2 
 PCOD9387688
Probable space group: P M M M
;
_chemical_formula_sum "Si O2"
_cell_formula_units_Z 48
_cell_length_a 9.425689
_cell_length_b 14.141866
_cell_length_c 17.804896
_cell_angle_alpha 90.000000
_cell_angle_beta 90.000000
_cell_angle_gamma 90.000000
_cell_volume 2373.336209
_symmetry_space_group_name_H-M "P M M M"
_symmetry_group_IT_number 47
_symmetry_cell_setting 'orthorhombic'
loop_
_space_group_symop_operation_xyz
x,y,z
-x,-y,z
x,-y,-z
-x,y,-z
-x,-y,-z
x,y,-z
-x,y,z
x,-y,z
loop_
_atom_site_type_symbol
_atom_site_label
_atom_site_fract_x
_atom_site_fract_y
_atom_site_fract_z
Si Si1 0.661022 0.384816 0.853902
Si Si2 0.662180 0.115342 0.000000
Si Si3 0.838480 0.615435 0.000000
Si Si4 0.837949 0.115219 0.147278
Si Si5 0.337234 0.113759 0.705178
Si Si6 0.834991 0.610855 0.706701
Si Si7 0.167116 0.228491 0.587884
O O1 0.500000 0.349888 0.858796
O O2 0.656523 0.500000 0.855564
O O3 0.735654 0.360184 0.775698
O O4 0.754146 0.356455 0.925381
O O5 0.748200 0.142556 0.925689
O O6 0.500000 0.149488 0.000000
O O7 0.656400 0.000000 0.000000
O O8 0.843228 0.500000 0.000000
O O9 0.000000 0.649774 0.000000
O O10 0.756816 0.142719 0.223083
O O11 0.000000 0.149715 0.145564
O O12 0.843431 0.000000 0.146833
O O13 0.500000 0.145926 0.712671
O O14 0.264122 0.153462 0.630730
O O15 0.337825 0.000000 0.703434
O O16 0.811550 0.500000 0.690889
O O17 0.811624 0.674233 0.633567
O O18 0.000000 0.621783 0.729776
O O19 0.199202 0.237021 0.500000
O O20 0.000000 0.203167 0.595438
#
# Coordination Sequence:
#
# PCOD9387688 Si02
#       7
#     8   4   4   8   8   8   8
#     4   9  16  26  43  70 104 141 181 223 266 313
#     4   9  15  23  39  68 107 146 184 225 266 313
#     4   9  15  23  39  66 101 140 182 225 266 311
#     4   9  16  27  46  73 105 142 184 227 270 317
#     4  10  21  37  57  81 110 145 184 226 274 327
#     4   9  18  34  56  81 110 144 181 221 267 321
#     4  10  22  39  59  84 111 140 177 222 274 331
#
# _framework density 20.224696000000002
#
# number of rings (size 3 to 8) (size 9 to 14) (size 15 to 20)
#    0.000    2.667    0.000    2.000    0.000    8.667 
#    0.000    3.333    0.000    1.000    0.000    4.667 
#    0.000    0.000    0.000    0.000    0.000    0.000 
#
# Total GULP energy -268293.045046 kJ/mol
# GULP energy per Si atom -5589.438438 kJ/mol
# Density = 2.017866 g / cm^3
# Si number density = 20.224696 Si / 1000 Ang^3
#
#
#
# Elastic Constant Matrix: (Units=GPa)
#
#
# Indices 1 2 3 4 5 6 
#
# 1 185.8997 37.3076 128.6595 0.0000 0.0000 0.0000
# 2 37.3076 59.6448 21.1050 0.0000 0.0000 0.0000
# 3 128.6595 21.1050 186.1150 0.0000 0.0000 0.0000
# 4 0.0000 0.0000 0.0000 44.3620 0.0000 0.0000
# 5 0.0000 0.0000 0.0000 0.0000 -40.1930 0.0000
# 6 0.0000 0.0000 0.0000 0.0000 0.0000 11.7089
#
#
#
# Elastic Compliance Matrix: (Units=1/GPa)
#
#
# Indices 1 2 3 4 5 6 
#
# 1 0.011371 -0.004512 -0.007349 0.000000 0.000000 0.000000
# 2 -0.004512 0.019257 0.000935 0.000000 0.000000 0.000000
# 3 -0.007349 0.000935 0.010347 0.000000 0.000000 0.000000
# 4 0.000000 0.000000 0.000000 0.022542 0.000000 0.000000
# 5 0.000000 0.000000 0.000000 0.000000 -0.024880 0.000000
# 6 0.000000 0.000000 0.000000 0.000000 0.000000 0.085405
#
#
# Mechanical properties :
#
#
# Convention : Reuss Voigt Hill
#
# Bulk Modulus (GPa) = 52.28991 89.53375 70.91183
# Shear Modulus (GPa) = 32.83683 19.48140 26.15912
#
# Velocity S-wave (km/s) = 4.03376 3.10699 3.60032
# Velocity P-wave (km/s) = 6.89968 7.56550 7.24025
#
# Compressibility (1/GPa) = 0.01912415
#
# Stress axis : x y z
#
# Youngs Moduli (GPa) = 87.94388 51.92860 96.64461
#
# Poissons Ratio (x) = 0.23431 0.71023
# Poissons Ratio (y) = 0.39681 -0.09040
# Poissons Ratio (z) = 0.64629 -0.04858
#
# Static dielectric constant tensor:
#      x y z
#    x 1.691830 0.000000 0.000000 
#    y 0.000000 1.771190 0.000000 
#    z 0.000000 0.000000 1.656050 
# 
# From -- ./inp_files/21060.got.cif
#   From: 2010.05.17/outbox.cif.g08.bks.cpg/sg47_11_cif.got.tgz:21060.got - 2010.06.03 20:15:42.
