data_PCOD9387951
_publ_section_title
;
Structure prediction by ZEFSAII (Michael W. Deem and Ramdas Pophale) SiO2 
 PCOD9387951
Probable space group: P M M M
;
_chemical_formula_sum "Si O2"
_cell_formula_units_Z 56
_cell_length_a 8.137850
_cell_length_b 20.132575
_cell_length_c 16.232909
_cell_angle_alpha 90.000000
_cell_angle_beta 90.000000
_cell_angle_gamma 90.000000
_cell_volume 2659.532857
_symmetry_space_group_name_H-M "P M M M"
_symmetry_group_IT_number 47
_symmetry_cell_setting 'orthorhombic'
loop_
_space_group_symop_operation_xyz
x,y,z
-x,-y,z
x,-y,-z
-x,y,-z
-x,-y,-z
x,y,-z
-x,y,z
x,-y,z
loop_
_atom_site_type_symbol
_atom_site_label
_atom_site_fract_x
_atom_site_fract_y
_atom_site_fract_z
Si Si1 0.802279 0.074402 0.902365
Si Si2 0.195694 0.071646 0.598982
Si Si3 0.196818 0.424748 0.755927
Si Si4 0.190514 0.214676 0.647402
Si Si5 0.689489 0.209276 0.824522
Si Si6 0.801154 0.336268 0.908984
Si Si7 0.306693 0.646452 0.409801
O O1 0.722282 0.134631 0.853940
O O2 0.000000 0.079069 0.892656
O O3 0.752466 0.000000 0.875992
O O4 0.767008 0.080435 0.000000
O O5 0.209543 0.073337 0.500000
O O6 0.262399 0.141127 0.632054
O O7 0.000000 0.071231 0.618929
O O8 0.263097 0.000000 0.627562
O O9 0.261258 0.500000 0.757067
O O10 0.259237 0.381419 0.833141
O O11 0.231483 0.390125 0.668782
O O12 0.000000 0.427672 0.765177
O O13 0.202402 0.226147 0.744861
O O14 0.278876 0.274862 0.602319
O O15 0.000000 0.215032 0.620687
O O16 0.500000 0.217841 0.801519
O O17 0.736612 0.261948 0.894327
O O18 0.000000 0.334309 0.906106
O O19 0.753227 0.360424 0.000000
O O20 0.240113 0.626843 0.500000
O O21 0.500000 0.632788 0.408782
#
# Coordination Sequence:
#
# PCOD9387951 Si02
#       7
#     8   8   8   8   8   8   8
#     4   9  19  37  59  81 108 148 201 257 309 363
#     4   8  15  29  50  78 109 140 182 239 298 352
#     4  10  22  41  66  96 127 160 201 247 294 354
#     4  11  21  35  58  85 114 153 204 256 303 354
#     4  12  24  36  54  83 120 159 200 249 306 365
#     4  10  21  39  64  92 123 161 203 247 298 359
#     4  11  24  41  62  90 125 165 205 248 305 367
#
# _framework density 21.056329999999999
#
# number of rings (size 3 to 8) (size 9 to 14) (size 15 to 20)
#    0.000    1.857    1.429    3.857    0.000    5.714 
#    0.000    5.000    0.000    1.286    0.000    7.000 
#    0.000    0.000    0.000    0.000    0.000    0.000 
#
# Total GULP energy -312773.823434 kJ/mol
# GULP energy per Si atom -5585.246847 kJ/mol
# Density = 2.100840 g / cm^3
# Si number density = 21.056330 Si / 1000 Ang^3
#
#
#
# Elastic Constant Matrix: (Units=GPa)
#
#
# Indices 1 2 3 4 5 6 
#
# 1 18.1626 5.2137 2.7390 0.0000 0.0000 0.0000
# 2 5.2137 119.7349 51.2796 0.0000 0.0000 0.0000
# 3 2.7390 51.2796 105.6485 0.0000 0.0000 0.0000
# 4 0.0000 0.0000 0.0000 7.1212 0.0000 0.0000
# 5 0.0000 0.0000 0.0000 0.0000 -113.0716 0.0000
# 6 0.0000 0.0000 0.0000 0.0000 0.0000 -13.1067
#
#
#
# Elastic Compliance Matrix: (Units=1/GPa)
#
#
# Indices 1 2 3 4 5 6 
#
# 1 0.055765 -0.002284 -0.000337 0.000000 0.000000 0.000000
# 2 -0.002284 0.010637 -0.005104 0.000000 0.000000 0.000000
# 3 -0.000337 -0.005104 0.011951 0.000000 0.000000 0.000000
# 4 0.000000 0.000000 0.000000 0.140426 0.000000 0.000000
# 5 0.000000 0.000000 0.000000 0.000000 -0.008844 0.000000
# 6 0.000000 0.000000 0.000000 0.000000 0.000000 -0.076297
#
#
# Mechanical properties :
#
#
# Convention : Reuss Voigt Hill
#
# Bulk Modulus (GPa) = 15.89739 40.22341 28.06040
# Shear Modulus (GPa) = 29.40220 -11.52384 8.93918
#
# Velocity S-wave (km/s) = 3.74084 -2.34195 2.06266
# Velocity P-wave (km/s) = 5.12102 3.43966 4.36212
#
# Compressibility (1/GPa) = 0.06290342
#
# Stress axis : x y z
#
# Youngs Moduli (GPa) = 17.93254 94.01092 83.67241
#
# Poissons Ratio (x) = 0.21470 0.02822
# Poissons Ratio (y) = 0.04095 0.42705
# Poissons Ratio (z) = 0.00605 0.47981
#
# Static dielectric constant tensor:
#      x y z
#    x 1.744990 0.000000 0.000000 
#    y 0.000000 1.752770 0.000000 
#    z 0.000000 0.000000 1.760830 
# 
# From -- ./inp_files/7203.got.cif
#   From: 2010.05.17/outbox.cif.g08.bks.cpg/sg47_4_cif.got.tgz:7203.got - 2010.06.03 20:15:42.
