data_PCOD9387683
_publ_section_title
;
Structure prediction by ZEFSAII (Michael W. Deem and Ramdas Pophale) SiO2 
 PCOD9387683
Probable space group: P M M M
;
_chemical_formula_sum "Si O2"
_cell_formula_units_Z 56
_cell_length_a 8.882092
_cell_length_b 23.650592
_cell_length_c 14.826906
_cell_angle_alpha 90.000000
_cell_angle_beta 90.000000
_cell_angle_gamma 90.000000
_cell_volume 3114.639719
_symmetry_space_group_name_H-M "P M M M"
_symmetry_group_IT_number 47
_symmetry_cell_setting 'orthorhombic'
loop_
_space_group_symop_operation_xyz
x,y,z
-x,-y,z
x,-y,-z
-x,y,-z
-x,-y,-z
x,y,-z
-x,y,z
x,-y,z
loop_
_atom_site_type_symbol
_atom_site_label
_atom_site_fract_x
_atom_site_fract_y
_atom_site_fract_z
Si Si1 0.819231 0.566533 0.896972
Si Si2 0.179694 0.936924 0.281111
Si Si3 0.682666 0.762092 0.898083
Si Si4 0.675757 0.164942 0.392195
Si Si5 0.318811 0.892522 0.895354
Si Si6 0.319431 0.340074 0.770761
Si Si7 0.820315 0.713695 0.604872
O O1 0.786098 0.500000 0.884714
O O2 0.738629 0.605601 0.824468
O O3 0.000000 0.573323 0.890214
O O4 0.775050 0.581997 0.000000
O O5 0.254477 0.887618 0.339647
O O6 0.236594 0.929545 0.178755
O O7 0.000000 0.931227 0.284580
O O8 0.220641 0.000000 0.313395
O O9 0.500000 0.761331 0.898568
O O10 0.724399 0.826801 0.877727
O O11 0.732772 0.714908 0.828293
O O12 0.733057 0.748679 0.000000
O O13 0.688281 0.156032 0.500000
O O14 0.500000 0.170632 0.368242
O O15 0.757381 0.224022 0.371182
O O16 0.500000 0.897319 0.885158
O O17 0.283723 0.905323 0.000000
O O18 0.500000 0.340140 0.767031
O O19 0.252002 0.331509 0.671862
O O20 0.781147 0.703531 0.500000
O O21 0.000000 0.713630 0.613481
#
# Coordination Sequence:
#
# PCOD9387683 Si02
#       7
#     8   8   8   8   8   8   8
#     4   9  19  36  55  76 109 154 197 232 267 312
#     4  11  24  38  52  73 102 137 176 217 262 317
#     4   8  15  28  46  72 104 132 160 200 254 312
#     4  10  21  38  60  83 106 133 168 214 268 322
#     4   9  18  34  55  75  98 133 175 217 261 311
#     4  11  20  30  52  83 112 143 180 224 270 315
#     4  10  21  37  57  81 110 143 177 214 260 318
#
# _framework density 17.979607000000001
#
# number of rings (size 3 to 8) (size 9 to 14) (size 15 to 20)
#    0.000    2.286    0.000    4.286    0.000    6.000 
#    0.000    4.286    0.000    2.143    0.000    3.000 
#    0.000    0.000    0.000    0.000    0.000    0.000 
#
# Total GULP energy -312668.675974 kJ/mol
# GULP energy per Si atom -5583.369214 kJ/mol
# Density = 1.793868 g / cm^3
# Si number density = 17.979607 Si / 1000 Ang^3
#
#
#
# Elastic Constant Matrix: (Units=GPa)
#
#
# Indices 1 2 3 4 5 6 
#
# 1 51.6179 43.9048 50.5900 0.0000 0.0000 0.0000
# 2 43.9048 82.2094 71.1822 0.0000 0.0000 0.0000
# 3 50.5900 71.1822 94.9478 0.0000 0.0000 0.0000
# 4 0.0000 0.0000 0.0000 24.7721 0.0000 0.0000
# 5 0.0000 0.0000 0.0000 0.0000 25.2082 0.0000
# 6 0.0000 0.0000 0.0000 0.0000 0.0000 23.6521
#
#
#
# Elastic Compliance Matrix: (Units=1/GPa)
#
#
# Indices 1 2 3 4 5 6 
#
# 1 0.042691 -0.008847 -0.016114 0.000000 0.000000 0.000000
# 2 -0.008847 0.036502 -0.022652 0.000000 0.000000 0.000000
# 3 -0.016114 -0.022652 0.036100 0.000000 0.000000 0.000000
# 4 0.000000 0.000000 0.000000 0.040368 0.000000 0.000000
# 5 0.000000 0.000000 0.000000 0.000000 0.039670 0.000000
# 6 0.000000 0.000000 0.000000 0.000000 0.000000 0.042279
#
#
# Mechanical properties :
#
#
# Convention : Reuss Voigt Hill
#
# Bulk Modulus (GPa) = 49.83141 62.23655 56.03398
# Shear Modulus (GPa) = 14.72638 18.93302 16.82970
#
# Velocity S-wave (km/s) = 2.86503 3.24856 3.06280
# Velocity P-wave (km/s) = 6.22256 6.98291 6.61367
#
# Compressibility (1/GPa) = 0.02006766
#
# Stress axis : x y z
#
# Youngs Moduli (GPa) = 23.42388 27.39540 27.70081
#
# Poissons Ratio (x) = 0.24237 0.44637
# Poissons Ratio (y) = 0.20724 0.62747
# Poissons Ratio (z) = 0.37745 0.62056
#
# Static dielectric constant tensor:
#      x y z
#    x 1.598270 0.000000 0.000000 
#    y 0.000000 1.601330 0.000000 
#    z 0.000000 0.000000 1.625930 
# 
# From -- ./inp_files/7284.got.cif
#   From: 2010.05.17/outbox.cif.g08.bks.cpg/sg47_4_cif.got.tgz:7284.got - 2010.06.03 20:15:42.
