data_PCOD9387948
_publ_section_title
;
Structure prediction by ZEFSAII (Michael W. Deem and Ramdas Pophale) SiO2 
 PCOD9387948
Probable space group: P M M M
;
_chemical_formula_sum "Si O2"
_cell_formula_units_Z 48
_cell_length_a 15.366736
_cell_length_b 19.255868
_cell_length_c 8.815237
_cell_angle_alpha 90.000000
_cell_angle_beta 90.000000
_cell_angle_gamma 90.000000
_cell_volume 2608.427218
_symmetry_space_group_name_H-M "P M M M"
_symmetry_group_IT_number 47
_symmetry_cell_setting 'orthorhombic'
loop_
_space_group_symop_operation_xyz
x,y,z
-x,-y,z
x,-y,-z
-x,y,-z
-x,-y,-z
x,y,-z
-x,y,z
x,-y,z
loop_
_atom_site_type_symbol
_atom_site_label
_atom_site_fract_x
_atom_site_fract_y
_atom_site_fract_z
Si Si1 0.898304 0.320151 0.180336
Si Si2 0.500000 0.918143 0.681513
Si Si3 0.845823 0.828207 0.318766
Si Si4 0.399293 0.671099 0.817826
Si Si5 0.000000 0.082507 0.180098
Si Si6 0.656325 0.170201 0.181829
Si Si7 0.245789 0.418755 0.318664
O O1 0.873753 0.248137 0.261344
O O2 0.835168 0.379608 0.241971
O O3 0.000000 0.335508 0.206852
O O4 0.884773 0.311424 0.000000
O O5 0.500000 0.909062 0.500000
O O6 0.584232 0.881053 0.751700
O O7 0.500000 0.000000 0.715169
O O8 0.845338 0.829763 0.500000
O O9 0.750245 0.842952 0.253775
O O10 0.915687 0.882211 0.253905
O O11 0.500000 0.660385 0.775037
O O12 0.371997 0.750427 0.783288
O O13 0.333084 0.619293 0.737380
O O14 0.392072 0.662514 0.000000
O O15 0.000000 0.000000 0.202762
O O16 0.000000 0.097095 0.000000
O O17 0.660322 0.163550 0.000000
O O18 0.238786 0.412118 0.500000
O O19 0.247233 0.500000 0.279004
#
# Coordination Sequence:
#
# PCOD9387948 Si02
#       7
#     8   4   8   8   4   8   8
#     4  11  23  40  65  93 124 163 211 261 309 374
#     4  11  25  43  63  93 132 169 210 263 319 374
#     4  12  24  39  65  97 128 165 209 260 316 374
#     4  10  21  39  64  92 121 159 208 259 309 370
#     4  11  25  45  67  93 128 169 212 259 313 373
#     4  11  22  40  66  94 126 165 212 261 312 377
#     4  11  25  42  61  91 130 167 206 257 317 376
#
# _framework density 18.401893999999999
#
# number of rings (size 3 to 8) (size 9 to 14) (size 15 to 20)
#    0.000    1.000    3.333    3.500    0.000    6.000 
#    0.000    3.333    0.000    0.000    0.000    0.000 
#    0.000    0.000    0.000    0.000    0.000    0.000 
#
# Total GULP energy -268522.227282 kJ/mol
# GULP energy per Si atom -5594.213068 kJ/mol
# Density = 1.836001 g / cm^3
# Si number density = 18.401894 Si / 1000 Ang^3
#
#
#
# Elastic Constant Matrix: (Units=GPa)
#
#
# Indices 1 2 3 4 5 6 
#
# 1 203.8023 102.8870 98.0701 0.0000 0.0000 0.0000
# 2 102.8870 146.9315 95.8953 0.0000 0.0000 0.0000
# 3 98.0701 95.8953 111.2012 0.0000 0.0000 0.0000
# 4 0.0000 0.0000 0.0000 29.1928 0.0000 0.0000
# 5 0.0000 0.0000 0.0000 0.0000 -80.0740 0.0000
# 6 0.0000 0.0000 0.0000 0.0000 0.0000 33.3727
#
#
#
# Elastic Compliance Matrix: (Units=1/GPa)
#
#
# Indices 1 2 3 4 5 6 
#
# 1 0.008921 -0.002544 -0.005674 0.000000 0.000000 0.000000
# 2 -0.002544 0.016293 -0.011807 0.000000 0.000000 0.000000
# 3 -0.005674 -0.011807 0.024179 0.000000 0.000000 0.000000
# 4 0.000000 0.000000 0.000000 0.034255 0.000000 0.000000
# 5 0.000000 0.000000 0.000000 0.000000 -0.012488 0.000000
# 6 0.000000 0.000000 0.000000 0.000000 0.000000 0.029965
#
#
# Mechanical properties :
#
#
# Convention : Reuss Voigt Hill
#
# Bulk Modulus (GPa) = 107.03095 117.29330 112.16213
# Shear Modulus (GPa) = 34.65268 7.50381 21.07824
#
# Velocity S-wave (km/s) = 4.34418 2.02153 3.38810
# Velocity P-wave (km/s) = 9.13520 8.32628 8.74010
#
# Compressibility (1/GPa) = 0.00934309
#
# Stress axis : x y z
#
# Youngs Moduli (GPa) = 112.09045 61.37587 41.35842
#
# Poissons Ratio (x) = 0.15612 0.23468
# Poissons Ratio (y) = 0.28513 0.48832
# Poissons Ratio (z) = 0.63603 0.72467
#
# Static dielectric constant tensor:
#      x y z
#    x 1.610490 0.000000 0.000000 
#    y 0.000000 1.599420 0.000000 
#    z 0.000000 0.000000 1.614800 
# 
# From -- ./inp_files/6468.got.cif
#   From: 2010.05.17/outbox.cif.g08.bks.cpg/sg47_4_cif.got.tgz:6468.got - 2010.06.03 20:15:42.
