data_PCOD9387032
_publ_section_title
;
Structure prediction by ZEFSAII (Michael W. Deem and Ramdas Pophale) SiO2 
 PCOD9387032
Probable space group: P M M M
;
_chemical_formula_sum "Si O2"
_cell_formula_units_Z 56
_cell_length_a 8.552935
_cell_length_b 20.846052
_cell_length_c 16.079146
_cell_angle_alpha 90.000000
_cell_angle_beta 90.000000
_cell_angle_gamma 90.000000
_cell_volume 2866.830175
_symmetry_space_group_name_H-M "P M M M"
_symmetry_group_IT_number 47
_symmetry_cell_setting 'orthorhombic'
loop_
_space_group_symop_operation_xyz
x,y,z
-x,-y,z
x,-y,-z
-x,y,-z
-x,-y,-z
x,y,-z
-x,y,z
x,-y,z
loop_
_atom_site_type_symbol
_atom_site_label
_atom_site_fract_x
_atom_site_fract_y
_atom_site_fract_z
Si Si1 0.814283 0.340257 0.902842
Si Si2 0.689538 0.198682 0.595952
Si Si3 0.688329 0.069569 0.313968
Si Si4 0.310994 0.426208 0.246546
Si Si5 0.671158 0.793218 0.097706
Si Si6 0.690807 0.658204 0.596929
Si Si7 0.815724 0.069323 0.870060
O O1 0.742145 0.388525 0.835864
O O2 0.771203 0.267657 0.874069
O O3 0.000000 0.346956 0.902500
O O4 0.762519 0.350348 0.000000
O O5 0.734290 0.193614 0.500000
O O6 0.500000 0.198496 0.600079
O O7 0.741033 0.134322 0.641349
O O8 0.739839 0.269616 0.623749
O O9 0.500000 0.073899 0.299104
O O10 0.778480 0.067406 0.227487
O O11 0.713552 0.000000 0.356869
O O12 0.500000 0.425389 0.247686
O O13 0.258564 0.500000 0.244567
O O14 0.257905 0.391249 0.331961
O O15 0.500000 0.791864 0.138880
O O16 0.739911 0.864238 0.102955
O O17 0.654858 0.781652 0.000000
O O18 0.738923 0.646834 0.500000
O O19 0.500000 0.657253 0.595394
O O20 0.000000 0.072321 0.886682
O O21 0.757217 0.000000 0.903372
#
# Coordination Sequence:
#
# PCOD9387032 Si02
#       7
#     8   8   8   8   8   8   8
#     4  10  22  40  60  83 113 148 186 227 276 339
#     4   8  14  25  43  69  99 132 173 222 275 325
#     4   9  17  28  44  69  99 133 177 226 272 318
#     4  10  21  35  55  86 116 146 189 234 279 332
#     4  10  21  37  58  82 106 135 175 224 275 324
#     4   8  15  29  49  76 111 147 184 229 279 330
#     4  10  21  35  50  72 106 146 184 222 267 320
#
# _framework density 19.533771000000002
#
# number of rings (size 3 to 8) (size 9 to 14) (size 15 to 20)
#    0.000    2.714    0.000    2.143    2.000    4.000 
#    0.000    5.714    0.000    0.857    0.000    5.000 
#    0.000    0.000    0.000    0.000    0.000    0.000 
#
# Total GULP energy -311837.387619 kJ/mol
# GULP energy per Si atom -5568.524779 kJ/mol
# Density = 1.948931 g / cm^3
# Si number density = 19.533771 Si / 1000 Ang^3
#
#
#
# Elastic Constant Matrix: (Units=GPa)
#
#
# Indices 1 2 3 4 5 6 
#
# 1 15.2749 23.9574 13.8947 0.0000 0.0000 0.0000
# 2 23.9574 183.6378 87.4407 0.0000 0.0000 0.0000
# 3 13.8947 87.4407 85.2369 0.0000 0.0000 0.0000
# 4 0.0000 0.0000 0.0000 31.8319 0.0000 0.0000
# 5 0.0000 0.0000 0.0000 0.0000 -4.3326 0.0000
# 6 0.0000 0.0000 0.0000 0.0000 0.0000 18.9543
#
#
#
# Elastic Compliance Matrix: (Units=1/GPa)
#
#
# Indices 1 2 3 4 5 6 
#
# 1 0.083281 -0.008603 -0.004751 0.000000 0.000000 0.000000
# 2 -0.008603 0.011534 -0.010430 0.000000 0.000000 0.000000
# 3 -0.004751 -0.010430 0.023206 0.000000 0.000000 0.000000
# 4 0.000000 0.000000 0.000000 0.031415 0.000000 0.000000
# 5 0.000000 0.000000 0.000000 0.000000 -0.230807 0.000000
# 6 0.000000 0.000000 0.000000 0.000000 0.000000 0.052759
#
#
# Mechanical properties :
#
#
# Convention : Reuss Voigt Hill
#
# Bulk Modulus (GPa) = 14.19360 59.41501 36.80430
# Shear Modulus (GPa) = 117.81669 19.88116 68.84893
#
# Velocity S-wave (km/s) = 7.77466 3.19373 5.94328
# Velocity P-wave (km/s) = 9.37420 6.63947 8.12275
#
# Compressibility (1/GPa) = 0.07045431
#
# Stress axis : x y z
#
# Youngs Moduli (GPa) = 12.00757 86.69893 43.09205
#
# Poissons Ratio (x) = 0.74585 0.20471
# Poissons Ratio (y) = 0.10330 0.44945
# Poissons Ratio (z) = 0.05704 0.90427
#
# Static dielectric constant tensor:
#      x y z
#    x 1.691100 0.000000 0.000000 
#    y 0.000000 1.718190 0.000000 
#    z 0.000000 0.000000 1.692620 
# 
# From -- ./inp_files/7219.got.cif
#   From: 2010.05.17/outbox.cif.g08.bks.cpg/sg47_4_cif.got.tgz:7219.got - 2010.06.03 20:15:42.
