data_PCOD9387934
_publ_section_title
;
Structure prediction by ZEFSAII (Michael W. Deem and Ramdas Pophale) SiO2 
 PCOD9387934
Probable space group: P M M M
;
_chemical_formula_sum "Si O2"
_cell_formula_units_Z 44
_cell_length_a 32.160763
_cell_length_b 9.542182
_cell_length_c 7.781768
_cell_angle_alpha 90.000000
_cell_angle_beta 90.000000
_cell_angle_gamma 90.000000
_cell_volume 2388.098953
_symmetry_space_group_name_H-M "P M M M"
_symmetry_group_IT_number 47
_symmetry_cell_setting 'orthorhombic'
loop_
_space_group_symop_operation_xyz
x,y,z
-x,-y,z
x,-y,-z
-x,y,-z
-x,-y,-z
x,y,-z
-x,y,z
x,-y,z
loop_
_atom_site_type_symbol
_atom_site_label
_atom_site_fract_x
_atom_site_fract_y
_atom_site_fract_z
Si Si1 0.705168 0.835720 0.307067
Si Si2 0.000000 0.839563 0.708798
Si Si3 0.373566 0.659824 0.202742
Si Si4 0.852706 0.666734 0.000000
Si Si5 0.547001 0.160967 0.707809
Si Si6 0.918266 0.666392 0.702599
Si Si7 0.766897 0.168268 0.000000
O O1 0.721771 0.821136 0.500000
O O2 0.663363 0.746636 0.288996
O O3 0.694783 0.000000 0.278430
O O4 0.739093 0.794966 0.166003
O O5 0.958494 0.755551 0.756878
O O6 0.000000 0.842229 0.500000
O O7 0.000000 0.000000 0.769829
O O8 0.375212 0.500000 0.265480
O O9 0.417400 0.736389 0.229460
O O10 0.364539 0.658413 0.000000
O O11 0.880413 0.697529 0.169170
O O12 0.844027 0.500000 0.000000
O O13 0.810392 0.752893 0.000000
O O14 0.547592 0.162512 0.500000
O O15 0.500000 0.198239 0.762571
O O16 0.555171 0.000000 0.761930
O O17 0.909253 0.694334 0.500000
O O18 0.927577 0.500000 0.717150
O O19 0.773260 0.000000 0.000000
#
# Coordination Sequence:
#
# PCOD9387934 Si02
#       7
#     8   4   8   4   8   8   4
#     4  10  21  39  63  86 108 141 184 226 274 335
#     4   9  17  30  51  80 111 143 184 233 277 318
#     4  11  23  36  53  81 115 146 179 224 276 328
#     4  10  22  37  55  80 109 143 185 228 268 327
#     4   9  19  36  56  78 106 143 187 229 269 321
#     4   9  18  34  54  76 107 148 188 225 270 322
#     4  10  22  40  59  83 113 141 175 226 282 332
#
# _framework density 18.424696000000001
#
# number of rings (size 3 to 8) (size 9 to 14) (size 15 to 20)
#    0.000    2.273    0.909    1.909    0.000    8.364 
#    0.000    4.545    0.000    0.000    0.000    0.000 
#    0.000    0.000    0.000    0.000    0.000    0.000 
#
# Total GULP energy -245634.325325 kJ/mol
# GULP energy per Si atom -5582.598303 kJ/mol
# Density = 1.838276 g / cm^3
# Si number density = 18.424696 Si / 1000 Ang^3
#
#
#
# Elastic Constant Matrix: (Units=GPa)
#
#
# Indices 1 2 3 4 5 6 
#
# 1 156.2641 90.9270 61.6831 0.0000 0.0000 0.0000
# 2 90.9270 86.2989 48.6279 0.0000 0.0000 0.0000
# 3 61.6831 48.6279 87.6161 0.0000 0.0000 0.0000
# 4 0.0000 0.0000 0.0000 3.5052 0.0000 0.0000
# 5 0.0000 0.0000 0.0000 0.0000 55.5706 0.0000
# 6 0.0000 0.0000 0.0000 0.0000 0.0000 58.1432
#
#
#
# Elastic Compliance Matrix: (Units=1/GPa)
#
#
# Indices 1 2 3 4 5 6 
#
# 1 0.017051 -0.016298 -0.002958 0.000000 0.000000 0.000000
# 2 -0.016298 0.032439 -0.006530 0.000000 0.000000 0.000000
# 3 -0.002958 -0.006530 0.017120 0.000000 0.000000 0.000000
# 4 0.000000 0.000000 0.000000 0.285289 0.000000 0.000000
# 5 0.000000 0.000000 0.000000 0.000000 0.017995 0.000000
# 6 0.000000 0.000000 0.000000 0.000000 0.000000 0.017199
#
#
# Mechanical properties :
#
#
# Convention : Reuss Voigt Hill
#
# Bulk Modulus (GPa) = 66.50079 81.40613 73.95346
# Shear Modulus (GPa) = 11.26941 32.03989 21.65465
#
# Velocity S-wave (km/s) = 2.47583 4.17461 3.43199
# Velocity P-wave (km/s) = 6.65918 8.21679 7.47864
#
# Compressibility (1/GPa) = 0.01503742
#
# Stress axis : x y z
#
# Youngs Moduli (GPa) = 58.64835 30.82666 58.40990
#
# Poissons Ratio (x) = 0.50242 0.17279
# Poissons Ratio (y) = 0.95586 0.38142
# Poissons Ratio (z) = 0.17350 0.20130
#
# Static dielectric constant tensor:
#      x y z
#    x 1.584210 0.000000 0.000000 
#    y 0.000000 1.623270 0.000000 
#    z 0.000000 0.000000 1.663090 
# 
# From -- ./inp_files/13713.got.cif
#   From: 2010.05.17/outbox.cif.g08.bks.cpg/sg47_7_cif.got.tgz:13713.got - 2010.06.03 20:15:42.
