data_PCOD9387459
_publ_section_title
;
Structure prediction by ZEFSAII (Michael W. Deem and Ramdas Pophale) SiO2 
 PCOD9387459
Probable space group: P M M M
;
_chemical_formula_sum "Si O2"
_cell_formula_units_Z 56
_cell_length_a 9.674577
_cell_length_b 15.905581
_cell_length_c 20.047376
_cell_angle_alpha 90.000000
_cell_angle_beta 90.000000
_cell_angle_gamma 90.000000
_cell_volume 3084.885570
_symmetry_space_group_name_H-M "P M M M"
_symmetry_group_IT_number 47
_symmetry_cell_setting 'orthorhombic'
loop_
_space_group_symop_operation_xyz
x,y,z
-x,-y,z
x,-y,-z
-x,y,-z
-x,-y,-z
x,y,-z
-x,y,z
x,-y,z
loop_
_atom_site_type_symbol
_atom_site_label
_atom_site_fract_x
_atom_site_fract_y
_atom_site_fract_z
Si Si1 0.658172 0.738189 0.184022
Si Si2 0.650613 0.098572 0.500000
Si Si3 0.842344 0.837838 0.615304
Si Si4 0.840407 0.640260 0.578572
Si Si5 0.162159 0.662219 0.079338
Si Si6 0.343336 0.500000 0.080757
Si Si7 0.335676 0.594175 0.706208
Si Si8 0.344219 0.098599 0.731379
O O1 0.500000 0.715421 0.163708
O O2 0.767275 0.731988 0.124687
O O3 0.697872 0.671092 0.243007
O O4 0.654428 0.833527 0.209826
O O5 0.500000 0.140371 0.500000
O O6 0.740229 0.122132 0.437215
O O7 0.633633 0.000000 0.500000
O O8 0.840527 0.738881 0.598442
O O9 0.776104 0.866178 0.684456
O O10 0.000000 0.866728 0.608894
O O11 0.799302 0.630543 0.500000
O O12 0.744713 0.600677 0.635817
O O13 0.000000 0.610659 0.583784
O O14 0.253313 0.580901 0.097916
O O15 0.000000 0.650019 0.093312
O O16 0.176160 0.676659 0.000000
O O17 0.500000 0.500000 0.107828
O O18 0.353817 0.500000 0.000000
O O19 0.500000 0.601142 0.693657
O O20 0.309001 0.500000 0.734609
O O21 0.500000 0.104655 0.699948
O O22 0.323940 0.000000 0.747472
#
# Coordination Sequence:
#
# PCOD9387459 Si02
#       8
#     8   4   8   8   8   4   8   8
#     4  10  21  37  59  85 114 151 190 234 286 340
#     4  11  23  35  49  73 104 139 178 221 279 346
#     4  11  21  35  54  78 107 140 179 227 283 342
#     4  10  21  38  57  78 107 145 189 235 284 338
#     4  10  21  36  55  84 121 157 194 237 285 339
#     4   9  17  31  53  81 115 155 194 229 270 327
#     4  10  22  39  58  83 112 144 188 237 283 334
#     4  10  21  38  59  83 111 144 185 232 285 344
#
# _framework density 18.153023000000001
#
# number of rings (size 3 to 8) (size 9 to 14) (size 15 to 20)
#    0.000    1.857    2.143    1.714    1.000    6.857 
#    0.000    1.429    0.000    0.429    0.000    3.000 
#    0.000    0.000    0.000    0.000    0.000    0.000 
#
# Total GULP energy -312173.527397 kJ/mol
# GULP energy per Si atom -5574.527275 kJ/mol
# Density = 1.811171 g / cm^3
# Si number density = 18.153023 Si / 1000 Ang^3
#
#
#
# Elastic Constant Matrix: (Units=GPa)
#
#
# Indices 1 2 3 4 5 6 
#
# 1 127.6183 30.3669 55.0739 0.0000 0.0000 0.0000
# 2 30.3669 68.3164 25.7077 0.0000 0.0000 0.0000
# 3 55.0739 25.7077 61.8369 0.0000 0.0000 0.0000
# 4 0.0000 0.0000 0.0000 30.7551 0.0000 0.0000
# 5 0.0000 0.0000 0.0000 0.0000 36.1670 0.0000
# 6 0.0000 0.0000 0.0000 0.0000 0.0000 18.2248
#
#
#
# Elastic Compliance Matrix: (Units=1/GPa)
#
#
# Indices 1 2 3 4 5 6 
#
# 1 0.012887 -0.001671 -0.010783 0.000000 0.000000 0.000000
# 2 -0.001671 0.017569 -0.005816 0.000000 0.000000 0.000000
# 3 -0.010783 -0.005816 0.028193 0.000000 0.000000 0.000000
# 4 0.000000 0.000000 0.000000 0.032515 0.000000 0.000000
# 5 0.000000 0.000000 0.000000 0.000000 0.027650 0.000000
# 6 0.000000 0.000000 0.000000 0.000000 0.000000 0.054870
#
#
# Mechanical properties :
#
#
# Convention : Reuss Voigt Hill
#
# Bulk Modulus (GPa) = 45.22905 53.34096 49.28501
# Shear Modulus (GPa) = 22.97873 26.80424 24.89148
#
# Velocity S-wave (km/s) = 3.56172 3.84679 3.70699
# Velocity P-wave (km/s) = 6.47178 7.01272 6.74767
#
# Compressibility (1/GPa) = 0.02210968
#
# Stress axis : x y z
#
# Youngs Moduli (GPa) = 77.59932 56.91840 35.46974
#
# Poissons Ratio (x) = 0.09509 0.38246
# Poissons Ratio (y) = 0.12964 0.20630
# Poissons Ratio (z) = 0.83674 0.33105
#
# Static dielectric constant tensor:
#      x y z
#    x 1.630320 0.000000 0.000000 
#    y 0.000000 1.668070 0.000000 
#    z 0.000000 0.000000 1.667870 
# 
# From -- ./inp_files/7374.got.cif
#   From: 2010.05.17/outbox.cif.g08.bks.cpg/sg47_4_cif.got.tgz:7374.got - 2010.06.03 20:15:42.
