data_PCOD9387996
_publ_section_title
;
Structure prediction by ZEFSAII (Michael W. Deem and Ramdas Pophale) SiO2 
 PCOD9387996
Probable space group: P M M M
;
_chemical_formula_sum "Si O2"
_cell_formula_units_Z 64
_cell_length_a 7.708518
_cell_length_b 14.516900
_cell_length_c 25.389834
_cell_angle_alpha 90.000000
_cell_angle_beta 90.000000
_cell_angle_gamma 90.000000
_cell_volume 2841.218524
_symmetry_space_group_name_H-M "P M M M"
_symmetry_group_IT_number 47
_symmetry_cell_setting 'orthorhombic'
loop_
_space_group_symop_operation_xyz
x,y,z
-x,-y,z
x,-y,-z
-x,y,-z
-x,-y,-z
x,y,-z
-x,y,z
x,-y,z
loop_
_atom_site_type_symbol
_atom_site_label
_atom_site_fract_x
_atom_site_fract_y
_atom_site_fract_z
Si Si1 0.709114 0.219947 0.557446
Si Si2 0.708436 0.605949 0.840585
Si Si3 0.206127 0.393832 0.273160
Si Si4 0.293866 0.712620 0.942567
Si Si5 0.210468 0.894973 0.110690
Si Si6 0.799063 0.112824 0.226166
Si Si7 0.208947 0.105084 0.660805
Si Si8 0.705146 0.396516 0.611868
O O1 0.771443 0.188288 0.500000
O O2 0.500000 0.223553 0.555328
O O3 0.751957 0.158465 0.607695
O O4 0.775512 0.322472 0.571030
O O5 0.500000 0.603433 0.843620
O O6 0.772780 0.500000 0.841293
O O7 0.750940 0.648630 0.783433
O O8 0.777208 0.659443 0.891486
O O9 0.273729 0.500000 0.270780
O O10 0.272823 0.357594 0.328811
O O11 0.000000 0.395650 0.277418
O O12 0.500000 0.694477 0.943799
O O13 0.267236 0.820409 0.931416
O O14 0.222593 0.686893 0.000000
O O15 0.277425 0.865170 0.168944
O O16 0.000000 0.895445 0.112883
O O17 0.265606 0.000000 0.100368
O O18 0.724032 0.142605 0.282617
O O19 0.000000 0.143733 0.224724
O O20 0.800465 0.000000 0.227814
O O21 0.000000 0.103272 0.666344
O O22 0.270785 0.000000 0.655328
O O23 0.500000 0.404207 0.602465
O O24 0.779656 0.500000 0.609763
#
# Coordination Sequence:
#
# PCOD9387996 Si02
#       8
#     8   8   8   8   8   8   8   8
#     4  10  22  37  51  72 102 135 174 217 257 297
#     4   9  18  34  55  76 101 135 172 210 253 303
#     4   9  17  30  51  80 109 133 162 204 255 309
#     4  10  22  37  51  72 102 135 174 217 257 297
#     4   9  18  34  56  79 103 133 168 206 251 306
#     4   7  12  27  51  76  99 123 156 199 245 294
#     4   9  18  34  56  79 103 133 168 206 251 306
#     4   9  18  34  55  76 101 135 172 210 253 303
#
# _framework density 22.525545000000001
#
# number of rings (size 3 to 8) (size 9 to 14) (size 15 to 20)
#    0.000    3.000    0.000    1.875    0.000    5.500 
#    0.000    8.125    0.000    2.250    0.000    5.250 
#    0.000    0.000    0.000    0.000    0.000    0.000 
#
# Total GULP energy -357031.479787 kJ/mol
# GULP energy per Si atom -5578.616872 kJ/mol
# Density = 2.247428 g / cm^3
# Si number density = 22.525545 Si / 1000 Ang^3
#
#
#
# Elastic Constant Matrix: (Units=GPa)
#
#
# Indices 1 2 3 4 5 6 
#
# 1 36.8099 -4.5092 -2.2337 0.0000 0.0000 0.0000
# 2 -4.5092 33.4988 6.4845 0.0000 0.0000 0.0000
# 3 -2.2337 6.4845 97.2494 0.0000 0.0000 0.0000
# 4 0.0000 0.0000 0.0000 23.0332 0.0000 0.0000
# 5 0.0000 0.0000 0.0000 0.0000 -2.2605 0.0000
# 6 0.0000 0.0000 0.0000 0.0000 0.0000 17.2325
#
#
#
# Elastic Compliance Matrix: (Units=1/GPa)
#
#
# Indices 1 2 3 4 5 6 
#
# 1 0.027637 0.003644 0.000392 0.000000 0.000000 0.000000
# 2 0.003644 0.030723 -0.001965 0.000000 0.000000 0.000000
# 3 0.000392 -0.001965 0.010423 0.000000 0.000000 0.000000
# 4 0.000000 0.000000 0.000000 0.043416 0.000000 0.000000
# 5 0.000000 0.000000 0.000000 0.000000 -0.442382 0.000000
# 6 0.000000 0.000000 0.000000 0.000000 0.000000 0.058030
#
#
# Mechanical properties :
#
#
# Convention : Reuss Voigt Hill
#
# Bulk Modulus (GPa) = 13.71275 18.56015 16.13645
# Shear Modulus (GPa) = -19.84219 18.78880 -0.52669
#
# Velocity S-wave (km/s) = -2.97117 2.89123 -0.48407
# Velocity P-wave (km/s) = 2.38110 4.40490 2.62045
#
# Compressibility (1/GPa) = 0.07292484
#
# Stress axis : x y z
#
# Youngs Moduli (GPa) = 36.18365 32.54918 95.94300
#
# Poissons Ratio (x) = -0.11862 -0.03759
# Poissons Ratio (y) = -0.13186 0.18852
# Poissons Ratio (z) = -0.01418 0.06395
#
# Static dielectric constant tensor:
#      x y z
#    x 1.891970 0.000000 0.000000 
#    y 0.000000 1.865480 0.000000 
#    z 0.000000 0.000000 1.855450 
# 
# From -- ./inp_files/21906.got.cif
#   From: 2010.05.17/outbox.cif.g08.bks.cpg/sg47_11_cif.got.tgz:21906.got - 2010.06.03 20:15:42.
