data_PCOD9387200
_publ_section_title
;
Structure prediction by ZEFSAII (Michael W. Deem and Ramdas Pophale) SiO2 
 PCOD9387200
Probable space group: P M M M
;
_chemical_formula_sum "Si O2"
_cell_formula_units_Z 48
_cell_length_a 8.871587
_cell_length_b 15.837766
_cell_length_c 17.919437
_cell_angle_alpha 90.000000
_cell_angle_beta 90.000000
_cell_angle_gamma 90.000000
_cell_volume 2517.790547
_symmetry_space_group_name_H-M "P M M M"
_symmetry_group_IT_number 47
_symmetry_cell_setting 'orthorhombic'
loop_
_space_group_symop_operation_xyz
x,y,z
-x,-y,z
x,-y,-z
-x,y,-z
-x,-y,-z
x,y,-z
-x,y,z
x,-y,z
loop_
_atom_site_type_symbol
_atom_site_label
_atom_site_fract_x
_atom_site_fract_y
_atom_site_fract_z
Si Si1 0.671658 0.398975 0.857272
Si Si2 0.674852 0.149317 0.000000
Si Si3 0.824539 0.672707 0.000000
Si Si4 0.831586 0.100462 0.152486
Si Si5 0.184175 0.902376 0.684882
Si Si6 0.682285 0.598626 0.689844
Si Si7 0.182246 0.256884 0.586667
O O1 0.500000 0.366934 0.870904
O O2 0.661579 0.500000 0.854220
O O3 0.780624 0.375542 0.924502
O O4 0.723292 0.373234 0.774437
O O5 0.717504 0.246756 0.000000
O O6 0.743934 0.115327 0.923273
O O7 0.500000 0.132290 0.000000
O O8 0.000000 0.695255 0.000000
O O9 0.764925 0.127498 0.232277
O O10 0.000000 0.137194 0.143995
O O11 0.845051 0.000000 0.161378
O O12 0.228674 0.831875 0.625092
O O13 0.000000 0.903993 0.687799
O O14 0.231466 0.000000 0.670348
O O15 0.500000 0.600397 0.686255
O O16 0.727931 0.500000 0.678648
O O17 0.750999 0.663785 0.631364
O O18 0.226463 0.258918 0.500000
O O19 0.000000 0.260943 0.590687
#
# Coordination Sequence:
#
# PCOD9387200 Si02
#       7
#     8   4   4   8   8   8   8
#     4   9  19  38  60  80 107 143 182 228 280 329
#     4  12  25  36  49  75 111 147 187 232 275 322
#     4  12  25  36  51  79 113 147 185 226 271 328
#     4   9  18  35  57  78 104 141 185 232 280 330
#     4   8  16  33  57  83 112 148 187 227 277 337
#     4   9  20  39  61  83 110 149 193 232 278 340
#     4  10  21  35  55  87 120 147 183 235 287 333
#
# _framework density 19.064333999999999
#
# number of rings (size 3 to 8) (size 9 to 14) (size 15 to 20)
#    0.000    2.500    0.000    4.000    2.333    4.667 
#    0.000    5.000    0.000    1.500    0.000    1.167 
#    0.000    0.000    0.000    0.000    0.000    0.000 
#
# Total GULP energy -267604.135507 kJ/mol
# GULP energy per Si atom -5575.086156 kJ/mol
# Density = 1.902094 g / cm^3
# Si number density = 19.064334 Si / 1000 Ang^3
#
#
#
# Elastic Constant Matrix: (Units=GPa)
#
#
# Indices 1 2 3 4 5 6 
#
# 1 18.7964 10.1821 38.3918 0.0000 0.0000 0.0000
# 2 10.1821 76.8733 73.2174 0.0000 0.0000 0.0000
# 3 38.3918 73.2174 187.5986 0.0000 0.0000 0.0000
# 4 0.0000 0.0000 0.0000 38.6787 0.0000 0.0000
# 5 0.0000 0.0000 0.0000 0.0000 21.1181 0.0000
# 6 0.0000 0.0000 0.0000 0.0000 0.0000 30.5058
#
#
#
# Elastic Compliance Matrix: (Units=1/GPa)
#
#
# Indices 1 2 3 4 5 6 
#
# 1 0.095583 0.009503 -0.023270 0.000000 0.000000 0.000000
# 2 0.009503 0.021650 -0.010394 0.000000 0.000000 0.000000
# 3 -0.023270 -0.010394 0.014149 0.000000 0.000000 0.000000
# 4 0.000000 0.000000 0.000000 0.025854 0.000000 0.000000
# 5 0.000000 0.000000 0.000000 0.000000 0.047353 0.000000
# 6 0.000000 0.000000 0.000000 0.000000 0.000000 0.032781
#
#
# Mechanical properties :
#
#
# Convention : Reuss Voigt Hill
#
# Bulk Modulus (GPa) = 12.03959 58.53898 35.28929
# Shear Modulus (GPa) = 15.95518 28.82567 22.39042
#
# Velocity S-wave (km/s) = 2.89608 3.89269 3.43077
# Velocity P-wave (km/s) = 4.18474 7.13980 5.85187
#
# Compressibility (1/GPa) = 0.08305928
#
# Stress axis : x y z
#
# Youngs Moduli (GPa) = 10.46216 46.18986 70.67418
#
# Poissons Ratio (x) = -0.43893 1.64457
# Poissons Ratio (y) = -0.09942 0.73461
# Poissons Ratio (z) = 0.24345 0.48011
#
# Static dielectric constant tensor:
#      x y z
#    x 1.658260 0.000000 0.000000 
#    y 0.000000 1.676230 0.000000 
#    z 0.000000 0.000000 1.756970 
# 
# From -- ./inp_files/26530.got.cif
#   From: 2010.05.17/outbox.cif.g08.bks.cpg/sg47_14_cif.got.tgz:26530.got - 2010.06.03 20:15:42.
