data_PCOD9387551
_publ_section_title
;
Structure prediction by ZEFSAII (Michael W. Deem and Ramdas Pophale) SiO2 
 PCOD9387551
Probable space group: P M M M
;
_chemical_formula_sum "Si O2"
_cell_formula_units_Z 52
_cell_length_a 13.325459
_cell_length_b 22.317750
_cell_length_c 7.473764
_cell_angle_alpha 90.000000
_cell_angle_beta 90.000000
_cell_angle_gamma 90.000000
_cell_volume 2222.654534
_symmetry_space_group_name_H-M "P M M M"
_symmetry_group_IT_number 47
_symmetry_cell_setting 'orthorhombic'
loop_
_space_group_symop_operation_xyz
x,y,z
-x,-y,z
x,-y,-z
-x,y,-z
-x,-y,-z
x,y,-z
-x,y,z
x,-y,z
loop_
_atom_site_type_symbol
_atom_site_label
_atom_site_fract_x
_atom_site_fract_y
_atom_site_fract_z
Si Si1 0.165812 0.566958 0.203391
Si Si2 0.321668 0.872287 0.795928
Si Si3 0.607612 0.571873 0.293782
Si Si4 0.610301 0.743716 0.781185
Si Si5 0.109012 0.174409 0.289787
Si Si6 0.822543 0.306745 0.217034
Si Si7 0.380230 0.000000 0.210706
O O1 0.149826 0.500000 0.282967
O O2 0.286274 0.579228 0.198004
O O3 0.131829 0.630343 0.284446
O O4 0.128257 0.563615 0.000000
O O5 0.371628 0.812178 0.719207
O O6 0.203974 0.857195 0.797780
O O7 0.342321 0.936852 0.712546
O O8 0.360526 0.875605 0.000000
O O9 0.615753 0.592063 0.500000
O O10 0.500000 0.593234 0.217520
O O11 0.599848 0.500000 0.299592
O O12 0.500000 0.724148 0.723432
O O13 0.706657 0.705201 0.724834
O O14 0.612479 0.743583 0.000000
O O15 0.114061 0.160823 0.500000
O O16 0.121408 0.246012 0.268575
O O17 0.000000 0.156518 0.220155
O O18 0.823711 0.309533 0.000000
O O19 0.500000 0.000000 0.220268
O O20 0.349192 0.000000 0.000000
#
# Coordination Sequence:
#
# PCOD9387551 Si02
#       7
#     8   8   8   8   8   8   4
#     4   9  17  28  42  63  92 122 152 192 246 308
#     4   9  17  30  51  79 108 140 176 209 244 288
#     4   8  14  24  36  51  76 114 157 193 225 269
#     4   8  13  23  41  65  94 128 165 202 237 276
#     4  10  21  37  56  75  96 126 166 215 267 309
#     4   9  18  31  49  73  96 123 162 205 251 306
#     4   9  16  28  52  87 122 152 181 209 236 275
#
# _framework density 23.395447999999998
#
# number of rings (size 3 to 8) (size 9 to 14) (size 15 to 20)
#    0.000    3.154    0.000    2.308    0.000    4.615 
#    0.000    3.846    0.000   14.769    0.000    3.231 
#    0.000    0.000    0.000    0.000    0.000    0.000 
#
# Total GULP energy -289939.682276 kJ/mol
# GULP energy per Si atom -5575.763121 kJ/mol
# Density = 2.334220 g / cm^3
# Si number density = 23.395448 Si / 1000 Ang^3
#
#
#
# Elastic Constant Matrix: (Units=GPa)
#
#
# Indices 1 2 3 4 5 6 
#
# 1 72.3745 8.2551 -3.5369 0.0000 0.0000 0.0000
# 2 8.2551 182.0392 0.8418 0.0000 0.0000 0.0000
# 3 -3.5369 0.8418 73.3617 0.0000 0.0000 0.0000
# 4 0.0000 0.0000 0.0000 -71.9277 0.0000 0.0000
# 5 0.0000 0.0000 0.0000 0.0000 11.3274 0.0000
# 6 0.0000 0.0000 0.0000 0.0000 0.0000 -10.8828
#
#
#
# Elastic Compliance Matrix: (Units=1/GPa)
#
#
# Indices 1 2 3 4 5 6 
#
# 1 0.013923 -0.000634 0.000679 0.000000 0.000000 0.000000
# 2 -0.000634 0.005523 -0.000094 0.000000 0.000000 0.000000
# 3 0.000679 -0.000094 0.013665 0.000000 0.000000 0.000000
# 4 0.000000 0.000000 0.000000 -0.013903 0.000000 0.000000
# 5 0.000000 0.000000 0.000000 0.000000 0.088281 0.000000
# 6 0.000000 0.000000 0.000000 0.000000 0.000000 -0.091888
#
#
# Mechanical properties :
#
#
# Convention : Reuss Voigt Hill
#
# Bulk Modulus (GPa) = 30.29377 37.65503 33.97440
# Shear Modulus (GPa) = 187.24190 7.18441 97.21315
#
# Velocity S-wave (km/s) = 8.95585 1.75429 6.45309
# Velocity P-wave (km/s) = 10.95078 4.49815 8.37117
#
# Compressibility (1/GPa) = 0.03301009
#
# Stress axis : x y z
#
# Youngs Moduli (GPa) = 71.82590 181.07638 73.18029
#
# Poissons Ratio (x) = 0.11489 -0.04965
# Poissons Ratio (y) = 0.04557 0.00688
# Poissons Ratio (z) = -0.04874 0.01701
#
# Static dielectric constant tensor:
#      x y z
#    x 2.088470 0.000000 0.000000 
#    y 0.000000 1.918450 0.000000 
#    z 0.000000 0.000000 1.890020 
# 
# From -- ./inp_files/7583.got.cif
#   From: 2010.05.17/outbox.cif.g08.bks.cpg/sg47_4_cif.got.tgz:7583.got - 2010.06.03 20:15:42.
