data_PCOD9387680
_publ_section_title
;
Structure prediction by ZEFSAII (Michael W. Deem and Ramdas Pophale) SiO2 
 PCOD9387680
Probable space group: P M M M
;
_chemical_formula_sum "Si O2"
_cell_formula_units_Z 40
_cell_length_a 8.245190
_cell_length_b 9.366013
_cell_length_c 26.655200
_cell_angle_alpha 90.000000
_cell_angle_beta 90.000000
_cell_angle_gamma 90.000000
_cell_volume 2058.436004
_symmetry_space_group_name_H-M "P M M M"
_symmetry_group_IT_number 47
_symmetry_cell_setting 'orthorhombic'
loop_
_space_group_symop_operation_xyz
x,y,z
-x,-y,z
x,-y,-z
-x,y,-z
-x,-y,-z
x,y,-z
-x,y,z
x,-y,z
loop_
_atom_site_type_symbol
_atom_site_label
_atom_site_fract_x
_atom_site_fract_y
_atom_site_fract_z
Si Si1 0.301410 0.836196 0.000000
Si Si2 0.304297 0.335481 0.097780
Si Si3 0.804457 0.335277 0.207177
Si Si4 0.305805 0.663935 0.597770
Si Si5 0.803763 0.836346 0.695349
Si Si6 0.194199 0.835965 0.500000
O O1 0.247793 0.756025 0.949559
O O2 0.500000 0.833203 0.000000
O O3 0.250330 0.000000 0.000000
O O4 0.500000 0.335542 0.097211
O O5 0.249270 0.500000 0.092557
O O6 0.248945 0.283305 0.152347
O O7 0.747945 0.500000 0.213038
O O8 0.747245 0.238594 0.253249
O O9 0.000000 0.337024 0.208285
O O10 0.500000 0.660343 0.597745
O O11 0.245739 0.500000 0.596229
O O12 0.248188 0.743672 0.647760
O O13 0.249919 0.751753 0.549273
O O14 0.000000 0.838624 0.696345
O O15 0.747080 0.000000 0.691341
O O16 0.000000 0.840447 0.500000
O O17 0.254487 0.000000 0.500000
#
# Coordination Sequence:
#
# PCOD9387680 Si02
#       6
#     4   8   8   8   8   4
#     4   9  17  29  46  69  96 126 162 205 254 308
#     4   9  17  30  49  71  95 126 166 210 254 304
#     4   9  18  33  52  74 102 136 172 212 260 312
#     4  11  24  40  59  85 115 146 183 226 269 314
#     4  10  21  37  57  81 109 143 182 221 265 320
#     4  11  24  41  62  88 116 147 184 223 266 320
#
# _framework density 19.432230000000001
#
# number of rings (size 3 to 8) (size 9 to 14) (size 15 to 20)
#    0.000    2.200    0.000    2.700    0.000   10.000 
#    0.000    2.500    0.000    3.000    0.000    0.000 
#    0.000    0.000    0.000    0.000    0.000    0.000 
#
# Total GULP energy -223386.465264 kJ/mol
# GULP energy per Si atom -5584.661632 kJ/mol
# Density = 1.938800 g / cm^3
# Si number density = 19.432230 Si / 1000 Ang^3
#
#
#
# Elastic Constant Matrix: (Units=GPa)
#
#
# Indices 1 2 3 4 5 6 
#
# 1 11.0037 19.2163 16.5585 0.0000 0.0000 0.0000
# 2 19.2163 167.9955 132.8268 0.0000 0.0000 0.0000
# 3 16.5585 132.8268 230.2673 0.0000 0.0000 0.0000
# 4 0.0000 0.0000 0.0000 -40.7746 0.0000 0.0000
# 5 0.0000 0.0000 0.0000 0.0000 33.3897 0.0000
# 6 0.0000 0.0000 0.0000 0.0000 0.0000 18.4777
#
#
#
# Elastic Compliance Matrix: (Units=1/GPa)
#
#
# Indices 1 2 3 4 5 6 
#
# 1 0.113755 -0.012032 -0.001240 0.000000 0.000000 0.000000
# 2 -0.012032 0.012216 -0.006182 0.000000 0.000000 0.000000
# 3 -0.001240 -0.006182 0.007998 0.000000 0.000000 0.000000
# 4 0.000000 0.000000 0.000000 -0.024525 0.000000 0.000000
# 5 0.000000 0.000000 0.000000 0.000000 0.029949 0.000000
# 6 0.000000 0.000000 0.000000 0.000000 0.000000 0.054119
#
#
# Mechanical properties :
#
#
# Convention : Reuss Voigt Hill
#
# Bulk Modulus (GPa) = 10.51932 82.94107 46.73019
# Shear Modulus (GPa) = 18.93170 18.26289 18.59729
#
# Velocity S-wave (km/s) = 3.12467 3.06898 3.09695
# Velocity P-wave (km/s) = 4.29455 7.43862 6.07356
#
# Compressibility (1/GPa) = 0.09506321
#
# Stress axis : x y z
#
# Youngs Moduli (GPa) = 8.79079 81.85747 125.03540
#
# Poissons Ratio (x) = 0.98489 0.15502
# Poissons Ratio (y) = 0.10577 0.77292
# Poissons Ratio (z) = 0.01090 0.50601
#
# Static dielectric constant tensor:
#      x y z
#    x 1.682030 0.000000 0.000000 
#    y 0.000000 1.673690 0.000000 
#    z 0.000000 0.000000 1.644980 
# 
# From -- ./inp_files/33085.got.cif
#   From: 2010.05.17/outbox.cif.g08.bks.cpg/sg47_17_cif.got.tgz:33085.got - 2010.06.03 20:15:42.
