data_PCOD9387560
_publ_section_title
;
Structure prediction by ZEFSAII (Michael W. Deem and Ramdas Pophale) SiO2 
 PCOD9387560
Probable space group: P M M M
;
_chemical_formula_sum "Si O2"
_cell_formula_units_Z 56
_cell_length_a 7.401403
_cell_length_b 21.080812
_cell_length_c 16.065078
_cell_angle_alpha 90.000000
_cell_angle_beta 90.000000
_cell_angle_gamma 90.000000
_cell_volume 2506.595326
_symmetry_space_group_name_H-M "P M M M"
_symmetry_group_IT_number 47
_symmetry_cell_setting 'orthorhombic'
loop_
_space_group_symop_operation_xyz
x,y,z
-x,-y,z
x,-y,-z
-x,y,-z
-x,-y,-z
x,y,-z
-x,y,z
x,-y,z
loop_
_atom_site_type_symbol
_atom_site_label
_atom_site_fract_x
_atom_site_fract_y
_atom_site_fract_z
Si Si1 0.219844 0.104179 0.589055
Si Si2 0.210658 0.569983 0.773563
Si Si3 0.706291 0.386099 0.590114
Si Si4 0.779068 0.328930 0.092362
Si Si5 0.782385 0.244942 0.365509
Si Si6 0.779294 0.931207 0.226001
Si Si7 0.219282 0.205829 0.821018
O O1 0.279694 0.077585 0.500000
O O2 0.269312 0.178596 0.592873
O O3 0.276946 0.074826 0.676835
O O4 0.000000 0.100731 0.590034
O O5 0.290510 0.500000 0.784709
O O6 0.215516 0.588720 0.676439
O O7 0.284803 0.624146 0.834587
O O8 0.000000 0.565973 0.795802
O O9 0.787345 0.403638 0.500000
O O10 0.500000 0.407975 0.589705
O O11 0.709522 0.309641 0.597445
O O12 0.721059 0.256765 0.111403
O O13 0.000000 0.327991 0.094681
O O14 0.725154 0.349275 0.000000
O O15 0.734105 0.236062 0.268697
O O16 0.000000 0.249688 0.370791
O O17 0.718849 0.867155 0.179663
O O18 0.000000 0.930110 0.225585
O O19 0.722621 0.000000 0.193451
O O20 0.000000 0.203190 0.823703
#
# Coordination Sequence:
#
# PCOD9387560 Si02
#       7
#     8   8   8   8   8   8   8
#     4   8  13  19  30  52  79 110 153 203 248 284
#     4  10  21  37  56  77 100 127 162 202 242 288
#     4  11  23  35  49  72 102 135 168 202 243 287
#     4   9  16  28  50  78 101 120 151 200 252 296
#     4   9  15  27  47  67  90 123 165 208 246 287
#     4   8  13  19  28  47  81 125 162 191 230 280
#     4   8  13  23  41  64  90 120 156 197 240 285
#
# _framework density 22.341062000000001
#
# number of rings (size 3 to 8) (size 9 to 14) (size 15 to 20)
#    0.000    3.000    1.429    2.571    0.000    2.857 
#    0.000    4.286    0.000    0.857    0.000    4.000 
#    0.000    9.143    0.000   31.429    0.000   32.000 
#
# Total GULP energy -312376.333952 kJ/mol
# GULP energy per Si atom -5578.148821 kJ/mol
# Density = 2.229021 g / cm^3
# Si number density = 22.341062 Si / 1000 Ang^3
#
#
#
# Elastic Constant Matrix: (Units=GPa)
#
#
# Indices 1 2 3 4 5 6 
#
# 1 69.5299 1.9016 1.4627 0.0000 0.0000 0.0000
# 2 1.9016 155.6574 65.8728 0.0000 0.0000 0.0000
# 3 1.4627 65.8728 107.9502 0.0000 0.0000 0.0000
# 4 0.0000 0.0000 0.0000 -7.9444 0.0000 0.0000
# 5 0.0000 0.0000 0.0000 0.0000 24.2098 0.0000
# 6 0.0000 0.0000 0.0000 0.0000 0.0000 -117.1522
#
#
#
# Elastic Compliance Matrix: (Units=1/GPa)
#
#
# Indices 1 2 3 4 5 6 
#
# 1 0.014388 -0.000126 -0.000118 0.000000 0.000000 0.000000
# 2 -0.000126 0.008662 -0.005284 0.000000 0.000000 0.000000
# 3 -0.000118 -0.005284 0.012490 0.000000 0.000000 0.000000
# 4 0.000000 0.000000 0.000000 -0.125876 0.000000 0.000000
# 5 0.000000 0.000000 0.000000 0.000000 0.041306 0.000000
# 6 0.000000 0.000000 0.000000 0.000000 0.000000 -0.008536
#
#
# Mechanical properties :
#
#
# Convention : Reuss Voigt Hill
#
# Bulk Modulus (GPa) = 40.84330 52.40131 46.62231
# Shear Modulus (GPa) = -130.38183 -2.58399 -66.48291
#
# Velocity S-wave (km/s) = -7.64764 -1.07662 -5.46102
# Velocity P-wave (km/s) = 7.72402 4.68621 4.34165
#
# Compressibility (1/GPa) = 0.02448382
#
# Stress axis : x y z
#
# Youngs Moduli (GPa) = 69.50130 115.44611 80.06713
#
# Poissons Ratio (x) = 0.01452 0.00947
# Poissons Ratio (y) = 0.00874 0.42308
# Poissons Ratio (z) = 0.00822 0.61002
#
# Static dielectric constant tensor:
#      x y z
#    x 1.858920 0.000000 0.000000 
#    y 0.000000 1.825980 0.000000 
#    z 0.000000 0.000000 1.802460 
# 
# From -- ./inp_files/21561.got.cif
#   From: 2010.05.17/outbox.cif.g08.bks.cpg/sg47_11_cif.got.tgz:21561.got - 2010.06.03 20:15:42.
