data_PCOD9387068
_publ_section_title
;
Structure prediction by ZEFSAII (Michael W. Deem and Ramdas Pophale) SiO2 
 PCOD9387068
Probable space group: P M M M
;
_chemical_formula_sum "Si O2"
_cell_formula_units_Z 52
_cell_length_a 21.680634
_cell_length_b 7.360479
_cell_length_c 13.683396
_cell_angle_alpha 90.000000
_cell_angle_beta 90.000000
_cell_angle_gamma 90.000000
_cell_volume 2183.594298
_symmetry_space_group_name_H-M "P M M M"
_symmetry_group_IT_number 47
_symmetry_cell_setting 'orthorhombic'
loop_
_space_group_symop_operation_xyz
x,y,z
-x,-y,z
x,-y,-z
-x,y,-z
-x,-y,-z
x,y,-z
-x,y,z
x,-y,z
loop_
_atom_site_type_symbol
_atom_site_label
_atom_site_fract_x
_atom_site_fract_y
_atom_site_fract_z
Si Si1 0.393335 0.780217 0.393241
Si Si2 0.000000 0.792415 0.384731
Si Si3 0.299179 0.792246 0.106772
Si Si4 0.929162 0.220292 0.890539
Si Si5 0.738196 0.222139 0.681138
Si Si6 0.871601 0.221664 0.694663
Si Si7 0.432936 0.289056 0.175074
O O1 0.416417 0.720487 0.500000
O O2 0.321558 0.724316 0.380395
O O3 0.425812 0.721311 0.293156
O O4 0.396153 0.000000 0.392200
O O5 0.065201 0.712263 0.353380
O O6 0.000000 0.802524 0.500000
O O7 0.000000 0.000000 0.343492
O O8 0.272234 0.714348 0.207019
O O9 0.372795 0.796279 0.126487
O O10 0.276504 0.000000 0.103434
O O11 0.286865 0.711142 0.000000
O O12 0.880720 0.272580 0.808145
O O13 0.000000 0.274535 0.865770
O O14 0.929606 0.000000 0.892231
O O15 0.915330 0.282658 0.000000
O O16 0.806462 0.280543 0.651036
O O17 0.736865 0.000000 0.681252
O O18 0.871119 0.000000 0.687769
O O19 0.500000 0.214193 0.148199
O O20 0.431207 0.500000 0.147295
#
# Coordination Sequence:
#
# PCOD9387068 Si02
#       7
#     8   4   8   8   8   8   8
#     4   9  18  33  51  70  94 126 164 203 243 288
#     4   9  16  22  27  41  69 105 145 188 232 278
#     4   9  18  33  51  71  97 129 164 199 235 279
#     4   8  12  17  25  38  59  89 126 169 216 264
#     4   8  15  26  41  60  82 113 156 202 239 276
#     4   9  14  21  32  47  71 104 144 189 233 274
#     4  10  21  35  51  74 102 128 156 193 237 285
#
# _framework density 23.813949000000001
#
# number of rings (size 3 to 8) (size 9 to 14) (size 15 to 20)
#    0.000    3.154    0.769    1.846    0.000    3.692 
#    0.000    9.231    0.000    0.000    0.000    0.000 
#    0.000    0.000    0.000   11.077    0.000   42.462 
#
# Total GULP energy -290138.337656 kJ/mol
# GULP energy per Si atom -5579.583416 kJ/mol
# Density = 2.375975 g / cm^3
# Si number density = 23.813949 Si / 1000 Ang^3
#
#
#
# Elastic Constant Matrix: (Units=GPa)
#
#
# Indices 1 2 3 4 5 6 
#
# 1 95.6386 -6.9901 -18.4121 0.0000 0.0000 0.0000
# 2 -6.9901 86.8413 -5.3812 0.0000 0.0000 0.0000
# 3 -18.4121 -5.3812 52.0580 0.0000 0.0000 0.0000
# 4 0.0000 0.0000 0.0000 -154.6724 0.0000 0.0000
# 5 0.0000 0.0000 0.0000 0.0000 -0.9965 0.0000
# 6 0.0000 0.0000 0.0000 0.0000 0.0000 8.8292
#
#
#
# Elastic Compliance Matrix: (Units=1/GPa)
#
#
# Indices 1 2 3 4 5 6 
#
# 1 0.011337 0.001168 0.004130 0.000000 0.000000 0.000000
# 2 0.001168 0.011710 0.001624 0.000000 0.000000 0.000000
# 3 0.004130 0.001624 0.020838 0.000000 0.000000 0.000000
# 4 0.000000 0.000000 0.000000 -0.006465 0.000000 0.000000
# 5 0.000000 0.000000 0.000000 0.000000 -1.003494 0.000000
# 6 0.000000 0.000000 0.000000 0.000000 0.000000 0.113260
#
#
# Mechanical properties :
#
#
# Convention : Reuss Voigt Hill
#
# Bulk Modulus (GPa) = 17.32211 19.21899 18.27055
# Shear Modulus (GPa) = -5.90029 -11.67985 -8.79007
#
# Velocity S-wave (km/s) = -1.57577 -2.21704 -1.92332
# Velocity P-wave (km/s) = 1.99474 1.23867 1.66032
#
# Compressibility (1/GPa) = 0.05772968
#
# Stress axis : x y z
#
# Youngs Moduli (GPa) = 88.20987 85.39760 47.98913
#
# Poissons Ratio (x) = -0.09978 -0.19821
# Poissons Ratio (y) = -0.10307 -0.07792
# Poissons Ratio (z) = -0.36434 -0.13866
#
# Static dielectric constant tensor:
#      x y z
#    x 1.896940 0.000000 0.000000 
#    y 0.000000 1.997370 0.000000 
#    z 0.000000 0.000000 1.887770 
# 
# From -- ./inp_files/25449.got.cif
#   From: 2010.05.17/outbox.cif.g08.bks.cpg/sg47_13_cif.got.tgz:25449.got - 2010.06.03 20:15:42.
