data_PCOD9387725
_publ_section_title
;
Structure prediction by ZEFSAII (Michael W. Deem and Ramdas Pophale) SiO2 
 PCOD9387725
Probable space group: P M M M
;
_chemical_formula_sum "Si O2"
_cell_formula_units_Z 36
_cell_length_a 20.798122
_cell_length_b 10.682972
_cell_length_c 8.576840
_cell_angle_alpha 90.000000
_cell_angle_beta 90.000000
_cell_angle_gamma 90.000000
_cell_volume 1905.651671
_symmetry_space_group_name_H-M "P M M M"
_symmetry_group_IT_number 47
_symmetry_cell_setting 'orthorhombic'
loop_
_space_group_symop_operation_xyz
x,y,z
-x,-y,z
x,-y,-z
-x,y,-z
-x,-y,-z
x,y,-z
-x,y,z
x,-y,z
loop_
_atom_site_type_symbol
_atom_site_label
_atom_site_fract_x
_atom_site_fract_y
_atom_site_fract_z
Si Si1 0.710523 0.144246 0.188736
Si Si2 0.201362 0.636643 0.314583
Si Si3 0.922455 0.000000 0.323093
Si Si4 0.430984 0.848384 0.816859
Si Si5 0.925583 0.268109 0.185619
O O1 0.761470 0.246590 0.241124
O O2 0.639150 0.185084 0.247299
O O3 0.723787 0.000000 0.239074
O O4 0.708474 0.141594 0.000000
O O5 0.207405 0.644419 0.500000
O O6 0.225869 0.500000 0.261923
O O7 0.126619 0.646996 0.268624
O O8 0.906641 0.873954 0.231789
O O9 0.896555 0.000000 0.500000
O O10 0.000000 0.000000 0.333902
O O11 0.500000 0.806444 0.748483
O O12 0.431114 0.000000 0.813035
O O13 0.431424 0.812711 0.000000
O O14 0.000000 0.288811 0.233030
O O15 0.921864 0.283284 0.000000
#
# Coordination Sequence:
#
# PCOD9387725 Si02
#       5
#     8   8   4   8   8
#     4   9  18  33  56  85 112 140 177 222 271 323
#     4  11  25  41  55  74 105 147 188 226 273 328
#     4   9  17  31  53  81 111 139 166 203 256 315
#     4   7  10  20  43  77 112 139 166 208 263 318
#     4  10  21  37  58  82 106 134 173 223 276 327
#
# _framework density 18.891176999999999
#
# number of rings (size 3 to 8) (size 9 to 14) (size 15 to 20)
#    0.000    2.778    0.000    3.667    1.556    5.333 
#    0.000    2.222    0.000    1.333    0.000    7.778 
#    0.000    0.000    0.000    0.000    0.000    0.000 
#
# Total GULP energy -200533.950875 kJ/mol
# GULP energy per Si atom -5570.387524 kJ/mol
# Density = 1.884818 g / cm^3
# Si number density = 18.891177 Si / 1000 Ang^3
#
#
#
# Elastic Constant Matrix: (Units=GPa)
#
#
# Indices 1 2 3 4 5 6 
#
# 1 116.5432 57.2434 14.2864 0.0000 0.0000 0.0000
# 2 57.2434 93.2657 16.0406 0.0000 0.0000 0.0000
# 3 14.2864 16.0406 17.2041 0.0000 0.0000 0.0000
# 4 0.0000 0.0000 0.0000 19.0907 0.0000 0.0000
# 5 0.0000 0.0000 0.0000 0.0000 -3.0321 0.0000
# 6 0.0000 0.0000 0.0000 0.0000 0.0000 4.2147
#
#
#
# Elastic Compliance Matrix: (Units=1/GPa)
#
#
# Indices 1 2 3 4 5 6 
#
# 1 0.012493 -0.007007 -0.003841 0.000000 0.000000 0.000000
# 2 -0.007007 0.016700 -0.009752 0.000000 0.000000 0.000000
# 3 -0.003841 -0.009752 0.070407 0.000000 0.000000 0.000000
# 4 0.000000 0.000000 0.000000 0.052382 0.000000 0.000000
# 5 0.000000 0.000000 0.000000 0.000000 -0.329808 0.000000
# 6 0.000000 0.000000 0.000000 0.000000 0.000000 0.237265
#
#
# Mechanical properties :
#
#
# Convention : Reuss Voigt Hill
#
# Bulk Modulus (GPa) = 17.12313 44.68375 30.90344
# Shear Modulus (GPa) = 41.63004 13.35085 27.49045
#
# Velocity S-wave (km/s) = 4.69943 2.66131 3.81885
# Velocity P-wave (km/s) = 6.20725 5.75743 5.98657
#
# Compressibility (1/GPa) = 0.05840055
#
# Stress axis : x y z
#
# Youngs Moduli (GPa) = 80.04372 59.87995 14.20306
#
# Poissons Ratio (x) = 0.41960 0.05455
# Poissons Ratio (y) = 0.56089 0.13850
# Poissons Ratio (z) = 0.30745 0.58393
#
# Static dielectric constant tensor:
#      x y z
#    x 1.722050 0.000000 0.000000 
#    y 0.000000 2.261280 0.000000 
#    z 0.000000 0.000000 1.645000 
# 
# From -- ./inp_files/10387.got.cif
#   From: 2010.05.17/outbox.cif.g08.bks.cpg/sg47_6_cif.got.tgz:10387.got - 2010.06.03 20:15:42.
