data_PCOD9387585
_publ_section_title
;
Structure prediction by ZEFSAII (Michael W. Deem and Ramdas Pophale) SiO2 
 PCOD9387585
Probable space group: P M M M
;
_chemical_formula_sum "Si O2"
_cell_formula_units_Z 48
_cell_length_a 34.406716
_cell_length_b 7.949475
_cell_length_c 8.682711
_cell_angle_alpha 90.000000
_cell_angle_beta 90.000000
_cell_angle_gamma 90.000000
_cell_volume 2374.854553
_symmetry_space_group_name_H-M "P M M M"
_symmetry_group_IT_number 47
_symmetry_cell_setting 'orthorhombic'
loop_
_space_group_symop_operation_xyz
x,y,z
-x,-y,z
x,-y,-z
-x,y,-z
-x,-y,-z
x,y,-z
-x,y,z
x,-y,z
loop_
_atom_site_type_symbol
_atom_site_label
_atom_site_fract_x
_atom_site_fract_y
_atom_site_fract_z
Si Si1 0.168084 0.695850 0.674469
Si Si2 0.594379 0.695149 0.182337
Si Si3 0.544816 0.000000 0.315805
Si Si4 0.954046 0.796681 0.000000
Si Si5 0.674927 0.701899 0.671950
Si Si6 0.917804 0.195393 0.322595
Si Si7 0.753637 0.199249 0.829375
O O1 0.180318 0.737952 0.500000
O O2 0.157262 0.500000 0.680972
O O3 0.128542 0.794661 0.706294
O O4 0.205365 0.725794 0.778232
O O5 0.588953 0.500000 0.236681
O O6 0.638882 0.746628 0.219632
O O7 0.566396 0.832159 0.257552
O O8 0.588505 0.696454 0.000000
O O9 0.500000 0.000000 0.263695
O O10 0.545726 0.000000 0.500000
O O11 0.937109 0.732890 0.834694
O O12 0.000000 0.768000 0.000000
O O13 0.946857 0.000000 0.000000
O O14 0.665823 0.761976 0.500000
O O15 0.677013 0.500000 0.671096
O O16 0.717093 0.762820 0.722515
O O17 0.924350 0.264290 0.500000
O O18 0.929947 0.000000 0.330727
O O19 0.759130 0.000000 0.832180
O O20 0.743521 0.261207 0.000000
#
# Coordination Sequence:
#
# PCOD9387585 Si02
#       7
#     8   8   4   4   8   8   8
#     4  10  21  37  56  78 106 142 186 235 287 343
#     4  10  22  41  66  94 126 165 207 257 315 374
#     4  11  25  43  65  95 129 167 211 259 313 377
#     4   9  18  32  53  83 113 141 181 233 285 343
#     4  10  21  38  60  85 115 153 197 243 294 354
#     4   9  18  33  54  79 109 145 183 229 284 342
#     4  11  24  37  52  79 114 151 191 238 288 341
#
# _framework density 20.211765
#
# number of rings (size 3 to 8) (size 9 to 14) (size 15 to 20)
#    0.000    2.000    0.000    2.750    2.333    7.667 
#    0.000    3.333    0.000    1.000    0.000    2.333 
#    0.000    0.000    0.000    0.000    0.000    0.000 
#
# Total GULP energy -267761.875272 kJ/mol
# GULP energy per Si atom -5578.372402 kJ/mol
# Density = 2.016576 g / cm^3
# Si number density = 20.211765 Si / 1000 Ang^3
#
#
#
# Elastic Constant Matrix: (Units=GPa)
#
#
# Indices 1 2 3 4 5 6 
#
# 1 75.6657 21.6934 47.2633 0.0000 0.0000 0.0000
# 2 21.6934 42.6604 30.4041 0.0000 0.0000 0.0000
# 3 47.2633 30.4041 93.5628 0.0000 0.0000 0.0000
# 4 0.0000 0.0000 0.0000 19.1584 0.0000 0.0000
# 5 0.0000 0.0000 0.0000 0.0000 43.1353 0.0000
# 6 0.0000 0.0000 0.0000 0.0000 0.0000 87.8416
#
#
#
# Elastic Compliance Matrix: (Units=1/GPa)
#
#
# Indices 1 2 3 4 5 6 
#
# 1 0.019776 -0.003822 -0.008748 0.000000 0.000000 0.000000
# 2 -0.003822 0.031245 -0.008223 0.000000 0.000000 0.000000
# 3 -0.008748 -0.008223 0.017779 0.000000 0.000000 0.000000
# 4 0.000000 0.000000 0.000000 0.052196 0.000000 0.000000
# 5 0.000000 0.000000 0.000000 0.000000 0.023183 0.000000
# 6 0.000000 0.000000 0.000000 0.000000 0.000000 0.011384
#
#
# Mechanical properties :
#
#
# Convention : Reuss Voigt Hill
#
# Bulk Modulus (GPa) = 36.74444 45.62340 41.18392
# Shear Modulus (GPa) = 24.24601 37.52893 30.88747
#
# Velocity S-wave (km/s) = 3.46728 4.31372 3.91345
# Velocity P-wave (km/s) = 5.85223 6.88713 6.39066
#
# Compressibility (1/GPa) = 0.02721500
#
# Stress axis : x y z
#
# Youngs Moduli (GPa) = 50.56645 32.00550 56.24591
#
# Poissons Ratio (x) = 0.12232 0.49204
# Poissons Ratio (y) = 0.19325 0.46249
# Poissons Ratio (z) = 0.44235 0.26317
#
# Static dielectric constant tensor:
#      x y z
#    x 1.677480 0.000000 0.000000 
#    y 0.000000 1.740260 0.000000 
#    z 0.000000 0.000000 1.754390 
# 
# From -- ./inp_files/13883.got.cif
#   From: 2010.05.17/outbox.cif.g08.bks.cpg/sg47_7_cif.got.tgz:13883.got - 2010.06.03 20:15:42.
