data_PCOD9387698
_publ_section_title
;
Structure prediction by ZEFSAII (Michael W. Deem and Ramdas Pophale) SiO2 
 PCOD9387698
Probable space group: P M M M
;
_chemical_formula_sum "Si O2"
_cell_formula_units_Z 40
_cell_length_a 8.192862
_cell_length_b 28.065706
_cell_length_c 9.189034
_cell_angle_alpha 90.000000
_cell_angle_beta 90.000000
_cell_angle_gamma 90.000000
_cell_volume 2112.912292
_symmetry_space_group_name_H-M "P M M M"
_symmetry_group_IT_number 47
_symmetry_cell_setting 'orthorhombic'
loop_
_space_group_symop_operation_xyz
x,y,z
-x,-y,z
x,-y,-z
-x,y,-z
-x,-y,-z
x,y,-z
-x,y,z
x,-y,z
loop_
_atom_site_type_symbol
_atom_site_label
_atom_site_fract_x
_atom_site_fract_y
_atom_site_fract_z
Si Si1 0.500000 0.054580 0.323070
Si Si2 0.196047 0.218613 0.166924
Si Si3 0.809623 0.881114 0.324442
Si Si4 0.305640 0.312611 0.334363
Si Si5 0.194497 0.593698 0.165064
Si Si6 0.305436 0.500000 0.335196
O O1 0.500000 0.053961 0.500000
O O2 0.332520 0.081789 0.281021
O O3 0.500000 0.000000 0.272150
O O4 0.230478 0.169240 0.249388
O O5 0.263718 0.263875 0.252304
O O6 0.000000 0.223444 0.164137
O O7 0.254767 0.217408 0.000000
O O8 0.803515 0.875938 0.500000
O O9 0.000000 0.893843 0.288017
O O10 0.241571 0.311580 0.500000
O O11 0.500000 0.317251 0.340402
O O12 0.239950 0.358065 0.248027
O O13 0.253636 0.547365 0.250773
O O14 0.000000 0.591070 0.157452
O O15 0.260333 0.594287 0.000000
O O16 0.500000 0.500000 0.343380
O O17 0.238790 0.500000 0.500000
#
# Coordination Sequence:
#
# PCOD9387698 Si02
#       6
#     4   8   8   8   8   4
#     4   9  18  32  53  83 115 147 191 244 291 342
#     4  10  21  37  57  82 112 147 188 234 285 342
#     4   9  18  33  54  80 112 150 191 238 292 346
#     4  11  24  39  57  84 116 149 187 232 282 338
#     4  11  24  41  61  86 115 148 189 234 281 337
#     4  11  24  41  62  88 116 147 188 235 282 336
#
# _framework density 18.931217
#
# number of rings (size 3 to 8) (size 9 to 14) (size 15 to 20)
#    0.000    1.800    0.000    3.600    1.400   11.600 
#    0.000    2.000    0.000    1.200    0.000    2.800 
#    0.000    0.000    0.000    0.000    0.000    0.000 
#
# Total GULP energy -223400.038365 kJ/mol
# GULP energy per Si atom -5585.000959 kJ/mol
# Density = 1.888813 g / cm^3
# Si number density = 18.931217 Si / 1000 Ang^3
#
#
#
# Elastic Constant Matrix: (Units=GPa)
#
#
# Indices 1 2 3 4 5 6 
#
# 1 78.6603 79.2969 46.6188 0.0000 0.0000 0.0000
# 2 79.2969 169.9817 82.2825 0.0000 0.0000 0.0000
# 3 46.6188 82.2825 125.9838 0.0000 0.0000 0.0000
# 4 0.0000 0.0000 0.0000 -138.3992 0.0000 0.0000
# 5 0.0000 0.0000 0.0000 0.0000 21.6017 0.0000
# 6 0.0000 0.0000 0.0000 0.0000 0.0000 42.0776
#
#
#
# Elastic Compliance Matrix: (Units=1/GPa)
#
#
# Indices 1 2 3 4 5 6 
#
# 1 0.024461 -0.010280 -0.002338 0.000000 0.000000 0.000000
# 2 -0.010280 0.012923 -0.004636 0.000000 0.000000 0.000000
# 3 -0.002338 -0.004636 0.011831 0.000000 0.000000 0.000000
# 4 0.000000 0.000000 0.000000 -0.007225 0.000000 0.000000
# 5 0.000000 0.000000 0.000000 0.000000 0.046293 0.000000
# 6 0.000000 0.000000 0.000000 0.000000 0.000000 0.023766
#
#
# Mechanical properties :
#
#
# Convention : Reuss Voigt Hill
#
# Bulk Modulus (GPa) = 67.99341 87.89137 77.94239
# Shear Modulus (GPa) = 33.01274 -3.84879 14.58197
#
# Velocity S-wave (km/s) = 4.18044 -1.42739 2.77837
# Velocity P-wave (km/s) = 7.70036 6.61898 7.18005
#
# Compressibility (1/GPa) = 0.01470731
#
# Stress axis : x y z
#
# Youngs Moduli (GPa) = 40.88123 77.38353 84.52654
#
# Poissons Ratio (x) = 0.79547 0.19760
# Poissons Ratio (y) = 0.42024 0.39188
# Poissons Ratio (z) = 0.09557 0.35877
#
# Static dielectric constant tensor:
#      x y z
#    x 1.662390 0.000000 0.000000 
#    y 0.000000 1.576000 0.000000 
#    z 0.000000 0.000000 1.664980 
# 
# From -- ./inp_files/1873.got.cif
#   From: 2010.05.17/outbox.cif.g08.bks.cpg/sg47_1_cif.got.tgz:1873.got - 2010.06.03 20:15:42.
