data_PCOD9387861
_publ_section_title
;
Structure prediction by ZEFSAII (Michael W. Deem and Ramdas Pophale) SiO2 
 PCOD9387861
Probable space group: P M M M
;
_chemical_formula_sum "Si O2"
_cell_formula_units_Z 48
_cell_length_a 7.834234
_cell_length_b 9.425754
_cell_length_c 31.781829
_cell_angle_alpha 90.000000
_cell_angle_beta 90.000000
_cell_angle_gamma 90.000000
_cell_volume 2346.883475
_symmetry_space_group_name_H-M "P M M M"
_symmetry_group_IT_number 47
_symmetry_cell_setting 'orthorhombic'
loop_
_space_group_symop_operation_xyz
x,y,z
-x,-y,z
x,-y,-z
-x,y,-z
-x,-y,-z
x,y,-z
-x,y,z
x,-y,z
loop_
_atom_site_type_symbol
_atom_site_label
_atom_site_fract_x
_atom_site_fract_y
_atom_site_fract_z
Si Si1 0.706313 0.336420 0.175336
Si Si2 0.705188 0.161603 0.582894
Si Si3 0.797913 0.160619 0.256844
Si Si4 0.708160 0.336170 0.918935
Si Si5 0.703236 0.660476 0.662238
Si Si6 0.203990 0.662163 0.500000
Si Si7 0.290730 0.162644 0.000000
O O1 0.500000 0.337203 0.175483
O O2 0.761436 0.500000 0.182868
O O3 0.764282 0.232943 0.211973
O O4 0.762578 0.293993 0.128195
O O5 0.500000 0.152216 0.586893
O O6 0.772463 0.245056 0.623799
O O7 0.741605 0.251889 0.541300
O O8 0.770708 0.000000 0.580121
O O9 0.728189 0.259399 0.293879
O O10 0.000000 0.153327 0.262986
O O11 0.728085 0.000000 0.258758
O O12 0.500000 0.332276 0.918966
O O13 0.757210 0.500000 0.925488
O O14 0.766838 0.241297 0.957643
O O15 0.500000 0.649152 0.655581
O O16 0.772989 0.500000 0.662954
O O17 0.270678 0.500000 0.500000
O O18 0.000000 0.655299 0.500000
O O19 0.500000 0.166766 0.000000
O O20 0.238317 0.000000 0.000000
#
# Coordination Sequence:
#
# PCOD9387861 Si02
#       7
#     8   8   8   8   8   4   4
#     4   9  18  33  53  76 100 130 172 217 259 307
#     4  10  21  38  61  87 113 143 180 221 267 317
#     4  11  24  38  52  75 107 141 175 212 259 314
#     4   8  14  25  41  62  91 126 161 200 249 302
#     4  10  21  38  61  86 109 137 176 220 265 314
#     4  11  24  39  56  82 116 153 190 225 264 310
#     4   9  15  21  33  59  94 127 160 199 244 296
#
# _framework density 20.452653999999999
#
# number of rings (size 3 to 8) (size 9 to 14) (size 15 to 20)
#    0.000    2.333    0.000    3.750    0.000    9.667 
#    0.000    1.667    0.000    0.000    0.000    0.583 
#    0.000    4.667    0.000    0.000    0.000    0.000 
#
# Total GULP energy -268045.821591 kJ/mol
# GULP energy per Si atom -5584.287950 kJ/mol
# Density = 2.040610 g / cm^3
# Si number density = 20.452654 Si / 1000 Ang^3
#
#
#
# Elastic Constant Matrix: (Units=GPa)
#
#
# Indices 1 2 3 4 5 6 
#
# 1 23.0808 7.5603 -4.8255 0.0000 0.0000 0.0000
# 2 7.5603 196.2528 127.4112 0.0000 0.0000 0.0000
# 3 -4.8255 127.4112 182.9287 0.0000 0.0000 0.0000
# 4 0.0000 0.0000 0.0000 202.9195 0.0000 0.0000
# 5 0.0000 0.0000 0.0000 0.0000 -503.4955 0.0000
# 6 0.0000 0.0000 0.0000 0.0000 0.0000 11.4127
#
#
#
# Elastic Compliance Matrix: (Units=1/GPa)
#
#
# Indices 1 2 3 4 5 6 
#
# 1 0.045779 -0.004650 0.004447 0.000000 0.000000 0.000000
# 2 -0.004650 0.009774 -0.006930 0.000000 0.000000 0.000000
# 3 0.004447 -0.006930 0.010411 0.000000 0.000000 0.000000
# 4 0.000000 0.000000 0.000000 0.004928 0.000000 0.000000
# 5 0.000000 0.000000 0.000000 0.000000 -0.001986 0.000000
# 6 0.000000 0.000000 0.000000 0.000000 0.000000 0.087622
#
#
# Mechanical properties :
#
#
# Convention : Reuss Voigt Hill
#
# Bulk Modulus (GPa) = 19.34395 73.61715 46.48055
# Shear Modulus (GPa) = 26.59187 -39.69158 -6.54985
#
# Velocity S-wave (km/s) = 3.60970 -4.41007 -1.79148
# Velocity P-wave (km/s) = 5.18186 3.18441 4.30071
#
# Compressibility (1/GPa) = 0.05169575
#
# Stress axis : x y z
#
# Youngs Moduli (GPa) = 21.84407 102.31363 96.05338
#
# Poissons Ratio (x) = 0.47580 -0.42712
# Poissons Ratio (y) = 0.10158 0.66567
# Poissons Ratio (z) = -0.09713 0.70906
#
# Static dielectric constant tensor:
#      x y z
#    x 1.745350 0.000000 0.000000 
#    y 0.000000 1.717730 0.000000 
#    z 0.000000 0.000000 1.693300 
# 
# From -- ./inp_files/34078.got.cif
#   From: 2010.05.17/outbox.cif.g08.bks.cpg/sg47_18_cif.got.tgz:34078.got - 2010.06.03 20:15:42.
