data_PCOD9387650
_publ_section_title
;
Structure prediction by ZEFSAII (Michael W. Deem and Ramdas Pophale) SiO2 
 PCOD9387650
Probable space group: P M M M
;
_chemical_formula_sum "Si O2"
_cell_formula_units_Z 37
_cell_length_a 10.469703
_cell_length_b 7.633825
_cell_length_c 23.151515
_cell_angle_alpha 90.000000
_cell_angle_beta 90.000000
_cell_angle_gamma 90.000000
_cell_volume 1850.358918
_symmetry_space_group_name_H-M "P M M M"
_symmetry_group_IT_number 47
_symmetry_cell_setting 'orthorhombic'
loop_
_space_group_symop_operation_xyz
x,y,z
-x,-y,z
x,-y,-z
-x,y,-z
-x,-y,-z
x,y,-z
-x,y,z
x,-y,z
loop_
_atom_site_type_symbol
_atom_site_label
_atom_site_fract_x
_atom_site_fract_y
_atom_site_fract_z
Si Si1 0.643631 0.709939 0.789768
Si Si2 0.142482 0.294299 0.875579
Si Si3 0.766066 0.808122 0.000000
Si Si4 0.854795 0.213913 0.566122
Si Si5 0.500000 0.000000 0.000000
Si Si6 0.644583 0.211136 0.343196
O O1 0.500000 0.779480 0.800642
O O2 0.637338 0.500000 0.797479
O O3 0.750016 0.782158 0.833107
O O4 0.676054 0.744113 0.722981
O O5 0.133533 0.500000 0.861287
O O6 0.190199 0.280936 0.941217
O O7 0.000000 0.219222 0.869499
O O8 0.614866 0.849732 0.000000
O O9 0.829618 0.000000 0.000000
O O10 0.827048 0.266306 0.500000
O O11 0.749608 0.275791 0.611562
O O12 0.000000 0.267930 0.580314
O O13 0.853825 0.000000 0.566941
O O14 0.500000 0.274783 0.354851
O O15 0.642043 0.000000 0.347461
#
# Coordination Sequence:
#
# PCOD9387650 Si02
#       6
#     8   8   4   8   1   8
#     4   9  19  34  51  70  97 133 168 201 242 295
#     4  10  21  37  57  80 105 134 171 212 254 301
#     4  10  22  38  56  78 110 136 166 204 253 299
#     4   8  14  25  42  65  93 123 154 192 239 291
#     4   8  24  40  52  84 112 136 168 208 250 304
#     4   9  17  29  45  69  95 122 157 202 247 284
#
# _framework density 19.996120000000001
#
# number of rings (size 3 to 8) (size 9 to 14) (size 15 to 20)
#    0.324    2.595    0.000    1.297    1.514    3.892 
#    0.000    2.703    0.000    0.649    0.000    4.541 
#    0.000    0.000    0.000    0.000    0.000    0.000 
#
# Total GULP energy -206007.117158 kJ/mol
# GULP energy per Si atom -5567.759923 kJ/mol
# Density = 1.995061 g / cm^3
# Si number density = 19.996120 Si / 1000 Ang^3
#
#
#
# Elastic Constant Matrix: (Units=GPa)
#
#
# Indices 1 2 3 4 5 6 
#
# 1 194.1203 6.4029 144.2094 0.0000 0.0000 0.0000
# 2 6.4029 38.0033 -5.1497 0.0000 0.0000 0.0000
# 3 144.2094 -5.1497 154.9072 0.0000 0.0000 0.0000
# 4 0.0000 0.0000 0.0000 19.4691 0.0000 0.0000
# 5 0.0000 0.0000 0.0000 0.0000 -64.4662 0.0000
# 6 0.0000 0.0000 0.0000 0.0000 0.0000 8.3862
#
#
#
# Elastic Compliance Matrix: (Units=1/GPa)
#
#
# Indices 1 2 3 4 5 6 
#
# 1 0.017682 -0.005233 -0.016634 0.000000 0.000000 0.000000
# 2 -0.005233 0.027981 0.005802 0.000000 0.000000 0.000000
# 3 -0.016634 0.005802 0.022134 0.000000 0.000000 0.000000
# 4 0.000000 0.000000 0.000000 0.051363 0.000000 0.000000
# 5 0.000000 0.000000 0.000000 0.000000 -0.015512 0.000000
# 6 0.000000 0.000000 0.000000 0.000000 0.000000 0.119243
#
#
# Mechanical properties :
#
#
# Convention : Reuss Voigt Hill
#
# Bulk Modulus (GPa) = 28.03813 75.32843 51.68328
# Shear Modulus (GPa) = 18.73281 8.78239 13.75760
#
# Velocity S-wave (km/s) = 3.06408 2.09799 2.62585
# Velocity P-wave (km/s) = 5.15464 6.60470 5.92420
#
# Compressibility (1/GPa) = 0.03566571
#
# Stress axis : x y z
#
# Youngs Moduli (GPa) = 56.55599 35.73805 45.17922
#
# Poissons Ratio (x) = 0.18702 0.75153
# Poissons Ratio (y) = 0.29596 -0.26213
# Poissons Ratio (z) = 0.94078 -0.20735
#
# Static dielectric constant tensor:
#      x y z
#    x 1.724690 0.000000 0.000000 
#    y 0.000000 1.747380 0.000000 
#    z 0.000000 0.000000 1.672140 
# 
# From -- ./inp_files/27290.got.cif
#   From: 2010.05.17/outbox.cif.g08.bks.cpg/sg47_14_cif.got.tgz:27290.got - 2010.06.03 20:15:42.
