data_PCOD9387122
_publ_section_title
;
Structure prediction by ZEFSAII (Michael W. Deem and Ramdas Pophale) SiO2 
 PCOD9387122
Probable space group: P M M M
;
_chemical_formula_sum "Si O2"
_cell_formula_units_Z 53
_cell_length_a 22.021287
_cell_length_b 9.008933
_cell_length_c 15.002207
_cell_angle_alpha 90.000000
_cell_angle_beta 90.000000
_cell_angle_gamma 90.000000
_cell_volume 2976.262330
_symmetry_space_group_name_H-M "P M M M"
_symmetry_group_IT_number 47
_symmetry_cell_setting 'orthorhombic'
loop_
_space_group_symop_operation_xyz
x,y,z
-x,-y,z
x,-y,-z
-x,y,-z
-x,-y,-z
x,y,-z
-x,y,z
x,-y,z
loop_
_atom_site_type_symbol
_atom_site_label
_atom_site_fract_x
_atom_site_fract_y
_atom_site_fract_z
Si Si1 0.123769 0.677837 0.740042
Si Si2 0.359862 0.822900 0.603989
Si Si3 0.000000 0.164048 0.685145
Si Si4 0.430993 0.321186 0.760382
Si Si5 0.324673 0.323426 0.895083
Si Si6 0.000000 0.000000 0.500000
Si Si7 0.196329 0.823634 0.105247
Si Si8 0.768741 0.677038 0.604197
O O1 0.119526 0.500000 0.743113
O O2 0.147918 0.741367 0.833291
O O3 0.175144 0.718422 0.666657
O O4 0.060125 0.748616 0.712633
O O5 0.370183 0.784974 0.500000
O O6 0.408874 0.750143 0.668441
O O7 0.293273 0.760317 0.628385
O O8 0.360395 0.000000 0.612837
O O9 0.000000 0.127053 0.579862
O O10 0.000000 0.000000 0.729255
O O11 0.500000 0.278112 0.782242
O O12 0.429083 0.500000 0.752678
O O13 0.382001 0.278711 0.835590
O O14 0.313895 0.500000 0.881986
O O15 0.263395 0.236964 0.871002
O O16 0.336866 0.299587 0.000000
O O17 0.193599 0.000000 0.119366
O O18 0.187330 0.793511 0.000000
O O19 0.782129 0.708319 0.500000
O O20 0.758405 0.500000 0.613149
#
# Coordination Sequence:
#
# PCOD9387122 Si02
#       8
#     8   8   4   8   8   1   8   8
#     4  11  22  37  59  87 117 150 191 235 279 327
#     4  10  21  36  52  74 102 135 176 224 275 326
#     4  10  23  41  60  84 118 158 195 227 268 322
#     4  10  21  35  52  75 103 138 179 221 270 329
#     4   9  18  34  56  81 110 142 178 224 277 331
#     4   8  24  44  62  84 118 168 202 224 266 328
#     4  10  21  37  58  85 115 149 187 231 282 336
#     4   9  19  34  54  80 109 140 175 220 274 329
#
# _framework density 17.807569000000001
#
# number of rings (size 3 to 8) (size 9 to 14) (size 15 to 20)
#    0.226    1.962    0.000    2.491    1.057    8.151 
#    0.000    3.774    0.000    2.264    0.000    3.170 
#    0.000    0.000    0.000    0.000    0.000    0.000 
#
# Total GULP energy -295602.444046 kJ/mol
# GULP energy per Si atom -5577.404605 kJ/mol
# Density = 1.776704 g / cm^3
# Si number density = 17.807569 Si / 1000 Ang^3
#
#
#
# Elastic Constant Matrix: (Units=GPa)
#
#
# Indices 1 2 3 4 5 6 
#
# 1 124.4895 51.1544 73.1485 0.0000 0.0000 0.0000
# 2 51.1544 44.8428 46.4160 0.0000 0.0000 0.0000
# 3 73.1485 46.4160 83.4891 0.0000 0.0000 0.0000
# 4 0.0000 0.0000 0.0000 25.4189 0.0000 0.0000
# 5 0.0000 0.0000 0.0000 0.0000 6.1353 0.0000
# 6 0.0000 0.0000 0.0000 0.0000 0.0000 -189.8011
#
#
#
# Elastic Compliance Matrix: (Units=1/GPa)
#
#
# Indices 1 2 3 4 5 6 
#
# 1 0.018307 -0.010085 -0.010433 0.000000 0.000000 0.000000
# 2 -0.010085 0.058083 -0.023455 0.000000 0.000000 0.000000
# 3 -0.010433 -0.023455 0.034158 0.000000 0.000000 0.000000
# 4 0.000000 0.000000 0.000000 0.039341 0.000000 0.000000
# 5 0.000000 0.000000 0.000000 0.000000 0.162992 0.000000
# 6 0.000000 0.000000 0.000000 0.000000 0.000000 -0.005269
#
#
# Mechanical properties :
#
#
# Convention : Reuss Voigt Hill
#
# Bulk Modulus (GPa) = 44.24423 66.02881 55.13652
# Shear Modulus (GPa) = 12.40409 -26.17589 -6.88590
#
# Velocity S-wave (km/s) = 2.64211 -3.83813 -1.96856
# Velocity P-wave (km/s) = 5.84870 4.18544 5.08553
#
# Compressibility (1/GPa) = 0.02260182
#
# Stress axis : x y z
#
# Youngs Moduli (GPa) = 54.62368 17.21682 29.27530
#
# Poissons Ratio (x) = 0.17363 0.30543
# Poissons Ratio (y) = 0.55087 0.68667
# Poissons Ratio (z) = 0.56989 0.40383
#
# Static dielectric constant tensor:
#      x y z
#    x 1.580280 0.000000 0.000000 
#    y 0.000000 1.595590 0.000000 
#    z 0.000000 0.000000 1.608670 
# 
# From -- ./inp_files/7120.got.cif
#   From: 2010.05.17/outbox.cif.g08.bks.cpg/sg47_4_cif.got.tgz:7120.got - 2010.06.03 20:15:42.
