data_PCOD9387143
_publ_section_title
;
Structure prediction by ZEFSAII (Michael W. Deem and Ramdas Pophale) SiO2 
 PCOD9387143
Probable space group: P M M M
;
_chemical_formula_sum "Si O2"
_cell_formula_units_Z 64
_cell_length_a 15.465355
_cell_length_b 7.900711
_cell_length_c 24.338499
_cell_angle_alpha 90.000000
_cell_angle_beta 90.000000
_cell_angle_gamma 90.000000
_cell_volume 2973.855488
_symmetry_space_group_name_H-M "P M M M"
_symmetry_group_IT_number 47
_symmetry_cell_setting 'orthorhombic'
loop_
_space_group_symop_operation_xyz
x,y,z
-x,-y,z
x,-y,-z
-x,y,-z
-x,-y,-z
x,y,-z
-x,y,z
x,-y,z
loop_
_atom_site_type_symbol
_atom_site_label
_atom_site_fract_x
_atom_site_fract_y
_atom_site_fract_z
Si Si1 0.598273 0.799822 0.840648
Si Si2 0.402811 0.301570 0.717805
Si Si3 0.277446 0.295007 0.060200
Si Si4 0.098116 0.200893 0.776293
Si Si5 0.590826 0.195228 0.566024
Si Si6 0.780605 0.204029 0.438720
Si Si7 0.904102 0.698668 0.099717
Si Si8 0.221656 0.701597 0.676921
O O1 0.500000 0.751243 0.856088
O O2 0.618162 0.712638 0.782603
O O3 0.663106 0.760012 0.889536
O O4 0.600341 0.000000 0.829917
O O5 0.500000 0.227704 0.710231
O O6 0.408038 0.500000 0.703650
O O7 0.319803 0.227620 0.686054
O O8 0.275258 0.500000 0.061267
O O9 0.179423 0.231010 0.069064
O O10 0.309470 0.241641 0.000000
O O11 0.114326 0.286031 0.835139
O O12 0.165029 0.246058 0.729068
O O13 0.000000 0.246698 0.759486
O O14 0.101513 0.000000 0.785721
O O15 0.585345 0.184994 0.500000
O O16 0.500000 0.274050 0.585623
O O17 0.684137 0.277844 0.572241
O O18 0.593047 0.000000 0.585789
O O19 0.810289 0.259905 0.500000
O O20 0.823398 0.244385 0.380468
O O21 0.774175 0.000000 0.442034
O O22 0.908934 0.500000 0.085612
O O23 0.000000 0.772562 0.089571
O O24 0.227554 0.500000 0.676792
#
# Coordination Sequence:
#
# PCOD9387143 Si02
#       8
#     8   8   8   8   8   8   8   8
#     4  10  21  36  54  76 102 135 178 229 280 320
#     4   9  19  36  55  76 106 143 180 217 262 318
#     4  10  21  35  52  77 108 144 185 221 256 307
#     4  10  21  37  58  83 108 134 168 213 265 320
#     4   7  10  19  37  60  85 116 158 204 242 277
#     4   9  18  32  49  70  99 137 177 213 253 305
#     4   9  18  34  56  81 110 141 171 209 259 312
#     4  11  22  34  53  80 108 139 173 214 263 311
#
# _framework density 21.520885
#
# number of rings (size 3 to 8) (size 9 to 14) (size 15 to 20)
#    0.000    2.625    0.000    3.000    0.000    7.500 
#    0.000    2.500    0.000    0.375    0.000    8.750 
#    0.000    0.000    0.000    0.000    0.000    0.000 
#
# Total GULP energy -356772.561462 kJ/mol
# GULP energy per Si atom -5574.571273 kJ/mol
# Density = 2.147190 g / cm^3
# Si number density = 21.520885 Si / 1000 Ang^3
#
#
#
# Elastic Constant Matrix: (Units=GPa)
#
#
# Indices 1 2 3 4 5 6 
#
# 1 52.0708 4.7151 35.9186 0.0000 0.0000 0.0000
# 2 4.7151 31.0574 -5.0317 0.0000 0.0000 0.0000
# 3 35.9186 -5.0317 87.1382 0.0000 0.0000 0.0000
# 4 0.0000 0.0000 0.0000 20.6712 0.0000 0.0000
# 5 0.0000 0.0000 0.0000 0.0000 -3.6123 0.0000
# 6 0.0000 0.0000 0.0000 0.0000 0.0000 267.4617
#
#
#
# Elastic Compliance Matrix: (Units=1/GPa)
#
#
# Indices 1 2 3 4 5 6 
#
# 1 0.027959 -0.006170 -0.011881 0.000000 0.000000 0.000000
# 2 -0.006170 0.033864 0.004499 0.000000 0.000000 0.000000
# 3 -0.011881 0.004499 0.016633 0.000000 0.000000 0.000000
# 4 0.000000 0.000000 0.000000 0.048376 0.000000 0.000000
# 5 0.000000 0.000000 0.000000 0.000000 -0.276835 0.000000
# 6 0.000000 0.000000 0.000000 0.000000 0.000000 0.003739
#
#
# Mechanical properties :
#
#
# Convention : Reuss Voigt Hill
#
# Bulk Modulus (GPa) = 19.47346 26.83006 23.15176
# Shear Modulus (GPa) = -48.99906 65.88176 8.44135
#
# Velocity S-wave (km/s) = -4.77677 5.53890 1.98265
# Velocity P-wave (km/s) = 4.62116 7.30752 4.00280
#
# Compressibility (1/GPa) = 0.05135194
#
# Stress axis : x y z
#
# Youngs Moduli (GPa) = 35.76692 29.52996 60.12091
#
# Poissons Ratio (x) = 0.18219 0.71429
# Poissons Ratio (y) = 0.22067 -0.27046
# Poissons Ratio (z) = 0.42494 -0.13284
#
# Static dielectric constant tensor:
#      x y z
#    x 1.869660 0.000000 0.000000 
#    y 0.000000 1.786210 0.000000 
#    z 0.000000 0.000000 1.785240 
# 
# From -- ./inp_files/32811.got.cif
#   From: 2010.05.17/outbox.cif.g08.bks.cpg/sg47_17_cif.got.tgz:32811.got - 2010.06.03 20:15:42.
