data_PCOD9387266
_publ_section_title
;
Structure prediction by ZEFSAII (Michael W. Deem and Ramdas Pophale) SiO2 
 PCOD9387266
Probable space group: P M M M
;
_chemical_formula_sum "Si O2"
_cell_formula_units_Z 64
_cell_length_a 20.617296
_cell_length_b 8.843230
_cell_length_c 20.311866
_cell_angle_alpha 90.000000
_cell_angle_beta 90.000000
_cell_angle_gamma 90.000000
_cell_volume 3703.330308
_symmetry_space_group_name_H-M "P M M M"
_symmetry_group_IT_number 47
_symmetry_cell_setting 'orthorhombic'
loop_
_space_group_symop_operation_xyz
x,y,z
-x,-y,z
x,-y,-z
-x,y,-z
-x,-y,-z
x,y,-z
-x,y,z
x,-y,z
loop_
_atom_site_type_symbol
_atom_site_label
_atom_site_fract_x
_atom_site_fract_y
_atom_site_fract_z
Si Si1 0.575507 0.819048 0.322894
Si Si2 0.678019 0.680839 0.577028
Si Si3 0.424345 0.319342 0.180083
Si Si4 0.075206 0.682110 0.671813
Si Si5 0.182296 0.819434 0.576832
Si Si6 0.325178 0.180840 0.076694
Si Si7 0.073374 0.684048 0.176413
Si Si8 0.184750 0.682301 0.076446
O O1 0.500000 0.781001 0.336849
O O2 0.623083 0.751313 0.377175
O O3 0.591365 0.751695 0.251148
O O4 0.581443 0.000000 0.321064
O O5 0.666766 0.718673 0.500000
O O6 0.678282 0.500000 0.583625
O O7 0.748803 0.745286 0.594989
O O8 0.500000 0.284130 0.166075
O O9 0.417376 0.500000 0.183521
O O10 0.377970 0.252941 0.124485
O O11 0.081502 0.500000 0.667496
O O12 0.125280 0.758565 0.622730
O O13 0.087733 0.726328 0.747963
O O14 0.000000 0.719656 0.657046
O O15 0.169591 0.781448 0.500000
O O16 0.187480 0.000000 0.582293
O O17 0.253631 0.243336 0.092812
O O18 0.325948 0.000000 0.082894
O O19 0.337953 0.219860 0.000000
O O20 0.072697 0.500000 0.174855
O O21 0.127801 0.733888 0.125122
O O22 0.000000 0.733888 0.160106
O O23 0.191012 0.500000 0.081865
O O24 0.169544 0.716977 0.000000
#
# Coordination Sequence:
#
# PCOD9387266 Si02
#       8
#     8   8   8   8   8   8   8   8
#     4  10  21  37  57  81 110 142 175 213 258 310
#     4  10  21  37  57  80 107 140 178 219 261 308
#     4  10  21  37  57  80 106 136 172 216 263 311
#     4   9  18  33  52  73 100 135 172 211 258 315
#     4  10  21  36  53  74 102 134 169 214 265 314
#     4  10  21  36  53  74 104 141 177 215 261 314
#     4   8  15  29  49  74 102 130 164 208 255 301
#     4   9  17  30  50  75 102 133 170 212 255 301
#
# _framework density 17.281742000000001
#
# number of rings (size 3 to 8) (size 9 to 14) (size 15 to 20)
#    0.000    2.500    0.000    2.625    0.000    6.000 
#    0.000    9.375    0.000    1.125    0.000    1.750 
#    0.000    0.000    0.000    0.000    0.000    0.000 
#
# Total GULP energy -357112.758277 kJ/mol
# GULP energy per Si atom -5579.886848 kJ/mol
# Density = 1.724241 g / cm^3
# Si number density = 17.281742 Si / 1000 Ang^3
#
#
#
# Elastic Constant Matrix: (Units=GPa)
#
#
# Indices 1 2 3 4 5 6 
#
# 1 150.8046 59.6588 122.8939 0.0000 0.0000 0.0000
# 2 59.6588 43.5809 53.4203 0.0000 0.0000 0.0000
# 3 122.8939 53.4203 120.9343 0.0000 0.0000 0.0000
# 4 0.0000 0.0000 0.0000 26.2258 0.0000 0.0000
# 5 0.0000 0.0000 0.0000 0.0000 44.8092 0.0000
# 6 0.0000 0.0000 0.0000 0.0000 0.0000 20.6689
#
#
#
# Elastic Compliance Matrix: (Units=1/GPa)
#
#
# Indices 1 2 3 4 5 6 
#
# 1 0.040858 -0.010985 -0.036668 0.000000 0.000000 0.000000
# 2 -0.010985 0.052995 -0.012246 0.000000 0.000000 0.000000
# 3 -0.036668 -0.012246 0.050941 0.000000 0.000000 0.000000
# 4 0.000000 0.000000 0.000000 0.038130 0.000000 0.000000
# 5 0.000000 0.000000 0.000000 0.000000 0.022317 0.000000
# 6 0.000000 0.000000 0.000000 0.000000 0.000000 0.048382
#
#
# Mechanical properties :
#
#
# Convention : Reuss Voigt Hill
#
# Bulk Modulus (GPa) = 40.00788 87.47397 63.74092
# Shear Modulus (GPa) = 13.09745 23.63056 18.36401
#
# Velocity S-wave (km/s) = 2.75595 3.70181 3.26333
# Velocity P-wave (km/s) = 5.77301 8.30647 7.15280
#
# Compressibility (1/GPa) = 0.02499507
#
# Stress axis : x y z
#
# Youngs Moduli (GPa) = 24.47472 18.86979 19.63069
#
# Poissons Ratio (x) = 0.20729 0.71982
# Poissons Ratio (y) = 0.26886 0.24040
# Poissons Ratio (z) = 0.89744 0.23108
#
# Static dielectric constant tensor:
#      x y z
#    x 1.560710 0.000000 0.000000 
#    y 0.000000 1.576560 0.000000 
#    z 0.000000 0.000000 1.568060 
# 
# From -- ./inp_files/28765.got.cif
#   From: 2010.05.17/outbox.cif.g08.bks.cpg/sg47_15_cif.got.tgz:28765.got - 2010.06.03 20:15:42.
