data_PCOD9387394
_publ_section_title
;
Structure prediction by ZEFSAII (Michael W. Deem and Ramdas Pophale) SiO2 
 PCOD9387394
Probable space group: P M M M
;
_chemical_formula_sum "Si O2"
_cell_formula_units_Z 48
_cell_length_a 8.814027
_cell_length_b 29.576228
_cell_length_c 10.204858
_cell_angle_alpha 90.000000
_cell_angle_beta 90.000000
_cell_angle_gamma 90.000000
_cell_volume 2660.260267
_symmetry_space_group_name_H-M "P M M M"
_symmetry_group_IT_number 47
_symmetry_cell_setting 'orthorhombic'
loop_
_space_group_symop_operation_xyz
x,y,z
-x,-y,z
x,-y,-z
-x,y,-z
-x,-y,-z
x,y,-z
-x,y,z
x,-y,z
loop_
_atom_site_type_symbol
_atom_site_label
_atom_site_fract_x
_atom_site_fract_y
_atom_site_fract_z
Si Si1 0.325253 0.946153 0.000000
Si Si2 0.317544 0.053264 0.500000
Si Si3 0.683335 0.803734 0.154305
Si Si4 0.819011 0.101780 0.753206
Si Si5 0.818594 0.375540 0.349165
Si Si6 0.317143 0.551986 0.848457
Si Si7 0.682679 0.723009 0.349105
O O1 0.500000 0.929247 0.000000
O O2 0.238538 0.928018 0.125716
O O3 0.329000 0.000000 0.000000
O O4 0.500000 0.055319 0.500000
O O5 0.252909 0.079194 0.374610
O O6 0.274313 0.000000 0.500000
O O7 0.500000 0.808189 0.160473
O O8 0.757890 0.848030 0.217190
O O9 0.726901 0.760516 0.242434
O O10 0.724363 0.799705 0.000000
O O11 0.000000 0.102066 0.744116
O O12 0.774896 0.386170 0.500000
O O13 0.754456 0.412526 0.250255
O O14 0.754131 0.325698 0.319925
O O15 0.000000 0.374463 0.341580
O O16 0.500000 0.554656 0.840475
O O17 0.273703 0.500000 0.818606
O O18 0.274896 0.561216 0.000000
O O19 0.724028 0.735562 0.500000
O O20 0.500000 0.718874 0.344947
#
# Coordination Sequence:
#
# PCOD9387394 Si02
#       7
#     4   4   8   8   8   8   8
#     4  11  23  41  65  89 117 159 203 239 284 345
#     4  11  25  45  67  89 117 157 201 241 286 349
#     4  10  21  38  60  85 116 154 195 237 284 346
#     4  12  25  40  61  92 125 155 191 242 298 348
#     4  10  21  36  54  81 117 154 190 234 289 347
#     4   9  19  36  57  81 110 147 193 243 291 342
#     4   9  19  36  58  83 110 149 198 243 286 337
#
# _framework density 18.043348000000002
#
# number of rings (size 3 to 8) (size 9 to 14) (size 15 to 20)
#    0.000    1.833    0.833    3.500    1.167    6.667 
#    0.000    4.167    0.000    0.000    0.000    0.000 
#    0.000    0.000    0.000    0.000    0.000    0.000 
#
# Total GULP energy -268100.875507 kJ/mol
# GULP energy per Si atom -5585.434906 kJ/mol
# Density = 1.800228 g / cm^3
# Si number density = 18.043348 Si / 1000 Ang^3
#
#
#
# Elastic Constant Matrix: (Units=GPa)
#
#
# Indices 1 2 3 4 5 6 
#
# 1 56.5986 63.3541 62.7521 0.0000 0.0000 0.0000
# 2 63.3541 172.2006 131.1213 0.0000 0.0000 0.0000
# 3 62.7521 131.1213 181.4472 0.0000 0.0000 0.0000
# 4 0.0000 0.0000 0.0000 45.4093 0.0000 0.0000
# 5 0.0000 0.0000 0.0000 0.0000 15.4136 0.0000
# 6 0.0000 0.0000 0.0000 0.0000 0.0000 -64.2129
#
#
#
# Elastic Compliance Matrix: (Units=1/GPa)
#
#
# Indices 1 2 3 4 5 6 
#
# 1 0.032563 -0.007571 -0.005790 0.000000 0.000000 0.000000
# 2 -0.007571 0.014672 -0.007984 0.000000 0.000000 0.000000
# 3 -0.005790 -0.007984 0.013284 0.000000 0.000000 0.000000
# 4 0.000000 0.000000 0.000000 0.022022 0.000000 0.000000
# 5 0.000000 0.000000 0.000000 0.000000 0.064878 0.000000
# 6 0.000000 0.000000 0.000000 0.000000 0.000000 -0.015573
#
#
# Mechanical properties :
#
#
# Convention : Reuss Voigt Hill
#
# Bulk Modulus (GPa) = 56.09442 102.74458 79.41950
# Shear Modulus (GPa) = 27.70385 9.52326 18.61356
#
# Velocity S-wave (km/s) = 3.92268 2.29988 3.21534
# Velocity P-wave (km/s) = 7.18837 8.00746 7.60895
#
# Compressibility (1/GPa) = 0.01782709
#
# Stress axis : x y z
#
# Youngs Moduli (GPa) = 30.70965 68.15524 75.27991
#
# Poissons Ratio (x) = 0.51601 0.43591
# Poissons Ratio (y) = 0.23251 0.60107
# Poissons Ratio (z) = 0.17782 0.54418
#
# Static dielectric constant tensor:
#      x y z
#    x 1.599940 0.000000 0.000000 
#    y 0.000000 1.590520 0.000000 
#    z 0.000000 0.000000 1.600230 
# 
# From -- ./inp_files/2693.got.cif
#   From: 2010.05.17/outbox.cif.g08.bks.cpg/sg47_2_cif.got.tgz:2693.got - 2010.06.03 20:15:42.
