data_PCOD9387118
_publ_section_title
;
Structure prediction by ZEFSAII (Michael W. Deem and Ramdas Pophale) SiO2 
 PCOD9387118
Probable space group: P M M M
;
_chemical_formula_sum "Si O2"
_cell_formula_units_Z 52
_cell_length_a 22.071837
_cell_length_b 14.142341
_cell_length_c 8.268553
_cell_angle_alpha 90.000000
_cell_angle_beta 90.000000
_cell_angle_gamma 90.000000
_cell_volume 2581.007696
_symmetry_space_group_name_H-M "P M M M"
_symmetry_group_IT_number 47
_symmetry_cell_setting 'orthorhombic'
loop_
_space_group_symop_operation_xyz
x,y,z
-x,-y,z
x,-y,-z
-x,y,-z
-x,-y,-z
x,y,-z
-x,y,z
x,-y,z
loop_
_atom_site_type_symbol
_atom_site_label
_atom_site_fract_x
_atom_site_fract_y
_atom_site_fract_z
Si Si1 0.571085 0.891867 0.305548
Si Si2 0.878101 0.393501 0.804068
Si Si3 0.620729 0.295879 0.810670
Si Si4 0.932228 0.198727 0.306990
Si Si5 0.246923 0.700309 0.802372
Si Si6 0.189551 0.105068 0.193649
Si Si7 0.500000 0.395458 0.308602
O O1 0.575689 0.880698 0.500000
O O2 0.500000 0.876085 0.263670
O O3 0.612579 0.815818 0.219153
O O4 0.585957 0.000000 0.264927
O O5 0.893967 0.500000 0.753014
O O6 0.918109 0.308116 0.736006
O O7 0.808655 0.367704 0.758023
O O8 0.881754 0.389563 0.000000
O O9 0.686184 0.326938 0.745025
O O10 0.561367 0.342657 0.737401
O O11 0.619602 0.316227 0.000000
O O12 0.929027 0.187789 0.500000
O O13 0.879492 0.135474 0.230075
O O14 0.000000 0.174271 0.252018
O O15 0.229641 0.806534 0.746508
O O16 0.248464 0.701792 0.000000
O O17 0.202879 0.000000 0.258087
O O18 0.197015 0.102390 0.000000
O O19 0.500000 0.500000 0.234787
O O20 0.500000 0.402052 0.500000
#
# Coordination Sequence:
#
# PCOD9387118 Si02
#       7
#     8   8   8   8   8   8   4
#     4   9  18  33  52  73 103 142 173 201 247 308
#     4   9  18  35  58  79 101 135 178 221 265 315
#     4  11  21  34  57  85 108 133 170 220 271 315
#     4  10  21  35  51  76 112 148 178 215 265 314
#     4   8  17  33  53  80 110 136 167 214 270 320
#     4   9  18  35  58  80 106 143 183 220 257 303
#     4  11  25  43  58  73 102 143 179 214 262 321
#
# _framework density 20.147169000000002
#
# number of rings (size 3 to 8) (size 9 to 14) (size 15 to 20)
#    0.000    2.538    0.769    2.538    0.000    4.615 
#    0.000   13.077    0.000    0.000    0.000    0.000 
#    0.000    0.000    0.000    0.000    0.000    0.000 
#
# Total GULP energy -290116.556266 kJ/mol
# GULP energy per Si atom -5579.164544 kJ/mol
# Density = 2.010131 g / cm^3
# Si number density = 20.147169 Si / 1000 Ang^3
#
#
#
# Elastic Constant Matrix: (Units=GPa)
#
#
# Indices 1 2 3 4 5 6 
#
# 1 76.1895 -15.3190 1.4886 0.0000 0.0000 0.0000
# 2 -15.3190 45.1020 -3.2635 0.0000 0.0000 0.0000
# 3 1.4886 -3.2635 8.8578 0.0000 0.0000 0.0000
# 4 0.0000 0.0000 0.0000 26.5362 0.0000 0.0000
# 5 0.0000 0.0000 0.0000 0.0000 53.6245 0.0000
# 6 0.0000 0.0000 0.0000 0.0000 0.0000 3.9605
#
#
#
# Elastic Compliance Matrix: (Units=1/GPa)
#
#
# Indices 1 2 3 4 5 6 
#
# 1 0.014091 0.004741 -0.000621 0.000000 0.000000 0.000000
# 2 0.004741 0.024374 0.008184 0.000000 0.000000 0.000000
# 3 -0.000621 0.008184 0.116015 0.000000 0.000000 0.000000
# 4 0.000000 0.000000 0.000000 0.037684 0.000000 0.000000
# 5 0.000000 0.000000 0.000000 0.000000 0.018648 0.000000
# 6 0.000000 0.000000 0.000000 0.000000 0.000000 0.252491
#
#
# Mechanical properties :
#
#
# Convention : Reuss Voigt Hill
#
# Bulk Modulus (GPa) = 5.58390 10.66238 8.12314
# Shear Modulus (GPa) = 10.03227 26.64046 18.33636
#
# Velocity S-wave (km/s) = 2.23390 3.64028 3.02009
# Velocity P-wave (km/s) = 3.07104 4.79297 4.02516
#
# Compressibility (1/GPa) = 0.17908630
#
# Stress axis : x y z
#
# Youngs Moduli (GPa) = 70.96965 41.02666 8.61961
#
# Poissons Ratio (x) = -0.19450 0.00535
# Poissons Ratio (y) = -0.33646 -0.07054
# Poissons Ratio (z) = 0.04409 -0.33575
#
# Static dielectric constant tensor:
#      x y z
#    x 1.723850 0.000000 0.000000 
#    y 0.000000 1.722530 0.000000 
#    z 0.000000 0.000000 1.700800 
# 
# From -- ./inp_files/11045.got.cif
#   From: 2010.05.17/outbox.cif.g08.bks.cpg/sg47_6_cif.got.tgz:11045.got - 2010.06.03 20:15:42.
