data_PCOD9387439
_publ_section_title
;
Structure prediction by ZEFSAII (Michael W. Deem and Ramdas Pophale) SiO2 
 PCOD9387439
Probable space group: P M M M
;
_chemical_formula_sum "Si O2"
_cell_formula_units_Z 48
_cell_length_a 9.172265
_cell_length_b 9.104065
_cell_length_c 31.613492
_cell_angle_alpha 90.000000
_cell_angle_beta 90.000000
_cell_angle_gamma 90.000000
_cell_volume 2639.881386
_symmetry_space_group_name_H-M "P M M M"
_symmetry_group_IT_number 47
_symmetry_cell_setting 'orthorhombic'
loop_
_space_group_symop_operation_xyz
x,y,z
-x,-y,z
x,-y,-z
-x,y,-z
-x,-y,-z
x,y,-z
-x,y,z
x,-y,z
loop_
_atom_site_type_symbol
_atom_site_label
_atom_site_fract_x
_atom_site_fract_y
_atom_site_fract_z
Si Si1 0.327287 0.325172 0.832745
Si Si2 0.829764 0.676922 0.253974
Si Si3 0.826352 0.673588 0.000000
Si Si4 0.674203 0.826165 0.079276
Si Si5 0.827980 0.176453 0.420402
Si Si6 0.670293 0.176606 0.332868
Si Si7 0.671980 0.324302 0.500000
O O1 0.500000 0.300622 0.825353
O O2 0.306268 0.500000 0.839373
O O3 0.238804 0.280092 0.791178
O O4 0.284333 0.240174 0.875179
O O5 0.817465 0.500000 0.257074
O O6 0.743032 0.749237 0.292365
O O7 0.000000 0.716295 0.256008
O O8 0.757207 0.746871 0.041438
O O9 0.795159 0.500000 0.000000
O O10 0.000000 0.694408 0.000000
O O11 0.500000 0.802492 0.074125
O O12 0.701292 0.000000 0.078130
O O13 0.754966 0.217646 0.375758
O O14 0.748148 0.256519 0.458769
O O15 0.000000 0.209956 0.420174
O O16 0.811953 0.000000 0.425587
O O17 0.500000 0.216164 0.336186
O O18 0.680174 0.000000 0.328600
O O19 0.687802 0.500000 0.500000
O O20 0.500000 0.288576 0.500000
#
# Coordination Sequence:
#
# PCOD9387439 Si02
#       7
#     8   8   4   8   8   8   4
#     4   9  18  34  55  78 107 145 186 225 266 317
#     4  10  21  36  55  81 113 148 184 224 272 324
#     4  11  24  39  56  80 110 145 184 225 270 322
#     4  10  21  37  58  84 112 142 179 224 273 325
#     4  10  21  38  60  84 110 143 183 226 275 330
#     4  10  21  37  58  83 110 143 184 228 273 323
#     4  11  24  39  56  82 114 147 184 225 270 322
#
# _framework density 18.182635000000001
#
# number of rings (size 3 to 8) (size 9 to 14) (size 15 to 20)
#    0.000    2.000    0.000    3.000    0.000    9.333 
#    0.000    3.333    0.000    0.000    0.000    0.000 
#    0.000    0.000    0.000    0.000    0.000    0.000 
#
# Total GULP energy -268190.395683 kJ/mol
# GULP energy per Si atom -5587.299910 kJ/mol
# Density = 1.814125 g / cm^3
# Si number density = 18.182635 Si / 1000 Ang^3
#
#
#
# Elastic Constant Matrix: (Units=GPa)
#
#
# Indices 1 2 3 4 5 6 
#
# 1 139.0232 73.6617 123.0990 0.0000 0.0000 0.0000
# 2 73.6617 53.8615 84.6425 0.0000 0.0000 0.0000
# 3 123.0990 84.6425 215.1136 0.0000 0.0000 0.0000
# 4 0.0000 0.0000 0.0000 39.8870 0.0000 0.0000
# 5 0.0000 0.0000 0.0000 0.0000 345.3619 0.0000
# 6 0.0000 0.0000 0.0000 0.0000 0.0000 27.4081
#
#
#
# Elastic Compliance Matrix: (Units=1/GPa)
#
#
# Indices 1 2 3 4 5 6 
#
# 1 0.026577 -0.032613 -0.002376 0.000000 0.000000 0.000000
# 2 -0.032613 0.088666 -0.016225 0.000000 0.000000 0.000000
# 3 -0.002376 -0.016225 0.012393 0.000000 0.000000 0.000000
# 4 0.000000 0.000000 0.000000 0.025071 0.000000 0.000000
# 5 0.000000 0.000000 0.000000 0.000000 0.002896 0.000000
# 6 0.000000 0.000000 0.000000 0.000000 0.000000 0.036486
#
#
# Mechanical properties :
#
#
# Convention : Reuss Voigt Hill
#
# Bulk Modulus (GPa) = 39.67190 107.86719 73.76954
# Shear Modulus (GPa) = 16.50602 90.97107 53.73855
#
# Velocity S-wave (km/s) = 3.01622 7.08099 5.44234
# Velocity P-wave (km/s) = 5.83062 11.23864 8.95274
#
# Compressibility (1/GPa) = 0.02520676
#
# Stress axis : x y z
#
# Youngs Moduli (GPa) = 37.62601 11.27828 80.69170
#
# Poissons Ratio (x) = 0.36782 0.19175
# Poissons Ratio (y) = 1.22710 1.30924
# Poissons Ratio (z) = 0.08941 0.18299
#
# Static dielectric constant tensor:
#      x y z
#    x 1.607440 0.000000 0.000000 
#    y 0.000000 1.608610 0.000000 
#    z 0.000000 0.000000 1.582290 
# 
# From -- ./inp_files/2771.got.cif
#   From: 2010.05.17/outbox.cif.g08.bks.cpg/sg47_2_cif.got.tgz:2771.got - 2010.06.03 20:15:42.
