data_PCOD9387192
_publ_section_title
;
Structure prediction by ZEFSAII (Michael W. Deem and Ramdas Pophale) SiO2 
 PCOD9387192
Probable space group: P M M M
;
_chemical_formula_sum "Si O2"
_cell_formula_units_Z 29
_cell_length_a 10.107450
_cell_length_b 7.407280
_cell_length_c 17.834773
_cell_angle_alpha 90.000000
_cell_angle_beta 90.000000
_cell_angle_gamma 90.000000
_cell_volume 1335.266488
_symmetry_space_group_name_H-M "P M M M"
_symmetry_group_IT_number 47
_symmetry_cell_setting 'orthorhombic'
loop_
_space_group_symop_operation_xyz
x,y,z
-x,-y,z
x,-y,-z
-x,y,-z
-x,-y,-z
x,y,-z
-x,y,z
x,-y,z
loop_
_atom_site_type_symbol
_atom_site_label
_atom_site_fract_x
_atom_site_fract_y
_atom_site_fract_z
Si Si1 0.354324 0.281262 0.337908
Si Si2 0.647684 0.782672 0.914130
Si Si3 0.243002 0.283020 0.500000
Si Si4 0.000000 0.000000 0.500000
Si Si5 0.851033 0.287084 0.216523
O O1 0.500000 0.216003 0.315701
O O2 0.356139 0.500000 0.330787
O O3 0.323947 0.243331 0.424368
O O4 0.237887 0.212006 0.284280
O O5 0.500000 0.720930 0.890152
O O6 0.764055 0.730524 0.858371
O O7 0.644509 0.000000 0.915072
O O8 0.668948 0.722480 0.000000
O O9 0.212956 0.500000 0.500000
O O10 0.114921 0.158655 0.500000
O O11 0.864335 0.500000 0.230954
O O12 0.000000 0.212946 0.210947
#
# Coordination Sequence:
#
# PCOD9387192 Si02
#       5
#     8   8   4   1   8
#     4   9  18  36  63  88 112 151 200 243 294 355
#     4   9  19  37  58  79 106 145 193 239 288 349
#     4  10  22  41  65  89 124 165 202 252 302 354
#     4  12  26  40  58  98 128 160 206 248 304 370
#     4  10  21  35  54  85 119 149 188 237 288 349
#
# _framework density 21.718510999999999
#
# number of rings (size 3 to 8) (size 9 to 14) (size 15 to 20)
#    0.000    2.483    0.000    2.276    1.931    4.966 
#    2.483    5.517    0.000    0.000    0.000    0.000 
#    0.000    0.000    0.000    0.000    0.000    0.000 
#
# Total GULP energy -161696.148137 kJ/mol
# GULP energy per Si atom -5575.729246 kJ/mol
# Density = 2.166908 g / cm^3
# Si number density = 21.718511 Si / 1000 Ang^3
#
#
#
# Elastic Constant Matrix: (Units=GPa)
#
#
# Indices 1 2 3 4 5 6 
#
# 1 243.2555 18.0674 114.7045 0.0000 0.0000 0.0000
# 2 18.0674 79.0977 1.5440 0.0000 0.0000 0.0000
# 3 114.7045 1.5440 136.5878 0.0000 0.0000 0.0000
# 4 0.0000 0.0000 0.0000 31.7487 0.0000 0.0000
# 5 0.0000 0.0000 0.0000 0.0000 -334.6319 0.0000
# 6 0.0000 0.0000 0.0000 0.0000 0.0000 -3.0447
#
#
#
# Elastic Compliance Matrix: (Units=1/GPa)
#
#
# Indices 1 2 3 4 5 6 
#
# 1 0.006975 -0.001479 -0.005841 0.000000 0.000000 0.000000
# 2 -0.001479 0.012959 0.001096 0.000000 0.000000 0.000000
# 3 -0.005841 0.001096 0.012214 0.000000 0.000000 0.000000
# 4 0.000000 0.000000 0.000000 0.031497 0.000000 0.000000
# 5 0.000000 0.000000 0.000000 0.000000 -0.002988 0.000000
# 6 0.000000 0.000000 0.000000 0.000000 0.000000 -0.328443
#
#
# Mechanical properties :
#
#
# Convention : Reuss Voigt Hill
#
# Bulk Modulus (GPa) = 50.76276 80.84142 65.80209
# Shear Modulus (GPa) = -20.09875 -39.54390 -29.82132
#
# Velocity S-wave (km/s) = -3.04537 -4.27165 -3.70953
# Velocity P-wave (km/s) = 3.32537 3.60192 3.46640
#
# Compressibility (1/GPa) = 0.01969948
#
# Stress axis : x y z
#
# Youngs Moduli (GPa) = 143.37159 77.16597 81.87429
#
# Poissons Ratio (x) = 0.11414 0.47820
# Poissons Ratio (y) = 0.21207 -0.08971
# Poissons Ratio (z) = 0.83739 -0.08455
#
# Static dielectric constant tensor:
#      x y z
#    x 1.777540 0.000000 0.000000 
#    y 0.000000 1.835670 0.000000 
#    z 0.000000 0.000000 1.764930 
# 
# From -- ./inp_files/29004.got.cif
#   From: 2010.05.17/outbox.cif.g08.bks.cpg/sg47_15_cif.got.tgz:29004.got - 2010.06.03 20:15:42.
