data_PCOD9387781
_publ_section_title
;
Structure prediction by ZEFSAII (Michael W. Deem and Ramdas Pophale) SiO2 
 PCOD9387781
Probable space group: P M M M
;
_chemical_formula_sum "Si O2"
_cell_formula_units_Z 37
_cell_length_a 22.267368
_cell_length_b 10.350933
_cell_length_c 7.343928
_cell_angle_alpha 90.000000
_cell_angle_beta 90.000000
_cell_angle_gamma 90.000000
_cell_volume 1692.687528
_symmetry_space_group_name_H-M "P M M M"
_symmetry_group_IT_number 47
_symmetry_cell_setting 'orthorhombic'
loop_
_space_group_symop_operation_xyz
x,y,z
-x,-y,z
x,-y,-z
-x,y,-z
-x,-y,-z
x,y,-z
-x,y,z
x,-y,z
loop_
_atom_site_type_symbol
_atom_site_label
_atom_site_fract_x
_atom_site_fract_y
_atom_site_fract_z
Si Si1 0.000000 0.730671 0.796585
Si Si2 0.873198 0.145317 0.719700
Si Si3 0.429956 0.000000 0.722480
Si Si4 0.226661 0.650599 0.722338
Si Si5 0.643058 0.252255 0.721775
Si Si6 0.431917 0.500000 0.277987
Si Si7 0.000000 0.500000 0.500000
O O1 0.940664 0.816852 0.770074
O O2 0.000000 0.613887 0.655962
O O3 0.000000 0.678638 0.000000
O O4 0.869512 0.144291 0.500000
O O5 0.828248 0.258723 0.781396
O O6 0.857766 0.000000 0.781923
O O7 0.391666 0.875699 0.780347
O O8 0.500000 0.000000 0.780178
O O9 0.431629 0.000000 0.500000
O O10 0.226246 0.647084 0.500000
O O11 0.223611 0.500000 0.780036
O O12 0.288818 0.719113 0.778433
O O13 0.644301 0.248554 0.500000
O O14 0.603496 0.373779 0.778632
O O15 0.500000 0.500000 0.216419
O O16 0.432400 0.500000 0.500000
#
# Coordination Sequence:
#
# PCOD9387781 Si02
#       7
#     4   8   4   8   8   4   1
#     4  12  26  44  72 101 134 177 217 262 325 381
#     4  10  21  37  60  88 122 164 211 263 327 384
#     4   9  16  22  30  46  76 117 167 240 316 377
#     4   9  17  28  45  67  97 141 192 253 315 377
#     4   9  15  23  33  50  78 117 175 237 300 372
#     4   9  14  20  31  46  70 110 164 224 289 364
#     4  12  26  48  70 102 144 172 212 272 310 378
#
# _framework density 21.858730000000001
#
# number of rings (size 3 to 8) (size 9 to 14) (size 15 to 20)
#    0.000    2.378    2.162    1.135    3.027    4.324 
#    0.000    0.000    0.000    0.000    0.000    0.000 
#    0.000    0.000    0.000    0.000    0.000    6.486 
#
# Total GULP energy -206495.788204 kJ/mol
# GULP energy per Si atom -5580.967249 kJ/mol
# Density = 2.180898 g / cm^3
# Si number density = 21.858730 Si / 1000 Ang^3
#
#
#
# Elastic Constant Matrix: (Units=GPa)
#
#
# Indices 1 2 3 4 5 6 
#
# 1 222.8716 127.2893 -2.0226 0.0000 0.0000 0.0000
# 2 127.2893 232.1927 18.4766 0.0000 0.0000 0.0000
# 3 -2.0226 18.4766 102.0135 0.0000 0.0000 0.0000
# 4 0.0000 0.0000 0.0000 -39.0913 0.0000 0.0000
# 5 0.0000 0.0000 0.0000 0.0000 -11.0687 0.0000
# 6 0.0000 0.0000 0.0000 0.0000 0.0000 -27.0205
#
#
#
# Elastic Compliance Matrix: (Units=1/GPa)
#
#
# Indices 1 2 3 4 5 6 
#
# 1 0.006595 -0.003679 0.000797 0.000000 0.000000 0.000000
# 2 -0.003679 0.006422 -0.001236 0.000000 0.000000 0.000000
# 3 0.000797 -0.001236 0.010042 0.000000 0.000000 0.000000
# 4 0.000000 0.000000 0.000000 -0.025581 0.000000 0.000000
# 5 0.000000 0.000000 0.000000 0.000000 -0.090345 0.000000
# 6 0.000000 0.000000 0.000000 0.000000 0.000000 -0.037009
#
#
# Mechanical properties :
#
#
# Convention : Reuss Voigt Hill
#
# Bulk Modulus (GPa) = 67.45991 93.84048 80.65019
# Shear Modulus (GPa) = -42.84557 12.11954 -15.36302
#
# Velocity S-wave (km/s) = -4.43212 2.35723 -2.65397
# Velocity P-wave (km/s) = 2.17651 7.10157 5.25212
#
# Compressibility (1/GPa) = 0.01482362
#
# Stress axis : x y z
#
# Youngs Moduli (GPa) = 151.62221 155.71486 99.57868
#
# Poissons Ratio (x) = 0.57288 -0.07937
# Poissons Ratio (y) = 0.55782 0.12309
# Poissons Ratio (z) = -0.12086 0.19248
#
# Static dielectric constant tensor:
#      x y z
#    x 1.754470 0.000000 0.000000 
#    y 0.000000 1.703100 0.000000 
#    z 0.000000 0.000000 1.812760 
# 
# From -- ./inp_files/12168.got.cif
#   From: 2010.05.17/outbox.cif.g08.bks.cpg/sg47_7_cif.got.tgz:12168.got - 2010.06.03 20:15:42.
