data_PCOD9387432
_publ_section_title
;
Structure prediction by ZEFSAII (Michael W. Deem and Ramdas Pophale) SiO2 
 PCOD9387432
Probable space group: P M M M
;
_chemical_formula_sum "Si O2"
_cell_formula_units_Z 48
_cell_length_a 33.394533
_cell_length_b 9.232051
_cell_length_c 8.214500
_cell_angle_alpha 90.000000
_cell_angle_beta 90.000000
_cell_angle_gamma 90.000000
_cell_volume 2532.530611
_symmetry_space_group_name_H-M "P M M M"
_symmetry_group_IT_number 47
_symmetry_cell_setting 'orthorhombic'
loop_
_space_group_symop_operation_xyz
x,y,z
-x,-y,z
x,-y,-z
-x,y,-z
-x,-y,-z
x,y,-z
-x,y,z
x,-y,z
loop_
_atom_site_type_symbol
_atom_site_label
_atom_site_fract_x
_atom_site_fract_y
_atom_site_fract_z
Si Si1 0.736390 0.165839 0.696807
Si Si2 0.342482 0.665256 0.805323
Si Si3 0.904105 0.676388 0.182309
Si Si4 0.500000 0.665058 0.805448
Si Si5 0.816759 0.670776 0.303971
Si Si6 0.421250 0.834858 0.694591
Si Si7 0.046368 0.323130 0.500000
O O1 0.736510 0.165543 0.500000
O O2 0.698216 0.256847 0.752212
O O3 0.778024 0.239454 0.748605
O O4 0.733542 0.000000 0.753257
O O5 0.343683 0.500000 0.743172
O O6 0.381008 0.753588 0.746760
O O7 0.343593 0.661109 0.000000
O O8 0.905453 0.500000 0.183433
O O9 0.858032 0.715897 0.219114
O O10 0.931208 0.724687 0.334659
O O11 0.916062 0.723501 0.000000
O O12 0.500000 0.500000 0.742082
O O13 0.460328 0.748853 0.751293
O O14 0.500000 0.659193 0.000000
O O15 0.821972 0.685946 0.500000
O O16 0.810066 0.500000 0.271710
O O17 0.422001 0.840386 0.500000
O O18 0.421675 0.000000 0.757595
O O19 0.047757 0.500000 0.500000
O O20 0.000000 0.280106 0.500000
#
# Coordination Sequence:
#
# PCOD9387432 Si02
#       7
#     8   8   8   4   8   8   4
#     4  10  21  36  55  81 111 143 181 224 273 330
#     4  11  24  40  58  82 112 147 188 230 274 328
#     4   9  16  26  42  65  94 131 176 222 269 326
#     4  11  24  41  62  90 120 149 186 229 274 328
#     4   9  16  29  49  70  98 138 179 220 269 323
#     4  11  24  41  62  88 116 147 186 230 277 331
#     4   9  16  26  40  62  97 137 175 219 273 330
#
# _framework density 18.953374
#
# number of rings (size 3 to 8) (size 9 to 14) (size 15 to 20)
#    0.000    2.000    0.833    3.000    0.000   10.333 
#    0.000    3.333    0.000    0.000    0.000    0.000 
#    0.000    1.333    0.000    1.500    0.000    1.667 
#
# Total GULP energy -268053.945073 kJ/mol
# GULP energy per Si atom -5584.457189 kJ/mol
# Density = 1.891024 g / cm^3
# Si number density = 18.953374 Si / 1000 Ang^3
#
#
#
# Elastic Constant Matrix: (Units=GPa)
#
#
# Indices 1 2 3 4 5 6 
#
# 1 178.9860 74.9386 68.7207 0.0000 0.0000 0.0000
# 2 74.9386 114.5237 38.8915 0.0000 0.0000 0.0000
# 3 68.7207 38.8915 80.5136 0.0000 0.0000 0.0000
# 4 0.0000 0.0000 0.0000 19.1119 0.0000 0.0000
# 5 0.0000 0.0000 0.0000 0.0000 -79.7971 0.0000
# 6 0.0000 0.0000 0.0000 0.0000 0.0000 -29.2351
#
#
#
# Elastic Compliance Matrix: (Units=1/GPa)
#
#
# Indices 1 2 3 4 5 6 
#
# 1 0.009791 -0.004269 -0.006295 0.000000 0.000000 0.000000
# 2 -0.004269 0.012307 -0.002301 0.000000 0.000000 0.000000
# 3 -0.006295 -0.002301 0.018905 0.000000 0.000000 0.000000
# 4 0.000000 0.000000 0.000000 0.052323 0.000000 0.000000
# 5 0.000000 0.000000 0.000000 0.000000 -0.012532 0.000000
# 6 0.000000 0.000000 0.000000 0.000000 0.000000 -0.034205
#
#
# Mechanical properties :
#
#
# Convention : Reuss Voigt Hill
#
# Bulk Modulus (GPa) = 65.47627 82.12499 73.80063
# Shear Modulus (GPa) = 64.59115 -5.21922 29.68596
#
# Velocity S-wave (km/s) = 5.84405 -1.66123 3.96190
# Velocity P-wave (km/s) = 8.95311 6.30432 7.74283
#
# Compressibility (1/GPa) = 0.01527271
#
# Stress axis : x y z
#
# Youngs Moduli (GPa) = 102.12978 81.25640 52.89708
#
# Poissons Ratio (x) = 0.34691 0.33299
# Poissons Ratio (y) = 0.43602 0.12170
# Poissons Ratio (z) = 0.64291 0.18695
#
# Static dielectric constant tensor:
#      x y z
#    x 1.597610 0.000000 0.000000 
#    y 0.000000 1.648320 0.000000 
#    z 0.000000 0.000000 1.669570 
# 
# From -- ./inp_files/13974.got.cif
#   From: 2010.05.17/outbox.cif.g08.bks.cpg/sg47_7_cif.got.tgz:13974.got - 2010.06.03 20:15:42.
