data_PCOD9387161
_publ_section_title
;
Structure prediction by ZEFSAII (Michael W. Deem and Ramdas Pophale) SiO2 
 PCOD9387161
Probable space group: P M M M
;
_chemical_formula_sum "Si O2"
_cell_formula_units_Z 48
_cell_length_a 13.177110
_cell_length_b 19.083596
_cell_length_c 7.567903
_cell_angle_alpha 90.000000
_cell_angle_beta 90.000000
_cell_angle_gamma 90.000000
_cell_volume 1903.075167
_symmetry_space_group_name_H-M "P M M M"
_symmetry_group_IT_number 47
_symmetry_cell_setting 'orthorhombic'
loop_
_space_group_symop_operation_xyz
x,y,z
-x,-y,z
x,-y,-z
-x,y,-z
-x,-y,-z
x,y,-z
-x,y,z
x,-y,z
loop_
_atom_site_type_symbol
_atom_site_label
_atom_site_fract_x
_atom_site_fract_y
_atom_site_fract_z
Si Si1 0.171118 0.771946 0.711821
Si Si2 0.667176 0.575734 0.204923
Si Si3 0.109812 0.617942 0.285508
Si Si4 0.169107 0.078097 0.787919
Si Si5 0.390122 0.270392 0.704452
Si Si6 0.392669 0.083983 0.203690
O O1 0.175765 0.768414 0.500000
O O2 0.117272 0.700077 0.767302
O O3 0.119848 0.846326 0.755219
O O4 0.287552 0.763170 0.782322
O O5 0.635670 0.500000 0.277198
O O6 0.789418 0.581338 0.216219
O O7 0.626056 0.645880 0.293034
O O8 0.637025 0.579065 0.000000
O O9 0.115109 0.614360 0.500000
O O10 0.000000 0.590049 0.231074
O O11 0.282406 0.092403 0.712100
O O12 0.133632 0.000000 0.727609
O O13 0.176144 0.072223 0.000000
O O14 0.393306 0.248169 0.500000
O O15 0.500000 0.255870 0.786820
O O16 0.500000 0.107413 0.285226
O O17 0.398369 0.000000 0.193622
O O18 0.390037 0.109062 0.000000
#
# Coordination Sequence:
#
# PCOD9387161 Si02
#       6
#     8   8   8   8   8   8
#     4   9  18  32  50  73  99 126 163 215 267 309
#     4  10  21  35  52  80 116 144 168 207 257 306
#     4   9  19  37  59  79 100 132 174 215 256 308
#     4   9  17  28  43  65  93 126 164 205 252 309
#     4   9  19  36  55  74 101 142 188 225 255 294
#     4   7  10  18  32  50  74 105 142 183 223 265
#
# _framework density 25.222335999999999
#
# number of rings (size 3 to 8) (size 9 to 14) (size 15 to 20)
#    0.000    3.167    0.000    3.000    0.000    6.333 
#    0.000    3.333    0.000    0.500    0.000    8.167 
#    0.000    0.000    0.000    0.000    0.000    0.000 
#
# Total GULP energy -267670.453164 kJ/mol
# GULP energy per Si atom -5576.467774 kJ/mol
# Density = 2.516493 g / cm^3
# Si number density = 25.222336 Si / 1000 Ang^3
#
#
#
# Elastic Constant Matrix: (Units=GPa)
#
#
# Indices 1 2 3 4 5 6 
#
# 1 101.6010 3.0828 1.2423 0.0000 0.0000 0.0000
# 2 3.0828 179.4200 -1.9887 0.0000 0.0000 0.0000
# 3 1.2423 -1.9887 65.1677 0.0000 0.0000 0.0000
# 4 0.0000 0.0000 0.0000 22.1790 0.0000 0.0000
# 5 0.0000 0.0000 0.0000 0.0000 4.6127 0.0000
# 6 0.0000 0.0000 0.0000 0.0000 0.0000 -13.1010
#
#
#
# Elastic Compliance Matrix: (Units=1/GPa)
#
#
# Indices 1 2 3 4 5 6 
#
# 1 0.009850 -0.000171 -0.000193 0.000000 0.000000 0.000000
# 2 -0.000171 0.005578 0.000174 0.000000 0.000000 0.000000
# 3 -0.000193 0.000174 0.015354 0.000000 0.000000 0.000000
# 4 0.000000 0.000000 0.000000 0.045088 0.000000 0.000000
# 5 0.000000 0.000000 0.000000 0.000000 0.216790 0.000000
# 6 0.000000 0.000000 0.000000 0.000000 0.000000 -0.076330
#
#
# Mechanical properties :
#
#
# Convention : Reuss Voigt Hill
#
# Bulk Modulus (GPa) = 32.89409 38.98461 35.93935
# Shear Modulus (GPa) = 22.04140 25.66164 23.85152
#
# Velocity S-wave (km/s) = 2.95936 3.19316 3.07848
# Velocity P-wave (km/s) = 4.97464 5.39305 5.18806
#
# Compressibility (1/GPa) = 0.03040060
#
# Stress axis : x y z
#
# Youngs Moduli (GPa) = 101.52304 179.26344 65.12959
#
# Poissons Ratio (x) = 0.03072 0.01257
# Poissons Ratio (y) = 0.01740 -0.01130
# Poissons Ratio (z) = 0.01959 -0.03110
#
# Static dielectric constant tensor:
#      x y z
#    x 2.218290 0.000000 0.000000 
#    y 0.000000 2.009700 0.000000 
#    z 0.000000 0.000000 1.951120 
# 
# From -- ./inp_files/6357.got.cif
#   From: 2010.05.17/outbox.cif.g08.bks.cpg/sg47_4_cif.got.tgz:6357.got - 2010.06.03 20:15:42.
