data_PCOD9387721
_publ_section_title
;
Structure prediction by ZEFSAII (Michael W. Deem and Ramdas Pophale) SiO2 
 PCOD9387721
Probable space group: P M M M
;
_chemical_formula_sum "Si O2"
_cell_formula_units_Z 64
_cell_length_a 9.109423
_cell_length_b 29.688022
_cell_length_c 14.624818
_cell_angle_alpha 90.000000
_cell_angle_beta 90.000000
_cell_angle_gamma 90.000000
_cell_volume 3955.146755
_symmetry_space_group_name_H-M "P M M M"
_symmetry_group_IT_number 47
_symmetry_cell_setting 'orthorhombic'
loop_
_space_group_symop_operation_xyz
x,y,z
-x,-y,z
x,-y,-z
-x,y,-z
-x,-y,-z
x,y,-z
-x,y,z
x,-y,z
loop_
_atom_site_type_symbol
_atom_site_label
_atom_site_fract_x
_atom_site_fract_y
_atom_site_fract_z
Si Si1 0.825653 0.451595 0.389510
Si Si2 0.177696 0.647536 0.392247
Si Si3 0.674945 0.949361 0.219567
Si Si4 0.829639 0.192203 0.390829
Si Si5 0.170125 0.129944 0.109664
Si Si6 0.325500 0.728772 0.285700
Si Si7 0.174762 0.913643 0.606283
Si Si8 0.324021 0.224485 0.104988
O O1 0.813868 0.451418 0.500000
O O2 0.763880 0.500000 0.357162
O O3 0.770044 0.402404 0.360986
O O4 0.000000 0.452028 0.369137
O O5 0.215361 0.653711 0.500000
O O6 0.245061 0.686825 0.331814
O O7 0.000000 0.648630 0.387252
O O8 0.500000 0.944115 0.217322
O O9 0.749805 0.911130 0.158597
O O10 0.734278 0.942272 0.322104
O O11 0.711956 0.000000 0.188384
O O12 0.817630 0.199367 0.500000
O O13 0.725287 0.226203 0.338468
O O14 0.798647 0.139489 0.374177
O O15 0.000000 0.200859 0.365433
O O16 0.245775 0.177681 0.130620
O O17 0.000000 0.131185 0.137754
O O18 0.177760 0.124276 0.000000
O O19 0.500000 0.723148 0.293541
O O20 0.286992 0.737815 0.179602
O O21 0.210715 0.922084 0.500000
O O22 0.000000 0.921359 0.617531
O O23 0.500000 0.217462 0.108675
O O24 0.284695 0.235548 0.000000
#
# Coordination Sequence:
#
# PCOD9387721 Si02
#       8
#     8   8   8   8   8   8   8   8
#     4   7  10  19  37  59  81 110 154 200 230 258
#     4   9  17  28  42  62  91 127 160 189 227 271
#     4  11  24  38  52  73 100 128 155 183 220 269
#     4   9  18  32  48  66  90 120 151 181 216 261
#     4  10  21  37  58  81  99 116 144 185 231 277
#     4  11  21  29  42  66  93 121 152 186 224 265
#     4   9  19  36  56  75  94 120 156 196 234 269
#     4   9  19  36  54  70  91 120 152 185 225 275
#
# _framework density 16.181446999999999
#
# number of rings (size 3 to 8) (size 9 to 14) (size 15 to 20)
#    0.000    2.625    0.000    4.125    0.000    8.000 
#    0.000    3.750    0.000    0.375    0.000    1.750 
#    0.000    0.500    0.000    6.250    0.000    0.250 
#
# Total GULP energy -356829.501170 kJ/mol
# GULP energy per Si atom -5575.460956 kJ/mol
# Density = 1.614462 g / cm^3
# Si number density = 16.181447 Si / 1000 Ang^3
#
#
#
# Elastic Constant Matrix: (Units=GPa)
#
#
# Indices 1 2 3 4 5 6 
#
# 1 31.3072 43.4504 30.9479 0.0000 0.0000 0.0000
# 2 43.4504 98.5998 60.9053 0.0000 0.0000 0.0000
# 3 30.9479 60.9053 56.8232 0.0000 0.0000 0.0000
# 4 0.0000 0.0000 0.0000 13.3314 0.0000 0.0000
# 5 0.0000 0.0000 0.0000 0.0000 20.8676 0.0000
# 6 0.0000 0.0000 0.0000 0.0000 0.0000 -9.8791
#
#
#
# Elastic Compliance Matrix: (Units=1/GPa)
#
#
# Indices 1 2 3 4 5 6 
#
# 1 0.088647 -0.027349 -0.018967 0.000000 0.000000 0.000000
# 2 -0.027349 0.038450 -0.026317 0.000000 0.000000 0.000000
# 3 -0.018967 -0.026317 0.056137 0.000000 0.000000 0.000000
# 4 0.000000 0.000000 0.000000 0.075011 0.000000 0.000000
# 5 0.000000 0.000000 0.000000 0.000000 0.047921 0.000000
# 6 0.000000 0.000000 0.000000 0.000000 0.000000 -0.101224
#
#
# Mechanical properties :
#
#
# Convention : Reuss Voigt Hill
#
# Bulk Modulus (GPa) = 26.33803 50.81527 38.57665
# Shear Modulus (GPa) = 13.77926 8.29243 11.03585
#
# Velocity S-wave (km/s) = 2.92129 2.26623 2.61436
# Velocity P-wave (km/s) = 5.26219 6.19026 5.74499
#
# Compressibility (1/GPa) = 0.03796791
#
# Stress axis : x y z
#
# Youngs Moduli (GPa) = 11.28065 26.00776 17.81371
#
# Poissons Ratio (x) = 0.71127 0.33788
# Poissons Ratio (y) = 0.30851 0.46881
# Poissons Ratio (z) = 0.21396 0.68445
#
# Static dielectric constant tensor:
#      x y z
#    x 1.535880 0.000000 0.000000 
#    y 0.000000 1.554330 0.000000 
#    z 0.000000 0.000000 1.548510 
# 
# From -- ./inp_files/22199.got.cif
#   From: 2010.05.17/outbox.cif.g08.bks.cpg/sg47_12_cif.got.tgz:22199.got - 2010.06.03 20:15:42.
