data_PCOD9387690
_publ_section_title
;
Structure prediction by ZEFSAII (Michael W. Deem and Ramdas Pophale) SiO2 
 PCOD9387690
Probable space group: P M M M
;
_chemical_formula_sum "Si O2"
_cell_formula_units_Z 64
_cell_length_a 24.817960
_cell_length_b 14.327836
_cell_length_c 8.721102
_cell_angle_alpha 90.000000
_cell_angle_beta 90.000000
_cell_angle_gamma 90.000000
_cell_volume 3101.116259
_symmetry_space_group_name_H-M "P M M M"
_symmetry_group_IT_number 47
_symmetry_cell_setting 'orthorhombic'
loop_
_space_group_symop_operation_xyz
x,y,z
-x,-y,z
x,-y,-z
-x,y,-z
-x,-y,-z
x,y,-z
-x,y,z
x,-y,z
loop_
_atom_site_type_symbol
_atom_site_label
_atom_site_fract_x
_atom_site_fract_y
_atom_site_fract_z
Si Si1 0.894081 0.108747 0.317727
Si Si2 0.837627 0.611883 0.323245
Si Si3 0.778691 0.112049 0.823241
Si Si4 0.277162 0.607729 0.817407
Si Si5 0.564435 0.602814 0.826678
Si Si6 0.940332 0.286887 0.182501
Si Si7 0.440284 0.797777 0.680557
Si Si8 0.325105 0.789084 0.684506
O O1 0.900335 0.119071 0.500000
O O2 0.833034 0.134594 0.269192
O O3 0.932745 0.179359 0.230525
O O4 0.902560 0.000000 0.277774
O O5 0.828974 0.639199 0.500000
O O6 0.843613 0.500000 0.315658
O O7 0.783810 0.635482 0.229040
O O8 0.891522 0.658222 0.260271
O O9 0.725747 0.155765 0.749917
O O10 0.773705 0.000000 0.821307
O O11 0.784562 0.142803 0.000000
O O12 0.284996 0.500000 0.766829
O O13 0.316606 0.682898 0.742418
O O14 0.282471 0.610856 0.000000
O O15 0.500000 0.593451 0.840848
O O16 0.585809 0.500000 0.784271
O O17 0.568515 0.687282 0.708895
O O18 0.584405 0.626037 0.000000
O O19 0.000000 0.319362 0.230115
O O20 0.935889 0.296137 0.000000
O O21 0.442892 0.817818 0.500000
O O22 0.500000 0.822232 0.745994
O O23 0.382328 0.833819 0.738346
O O24 0.324417 0.790001 0.500000
#
# Coordination Sequence:
#
# PCOD9387690 Si02
#       8
#     8   8   8   8   8   8   8   8
#     4  10  21  38  61  87 115 147 182 223 273 328
#     4  10  21  38  60  83 109 144 187 237 288 332
#     4  10  21  38  61  87 113 140 174 220 273 331
#     4  10  21  37  57  81 111 147 186 228 275 330
#     4   8  14  25  41  61  86 119 161 207 251 295
#     4  11  24  39  56  81 115 155 195 233 273 322
#     4   9  19  34  49  68  97 135 177 216 259 315
#     4  11  22  35  55  81 110 143 178 224 276 325
#
# _framework density 20.637730000000001
#
# number of rings (size 3 to 8) (size 9 to 14) (size 15 to 20)
#    0.000    2.125    0.000    3.375    0.000    6.250 
#    0.000    6.250    0.000    0.375    0.000    2.625 
#    0.000    0.000    0.000    0.000    0.000    0.000 
#
# Total GULP energy -357220.937033 kJ/mol
# GULP energy per Si atom -5581.577141 kJ/mol
# Density = 2.059076 g / cm^3
# Si number density = 20.637730 Si / 1000 Ang^3
#
#
#
# Elastic Constant Matrix: (Units=GPa)
#
#
# Indices 1 2 3 4 5 6 
#
# 1 123.3158 15.0773 11.9676 0.0000 0.0000 0.0000
# 2 15.0773 15.7037 5.9566 0.0000 0.0000 0.0000
# 3 11.9676 5.9566 35.7783 0.0000 0.0000 0.0000
# 4 0.0000 0.0000 0.0000 26.5160 0.0000 0.0000
# 5 0.0000 0.0000 0.0000 0.0000 49.9224 0.0000
# 6 0.0000 0.0000 0.0000 0.0000 0.0000 4.5479
#
#
#
# Elastic Compliance Matrix: (Units=1/GPa)
#
#
# Indices 1 2 3 4 5 6 
#
# 1 0.009287 -0.008260 -0.001731 0.000000 0.000000 0.000000
# 2 -0.008260 0.075318 -0.009776 0.000000 0.000000 0.000000
# 3 -0.001731 -0.009776 0.030157 0.000000 0.000000 0.000000
# 4 0.000000 0.000000 0.000000 0.037713 0.000000 0.000000
# 5 0.000000 0.000000 0.000000 0.000000 0.020031 0.000000
# 6 0.000000 0.000000 0.000000 0.000000 0.000000 0.219883
#
#
# Mechanical properties :
#
#
# Convention : Reuss Voigt Hill
#
# Bulk Modulus (GPa) = 13.29321 26.75561 20.02441
# Shear Modulus (GPa) = 10.94092 25.65034 18.29563
#
# Velocity S-wave (km/s) = 2.30498 3.52928 2.98067
# Velocity P-wave (km/s) = 3.67955 5.44062 4.64432
#
# Compressibility (1/GPa) = 0.07522639
#
# Stress axis : x y z
#
# Youngs Moduli (GPa) = 107.67506 13.27701 33.16020
#
# Poissons Ratio (x) = 0.10967 0.05741
# Poissons Ratio (y) = 0.88940 0.32419
# Poissons Ratio (z) = 0.18642 0.12980
#
# Static dielectric constant tensor:
#      x y z
#    x 1.776930 0.000000 0.000000 
#    y 0.000000 1.764080 0.000000 
#    z 0.000000 0.000000 1.708400 
# 
# From -- ./inp_files/12662.got.cif
#   From: 2010.05.17/outbox.cif.g08.bks.cpg/sg47_7_cif.got.tgz:12662.got - 2010.06.03 20:15:42.
