data_PCOD9387808
_publ_section_title
;
Structure prediction by ZEFSAII (Michael W. Deem and Ramdas Pophale) SiO2 
 PCOD9387808
Probable space group: P M M M
;
_chemical_formula_sum "Si O2"
_cell_formula_units_Z 48
_cell_length_a 9.110627
_cell_length_b 15.413616
_cell_length_c 17.933131
_cell_angle_alpha 90.000000
_cell_angle_beta 90.000000
_cell_angle_gamma 90.000000
_cell_volume 2518.308449
_symmetry_space_group_name_H-M "P M M M"
_symmetry_group_IT_number 47
_symmetry_cell_setting 'orthorhombic'
loop_
_space_group_symop_operation_xyz
x,y,z
-x,-y,z
x,-y,-z
-x,y,-z
-x,-y,-z
x,y,-z
-x,y,z
x,-y,z
loop_
_atom_site_type_symbol
_atom_site_label
_atom_site_fract_x
_atom_site_fract_y
_atom_site_fract_z
Si Si1 0.325078 0.103416 0.696728
Si Si2 0.666930 0.649507 0.000000
Si Si3 0.834468 0.896308 0.151825
Si Si4 0.823177 0.761678 0.412836
Si Si5 0.665602 0.144622 0.000000
Si Si6 0.667017 0.396246 0.160103
Si Si7 0.176168 0.600554 0.311459
O O1 0.500000 0.114595 0.698947
O O2 0.255212 0.132846 0.775605
O O3 0.254052 0.161119 0.632140
O O4 0.295472 0.000000 0.686549
O O5 0.734862 0.624143 0.920765
O O6 0.500000 0.610996 0.000000
O O7 0.655737 0.752082 0.000000
O O8 0.751399 0.879990 0.074707
O O9 0.000000 0.860083 0.150779
O O10 0.845127 0.000000 0.158858
O O11 0.785397 0.762781 0.500000
O O12 0.782856 0.669619 0.374817
O O13 0.000000 0.771208 0.406120
O O14 0.500000 0.108506 0.000000
O O15 0.500000 0.360324 0.161945
O O16 0.658083 0.500000 0.164341
O O17 0.755686 0.369015 0.232887
O O18 0.221321 0.500000 0.326175
O O19 0.000000 0.600427 0.305104
#
# Coordination Sequence:
#
# PCOD9387808 Si02
#       7
#     8   4   8   8   4   8   8
#     4  10  22  40  62  87 115 149 189 236 291 346
#     4   9  19  32  47  74 108 143 184 227 270 319
#     4  10  21  38  58  79 107 146 191 236 282 334
#     4  10  22  39  60  87 117 151 189 230 282 345
#     4  11  22  33  49  79 116 151 190 235 281 330
#     4   9  17  32  54  76 102 142 188 230 274 325
#     4   9  19  36  57  83 115 149 188 234 282 333
#
# _framework density 19.060411999999999
#
# number of rings (size 3 to 8) (size 9 to 14) (size 15 to 20)
#    0.000    2.333    0.000    1.750    2.333    5.667 
#    0.000    4.583    0.000    2.000    0.000    3.500 
#    0.000    0.000    0.000    0.000    0.000    0.000 
#
# Total GULP energy -267777.854420 kJ/mol
# GULP energy per Si atom -5578.705300 kJ/mol
# Density = 1.901703 g / cm^3
# Si number density = 19.060412 Si / 1000 Ang^3
#
#
#
# Elastic Constant Matrix: (Units=GPa)
#
#
# Indices 1 2 3 4 5 6 
#
# 1 67.8693 43.8282 78.1027 0.0000 0.0000 0.0000
# 2 43.8282 67.0138 69.4323 0.0000 0.0000 0.0000
# 3 78.1027 69.4323 214.3943 0.0000 0.0000 0.0000
# 4 0.0000 0.0000 0.0000 38.3147 0.0000 0.0000
# 5 0.0000 0.0000 0.0000 0.0000 33.5173 0.0000
# 6 0.0000 0.0000 0.0000 0.0000 0.0000 20.3931
#
#
#
# Elastic Compliance Matrix: (Units=1/GPa)
#
#
# Indices 1 2 3 4 5 6 
#
# 1 0.031544 -0.013130 -0.007239 0.000000 0.000000 0.000000
# 2 -0.013130 0.027923 -0.004260 0.000000 0.000000 0.000000
# 3 -0.007239 -0.004260 0.008681 0.000000 0.000000 0.000000
# 4 0.000000 0.000000 0.000000 0.026100 0.000000 0.000000
# 5 0.000000 0.000000 0.000000 0.000000 0.029835 0.000000
# 6 0.000000 0.000000 0.000000 0.000000 0.000000 0.049036
#
#
# Mechanical properties :
#
#
# Convention : Reuss Voigt Hill
#
# Bulk Modulus (GPa) = 52.93728 81.33377 67.13552
# Shear Modulus (GPa) = 21.86528 28.97264 25.41896
#
# Velocity S-wave (km/s) = 3.39064 3.90300 3.65581
# Velocity P-wave (km/s) = 6.56981 7.94200 7.28827
#
# Compressibility (1/GPa) = 0.01889028
#
# Stress axis : x y z
#
# Youngs Moduli (GPa) = 31.70209 35.81273 115.19389
#
# Poissons Ratio (x) = 0.47021 0.83389
# Poissons Ratio (y) = 0.41624 0.49071
# Poissons Ratio (z) = 0.22949 0.15256
#
# Static dielectric constant tensor:
#      x y z
#    x 1.678870 0.000000 0.000000 
#    y 0.000000 1.671620 0.000000 
#    z 0.000000 0.000000 1.649920 
# 
# From -- ./inp_files/6526.got.cif
#   From: 2010.05.17/outbox.cif.g08.bks.cpg/sg47_4_cif.got.tgz:6526.got - 2010.06.03 20:15:42.
