data_PCOD9387391
_publ_section_title
;
Structure prediction by ZEFSAII (Michael W. Deem and Ramdas Pophale) SiO2 
 PCOD9387391
Probable space group: P M M M
;
_chemical_formula_sum "Si O2"
_cell_formula_units_Z 52
_cell_length_a 21.048815
_cell_length_b 15.166274
_cell_length_c 7.987058
_cell_angle_alpha 90.000000
_cell_angle_beta 90.000000
_cell_angle_gamma 90.000000
_cell_volume 2549.725264
_symmetry_space_group_name_H-M "P M M M"
_symmetry_group_IT_number 47
_symmetry_cell_setting 'orthorhombic'
loop_
_space_group_symop_operation_xyz
x,y,z
-x,-y,z
x,-y,-z
-x,y,-z
-x,-y,-z
x,y,-z
-x,y,z
x,-y,z
loop_
_atom_site_type_symbol
_atom_site_label
_atom_site_fract_x
_atom_site_fract_y
_atom_site_fract_z
Si Si1 0.191803 0.900222 0.200418
Si Si2 0.241930 0.404798 0.296794
Si Si3 0.428165 0.303637 0.198248
Si Si4 0.930811 0.790678 0.204887
Si Si5 0.577225 0.500000 0.690273
Si Si6 0.303416 0.775476 0.698383
Si Si7 0.905005 0.595191 0.800863
O O1 0.131615 0.842935 0.263952
O O2 0.258744 0.852487 0.233883
O O3 0.190701 0.000000 0.266361
O O4 0.184397 0.904302 0.000000
O O5 0.240232 0.402174 0.500000
O O6 0.270318 0.500000 0.248283
O O7 0.275858 0.317366 0.234285
O O8 0.170432 0.402755 0.229366
O O9 0.500000 0.293675 0.266987
O O10 0.406329 0.404432 0.235748
O O11 0.377939 0.232578 0.264190
O O12 0.430931 0.294679 0.000000
O O13 0.928934 0.688949 0.263910
O O14 0.000000 0.829044 0.250037
O O15 0.927921 0.788863 0.000000
O O16 0.500000 0.500000 0.693718
O O17 0.600517 0.500000 0.500000
O O18 0.295434 0.776656 0.500000
O O19 0.927198 0.500000 0.732791
O O20 0.918055 0.594345 0.000000
#
# Coordination Sequence:
#
# PCOD9387391 Si02
#       7
#     8   8   8   8   4   8   8
#     4  10  21  38  59  81 107 139 179 232 290 345
#     4   9  18  31  47  71 104 140 178 220 265 315
#     4  10  21  36  54  80 116 155 194 234 275 325
#     4   9  17  30  50  78 110 141 178 225 274 329
#     4   9  17  31  51  77 115 161 202 235 270 317
#     4  11  22  35  57  83 109 145 185 230 282 337
#     4   9  16  27  46  72 103 140 179 220 266 317
#
# _framework density 20.394354
#
# number of rings (size 3 to 8) (size 9 to 14) (size 15 to 20)
#    0.000    2.385    1.538    1.154    1.077    3.385 
#    0.000    3.077    0.000    2.308    0.000    6.462 
#    0.000    0.000    0.000    0.000    0.000    0.000 
#
# Total GULP energy -290013.782727 kJ/mol
# GULP energy per Si atom -5577.188129 kJ/mol
# Density = 2.034794 g / cm^3
# Si number density = 20.394354 Si / 1000 Ang^3
#
#
#
# Elastic Constant Matrix: (Units=GPa)
#
#
# Indices 1 2 3 4 5 6 
#
# 1 128.5525 73.0828 -4.4146 0.0000 0.0000 0.0000
# 2 73.0828 137.9966 12.2057 0.0000 0.0000 0.0000
# 3 -4.4146 12.2057 14.0242 0.0000 0.0000 0.0000
# 4 0.0000 0.0000 0.0000 11.0305 0.0000 0.0000
# 5 0.0000 0.0000 0.0000 0.0000 54.6920 0.0000
# 6 0.0000 0.0000 0.0000 0.0000 0.0000 0.5314
#
#
#
# Elastic Compliance Matrix: (Units=1/GPa)
#
#
# Indices 1 2 3 4 5 6 
#
# 1 0.012391 -0.007483 0.010413 0.000000 0.000000 0.000000
# 2 -0.007483 0.012370 -0.013122 0.000000 0.000000 0.000000
# 3 0.010413 -0.013122 0.086004 0.000000 0.000000 0.000000
# 4 0.000000 0.000000 0.000000 0.090658 0.000000 0.000000
# 5 0.000000 0.000000 0.000000 0.000000 0.018284 0.000000
# 6 0.000000 0.000000 0.000000 0.000000 0.000000 1.881798
#
#
# Mechanical properties :
#
#
# Convention : Reuss Voigt Hill
#
# Bulk Modulus (GPa) = 11.06424 49.14678 30.10551
# Shear Modulus (GPa) = 2.32340 26.56408 14.44374
#
# Velocity S-wave (km/s) = 1.06851 3.61296 2.66413
# Velocity P-wave (km/s) = 2.63803 6.44633 4.92516
#
# Compressibility (1/GPa) = 0.09038128
#
# Stress axis : x y z
#
# Youngs Moduli (GPa) = 80.70533 80.83905 11.62741
#
# Poissons Ratio (x) = 0.60493 -0.12108
# Poissons Ratio (y) = 0.60393 0.15257
# Poissons Ratio (z) = -0.84041 1.06076
#
# Static dielectric constant tensor:
#      x y z
#    x 1.781480 0.000000 0.000000 
#    y 0.000000 1.768720 0.000000 
#    z 0.000000 0.000000 1.739400 
# 
# From -- ./inp_files/11050.got.cif
#   From: 2010.05.17/outbox.cif.g08.bks.cpg/sg47_6_cif.got.tgz:11050.got - 2010.06.03 20:15:42.
