data_PCOD9387209
_publ_section_title
;
Structure prediction by ZEFSAII (Michael W. Deem and Ramdas Pophale) SiO2 
 PCOD9387209
Probable space group: P M M M
;
_chemical_formula_sum "Si O2"
_cell_formula_units_Z 52
_cell_length_a 14.262041
_cell_length_b 15.114564
_cell_length_c 15.719149
_cell_angle_alpha 90.000000
_cell_angle_beta 90.000000
_cell_angle_gamma 90.000000
_cell_volume 3388.490989
_symmetry_space_group_name_H-M "P M M M"
_symmetry_group_IT_number 47
_symmetry_cell_setting 'orthorhombic'
loop_
_space_group_symop_operation_xyz
x,y,z
-x,-y,z
x,-y,-z
-x,y,-z
-x,-y,-z
x,y,-z
-x,y,z
x,-y,z
loop_
_atom_site_type_symbol
_atom_site_label
_atom_site_fract_x
_atom_site_fract_y
_atom_site_fract_z
Si Si1 0.887570 0.096405 0.841092
Si Si2 0.393005 0.192304 0.603752
Si Si3 0.113093 0.603057 0.258969
Si Si4 0.385677 0.000000 0.597381
Si Si5 0.791454 0.281064 0.596911
Si Si6 0.111786 0.901264 0.637010
Si Si7 0.885676 0.714616 0.094693
O O1 0.875433 0.104210 0.739274
O O2 0.852758 0.185266 0.885582
O O3 0.000000 0.094480 0.855418
O O4 0.850458 0.000000 0.868517
O O5 0.393591 0.186035 0.500000
O O6 0.500000 0.209825 0.630092
O O7 0.361498 0.094895 0.636442
O O8 0.315828 0.264579 0.625135
O O9 0.138742 0.500000 0.260162
O O10 0.155664 0.656353 0.337756
O O11 0.142761 0.650355 0.171137
O O12 0.000000 0.609312 0.263955
O O13 0.500000 0.000000 0.593664
O O14 0.351449 0.000000 0.500000
O O15 0.794364 0.314316 0.500000
O O16 0.837823 0.183187 0.598063
O O17 0.000000 0.895735 0.620515
O O18 0.143269 0.000000 0.609731
O O19 0.000000 0.716062 0.095847
O O20 0.856807 0.687153 0.000000
#
# Coordination Sequence:
#
# PCOD9387209 Si02
#       7
#     8   8   8   4   8   8   8
#     4   8  13  23  39  58  85 119 147 173 209 254
#     4   8  15  27  42  62  88 114 142 182 224 262
#     4  10  21  36  49  62  86 116 149 194 237 268
#     4   7  10  20  38  58  83 113 140 169 211 259
#     4  11  21  30  46  66  85 117 158 190 222 271
#     4   9  17  28  40  57  88 126 158 187 217 252
#     4   9  16  27  45  66  86 112 147 182 220 265
#
# _framework density 15.346064999999999
#
# number of rings (size 3 to 8) (size 9 to 14) (size 15 to 20)
#    0.000    3.000    1.538    2.308    1.077    2.462 
#    0.000    4.615    0.000    0.462    0.000    2.154 
#    0.000    0.615    0.000    1.385    0.000   10.615 
#
# Total GULP energy -289542.997223 kJ/mol
# GULP energy per Si atom -5568.134562 kJ/mol
# Density = 1.531114 g / cm^3
# Si number density = 15.346065 Si / 1000 Ang^3
#
#
#
# Elastic Constant Matrix: (Units=GPa)
#
#
# Indices 1 2 3 4 5 6 
#
# 1 30.1870 27.5656 19.0919 0.0000 0.0000 0.0000
# 2 27.5656 103.9857 54.9016 0.0000 0.0000 0.0000
# 3 19.0919 54.9016 74.4974 0.0000 0.0000 0.0000
# 4 0.0000 0.0000 0.0000 0.5210 0.0000 0.0000
# 5 0.0000 0.0000 0.0000 0.0000 -4.7551 0.0000
# 6 0.0000 0.0000 0.0000 0.0000 0.0000 15.2532
#
#
#
# Elastic Compliance Matrix: (Units=1/GPa)
#
#
# Indices 1 2 3 4 5 6 
#
# 1 0.044589 -0.009473 -0.004446 0.000000 0.000000 0.000000
# 2 -0.009473 0.017754 -0.010656 0.000000 0.000000 0.000000
# 3 -0.004446 -0.010656 0.022416 0.000000 0.000000 0.000000
# 4 0.000000 0.000000 0.000000 1.919368 0.000000 0.000000
# 5 0.000000 0.000000 0.000000 0.000000 -0.210302 0.000000
# 6 0.000000 0.000000 0.000000 0.000000 0.000000 0.065560
#
#
# Mechanical properties :
#
#
# Convention : Reuss Voigt Hill
#
# Bulk Modulus (GPa) = 28.08304 45.75425 36.91865
# Shear Modulus (GPa) = 2.60362 9.34456 5.97409
#
# Velocity S-wave (km/s) = 1.30395 2.47031 1.97519
# Velocity P-wave (km/s) = 4.53945 6.16574 5.41400
#
# Compressibility (1/GPa) = 0.03560868
#
# Stress axis : x y z
#
# Youngs Moduli (GPa) = 22.42712 56.32478 44.61077
#
# Poissons Ratio (x) = 0.53355 0.19834
# Poissons Ratio (y) = 0.21245 0.47539
# Poissons Ratio (z) = 0.09971 0.60022
#
# Static dielectric constant tensor:
#      x y z
#    x 1.518500 0.000000 0.000000 
#    y 0.000000 1.533920 0.000000 
#    z 0.000000 0.000000 1.511550 
# 
# From -- ./inp_files/23807.got.cif
#   From: 2010.05.17/outbox.cif.g08.bks.cpg/sg47_12_cif.got.tgz:23807.got - 2010.06.03 20:15:42.
