data_PCOD9387639
_publ_section_title
;
Structure prediction by ZEFSAII (Michael W. Deem and Ramdas Pophale) SiO2 
 PCOD9387639
Probable space group: P M M M
;
_chemical_formula_sum "Si O2"
_cell_formula_units_Z 44
_cell_length_a 29.924491
_cell_length_b 9.506706
_cell_length_c 7.559201
_cell_angle_alpha 90.000000
_cell_angle_beta 90.000000
_cell_angle_gamma 90.000000
_cell_volume 2150.466734
_symmetry_space_group_name_H-M "P M M M"
_symmetry_group_IT_number 47
_symmetry_cell_setting 'orthorhombic'
loop_
_space_group_symop_operation_xyz
x,y,z
-x,-y,z
x,-y,-z
-x,y,-z
-x,-y,-z
x,y,-z
-x,y,z
x,-y,z
loop_
_atom_site_type_symbol
_atom_site_label
_atom_site_fract_x
_atom_site_fract_y
_atom_site_fract_z
Si Si1 0.229862 0.660272 0.787412
Si Si2 0.587658 0.841013 0.288797
Si Si3 0.500000 0.659752 0.210512
Si Si4 0.048052 0.168902 0.212973
Si Si5 0.329429 0.660840 0.288322
Si Si6 0.145246 0.836538 0.783424
O O1 0.227675 0.500000 0.720428
O O2 0.279409 0.715290 0.746115
O O3 0.188123 0.750387 0.721956
O O4 0.226367 0.655803 0.000000
O O5 0.593420 0.852603 0.500000
O O6 0.543933 0.746754 0.261167
O O7 0.631264 0.759749 0.218365
O O8 0.582582 0.000000 0.219096
O O9 0.500000 0.500000 0.282838
O O10 0.500000 0.649624 0.000000
O O11 0.096541 0.220095 0.275818
O O12 0.000000 0.222636 0.280899
O O13 0.048474 0.000000 0.242748
O O14 0.047496 0.188317 0.000000
O O15 0.334690 0.652567 0.500000
O O16 0.332580 0.500000 0.219207
O O17 0.149081 0.000000 0.732491
O O18 0.144848 0.833627 0.000000
#
# Coordination Sequence:
#
# PCOD9387639 Si02
#       6
#     8   8   4   8   8   8
#     4   9  17  28  42  61  86 115 145 180 223 268
#     4  10  21  37  57  80 104 130 161 198 241 285
#     4  11  24  39  56  80 108 137 168 199 230 270
#     4   7   9  14  26  45  69  98 133 171 208 250
#     4   9  18  33  51  69  91 122 158 191 224 268
#     4   8  13  21  34  53  77 106 140 175 213 262
#
# _framework density 20.460674999999998
#
# number of rings (size 3 to 8) (size 9 to 14) (size 15 to 20)
#    0.000    3.182    0.000    2.727    0.000    4.364 
#    0.000    1.818    0.000    0.545    0.000    3.818 
#    0.000    0.727    0.000    9.091    0.000    8.364 
#
# Total GULP energy -245219.648420 kJ/mol
# GULP energy per Si atom -5573.173828 kJ/mol
# Density = 2.041411 g / cm^3
# Si number density = 20.460675 Si / 1000 Ang^3
#
#
#
# Elastic Constant Matrix: (Units=GPa)
#
#
# Indices 1 2 3 4 5 6 
#
# 1 256.5780 108.1083 -0.6718 0.0000 0.0000 0.0000
# 2 108.1083 97.2556 5.0546 0.0000 0.0000 0.0000
# 3 -0.6718 5.0546 46.9542 0.0000 0.0000 0.0000
# 4 0.0000 0.0000 0.0000 3.2504 0.0000 0.0000
# 5 0.0000 0.0000 0.0000 0.0000 20.1178 0.0000
# 6 0.0000 0.0000 0.0000 0.0000 0.0000 68.1213
#
#
#
# Elastic Compliance Matrix: (Units=1/GPa)
#
#
# Indices 1 2 3 4 5 6 
#
# 1 0.007377 -0.008252 0.000994 0.000000 0.000000 0.000000
# 2 -0.008252 0.019570 -0.002225 0.000000 0.000000 0.000000
# 3 0.000994 -0.002225 0.021551 0.000000 0.000000 0.000000
# 4 0.000000 0.000000 0.000000 0.307652 0.000000 0.000000
# 5 0.000000 0.000000 0.000000 0.000000 0.049707 0.000000
# 6 0.000000 0.000000 0.000000 0.000000 0.000000 0.014680
#
#
# Mechanical properties :
#
#
# Convention : Reuss Voigt Hill
#
# Bulk Modulus (GPa) = 33.86053 69.53001 51.69527
# Shear Modulus (GPa) = 11.12727 37.51770 24.32248
#
# Velocity S-wave (km/s) = 2.33456 4.28676 3.45156
# Velocity P-wave (km/s) = 4.88384 7.65230 6.41910
#
# Compressibility (1/GPa) = 0.02953291
#
# Stress axis : x y z
#
# Youngs Moduli (GPa) = 135.55845 51.09772 46.40143
#
# Poissons Ratio (x) = 0.42164 -0.04612
# Poissons Ratio (y) = 1.11859 0.10323
# Poissons Ratio (z) = -0.13472 0.11368
#
# Static dielectric constant tensor:
#      x y z
#    x 1.749350 0.000000 0.000000 
#    y 0.000000 1.714790 0.000000 
#    z 0.000000 0.000000 1.780700 
# 
# From -- ./inp_files/13556.got.cif
#   From: 2010.05.17/outbox.cif.g08.bks.cpg/sg47_7_cif.got.tgz:13556.got - 2010.06.03 20:15:42.
