data_PCOD9387180
_publ_section_title
;
Structure prediction by ZEFSAII (Michael W. Deem and Ramdas Pophale) SiO2 
 PCOD9387180
Probable space group: P M M M
;
_chemical_formula_sum "Si O2"
_cell_formula_units_Z 48
_cell_length_a 9.074936
_cell_length_b 15.498969
_cell_length_c 17.596904
_cell_angle_alpha 90.000000
_cell_angle_beta 90.000000
_cell_angle_gamma 90.000000
_cell_volume 2475.042412
_symmetry_space_group_name_H-M "P M M M"
_symmetry_group_IT_number 47
_symmetry_cell_setting 'orthorhombic'
loop_
_space_group_symop_operation_xyz
x,y,z
-x,-y,z
x,-y,-z
-x,y,-z
-x,-y,-z
x,y,-z
-x,y,z
x,-y,z
loop_
_atom_site_type_symbol
_atom_site_label
_atom_site_fract_x
_atom_site_fract_y
_atom_site_fract_z
Si Si1 0.835055 0.398014 0.844208
Si Si2 0.827979 0.184255 0.000000
Si Si3 0.671271 0.642737 0.000000
Si Si4 0.835390 0.103218 0.164428
Si Si5 0.325124 0.102054 0.684450
Si Si6 0.675991 0.602885 0.690296
Si Si7 0.174789 0.252350 0.590328
O O1 0.849868 0.500000 0.832811
O O2 0.743172 0.367602 0.771509
O O3 0.000000 0.359665 0.847597
O O4 0.751140 0.387766 0.923446
O O5 0.809519 0.133886 0.921206
O O6 0.703714 0.256203 0.000000
O O7 0.000000 0.216590 0.000000
O O8 0.500000 0.619743 0.000000
O O9 0.721771 0.128476 0.229867
O O10 0.000000 0.132595 0.187286
O O11 0.835346 0.000000 0.162296
O O12 0.500000 0.110436 0.675086
O O13 0.242138 0.166206 0.627846
O O14 0.286646 0.000000 0.674032
O O15 0.500000 0.613038 0.691291
O O16 0.706793 0.500000 0.679003
O O17 0.748212 0.664116 0.627522
O O18 0.198278 0.251367 0.500000
O O19 0.000000 0.255962 0.605382
#
# Coordination Sequence:
#
# PCOD9387180 Si02
#       7
#     8   4   4   8   8   8   8
#     4  10  21  39  62  85 113 153 200 248 298 354
#     4  10  21  35  53  80 115 155 199 248 297 348
#     4  12  25  36  51  80 119 160 201 248 299 350
#     4   9  18  35  59  84 112 151 199 248 297 352
#     4  10  22  40  63  91 124 162 203 252 311 368
#     4  10  22  41  66  95 126 161 201 248 305 367
#     4  11  25  43  65  93 124 161 203 249 303 365
#
# _framework density 19.393606999999999
#
# number of rings (size 3 to 8) (size 9 to 14) (size 15 to 20)
#    0.000    1.833    0.000    3.250    2.333    7.667 
#    0.000    3.333    0.000    2.500    0.000    0.000 
#    0.000    0.000    0.000    0.000    0.000    0.000 
#
# Total GULP energy -267984.268647 kJ/mol
# GULP energy per Si atom -5583.005597 kJ/mol
# Density = 1.934947 g / cm^3
# Si number density = 19.393607 Si / 1000 Ang^3
#
#
#
# Elastic Constant Matrix: (Units=GPa)
#
#
# Indices 1 2 3 4 5 6 
#
# 1 132.3106 63.6767 87.2963 0.0000 0.0000 0.0000
# 2 63.6767 74.9105 60.2557 0.0000 0.0000 0.0000
# 3 87.2963 60.2557 140.2787 0.0000 0.0000 0.0000
# 4 0.0000 0.0000 0.0000 38.4058 0.0000 0.0000
# 5 0.0000 0.0000 0.0000 0.0000 -357.1816 0.0000
# 6 0.0000 0.0000 0.0000 0.0000 0.0000 28.8070
#
#
#
# Elastic Compliance Matrix: (Units=1/GPa)
#
#
# Indices 1 2 3 4 5 6 
#
# 1 0.015623 -0.008342 -0.006139 0.000000 0.000000 0.000000
# 2 -0.008342 0.024851 -0.005483 0.000000 0.000000 0.000000
# 3 -0.006139 -0.005483 0.013304 0.000000 0.000000 0.000000
# 4 0.000000 0.000000 0.000000 0.026038 0.000000 0.000000
# 5 0.000000 0.000000 0.000000 0.000000 -0.002800 0.000000
# 6 0.000000 0.000000 0.000000 0.000000 0.000000 0.034714
#
#
# Mechanical properties :
#
#
# Convention : Reuss Voigt Hill
#
# Bulk Modulus (GPa) = 72.20436 85.55079 78.87758
# Shear Modulus (GPa) = 31.99469 -48.90901 -8.45716
#
# Velocity S-wave (km/s) = 4.06612 -5.02731 -2.09052
# Velocity P-wave (km/s) = 7.70430 3.24193 5.91043
#
# Compressibility (1/GPa) = 0.01384958
#
# Stress axis : x y z
#
# Youngs Moduli (GPa) = 64.00684 40.23989 75.16367
#
# Poissons Ratio (x) = 0.33569 0.46144
# Poissons Ratio (y) = 0.53396 0.41213
# Poissons Ratio (z) = 0.39295 0.22064
#
# Static dielectric constant tensor:
#      x y z
#    x 1.682860 0.000000 0.000000 
#    y 0.000000 1.700640 0.000000 
#    z 0.000000 0.000000 1.693930 
# 
# From -- ./inp_files/21049.got.cif
#   From: 2010.05.17/outbox.cif.g08.bks.cpg/sg47_11_cif.got.tgz:21049.got - 2010.06.03 20:15:42.
