data_PCOD9387228
_publ_section_title
;
Structure prediction by ZEFSAII (Michael W. Deem and Ramdas Pophale) SiO2 
 PCOD9387228
Probable space group: P M M M
;
_chemical_formula_sum "Si O2"
_cell_formula_units_Z 56
_cell_length_a 14.866722
_cell_length_b 7.984319
_cell_length_c 24.499078
_cell_angle_alpha 90.000000
_cell_angle_beta 90.000000
_cell_angle_gamma 90.000000
_cell_volume 2908.056506
_symmetry_space_group_name_H-M "P M M M"
_symmetry_group_IT_number 47
_symmetry_cell_setting 'orthorhombic'
loop_
_space_group_symop_operation_xyz
x,y,z
-x,-y,z
x,-y,-z
-x,y,-z
-x,-y,-z
x,y,-z
-x,y,z
x,-y,z
loop_
_atom_site_type_symbol
_atom_site_label
_atom_site_fract_x
_atom_site_fract_y
_atom_site_fract_z
Si Si1 0.252934 0.303092 0.230132
Si Si2 0.396185 0.795574 0.439037
Si Si3 0.894763 0.702149 0.560877
Si Si4 0.750706 0.797302 0.937701
Si Si5 0.102287 0.701750 0.147147
Si Si6 0.601734 0.199561 0.147730
Si Si7 0.748936 0.803275 0.353710
O O1 0.257665 0.500000 0.219257
O O2 0.165955 0.236659 0.196835
O O3 0.342884 0.228010 0.203397
O O4 0.244665 0.275165 0.294259
O O5 0.368168 0.740874 0.500000
O O6 0.500000 0.748398 0.431021
O O7 0.332065 0.734233 0.391171
O O8 0.392478 0.000000 0.439038
O O9 0.864952 0.757045 0.500000
O O10 0.887234 0.500000 0.562911
O O11 0.836532 0.777322 0.609134
O O12 0.000000 0.743812 0.566251
O O13 0.842218 0.746149 0.907190
O O14 0.667057 0.735643 0.900573
O O15 0.747449 0.000000 0.937968
O O16 0.746245 0.738633 0.000000
O O17 0.097518 0.500000 0.150900
O O18 0.000000 0.765922 0.148210
O O19 0.500000 0.267445 0.148127
O O20 0.595223 0.000000 0.139933
O O21 0.733717 0.000000 0.345290
#
# Coordination Sequence:
#
# PCOD9387228 Si02
#       7
#     8   8   8   8   8   8   8
#     4  10  21  36  52  72 100 134 173 215 257 304
#     4   8  15  29  48  70  97 128 160 195 240 296
#     4   9  19  36  55  74 100 136 173 208 254 313
#     4   9  18  32  51  79 111 136 162 201 249 302
#     4   9  19  36  55  72  94 131 175 213 250 294
#     4   9  18  34  55  76 101 136 174 211 252 297
#     4  11  21  32  51  79 105 130 166 213 263 309
#
# _framework density 19.256848000000002
#
# number of rings (size 3 to 8) (size 9 to 14) (size 15 to 20)
#    0.000    2.714    0.000    2.143    0.000    4.286 
#    0.000    6.429    0.000    1.286    0.000    9.000 
#    0.000    0.000    0.000    0.000    0.000    0.000 
#
# Total GULP energy -312340.907819 kJ/mol
# GULP energy per Si atom -5577.516211 kJ/mol
# Density = 1.921302 g / cm^3
# Si number density = 19.256848 Si / 1000 Ang^3
#
#
#
# Elastic Constant Matrix: (Units=GPa)
#
#
# Indices 1 2 3 4 5 6 
#
# 1 146.3250 5.5349 72.7151 0.0000 0.0000 0.0000
# 2 5.5349 13.0924 -2.9213 0.0000 0.0000 0.0000
# 3 72.7151 -2.9213 144.6601 0.0000 0.0000 0.0000
# 4 0.0000 0.0000 0.0000 21.5665 0.0000 0.0000
# 5 0.0000 0.0000 0.0000 0.0000 17.6412 0.0000
# 6 0.0000 0.0000 0.0000 0.0000 0.0000 -943.3082
#
#
#
# Elastic Compliance Matrix: (Units=1/GPa)
#
#
# Indices 1 2 3 4 5 6 
#
# 1 0.009433 -0.005069 -0.004844 0.000000 0.000000 0.000000
# 2 -0.005069 0.079450 0.004152 0.000000 0.000000 0.000000
# 3 -0.004844 0.004152 0.009431 0.000000 0.000000 0.000000
# 4 0.000000 0.000000 0.000000 0.046368 0.000000 0.000000
# 5 0.000000 0.000000 0.000000 0.000000 0.056686 0.000000
# 6 0.000000 0.000000 0.000000 0.000000 0.000000 -0.001060
#
#
# Mechanical properties :
#
#
# Convention : Reuss Voigt Hill
#
# Bulk Modulus (GPa) = 11.52161 50.52609 31.02385
# Shear Modulus (GPa) = 20.76757 -165.57018 -72.40131
#
# Velocity S-wave (km/s) = 3.28754 -9.28259 -6.13835
# Velocity P-wave (km/s) = 4.51738 9.41243 5.83897
#
# Compressibility (1/GPa) = 0.08679344
#
# Stress axis : x y z
#
# Youngs Moduli (GPa) = 106.01079 12.58658 106.02786
#
# Poissons Ratio (x) = 0.06380 0.51360
# Poissons Ratio (y) = 0.53734 -0.44026
# Poissons Ratio (z) = 0.51351 -0.05226
#
# Static dielectric constant tensor:
#      x y z
#    x 1.675010 0.000000 0.000000 
#    y 0.000000 1.714360 0.000000 
#    z 0.000000 0.000000 1.651210 
# 
# From -- ./inp_files/11270.got.cif
#   From: 2010.05.17/outbox.cif.g08.bks.cpg/sg47_6_cif.got.tgz:11270.got - 2010.06.03 20:15:42.
