data_PCOD9387999
_publ_section_title
;
Structure prediction by ZEFSAII (Michael W. Deem and Ramdas Pophale) SiO2 
 PCOD9387999
Probable space group: P M M M
;
_chemical_formula_sum "Si O2"
_cell_formula_units_Z 32
_cell_length_a 7.525194
_cell_length_b 17.552762
_cell_length_c 11.000287
_cell_angle_alpha 90.000000
_cell_angle_beta 90.000000
_cell_angle_gamma 90.000000
_cell_volume 1453.005241
_symmetry_space_group_name_H-M "P M M M"
_symmetry_group_IT_number 47
_symmetry_cell_setting 'orthorhombic'
loop_
_space_group_symop_operation_xyz
x,y,z
-x,-y,z
x,-y,-z
-x,y,-z
-x,-y,-z
x,y,-z
-x,y,z
x,-y,z
loop_
_atom_site_type_symbol
_atom_site_label
_atom_site_fract_x
_atom_site_fract_y
_atom_site_fract_z
Si Si1 0.797955 0.407557 0.000000
Si Si2 0.290382 0.257757 0.369050
Si Si3 0.787387 0.000000 0.140057
Si Si4 0.784375 0.586683 0.735344
Si Si5 0.291457 0.169111 0.139037
O O1 0.716422 0.388788 0.870021
O O2 0.807729 0.500000 0.000000
O O3 0.000000 0.377595 0.000000
O O4 0.216294 0.233035 0.500000
O O5 0.500000 0.239217 0.369694
O O6 0.271059 0.348539 0.356559
O O7 0.213109 0.221263 0.245809
O O8 0.724789 0.081846 0.185652
O O9 0.000000 0.000000 0.143910
O O10 0.725978 0.000000 0.000000
O O11 0.727084 0.500000 0.709586
O O12 0.000000 0.585072 0.741473
O O13 0.500000 0.187158 0.128058
O O14 0.217451 0.175061 0.000000
#
# Coordination Sequence:
#
# PCOD9387999 Si02
#       5
#     4   8   4   8   8
#     4   7  12  26  47  71  97 122 155 206 261 307
#     4  10  22  37  51  73 107 141 174 216 263 307
#     4   9  17  31  54  85 112 130 160 209 258 302
#     4   9  18  33  53  75 100 134 176 219 264 314
#     4   9  18  34  56  78 102 136 174 208 248 305
#
# _framework density 22.023319999999998
#
# number of rings (size 3 to 8) (size 9 to 14) (size 15 to 20)
#    0.000    3.000    0.000    1.875    1.750    4.000 
#    0.000    3.125    0.000    6.000    0.000    0.000 
#    0.000    0.000    0.000    0.000    0.000    0.000 
#
# Total GULP energy -178339.910109 kJ/mol
# GULP energy per Si atom -5573.122191 kJ/mol
# Density = 2.197319 g / cm^3
# Si number density = 22.023320 Si / 1000 Ang^3
#
#
#
# Elastic Constant Matrix: (Units=GPa)
#
#
# Indices 1 2 3 4 5 6 
#
# 1 60.5518 -7.7923 9.7730 0.0000 0.0000 0.0000
# 2 -7.7923 97.9646 68.7863 0.0000 0.0000 0.0000
# 3 9.7730 68.7863 151.1316 0.0000 0.0000 0.0000
# 4 0.0000 0.0000 0.0000 1.2729 0.0000 0.0000
# 5 0.0000 0.0000 0.0000 0.0000 2.9421 0.0000
# 6 0.0000 0.0000 0.0000 0.0000 0.0000 19.5170
#
#
#
# Elastic Compliance Matrix: (Units=1/GPa)
#
#
# Indices 1 2 3 4 5 6 
#
# 1 0.017339 0.003184 -0.002570 0.000000 0.000000 0.000000
# 2 0.003184 0.015587 -0.007300 0.000000 0.000000 0.000000
# 3 -0.002570 -0.007300 0.010106 0.000000 0.000000 0.000000
# 4 0.000000 0.000000 0.000000 0.785608 0.000000 0.000000
# 5 0.000000 0.000000 0.000000 0.000000 0.339893 0.000000
# 6 0.000000 0.000000 0.000000 0.000000 0.000000 0.051237
#
#
# Mechanical properties :
#
#
# Convention : Reuss Voigt Hill
#
# Bulk Modulus (GPa) = 33.71681 50.13132 41.92406
# Shear Modulus (GPa) = 4.02243 20.67180 12.34712
#
# Velocity S-wave (km/s) = 1.35293 3.06703 2.37035
# Velocity P-wave (km/s) = 4.21703 5.94597 5.15451
#
# Compressibility (1/GPa) = 0.02965880
#
# Stress axis : x y z
#
# Youngs Moduli (GPa) = 57.67210 64.15659 98.95536
#
# Poissons Ratio (x) = -0.20428 0.25436
# Poissons Ratio (y) = -0.18363 0.72239
# Poissons Ratio (z) = 0.14824 0.46835
#
# Static dielectric constant tensor:
#      x y z
#    x 1.824880 0.000000 0.000000 
#    y 0.000000 1.821170 0.000000 
#    z 0.000000 0.000000 1.857390 
# 
# From -- ./inp_files/14823.got.cif
#   From: 2010.05.17/outbox.cif.g08.bks.cpg/sg47_8_cif.got.tgz:14823.got - 2010.06.03 20:15:42.
