data_PCOD9387684
_publ_section_title
;
Structure prediction by ZEFSAII (Michael W. Deem and Ramdas Pophale) SiO2 
 PCOD9387684
Probable space group: P M M M
;
_chemical_formula_sum "Si O2"
_cell_formula_units_Z 52
_cell_length_a 22.666822
_cell_length_b 13.498947
_cell_length_c 7.801023
_cell_angle_alpha 90.000000
_cell_angle_beta 90.000000
_cell_angle_gamma 90.000000
_cell_volume 2386.943201
_symmetry_space_group_name_H-M "P M M M"
_symmetry_group_IT_number 47
_symmetry_cell_setting 'orthorhombic'
loop_
_space_group_symop_operation_xyz
x,y,z
-x,-y,z
x,-y,-z
-x,y,-z
-x,-y,-z
x,y,-z
-x,y,z
x,-y,z
loop_
_atom_site_type_symbol
_atom_site_label
_atom_site_fract_x
_atom_site_fract_y
_atom_site_fract_z
Si Si1 0.932660 0.287480 0.794784
Si Si2 0.146399 0.891366 0.205977
Si Si3 0.563684 0.323784 0.209664
Si Si4 0.596963 0.108294 0.800843
Si Si5 0.692106 0.391695 0.207779
Si Si6 0.067653 0.500000 0.703722
Si Si7 0.276225 0.174347 0.699112
O O1 0.893571 0.197941 0.726011
O O2 0.905703 0.395738 0.759509
O O3 0.000000 0.284973 0.727032
O O4 0.936003 0.277697 0.000000
O O5 0.214591 0.870546 0.243561
O O6 0.129592 0.000000 0.271650
O O7 0.139658 0.892435 0.000000
O O8 0.500000 0.364315 0.262147
O O9 0.569498 0.209513 0.270552
O O10 0.623324 0.379226 0.260896
O O11 0.564780 0.323077 0.000000
O O12 0.667269 0.128538 0.793991
O O13 0.583734 0.000000 0.724853
O O14 0.578892 0.104764 0.000000
O O15 0.713988 0.500000 0.263191
O O16 0.724020 0.292968 0.271905
O O17 0.694260 0.388574 0.000000
O O18 0.064852 0.500000 0.500000
O O19 0.000000 0.500000 0.774422
O O20 0.285501 0.153656 0.500000
#
# Coordination Sequence:
#
# PCOD9387684 Si02
#       7
#     8   8   8   8   8   4   8
#     4   9  18  34  57  84 112 143 180 220 264 315
#     4  10  21  37  57  81 110 143 178 218 266 320
#     4   8  14  25  44  74 106 129 157 203 256 309
#     4   9  17  30  49  71  97 132 171 210 254 304
#     4   9  18  34  55  76 100 132 169 211 261 315
#     4   9  17  31  53  79 109 145 181 217 256 301
#     4  11  22  35  52  74 101 133 173 218 262 311
#
# _framework density 21.785184999999998
#
# number of rings (size 3 to 8) (size 9 to 14) (size 15 to 20)
#    0.000    2.692    0.000    3.000    0.000    5.231 
#    1.385    4.615    0.000    7.385    0.000   11.846 
#    0.000    0.000    0.000    0.000    0.000    0.000 
#
# Total GULP energy -290170.815305 kJ/mol
# GULP energy per Si atom -5580.207987 kJ/mol
# Density = 2.173560 g / cm^3
# Si number density = 21.785185 Si / 1000 Ang^3
#
#
#
# Elastic Constant Matrix: (Units=GPa)
#
#
# Indices 1 2 3 4 5 6 
#
# 1 49.2275 26.1341 -1.3120 0.0000 0.0000 0.0000
# 2 26.1341 138.4851 5.9522 0.0000 0.0000 0.0000
# 3 -1.3120 5.9522 33.9666 0.0000 0.0000 0.0000
# 4 0.0000 0.0000 0.0000 -34.6804 0.0000 0.0000
# 5 0.0000 0.0000 0.0000 0.0000 -22.2552 0.0000
# 6 0.0000 0.0000 0.0000 0.0000 0.0000 9.9303
#
#
#
# Elastic Compliance Matrix: (Units=1/GPa)
#
#
# Indices 1 2 3 4 5 6 
#
# 1 0.022666 -0.004348 0.001637 0.000000 0.000000 0.000000
# 2 -0.004348 0.008110 -0.001589 0.000000 0.000000 0.000000
# 3 0.001637 -0.001589 0.029782 0.000000 0.000000 0.000000
# 4 0.000000 0.000000 0.000000 -0.028835 0.000000 0.000000
# 5 0.000000 0.000000 0.000000 0.000000 -0.044933 0.000000
# 6 0.000000 0.000000 0.000000 0.000000 0.000000 0.100702
#
#
# Mechanical properties :
#
#
# Convention : Reuss Voigt Hill
#
# Bulk Modulus (GPa) = 19.24596 31.46977 25.35786
# Shear Modulus (GPa) = 44.08764 3.32592 23.70678
#
# Velocity S-wave (km/s) = 4.50348 1.23693 3.30238
# Velocity P-wave (km/s) = 5.99128 4.06409 5.11919
#
# Compressibility (1/GPa) = 0.05195896
#
# Stress axis : x y z
#
# Youngs Moduli (GPa) = 44.11967 123.30808 33.57687
#
# Poissons Ratio (x) = 0.53611 -0.05498
# Poissons Ratio (y) = 0.19182 0.05336
# Poissons Ratio (z) = -0.07224 0.19594
#
# Static dielectric constant tensor:
#      x y z
#    x 1.778880 0.000000 0.000000 
#    y 0.000000 1.826350 0.000000 
#    z 0.000000 0.000000 1.804620 
# 
# From -- ./inp_files/11076.got.cif
#   From: 2010.05.17/outbox.cif.g08.bks.cpg/sg47_6_cif.got.tgz:11076.got - 2010.06.03 20:15:42.
