data_PCOD9387986
_publ_section_title
;
Structure prediction by ZEFSAII (Michael W. Deem and Ramdas Pophale) SiO2 
 PCOD9387986
Probable space group: P M M M
;
_chemical_formula_sum "Si O2"
_cell_formula_units_Z 41
_cell_length_a 28.056865
_cell_length_b 10.244775
_cell_length_c 7.703775
_cell_angle_alpha 90.000000
_cell_angle_beta 90.000000
_cell_angle_gamma 90.000000
_cell_volume 2214.344344
_symmetry_space_group_name_H-M "P M M M"
_symmetry_group_IT_number 47
_symmetry_cell_setting 'orthorhombic'
loop_
_space_group_symop_operation_xyz
x,y,z
-x,-y,z
x,-y,-z
-x,y,-z
-x,-y,-z
x,y,-z
-x,y,z
x,-y,z
loop_
_atom_site_type_symbol
_atom_site_label
_atom_site_fract_x
_atom_site_fract_y
_atom_site_fract_z
Si Si1 0.628973 0.154760 0.292497
Si Si2 0.000000 0.731073 0.289117
Si Si3 0.000000 0.500000 0.000000
Si Si4 0.288733 0.647709 0.705925
Si Si5 0.446050 0.157767 0.000000
Si Si6 0.898517 0.143674 0.292721
Si Si7 0.818659 0.353750 0.794351
O O1 0.620290 0.172145 0.500000
O O2 0.673267 0.245067 0.234834
O O3 0.584134 0.191671 0.172070
O O4 0.639000 0.000000 0.266225
O O5 0.000000 0.612059 0.155245
O O6 0.952043 0.812000 0.251702
O O7 0.000000 0.699025 0.500000
O O8 0.295901 0.638565 0.500000
O O9 0.294749 0.500000 0.778630
O O10 0.233865 0.687332 0.733329
O O11 0.500000 0.209101 0.000000
O O12 0.448899 0.000000 0.000000
O O13 0.896389 0.135128 0.500000
O O14 0.860177 0.252626 0.244161
O O15 0.887872 0.000000 0.219820
O O16 0.828583 0.500000 0.723025
O O17 0.815765 0.364262 0.000000
#
# Coordination Sequence:
#
# PCOD9387986 Si02
#       7
#     8   4   1   8   4   8   8
#     4   9  18  32  52  78 106 139 183 229 271 324
#     4  10  24  43  65  91 120 153 192 238 288 340
#     4  12  26  40  66  94 120 144 188 236 280 342
#     4   9  18  34  54  77 106 143 182 223 277 333
#     4   9  18  32  51  78 111 143 179 225 277 325
#     4  10  22  41  62  83 113 152 191 234 286 343
#     4  10  22  36  54  82 115 145 184 233 282 340
#
# _framework density 18.515637999999999
#
# number of rings (size 3 to 8) (size 9 to 14) (size 15 to 20)
#    0.000    2.439    0.000    1.024    4.098    3.902 
#    0.000    4.390    0.000    1.171    0.000    2.732 
#    0.000    0.000    0.000    0.000    0.000    0.000 
#
# Total GULP energy -228253.960545 kJ/mol
# GULP energy per Si atom -5567.169769 kJ/mol
# Density = 1.847350 g / cm^3
# Si number density = 18.515638 Si / 1000 Ang^3
#
#
#
# Elastic Constant Matrix: (Units=GPa)
#
#
# Indices 1 2 3 4 5 6 
#
# 1 169.7708 86.7815 33.8993 0.0000 0.0000 0.0000
# 2 86.7815 89.8657 33.7680 0.0000 0.0000 0.0000
# 3 33.8993 33.7680 52.1784 0.0000 0.0000 0.0000
# 4 0.0000 0.0000 0.0000 48.5754 0.0000 0.0000
# 5 0.0000 0.0000 0.0000 0.0000 32.2516 0.0000
# 6 0.0000 0.0000 0.0000 0.0000 0.0000 128.2666
#
#
#
# Elastic Compliance Matrix: (Units=1/GPa)
#
#
# Indices 1 2 3 4 5 6 
#
# 1 0.011638 -0.011096 -0.000380 0.000000 0.000000 0.000000
# 2 -0.011096 0.025282 -0.009153 0.000000 0.000000 0.000000
# 3 -0.000380 -0.009153 0.025335 0.000000 0.000000 0.000000
# 4 0.000000 0.000000 0.000000 0.020587 0.000000 0.000000
# 5 0.000000 0.000000 0.000000 0.000000 0.031006 0.000000
# 6 0.000000 0.000000 0.000000 0.000000 0.000000 0.007796
#
#
# Mechanical properties :
#
#
# Convention : Reuss Voigt Hill
#
# Bulk Modulus (GPa) = 47.62422 68.96807 58.29614
# Shear Modulus (GPa) = 29.42883 52.30979 40.86931
#
# Velocity S-wave (km/s) = 3.99106 5.32100 4.70327
# Velocity P-wave (km/s) = 6.85675 8.66488 7.81329
#
# Compressibility (1/GPa) = 0.02099772
#
# Stress axis : x y z
#
# Youngs Moduli (GPa) = 85.92540 39.55391 39.47033
#
# Poissons Ratio (x) = 0.43888 0.01501
# Poissons Ratio (y) = 0.95340 0.36127
# Poissons Ratio (z) = 0.03267 0.36203
#
# Static dielectric constant tensor:
#      x y z
#    x 1.694360 0.000000 0.000000 
#    y 0.000000 1.653520 0.000000 
#    z 0.000000 0.000000 1.663370 
# 
# From -- ./inp_files/13136.got.cif
#   From: 2010.05.17/outbox.cif.g08.bks.cpg/sg47_7_cif.got.tgz:13136.got - 2010.06.03 20:15:42.
