data_PCOD9387901
_publ_section_title
;
Structure prediction by ZEFSAII (Michael W. Deem and Ramdas Pophale) SiO2 
 PCOD9387901
Probable space group: P M M M
;
_chemical_formula_sum "Si O2"
_cell_formula_units_Z 48
_cell_length_a 32.916369
_cell_length_b 8.967471
_cell_length_c 7.638630
_cell_angle_alpha 90.000000
_cell_angle_beta 90.000000
_cell_angle_gamma 90.000000
_cell_volume 2254.744713
_symmetry_space_group_name_H-M "P M M M"
_symmetry_group_IT_number 47
_symmetry_cell_setting 'orthorhombic'
loop_
_space_group_symop_operation_xyz
x,y,z
-x,-y,z
x,-y,-z
-x,y,-z
-x,-y,-z
x,y,-z
-x,y,z
x,-y,z
loop_
_atom_site_type_symbol
_atom_site_label
_atom_site_fract_x
_atom_site_fract_y
_atom_site_fract_z
Si Si1 0.951573 0.823790 0.204221
Si Si2 0.891288 0.274661 0.500000
Si Si3 0.416358 0.667362 0.207185
Si Si4 0.500000 0.831891 0.291481
Si Si5 0.829931 0.822932 0.201205
Si Si6 0.666100 0.833073 0.707593
Si Si7 0.253197 0.328931 0.287176
O O1 0.926406 0.732982 0.345367
O O2 0.000000 0.809226 0.228886
O O3 0.941108 0.000000 0.232839
O O4 0.942994 0.789673 0.000000
O O5 0.856221 0.262789 0.654657
O O6 0.416255 0.500000 0.281913
O O7 0.459187 0.746106 0.240934
O O8 0.377876 0.760378 0.270891
O O9 0.411682 0.656937 0.000000
O O10 0.500000 0.841539 0.500000
O O11 0.500000 0.000000 0.218896
O O12 0.783346 0.773297 0.220603
O O13 0.834428 0.000000 0.237494
O O14 0.842816 0.796714 0.000000
O O15 0.672947 0.844668 0.500000
O O16 0.703181 0.732493 0.774116
O O17 0.666958 0.000000 0.782074
O O18 0.252221 0.326205 0.500000
O O19 0.247332 0.500000 0.232161
#
# Coordination Sequence:
#
# PCOD9387901 Si02
#       7
#     8   4   8   4   8   8   8
#     4   9  17  28  44  71 108 152 202 250 299 359
#     4  12  20  31  51  74 111 159 203 248 301 359
#     4  11  24  40  59  87 122 159 199 243 295 356
#     4  11  24  41  62  88 118 153 198 249 302 360
#     4  11  23  36  54  82 114 152 198 246 300 361
#     4  10  21  38  63  92 120 152 195 244 294 351
#     4  10  21  39  62  85 112 151 196 243 299 359
#
# _framework density 21.288442
#
# number of rings (size 3 to 8) (size 9 to 14) (size 15 to 20)
#    0.000    1.583    0.833    5.250    0.000    9.667 
#    0.000    0.000    0.000    0.000    0.000    0.000 
#    0.000    5.333    0.000   14.000    0.000    7.333 
#
# Total GULP energy -267264.403803 kJ/mol
# GULP energy per Si atom -5568.008413 kJ/mol
# Density = 2.123999 g / cm^3
# Si number density = 21.288442 Si / 1000 Ang^3
#
#
#
# Elastic Constant Matrix: (Units=GPa)
#
#
# Indices 1 2 3 4 5 6 
#
# 1 134.7798 15.9909 13.6087 0.0000 0.0000 0.0000
# 2 15.9909 44.8827 4.2020 0.0000 0.0000 0.0000
# 3 13.6087 4.2020 83.0664 0.0000 0.0000 0.0000
# 4 0.0000 0.0000 0.0000 13.6997 0.0000 0.0000
# 5 0.0000 0.0000 0.0000 0.0000 106.7433 0.0000
# 6 0.0000 0.0000 0.0000 0.0000 0.0000 -53.2519
#
#
#
# Elastic Compliance Matrix: (Units=1/GPa)
#
#
# Indices 1 2 3 4 5 6 
#
# 1 0.007855 -0.002691 -0.001151 0.000000 0.000000 0.000000
# 2 -0.002691 0.023308 -0.000738 0.000000 0.000000 0.000000
# 3 -0.001151 -0.000738 0.012264 0.000000 0.000000 0.000000
# 4 0.000000 0.000000 0.000000 0.072994 0.000000 0.000000
# 5 0.000000 0.000000 0.000000 0.000000 0.009368 0.000000
# 6 0.000000 0.000000 0.000000 0.000000 0.000000 -0.018779
#
#
# Mechanical properties :
#
#
# Convention : Reuss Voigt Hill
#
# Bulk Modulus (GPa) = 29.18185 36.70354 32.94270
# Shear Modulus (GPa) = 39.18699 28.70007 33.94353
#
# Velocity S-wave (km/s) = 4.29507 3.67570 3.99740
# Velocity P-wave (km/s) = 6.19148 5.94078 6.06742
#
# Compressibility (1/GPa) = 0.03426787
#
# Stress axis : x y z
#
# Youngs Moduli (GPa) = 127.30816 42.90352 81.53665
#
# Poissons Ratio (x) = 0.11545 0.09383
# Poissons Ratio (y) = 0.34257 0.06019
# Poissons Ratio (z) = 0.14650 0.03167
#
# Static dielectric constant tensor:
#      x y z
#    x 1.678080 0.000000 0.000000 
#    y 0.000000 1.797710 0.000000 
#    z 0.000000 0.000000 1.773710 
# 
# From -- ./inp_files/13944.got.cif
#   From: 2010.05.17/outbox.cif.g08.bks.cpg/sg47_7_cif.got.tgz:13944.got - 2010.06.03 20:15:42.
