data_PCOD9387617
_publ_section_title
;
Structure prediction by ZEFSAII (Michael W. Deem and Ramdas Pophale) SiO2 
 PCOD9387617
Probable space group: P M M M
;
_chemical_formula_sum "Si O2"
_cell_formula_units_Z 32
_cell_length_a 8.658549
_cell_length_b 13.401280
_cell_length_c 14.270745
_cell_angle_alpha 90.000000
_cell_angle_beta 90.000000
_cell_angle_gamma 90.000000
_cell_volume 1655.915023
_symmetry_space_group_name_H-M "P M M M"
_symmetry_group_IT_number 47
_symmetry_cell_setting 'orthorhombic'
loop_
_space_group_symop_operation_xyz
x,y,z
-x,-y,z
x,-y,-z
-x,y,-z
-x,-y,-z
x,y,-z
-x,y,z
x,-y,z
loop_
_atom_site_type_symbol
_atom_site_label
_atom_site_fract_x
_atom_site_fract_y
_atom_site_fract_z
Si Si1 0.675363 0.500000 0.613748
Si Si2 0.314586 0.192125 0.784150
Si Si3 0.185316 0.000000 0.109243
Si Si4 0.312444 0.390774 0.109637
Si Si5 0.184436 0.286093 0.390914
O O1 0.500000 0.500000 0.650286
O O2 0.670343 0.500000 0.500000
O O3 0.757166 0.396507 0.638571
O O4 0.500000 0.188347 0.787282
O O5 0.247754 0.097263 0.837595
O O6 0.259239 0.293473 0.835807
O O7 0.258695 0.205349 0.677752
O O8 0.000000 0.000000 0.111719
O O9 0.234712 0.000000 0.000000
O O10 0.500000 0.390710 0.114046
O O11 0.260266 0.500000 0.144528
O O12 0.270955 0.383007 0.000000
O O13 0.228080 0.271756 0.500000
O O14 0.000000 0.283063 0.384276
#
# Coordination Sequence:
#
# PCOD9387617 Si02
#       5
#     4   8   4   8   8
#     4   9  17  31  53  81 114 155 204 253 295 341
#     4  11  22  36  61  91 118 152 201 254 303 356
#     4  11  25  45  66  87 118 159 201 248 302 361
#     4   8  15  29  50  80 117 150 181 227 291 356
#     4  10  21  37  56  82 121 165 204 244 299 365
#
# _framework density 19.324662
#
# number of rings (size 3 to 8) (size 9 to 14) (size 15 to 20)
#    0.000    2.250    0.000    3.750    1.750    5.000 
#    0.000    0.625    0.000    3.750    0.000    5.250 
#    0.000    0.000    0.000    0.000    0.000    0.000 
#
# Total GULP energy -178709.665372 kJ/mol
# GULP energy per Si atom -5584.677043 kJ/mol
# Density = 1.928068 g / cm^3
# Si number density = 19.324662 Si / 1000 Ang^3
#
#
#
# Elastic Constant Matrix: (Units=GPa)
#
#
# Indices 1 2 3 4 5 6 
#
# 1 53.1473 43.9568 43.4661 0.0000 0.0000 0.0000
# 2 43.9568 157.9173 96.0639 0.0000 0.0000 0.0000
# 3 43.4661 96.0639 129.5327 0.0000 0.0000 0.0000
# 4 0.0000 0.0000 0.0000 31.8320 0.0000 0.0000
# 5 0.0000 0.0000 0.0000 0.0000 20.7989 0.0000
# 6 0.0000 0.0000 0.0000 0.0000 0.0000 28.2832
#
#
#
# Elastic Compliance Matrix: (Units=1/GPa)
#
#
# Indices 1 2 3 4 5 6 
#
# 1 0.027044 -0.003657 -0.006363 0.000000 0.000000 0.000000
# 2 -0.003657 0.012032 -0.007696 0.000000 0.000000 0.000000
# 3 -0.006363 -0.007696 0.015563 0.000000 0.000000 0.000000
# 4 0.000000 0.000000 0.000000 0.031415 0.000000 0.000000
# 5 0.000000 0.000000 0.000000 0.000000 0.048080 0.000000
# 6 0.000000 0.000000 0.000000 0.000000 0.000000 0.035357
#
#
# Mechanical properties :
#
#
# Convention : Reuss Voigt Hill
#
# Bulk Modulus (GPa) = 52.06437 78.61898 65.34167
# Shear Modulus (GPa) = 23.66037 26.65685 25.15861
#
# Velocity S-wave (km/s) = 3.50288 3.71809 3.61209
# Velocity P-wave (km/s) = 6.58488 7.69440 7.16116
#
# Compressibility (1/GPa) = 0.01920699
#
# Stress axis : x y z
#
# Youngs Moduli (GPa) = 36.97657 83.11163 64.25696
#
# Poissons Ratio (x) = 0.30397 0.40884
# Poissons Ratio (y) = 0.13524 0.49452
# Poissons Ratio (z) = 0.23527 0.63962
#
# Static dielectric constant tensor:
#      x y z
#    x 1.649900 0.000000 0.000000 
#    y 0.000000 1.649560 0.000000 
#    z 0.000000 0.000000 1.709260 
# 
# From -- ./inp_files/3376.got.cif
#   From: 2010.05.17/outbox.cif.g08.bks.cpg/sg47_2_cif.got.tgz:3376.got - 2010.06.03 20:15:42.
