data_PCOD9387534
_publ_section_title
;
Structure prediction by ZEFSAII (Michael W. Deem and Ramdas Pophale) SiO2 
 PCOD9387534
Probable space group: P M M M
;
_chemical_formula_sum "Si O2"
_cell_formula_units_Z 48
_cell_length_a 20.398272
_cell_length_b 8.907280
_cell_length_c 13.584924
_cell_angle_alpha 90.000000
_cell_angle_beta 90.000000
_cell_angle_gamma 90.000000
_cell_volume 2468.287230
_symmetry_space_group_name_H-M "P M M M"
_symmetry_group_IT_number 47
_symmetry_cell_setting 'orthorhombic'
loop_
_space_group_symop_operation_xyz
x,y,z
-x,-y,z
x,-y,-z
-x,y,-z
-x,-y,-z
x,y,-z
-x,y,z
x,-y,z
loop_
_atom_site_type_symbol
_atom_site_label
_atom_site_fract_x
_atom_site_fract_y
_atom_site_fract_z
Si Si1 0.198773 0.178276 0.708271
Si Si2 0.000000 0.827802 0.880234
Si Si3 0.664961 0.817086 0.388691
Si Si4 0.577025 0.180591 0.795039
Si Si5 0.927174 0.673777 0.381658
Si Si6 0.579773 0.674523 0.000000
Si Si7 0.138599 0.679228 0.886694
O O1 0.261869 0.225357 0.645340
O O2 0.132405 0.226410 0.653950
O O3 0.193206 0.256338 0.814193
O O4 0.201349 0.000000 0.721057
O O5 0.932490 0.743948 0.854644
O O6 0.000000 0.000000 0.845069
O O7 0.000000 0.830944 0.000000
O O8 0.650629 0.765115 0.500000
O O9 0.615980 0.768523 0.301959
O O10 0.662393 0.000000 0.390908
O O11 0.500000 0.217511 0.784427
O O12 0.582593 0.000000 0.801909
O O13 0.601702 0.249265 0.898071
O O14 0.926937 0.672736 0.500000
O O15 0.918267 0.500000 0.349183
O O16 0.000000 0.724347 0.350456
O O17 0.597294 0.500000 0.000000
O O18 0.500000 0.687073 0.000000
O O19 0.136412 0.500000 0.882098
O O20 0.149504 0.724337 0.000000
#
# Coordination Sequence:
#
# PCOD9387534 Si02
#       7
#     8   4   8   8   8   4   8
#     4  11  22  35  54  78 107 144 183 227 279 335
#     4   9  17  31  53  79 104 131 170 223 281 342
#     4   9  19  36  56  82 116 150 186 232 286 337
#     4   9  17  32  58  89 117 149 191 234 275 327
#     4   9  19  36  56  77 102 134 175 225 277 327
#     4   9  17  31  53  83 121 157 186 225 278 331
#     4  10  21  37  55  75 104 142 182 227 279 334
#
# _framework density 19.446684000000001
#
# number of rings (size 3 to 8) (size 9 to 14) (size 15 to 20)
#    0.000    2.500    0.000    2.500    1.167    4.667 
#    1.500    4.167    0.000    2.500    0.000    2.333 
#    0.000    0.000    0.000    0.000    0.000    0.000 
#
# Total GULP energy -267902.287041 kJ/mol
# GULP energy per Si atom -5581.297647 kJ/mol
# Density = 1.940242 g / cm^3
# Si number density = 19.446684 Si / 1000 Ang^3
#
#
#
# Elastic Constant Matrix: (Units=GPa)
#
#
# Indices 1 2 3 4 5 6 
#
# 1 69.8528 24.6976 66.9771 0.0000 0.0000 0.0000
# 2 24.6976 39.4837 29.7215 0.0000 0.0000 0.0000
# 3 66.9771 29.7215 172.9833 0.0000 0.0000 0.0000
# 4 0.0000 0.0000 0.0000 24.0842 0.0000 0.0000
# 5 0.0000 0.0000 0.0000 0.0000 35.7674 0.0000
# 6 0.0000 0.0000 0.0000 0.0000 0.0000 -0.2091
#
#
#
# Elastic Compliance Matrix: (Units=1/GPa)
#
#
# Indices 1 2 3 4 5 6 
#
# 1 0.025734 -0.009874 -0.008267 0.000000 0.000000 0.000000
# 2 -0.009874 0.032877 -0.001826 0.000000 0.000000 0.000000
# 3 -0.008267 -0.001826 0.009296 0.000000 0.000000 0.000000
# 4 0.000000 0.000000 0.000000 0.041521 0.000000 0.000000
# 5 0.000000 0.000000 0.000000 0.000000 0.027958 0.000000
# 6 0.000000 0.000000 0.000000 0.000000 0.000000 -4.782700
#
#
# Mechanical properties :
#
#
# Convention : Reuss Voigt Hill
#
# Bulk Modulus (GPa) = 35.74860 58.34581 47.04720
# Shear Modulus (GPa) = -1.08789 22.65673 10.78442
#
# Velocity S-wave (km/s) = -0.74876 3.41701 2.35747
# Velocity P-wave (km/s) = 4.20420 6.75545 5.62634
#
# Compressibility (1/GPa) = 0.02797312
#
# Stress axis : x y z
#
# Youngs Moduli (GPa) = 38.85943 30.41598 107.57687
#
# Poissons Ratio (x) = 0.30031 0.88938
# Poissons Ratio (y) = 0.38368 0.19644
# Poissons Ratio (z) = 0.32127 0.05554
#
# Static dielectric constant tensor:
#      x y z
#    x 1.665330 0.000000 0.000000 
#    y 0.000000 1.658620 0.000000 
#    z 0.000000 0.000000 1.722320 
# 
# From -- ./inp_files/24446.got.cif
#   From: 2010.05.17/outbox.cif.g08.bks.cpg/sg47_13_cif.got.tgz:24446.got - 2010.06.03 20:15:42.
