data_PCOD9387330
_publ_section_title
;
Structure prediction by ZEFSAII (Michael W. Deem and Ramdas Pophale) SiO2 
 PCOD9387330
Probable space group: P M M M
;
_chemical_formula_sum "Si O2"
_cell_formula_units_Z 52
_cell_length_a 21.326957
_cell_length_b 7.784088
_cell_length_c 15.464367
_cell_angle_alpha 90.000000
_cell_angle_beta 90.000000
_cell_angle_gamma 90.000000
_cell_volume 2567.253639
_symmetry_space_group_name_H-M "P M M M"
_symmetry_group_IT_number 47
_symmetry_cell_setting 'orthorhombic'
loop_
_space_group_symop_operation_xyz
x,y,z
-x,-y,z
x,-y,-z
-x,y,-z
-x,-y,-z
x,y,-z
-x,y,z
x,-y,z
loop_
_atom_site_type_symbol
_atom_site_label
_atom_site_fract_x
_atom_site_fract_y
_atom_site_fract_z
Si Si1 0.909950 0.703970 0.094717
Si Si2 0.760894 0.293560 0.908051
Si Si3 0.189439 0.794591 0.400553
Si Si4 0.931850 0.795957 0.707679
Si Si5 0.429384 0.208058 0.313455
Si Si6 0.424526 0.807421 0.500000
Si Si7 0.295060 0.296046 0.267241
O O1 0.923267 0.500000 0.095685
O O2 0.835288 0.728364 0.093486
O O3 0.929757 0.772400 0.188237
O O4 0.931998 0.770173 0.000000
O O5 0.749506 0.500000 0.907709
O O6 0.734721 0.220262 0.819799
O O7 0.736500 0.226022 0.000000
O O8 0.189569 0.729063 0.500000
O O9 0.130393 0.728155 0.342035
O O10 0.254873 0.764846 0.349820
O O11 0.182356 0.000000 0.405692
O O12 0.000000 0.726486 0.677935
O O13 0.932159 0.000000 0.692030
O O14 0.500000 0.264906 0.289456
O O15 0.411742 0.277856 0.409080
O O16 0.368692 0.256030 0.260511
O O17 0.432187 0.000000 0.319909
O O18 0.500000 0.826458 0.500000
O O19 0.396142 0.000000 0.500000
O O20 0.287372 0.500000 0.267810
#
# Coordination Sequence:
#
# PCOD9387330 Si02
#       7
#     8   8   8   8   8   4   8
#     4   9  17  32  54  77 104 139 175 209 254 320
#     4   8  15  30  52  76 102 134 170 209 257 310
#     4  10  22  39  56  74 101 140 182 217 255 314
#     4  10  21  36  54  77 105 136 174 224 272 307
#     4   9  18  33  52  74 105 145 182 212 251 311
#     4   7  12  26  47  67  89 127 174 205 230 283
#     4  11  21  33  55  83 109 134 168 222 270 305
#
# _framework density 20.255106999999999
#
# number of rings (size 3 to 8) (size 9 to 14) (size 15 to 20)
#    0.000    2.692    1.538    2.308    1.077    1.846 
#    0.000    3.077    0.000    3.692    0.000    5.385 
#    0.000    0.000    0.000    0.000    0.000    0.000 
#
# Total GULP energy -289478.489785 kJ/mol
# GULP energy per Si atom -5566.894034 kJ/mol
# Density = 2.020901 g / cm^3
# Si number density = 20.255107 Si / 1000 Ang^3
#
#
#
# Elastic Constant Matrix: (Units=GPa)
#
#
# Indices 1 2 3 4 5 6 
#
# 1 108.1468 8.6470 66.2578 0.0000 0.0000 0.0000
# 2 8.6470 29.8594 7.1089 0.0000 0.0000 0.0000
# 3 66.2578 7.1089 127.0700 0.0000 0.0000 0.0000
# 4 0.0000 0.0000 0.0000 15.2998 0.0000 0.0000
# 5 0.0000 0.0000 0.0000 0.0000 -10.4350 0.0000
# 6 0.0000 0.0000 0.0000 0.0000 0.0000 -142.9520
#
#
#
# Elastic Compliance Matrix: (Units=1/GPa)
#
#
# Indices 1 2 3 4 5 6 
#
# 1 0.013742 -0.002304 -0.007037 0.000000 0.000000 0.000000
# 2 -0.002304 0.034329 -0.000719 0.000000 0.000000 0.000000
# 3 -0.007037 -0.000719 0.011579 0.000000 0.000000 0.000000
# 4 0.000000 0.000000 0.000000 0.065361 0.000000 0.000000
# 5 0.000000 0.000000 0.000000 0.000000 -0.095831 0.000000
# 6 0.000000 0.000000 0.000000 0.000000 0.000000 -0.006995
#
#
# Mechanical properties :
#
#
# Convention : Reuss Voigt Hill
#
# Bulk Modulus (GPa) = 25.29722 47.67818 36.48770
# Shear Modulus (GPa) = 90.12287 -15.41328 37.35479
#
# Velocity S-wave (km/s) = 6.67761 -2.76154 4.29909
# Velocity P-wave (km/s) = 8.48354 3.66358 6.53423
#
# Compressibility (1/GPa) = 0.03953003
#
# Stress axis : x y z
#
# Youngs Moduli (GPa) = 72.76971 29.13010 86.36362
#
# Poissons Ratio (x) = 0.06712 0.60770
# Poissons Ratio (y) = 0.16768 0.06209
# Poissons Ratio (z) = 0.51205 0.02094
#
# Static dielectric constant tensor:
#      x y z
#    x 1.732020 0.000000 0.000000 
#    y 0.000000 1.757860 0.000000 
#    z 0.000000 0.000000 1.769030 
# 
# From -- ./inp_files/6959.got.cif
#   From: 2010.05.17/outbox.cif.g08.bks.cpg/sg47_4_cif.got.tgz:6959.got - 2010.06.03 20:15:42.
