data_PCOD9387378
_publ_section_title
;
Structure prediction by ZEFSAII (Michael W. Deem and Ramdas Pophale) SiO2 
 PCOD9387378
Probable space group: P M M M
;
_chemical_formula_sum "Si O2"
_cell_formula_units_Z 56
_cell_length_a 15.557956
_cell_length_b 8.626260
_cell_length_c 22.800467
_cell_angle_alpha 90.000000
_cell_angle_beta 90.000000
_cell_angle_gamma 90.000000
_cell_volume 3059.981671
_symmetry_space_group_name_H-M "P M M M"
_symmetry_group_IT_number 47
_symmetry_cell_setting 'orthorhombic'
loop_
_space_group_symop_operation_xyz
x,y,z
-x,-y,z
x,-y,-z
-x,y,-z
-x,-y,-z
x,y,-z
-x,y,z
x,-y,z
loop_
_atom_site_type_symbol
_atom_site_label
_atom_site_fract_x
_atom_site_fract_y
_atom_site_fract_z
Si Si1 0.594876 0.313984 0.242275
Si Si2 0.671920 0.315392 0.879517
Si Si3 0.599357 0.814464 0.000000
Si Si4 0.000000 0.811469 0.066824
Si Si5 0.097041 0.685724 0.713787
Si Si6 0.270918 0.814683 0.333291
Si Si7 0.597075 0.811234 0.432275
Si Si8 0.144884 0.186094 0.158297
O O1 0.500000 0.263711 0.262264
O O2 0.602269 0.500000 0.250466
O O3 0.605411 0.283091 0.173156
O O4 0.671042 0.233571 0.277651
O O5 0.680597 0.500000 0.884669
O O6 0.643639 0.246950 0.941283
O O7 0.761025 0.243841 0.857783
O O8 0.500000 0.763909 0.000000
O O9 0.602741 0.000000 0.000000
O O10 0.082054 0.765656 0.105369
O O11 0.000000 0.000000 0.064325
O O12 0.000000 0.754372 0.000000
O O13 0.100413 0.500000 0.714130
O O14 0.175636 0.747145 0.674409
O O15 0.114067 0.745318 0.779886
O O16 0.000000 0.733864 0.696181
O O17 0.327466 0.759166 0.388955
O O18 0.264230 0.000000 0.335517
O O19 0.610923 0.765819 0.500000
O O20 0.500000 0.761170 0.414991
O O21 0.596706 0.000000 0.430576
O O22 0.143114 0.000000 0.163090
#
# Coordination Sequence:
#
# PCOD9387378 Si02
#       8
#     8   8   4   4   8   8   8   8
#     4  10  21  36  54  78 112 151 185 223 276 337
#     4  11  23  39  58  80 109 146 184 223 280 344
#     4  11  25  43  61  80 103 138 187 239 284 330
#     4   9  20  36  55  81 109 137 169 218 283 342
#     4  11  23  39  58  79 110 151 192 235 288 348
#     4  11  21  33  56  88 117 148 191 240 289 338
#     4   8  15  30  53  84 123 161 193 229 279 339
#     4  11  21  36  59  84 109 139 180 229 282 338
#
# _framework density 18.300761999999999
#
# number of rings (size 3 to 8) (size 9 to 14) (size 15 to 20)
#    0.000    1.714    2.143    3.214    1.000    3.429 
#    0.000    0.000    0.000    3.857    0.000    8.000 
#    0.000    0.000    0.000    0.000    0.000    0.000 
#
# Total GULP energy -312699.797092 kJ/mol
# GULP energy per Si atom -5583.924948 kJ/mol
# Density = 1.825911 g / cm^3
# Si number density = 18.300762 Si / 1000 Ang^3
#
#
#
# Elastic Constant Matrix: (Units=GPa)
#
#
# Indices 1 2 3 4 5 6 
#
# 1 169.8528 38.4096 68.4296 0.0000 0.0000 0.0000
# 2 38.4096 35.3385 24.1355 0.0000 0.0000 0.0000
# 3 68.4296 24.1355 111.9220 0.0000 0.0000 0.0000
# 4 0.0000 0.0000 0.0000 -45.6081 0.0000 0.0000
# 5 0.0000 0.0000 0.0000 0.0000 35.1727 0.0000
# 6 0.0000 0.0000 0.0000 0.0000 0.0000 20.4379
#
#
#
# Elastic Compliance Matrix: (Units=1/GPa)
#
#
# Indices 1 2 3 4 5 6 
#
# 1 0.009137 -0.007172 -0.004040 0.000000 0.000000 0.000000
# 2 -0.007172 0.038815 -0.003985 0.000000 0.000000 0.000000
# 3 -0.004040 -0.003985 0.012264 0.000000 0.000000 0.000000
# 4 0.000000 0.000000 0.000000 -0.021926 0.000000 0.000000
# 5 0.000000 0.000000 0.000000 0.000000 0.028431 0.000000
# 6 0.000000 0.000000 0.000000 0.000000 0.000000 0.048929
#
#
# Mechanical properties :
#
#
# Convention : Reuss Voigt Hill
#
# Bulk Modulus (GPa) = 33.53243 64.34028 48.93636
# Shear Modulus (GPa) = 32.05464 14.40972 23.23218
#
# Velocity S-wave (km/s) = 4.18969 2.80908 3.56682
# Velocity P-wave (km/s) = 6.46277 6.76422 6.61521
#
# Compressibility (1/GPa) = 0.02982188
#
# Stress axis : x y z
#
# Youngs Moduli (GPa) = 109.44862 25.76349 81.53876
#
# Poissons Ratio (x) = 0.18477 0.32939
# Poissons Ratio (y) = 0.78493 0.32496
# Poissons Ratio (z) = 0.44214 0.10268
#
# Static dielectric constant tensor:
#      x y z
#    x 1.643120 0.000000 0.000000 
#    y 0.000000 1.616200 0.000000 
#    z 0.000000 0.000000 1.618050 
# 
# From -- ./inp_files/31098.got.cif
#   From: 2010.05.17/outbox.cif.g08.bks.cpg/sg47_16_cif.got.tgz:31098.got - 2010.06.03 20:15:42.
