data_PCOD9387095
_publ_section_title
;
Structure prediction by ZEFSAII (Michael W. Deem and Ramdas Pophale) SiO2 
 PCOD9387095
Probable space group: P M M M
;
_chemical_formula_sum "Si O2"
_cell_formula_units_Z 52
_cell_length_a 12.032574
_cell_length_b 8.525183
_cell_length_c 29.081431
_cell_angle_alpha 90.000000
_cell_angle_beta 90.000000
_cell_angle_gamma 90.000000
_cell_volume 2983.170147
_symmetry_space_group_name_H-M "P M M M"
_symmetry_group_IT_number 47
_symmetry_cell_setting 'orthorhombic'
loop_
_space_group_symop_operation_xyz
x,y,z
-x,-y,z
x,-y,-z
-x,y,-z
-x,-y,-z
x,y,-z
-x,y,z
x,-y,z
loop_
_atom_site_type_symbol
_atom_site_label
_atom_site_fract_x
_atom_site_fract_y
_atom_site_fract_z
Si Si1 0.265289 0.687817 0.186684
Si Si2 0.727646 0.812678 0.362244
Si Si3 0.500000 0.186393 0.780705
Si Si4 0.500000 0.685385 0.323375
Si Si5 0.871126 0.190222 0.100624
Si Si6 0.126937 0.808872 0.552399
Si Si7 0.130013 0.311014 0.278028
Si Si8 0.865089 0.180837 0.000000
O O1 0.266601 0.500000 0.184826
O O2 0.389149 0.748602 0.195490
O O3 0.207770 0.752283 0.140943
O O4 0.191389 0.734828 0.230946
O O5 0.609975 0.735976 0.350576
O O6 0.785585 0.756879 0.409403
O O7 0.810294 0.770477 0.320679
O O8 0.713140 0.000000 0.364519
O O9 0.500000 0.236857 0.727132
O O10 0.500000 0.000000 0.783044
O O11 0.500000 0.500000 0.316175
O O12 0.000000 0.238099 0.108768
O O13 0.870409 0.000000 0.099220
O O14 0.834980 0.249218 0.049753
O O15 0.151833 0.760146 0.500000
O O16 0.000000 0.760250 0.563553
O O17 0.127103 0.000000 0.552909
O O18 0.141018 0.500000 0.283138
O O19 0.000000 0.272549 0.276083
O O20 0.000000 0.176688 0.000000
O O21 0.826042 0.000000 0.000000
#
# Coordination Sequence:
#
# PCOD9387095 Si02
#       8
#     8   8   4   4   8   8   8   4
#     4  11  22  36  54  77 109 147 179 215 270 329
#     4  11  21  34  56  83 106 137 183 230 266 309
#     4  12  24  40  60  80 100 134 186 233 266 312
#     4  12  24  40  57  75 105 146 180 218 273 328
#     4   9  17  31  53  81 112 146 185 228 269 314
#     4   8  15  30  53  82 114 142 170 214 272 322
#     4  10  21  35  51  74 109 148 176 207 263 328
#     4   7  12  26  49  76 107 144 183 223 271 317
#
# _framework density 17.431121999999998
#
# number of rings (size 3 to 8) (size 9 to 14) (size 15 to 20)
#    0.000    2.077    1.538    4.615    0.000    2.462 
#    0.000    0.769    0.000    6.000    0.000    8.615 
#    0.000    0.000    0.000    0.000    0.000    0.000 
#
# Total GULP energy -290183.625329 kJ/mol
# GULP energy per Si atom -5580.454333 kJ/mol
# Density = 1.739145 g / cm^3
# Si number density = 17.431122 Si / 1000 Ang^3
#
#
#
# Elastic Constant Matrix: (Units=GPa)
#
#
# Indices 1 2 3 4 5 6 
#
# 1 121.8560 19.2675 73.7806 0.0000 0.0000 0.0000
# 2 19.2675 22.1429 18.1383 0.0000 0.0000 0.0000
# 3 73.7806 18.1383 145.8981 0.0000 0.0000 0.0000
# 4 0.0000 0.0000 0.0000 -35.8512 0.0000 0.0000
# 5 0.0000 0.0000 0.0000 0.0000 3.2257 0.0000
# 6 0.0000 0.0000 0.0000 0.0000 0.0000 13.7509
#
#
#
# Elastic Compliance Matrix: (Units=1/GPa)
#
#
# Indices 1 2 3 4 5 6 
#
# 1 0.012591 -0.006391 -0.005573 0.000000 0.000000 0.000000
# 2 -0.006391 0.053526 -0.003422 0.000000 0.000000 0.000000
# 3 -0.005573 -0.003422 0.010098 0.000000 0.000000 0.000000
# 4 0.000000 0.000000 0.000000 -0.027893 0.000000 0.000000
# 5 0.000000 0.000000 0.000000 0.000000 0.310012 0.000000
# 6 0.000000 0.000000 0.000000 0.000000 0.000000 0.072723
#
#
# Mechanical properties :
#
#
# Convention : Reuss Voigt Hill
#
# Bulk Modulus (GPa) = 22.00602 56.91887 39.46245
# Shear Modulus (GPa) = 10.48269 8.13910 9.31090
#
# Velocity S-wave (km/s) = 2.45496 2.16320 2.31368
# Velocity P-wave (km/s) = 4.54838 6.24209 5.46129
#
# Compressibility (1/GPa) = 0.04544211
#
# Stress axis : x y z
#
# Youngs Moduli (GPa) = 79.42098 18.68250 99.03213
#
# Poissons Ratio (x) = 0.11940 0.55188
# Poissons Ratio (y) = 0.50759 0.33893
# Poissons Ratio (z) = 0.44259 0.06394
#
# Static dielectric constant tensor:
#      x y z
#    x 1.568140 0.000000 0.000000 
#    y 0.000000 1.593510 0.000000 
#    z 0.000000 0.000000 1.597110 
# 
# From -- ./inp_files/33676.got.cif
#   From: 2010.05.17/outbox.cif.g08.bks.cpg/sg47_17_cif.got.tgz:33676.got - 2010.06.03 20:15:42.
