data_PCOD9387181
_publ_section_title
;
Structure prediction by ZEFSAII (Michael W. Deem and Ramdas Pophale) SiO2 
 PCOD9387181
Probable space group: P M M M
;
_chemical_formula_sum "Si O2"
_cell_formula_units_Z 40
_cell_length_a 27.933154
_cell_length_b 9.413662
_cell_length_c 7.697834
_cell_angle_alpha 90.000000
_cell_angle_beta 90.000000
_cell_angle_gamma 90.000000
_cell_volume 2024.170625
_symmetry_space_group_name_H-M "P M M M"
_symmetry_group_IT_number 47
_symmetry_cell_setting 'orthorhombic'
loop_
_space_group_symop_operation_xyz
x,y,z
-x,-y,z
x,-y,-z
-x,y,-z
-x,-y,-z
x,y,-z
-x,y,z
x,-y,z
loop_
_atom_site_type_symbol
_atom_site_label
_atom_site_fract_x
_atom_site_fract_y
_atom_site_fract_z
Si Si1 0.885667 0.670125 0.205729
Si Si2 0.594387 0.339400 0.708103
Si Si3 0.223914 0.660345 0.209069
Si Si4 0.500000 0.161355 0.207195
Si Si5 0.057124 0.831869 0.500000
Si Si6 0.316017 0.840111 0.707327
O O1 0.892880 0.500000 0.225550
O O2 0.830364 0.699147 0.258386
O O3 0.920145 0.757112 0.330856
O O4 0.891493 0.702777 0.000000
O O5 0.599724 0.350140 0.500000
O O6 0.589963 0.500000 0.776639
O O7 0.547203 0.247211 0.740122
O O8 0.641270 0.258493 0.777383
O O9 0.234310 0.500000 0.273140
O O10 0.264865 0.767783 0.263946
O O11 0.223832 0.654986 0.000000
O O12 0.500000 0.000000 0.277224
O O13 0.500000 0.153045 0.000000
O O14 0.000000 0.813674 0.500000
O O15 0.067823 0.000000 0.500000
O O16 0.323060 0.849276 0.500000
O O17 0.317959 0.000000 0.778072
#
# Coordination Sequence:
#
# PCOD9387181 Si02
#       6
#     8   8   8   4   4   8
#     4   9  20  40  64  90 120 158 207 258 306 360
#     4  10  21  38  59  81 105 139 184 228 274 330
#     4   9  19  36  57  82 112 147 187 231 283 339
#     4  11  24  39  56  80 108 139 176 221 278 338
#     4  11  25  41  59  89 127 165 205 250 307 370
#     4  10  21  35  53  81 114 146 182 224 273 331
#
# _framework density 19.761182000000002
#
# number of rings (size 3 to 8) (size 9 to 14) (size 15 to 20)
#    0.000    2.200    0.000    3.300    1.400    8.000 
#    0.000    4.000    0.000    0.000    0.000    0.000 
#    0.000    0.000    0.000    0.000    0.000    0.000 
#
# Total GULP energy -223401.109087 kJ/mol
# GULP energy per Si atom -5585.027727 kJ/mol
# Density = 1.971620 g / cm^3
# Si number density = 19.761182 Si / 1000 Ang^3
#
#
#
# Elastic Constant Matrix: (Units=GPa)
#
#
# Indices 1 2 3 4 5 6 
#
# 1 147.7392 117.3903 41.1500 0.0000 0.0000 0.0000
# 2 117.3903 174.3090 43.6416 0.0000 0.0000 0.0000
# 3 41.1500 43.6416 59.2888 0.0000 0.0000 0.0000
# 4 0.0000 0.0000 0.0000 17.2299 0.0000 0.0000
# 5 0.0000 0.0000 0.0000 0.0000 56.5655 0.0000
# 6 0.0000 0.0000 0.0000 0.0000 0.0000 57.8901
#
#
#
# Elastic Compliance Matrix: (Units=1/GPa)
#
#
# Indices 1 2 3 4 5 6 
#
# 1 0.015192 -0.009307 -0.003694 0.000000 0.000000 0.000000
# 2 -0.009307 0.012734 -0.002914 0.000000 0.000000 0.000000
# 3 -0.003694 -0.002914 0.021575 0.000000 0.000000 0.000000
# 4 0.000000 0.000000 0.000000 0.058039 0.000000 0.000000
# 5 0.000000 0.000000 0.000000 0.000000 0.017679 0.000000
# 6 0.000000 0.000000 0.000000 0.000000 0.000000 0.017274
#
#
# Mechanical properties :
#
#
# Convention : Reuss Voigt Hill
#
# Bulk Modulus (GPa) = 56.58456 87.30008 71.94232
# Shear Modulus (GPa) = 27.74482 38.28077 33.01280
#
# Velocity S-wave (km/s) = 3.75107 4.40610 4.09172
# Velocity P-wave (km/s) = 6.88891 8.37607 7.66862
#
# Compressibility (1/GPa) = 0.01767267
#
# Stress axis : x y z
#
# Youngs Moduli (GPa) = 65.82223 78.52871 46.34900
#
# Poissons Ratio (x) = 0.73084 0.17121
# Poissons Ratio (y) = 0.61258 0.13506
# Poissons Ratio (z) = 0.24315 0.22884
#
# Static dielectric constant tensor:
#      x y z
#    x 1.661300 0.000000 0.000000 
#    y 0.000000 1.693300 0.000000 
#    z 0.000000 0.000000 1.718060 
# 
# From -- ./inp_files/13049.got.cif
#   From: 2010.05.17/outbox.cif.g08.bks.cpg/sg47_7_cif.got.tgz:13049.got - 2010.06.03 20:15:42.
