data_PCOD9387272
_publ_section_title
;
Structure prediction by ZEFSAII (Michael W. Deem and Ramdas Pophale) SiO2 
 PCOD9387272
Probable space group: P M M M
;
_chemical_formula_sum "Si O2"
_cell_formula_units_Z 48
_cell_length_a 8.711964
_cell_length_b 31.963718
_cell_length_c 9.409033
_cell_angle_alpha 90.000000
_cell_angle_beta 90.000000
_cell_angle_gamma 90.000000
_cell_volume 2620.102939
_symmetry_space_group_name_H-M "P M M M"
_symmetry_group_IT_number 47
_symmetry_cell_setting 'orthorhombic'
loop_
_space_group_symop_operation_xyz
x,y,z
-x,-y,z
x,-y,-z
-x,y,-z
-x,-y,-z
x,y,-z
-x,y,z
x,-y,z
loop_
_atom_site_type_symbol
_atom_site_label
_atom_site_fract_x
_atom_site_fract_y
_atom_site_fract_z
Si Si1 0.313876 0.591492 0.165907
Si Si2 0.683843 0.000000 0.165387
Si Si3 0.816383 0.921409 0.666591
Si Si4 0.316332 0.168794 0.334129
Si Si5 0.185416 0.330158 0.335387
Si Si6 0.814534 0.247166 0.165017
Si Si7 0.322291 0.500000 0.172826
O O1 0.500000 0.590895 0.171070
O O2 0.251104 0.628698 0.260854
O O3 0.256660 0.545241 0.213457
O O4 0.270781 0.597720 0.000000
O O5 0.748221 0.958906 0.242175
O O6 0.500000 0.000000 0.175191
O O7 0.728164 0.000000 0.000000
O O8 0.776218 0.927735 0.500000
O O9 0.751272 0.876155 0.709338
O O10 0.000000 0.921177 0.678367
O O11 0.272677 0.175710 0.500000
O O12 0.500000 0.167318 0.325672
O O13 0.252680 0.206232 0.239473
O O14 0.232281 0.327461 0.500000
O O15 0.234272 0.288753 0.249695
O O16 0.000000 0.331930 0.330205
O O17 0.000000 0.244991 0.171371
O O18 0.769268 0.249799 0.000000
O O19 0.500000 0.500000 0.220126
O O20 0.324130 0.500000 0.000000
#
# Coordination Sequence:
#
# PCOD9387272 Si02
#       7
#     8   4   8   8   8   8   4
#     4   9  17  31  53  78 102 131 170 215 261 310
#     4  11  24  39  56  82 116 151 186 227 274 318
#     4  10  21  38  61  86 111 144 186 226 266 317
#     4  10  21  37  58  84 112 142 176 216 264 316
#     4  10  21  36  53  74 103 139 176 215 261 312
#     4  10  21  37  57  79 103 136 177 218 262 313
#     4   7  12  26  48  73 100 130 166 209 256 307
#
# _framework density 18.319890999999998
#
# number of rings (size 3 to 8) (size 9 to 14) (size 15 to 20)
#    0.000    2.333    0.000    3.500    0.000    7.333 
#    0.000    0.833    0.000    4.000    0.000    0.000 
#    0.000    0.000    0.000    0.000    0.000    0.000 
#
# Total GULP energy -267918.155896 kJ/mol
# GULP energy per Si atom -5581.628248 kJ/mol
# Density = 1.827819 g / cm^3
# Si number density = 18.319891 Si / 1000 Ang^3
#
#
#
# Elastic Constant Matrix: (Units=GPa)
#
#
# Indices 1 2 3 4 5 6 
#
# 1 18.8622 45.5245 39.3299 0.0000 0.0000 0.0000
# 2 45.5245 226.5359 125.5078 0.0000 0.0000 0.0000
# 3 39.3299 125.5078 126.4703 0.0000 0.0000 0.0000
# 4 0.0000 0.0000 0.0000 36.5182 0.0000 0.0000
# 5 0.0000 0.0000 0.0000 0.0000 27.1190 0.0000
# 6 0.0000 0.0000 0.0000 0.0000 0.0000 36.1054
#
#
#
# Elastic Compliance Matrix: (Units=1/GPa)
#
#
# Indices 1 2 3 4 5 6 
#
# 1 0.160829 -0.010241 -0.039852 0.000000 0.000000 0.000000
# 2 -0.010241 0.010458 -0.007193 0.000000 0.000000 0.000000
# 3 -0.039852 -0.007193 0.027439 0.000000 0.000000 0.000000
# 4 0.000000 0.000000 0.000000 0.027384 0.000000 0.000000
# 5 0.000000 0.000000 0.000000 0.000000 0.036875 0.000000
# 6 0.000000 0.000000 0.000000 0.000000 0.000000 0.027697
#
#
# Mechanical properties :
#
#
# Convention : Reuss Voigt Hill
#
# Bulk Modulus (GPa) = 11.88308 88.06588 49.97448
# Shear Modulus (GPa) = 11.53925 30.71558 21.12742
#
# Velocity S-wave (km/s) = 2.51246 4.09910 3.39964
# Velocity P-wave (km/s) = 3.86226 8.40113 6.53820
#
# Compressibility (1/GPa) = 0.08415330
#
# Stress axis : x y z
#
# Youngs Moduli (GPa) = 6.21778 95.62383 36.44489
#
# Poissons Ratio (x) = 0.97929 1.45239
# Poissons Ratio (y) = 0.06368 0.26216
# Poissons Ratio (z) = 0.24779 0.68785
#
# Static dielectric constant tensor:
#      x y z
#    x 1.622570 0.000000 0.000000 
#    y 0.000000 1.610950 0.000000 
#    z 0.000000 0.000000 1.615170 
# 
# From -- ./inp_files/2595.got.cif
#   From: 2010.05.17/outbox.cif.g08.bks.cpg/sg47_2_cif.got.tgz:2595.got - 2010.06.03 20:15:42.
