data_PCOD9387190
_publ_section_title
;
Structure prediction by ZEFSAII (Michael W. Deem and Ramdas Pophale) SiO2 
 PCOD9387190
Probable space group: P M M M
;
_chemical_formula_sum "Si O2"
_cell_formula_units_Z 44
_cell_length_a 17.050609
_cell_length_b 14.514956
_cell_length_c 9.979792
_cell_angle_alpha 90.000000
_cell_angle_beta 90.000000
_cell_angle_gamma 90.000000
_cell_volume 2469.887140
_symmetry_space_group_name_H-M "P M M M"
_symmetry_group_IT_number 47
_symmetry_cell_setting 'orthorhombic'
loop_
_space_group_symop_operation_xyz
x,y,z
-x,-y,z
x,-y,-z
-x,y,-z
-x,-y,-z
x,y,-z
-x,y,z
x,-y,z
loop_
_atom_site_type_symbol
_atom_site_label
_atom_site_fract_x
_atom_site_fract_y
_atom_site_fract_z
Si Si1 0.412658 0.603472 0.250833
Si Si2 0.759143 0.392917 0.148601
Si Si3 0.906505 0.890879 0.845817
Si Si4 0.801583 0.766332 0.343431
Si Si5 0.380457 0.799779 0.646733
Si Si6 0.500000 0.110297 0.154923
O O1 0.500000 0.610006 0.188670
O O2 0.407926 0.500000 0.311657
O O3 0.336010 0.611625 0.158106
O O4 0.403287 0.691430 0.346240
O O5 0.780212 0.500000 0.164864
O O6 0.794958 0.330173 0.264349
O O7 0.783003 0.361690 0.000000
O O8 0.859521 0.831826 0.738285
O O9 0.000000 0.876342 0.832910
O O10 0.891902 0.000000 0.827444
O O11 0.884481 0.867659 0.000000
O O12 0.822291 0.755922 0.500000
O O13 0.712932 0.806046 0.337916
O O14 0.402726 0.836066 0.500000
O O15 0.425683 0.849881 0.765336
O O16 0.500000 0.000000 0.159878
O O17 0.500000 0.139600 0.000000
#
# Coordination Sequence:
#
# PCOD9387190 Si02
#       6
#     8   8   8   8   8   4
#     4   9  17  29  47  77 108 134 170 221 274 322
#     4   9  18  32  50  74 106 146 188 227 269 316
#     4   9  19  37  61  88 115 141 171 212 265 324
#     4  10  21  35  54  82 113 145 179 216 265 323
#     4  10  21  37  54  75 104 139 180 220 262 316
#     4  11  25  41  54  69  92 130 181 233 280 317
#
# _framework density 17.814578999999998
#
# number of rings (size 3 to 8) (size 9 to 14) (size 15 to 20)
#    0.000    2.455    0.909    1.364    0.000    6.909 
#    0.000   10.909    0.000    0.545    0.000    3.818 
#    0.000    0.000    0.000    0.000    0.000    0.000 
#
# Total GULP energy -245183.088831 kJ/mol
# GULP energy per Si atom -5572.342928 kJ/mol
# Density = 1.777403 g / cm^3
# Si number density = 17.814579 Si / 1000 Ang^3
#
#
#
# Elastic Constant Matrix: (Units=GPa)
#
#
# Indices 1 2 3 4 5 6 
#
# 1 57.6160 45.1112 57.7536 0.0000 0.0000 0.0000
# 2 45.1112 77.1819 77.9334 0.0000 0.0000 0.0000
# 3 57.7536 77.9334 180.7733 0.0000 0.0000 0.0000
# 4 0.0000 0.0000 0.0000 -69.3395 0.0000 0.0000
# 5 0.0000 0.0000 0.0000 0.0000 18.6984 0.0000
# 6 0.0000 0.0000 0.0000 0.0000 0.0000 31.1760
#
#
#
# Elastic Compliance Matrix: (Units=1/GPa)
#
#
# Indices 1 2 3 4 5 6 
#
# 1 0.033568 -0.015568 -0.004013 0.000000 0.000000 0.000000
# 2 -0.015568 0.030164 -0.008030 0.000000 0.000000 0.000000
# 3 -0.004013 -0.008030 0.010276 0.000000 0.000000 0.000000
# 4 0.000000 0.000000 0.000000 -0.014422 0.000000 0.000000
# 5 0.000000 0.000000 0.000000 0.000000 0.053481 0.000000
# 6 0.000000 0.000000 0.000000 0.000000 0.000000 0.032076
#
#
# Mechanical properties :
#
#
# Convention : Reuss Voigt Hill
#
# Bulk Modulus (GPa) = 53.23237 75.24084 64.23660
# Shear Modulus (GPa) = 24.19829 5.09184 14.64507
#
# Velocity S-wave (km/s) = 3.68957 1.69247 2.87031
# Velocity P-wave (km/s) = 6.93518 6.79312 6.86452
#
# Compressibility (1/GPa) = 0.01878556
#
# Stress axis : x y z
#
# Youngs Moduli (GPa) = 29.79059 33.15200 97.31564
#
# Poissons Ratio (x) = 0.51610 0.39051
# Poissons Ratio (y) = 0.46377 0.78149
# Poissons Ratio (z) = 0.11954 0.26623
#
# Static dielectric constant tensor:
#      x y z
#    x 1.598380 0.000000 0.000000 
#    y 0.000000 1.608730 0.000000 
#    z 0.000000 0.000000 1.609260 
# 
# From -- ./inp_files/9005.got.cif
#   From: 2010.05.17/outbox.cif.g08.bks.cpg/sg47_5_cif.got.tgz:9005.got - 2010.06.03 20:15:42.
