data_PCOD9387231
_publ_section_title
;
Structure prediction by ZEFSAII (Michael W. Deem and Ramdas Pophale) SiO2 
 PCOD9387231
Probable space group: P M M M
;
_chemical_formula_sum "Si O2"
_cell_formula_units_Z 64
_cell_length_a 8.822178
_cell_length_b 14.454018
_cell_length_c 27.059524
_cell_angle_alpha 90.000000
_cell_angle_beta 90.000000
_cell_angle_gamma 90.000000
_cell_volume 3450.520087
_symmetry_space_group_name_H-M "P M M M"
_symmetry_group_IT_number 47
_symmetry_cell_setting 'orthorhombic'
loop_
_space_group_symop_operation_xyz
x,y,z
-x,-y,z
x,-y,-z
-x,y,-z
-x,-y,-z
x,y,-z
-x,y,z
x,-y,z
loop_
_atom_site_type_symbol
_atom_site_label
_atom_site_fract_x
_atom_site_fract_y
_atom_site_fract_z
Si Si1 0.180947 0.107785 0.804907
Si Si2 0.327761 0.887864 0.700845
Si Si3 0.682697 0.283374 0.553874
Si Si4 0.318428 0.390440 0.651879
Si Si5 0.179613 0.610939 0.243689
Si Si6 0.818922 0.107324 0.403602
Si Si7 0.315514 0.393196 0.055339
Si Si8 0.681925 0.719256 0.848966
O O1 0.243174 0.137430 0.751058
O O2 0.253991 0.177658 0.843496
O O3 0.000000 0.115134 0.805090
O O4 0.221729 0.000000 0.812717
O O5 0.500000 0.852022 0.699682
O O6 0.239526 0.864806 0.650984
O O7 0.334843 0.000000 0.701421
O O8 0.728136 0.321232 0.500000
O O9 0.500000 0.282329 0.555532
O O10 0.734824 0.340207 0.601946
O O11 0.743773 0.179600 0.559656
O O12 0.500000 0.378309 0.656208
O O13 0.288291 0.500000 0.647107
O O14 0.242870 0.358005 0.702927
O O15 0.206301 0.500000 0.240104
O O16 0.259256 0.661166 0.198020
O O17 0.000000 0.627654 0.241498
O O18 0.000000 0.113189 0.405569
O O19 0.775665 0.000000 0.412288
O O20 0.500000 0.392249 0.055469
O O21 0.269682 0.500000 0.063363
O O22 0.265712 0.329585 0.100480
O O23 0.266970 0.365180 0.000000
O O24 0.500000 0.720970 0.847880
#
# Coordination Sequence:
#
# PCOD9387231 Si02
#       8
#     8   8   8   8   8   8   8   8
#     4  10  21  36  52  73 107 149 189 228 272 323
#     4   9  17  31  52  76 101 131 171 218 265 316
#     4  10  22  38  56  79 104 132 172 223 274 324
#     4   9  19  37  59  80 104 135 172 217 269 326
#     4  10  21  36  54  79 113 148 179 216 267 328
#     4  10  21  36  54  76 104 139 175 213 262 322
#     4   8  15  30  53  82 115 148 184 229 278 326
#     4  11  21  32  54  85 114 147 186 230 278 327
#
# _framework density 18.547927999999999
#
# number of rings (size 3 to 8) (size 9 to 14) (size 15 to 20)
#    0.000    2.375    0.000    2.625    1.750    5.500 
#    0.000    2.500    0.000    1.875    0.000    9.625 
#    0.000    0.000    0.000    0.000    0.000    0.000 
#
# Total GULP energy -357301.285015 kJ/mol
# GULP energy per Si atom -5582.832578 kJ/mol
# Density = 1.850571 g / cm^3
# Si number density = 18.547928 Si / 1000 Ang^3
#
#
#
# Elastic Constant Matrix: (Units=GPa)
#
#
# Indices 1 2 3 4 5 6 
#
# 1 24.2594 22.2238 24.9239 0.0000 0.0000 0.0000
# 2 22.2238 75.4753 66.9008 0.0000 0.0000 0.0000
# 3 24.9239 66.9008 143.9815 0.0000 0.0000 0.0000
# 4 0.0000 0.0000 0.0000 27.5736 0.0000 0.0000
# 5 0.0000 0.0000 0.0000 0.0000 -3.8568 0.0000
# 6 0.0000 0.0000 0.0000 0.0000 0.0000 23.9882
#
#
#
# Elastic Compliance Matrix: (Units=1/GPa)
#
#
# Indices 1 2 3 4 5 6 
#
# 1 0.057494 -0.013785 -0.003547 0.000000 0.000000 0.000000
# 2 -0.013785 0.025833 -0.009617 0.000000 0.000000 0.000000
# 3 -0.003547 -0.009617 0.012028 0.000000 0.000000 0.000000
# 4 0.000000 0.000000 0.000000 0.036267 0.000000 0.000000
# 5 0.000000 0.000000 0.000000 0.000000 -0.259284 0.000000
# 6 0.000000 0.000000 0.000000 0.000000 0.000000 0.041687
#
#
# Mechanical properties :
#
#
# Convention : Reuss Voigt Hill
#
# Bulk Modulus (GPa) = 24.12182 52.42370 38.27276
# Shear Modulus (GPa) = -273.83186 18.18553 -127.82317
#
# Velocity S-wave (km/s) = -12.16369 3.13463 -8.31052
# Velocity P-wave (km/s) = 13.57351 6.43634 8.45026
#
# Compressibility (1/GPa) = 0.04145623
#
# Stress axis : x y z
#
# Youngs Moduli (GPa) = 17.39323 38.71077 83.14006
#
# Poissons Ratio (x) = 0.53361 0.29494
# Poissons Ratio (y) = 0.23976 0.79955
# Poissons Ratio (z) = 0.06170 0.37228
#
# Static dielectric constant tensor:
#      x y z
#    x 1.619310 0.000000 0.000000 
#    y 0.000000 1.669190 0.000000 
#    z 0.000000 0.000000 1.632110 
# 
# From -- ./inp_files/7838.got.cif
#   From: 2010.05.17/outbox.cif.g08.bks.cpg/sg47_4_cif.got.tgz:7838.got - 2010.06.03 20:15:42.
