data_PCOD9387801
_publ_section_title
;
Structure prediction by ZEFSAII (Michael W. Deem and Ramdas Pophale) SiO2 
 PCOD9387801
Probable space group: P M M M
;
_chemical_formula_sum "Si O2"
_cell_formula_units_Z 64
_cell_length_a 20.676622
_cell_length_b 21.006124
_cell_length_c 8.449109
_cell_angle_alpha 90.000000
_cell_angle_beta 90.000000
_cell_angle_gamma 90.000000
_cell_volume 3669.749551
_symmetry_space_group_name_H-M "P M M M"
_symmetry_group_IT_number 47
_symmetry_cell_setting 'orthorhombic'
loop_
_space_group_symop_operation_xyz
x,y,z
-x,-y,z
x,-y,-z
-x,y,-z
-x,-y,-z
x,y,-z
-x,y,z
x,-y,z
loop_
_atom_site_type_symbol
_atom_site_label
_atom_site_fract_x
_atom_site_fract_y
_atom_site_fract_z
Si Si1 0.292883 0.391725 0.190205
Si Si2 0.156849 0.188261 0.811065
Si Si3 0.430672 0.749924 0.808381
Si Si4 0.708900 0.757502 0.192547
Si Si5 0.429684 0.396140 0.310920
Si Si6 0.073578 0.072697 0.690825
Si Si7 0.074737 0.307305 0.689170
Si Si8 0.150489 0.570121 0.191443
O O1 0.286569 0.317124 0.238547
O O2 0.360495 0.420424 0.250401
O O3 0.225918 0.423976 0.239231
O O4 0.296170 0.393180 0.000000
O O5 0.229340 0.203392 0.750223
O O6 0.124449 0.124134 0.748871
O O7 0.112731 0.248103 0.763075
O O8 0.159429 0.184891 0.000000
O O9 0.500000 0.778729 0.760615
O O10 0.362654 0.780404 0.758067
O O11 0.429966 0.677713 0.744252
O O12 0.429687 0.746361 0.000000
O O13 0.711043 0.758345 0.000000
O O14 0.428935 0.399863 0.500000
O O15 0.500000 0.422590 0.256692
O O16 0.073475 0.073335 0.500000
O O17 0.000000 0.089117 0.742282
O O18 0.087038 0.000000 0.741812
O O19 0.076407 0.300522 0.500000
O O20 0.109806 0.372449 0.737649
O O21 0.000000 0.307713 0.740849
O O22 0.126084 0.500000 0.235391
O O23 0.148718 0.575754 0.000000
#
# Coordination Sequence:
#
# PCOD9387801 Si02
#       8
#     8   8   8   8   8   8   8   8
#     4   9  16  30  48  66  91 121 155 194 242 299
#     4  11  20  32  52  78 107 134 165 207 248 288
#     4   8  13  23  39  58  85 124 162 192 231 284
#     4   8  14  25  42  66  95 123 153 195 242 284
#     4   9  16  24  37  62  92 119 152 194 236 280
#     4   9  19  36  54  72 100 137 172 206 246 294
#     4  11  24  39  54  74 101 131 163 200 245 301
#     4  10  21  38  58  76  94 120 159 209 260 306
#
# _framework density 17.439882000000001
#
# number of rings (size 3 to 8) (size 9 to 14) (size 15 to 20)
#    0.000    2.625    1.250    2.625    0.000    4.750 
#    0.000    2.500    0.000    0.375    0.000    2.625 
#    0.000    0.500    0.000    6.250    0.000    1.125 
#
# Total GULP energy -356624.337818 kJ/mol
# GULP energy per Si atom -5572.255278 kJ/mol
# Density = 1.740019 g / cm^3
# Si number density = 17.439882 Si / 1000 Ang^3
#
#
#
# Elastic Constant Matrix: (Units=GPa)
#
#
# Indices 1 2 3 4 5 6 
#
# 1 156.9356 61.1142 17.0063 0.0000 0.0000 0.0000
# 2 61.1142 78.7737 11.9862 0.0000 0.0000 0.0000
# 3 17.0063 11.9862 11.9995 0.0000 0.0000 0.0000
# 4 0.0000 0.0000 0.0000 24.6635 0.0000 0.0000
# 5 0.0000 0.0000 0.0000 0.0000 1.2898 0.0000
# 6 0.0000 0.0000 0.0000 0.0000 0.0000 -32.1512
#
#
#
# Elastic Compliance Matrix: (Units=1/GPa)
#
#
# Indices 1 2 3 4 5 6 
#
# 1 0.009645 -0.006371 -0.007305 0.000000 0.000000 0.000000
# 2 -0.006371 0.019178 -0.010128 0.000000 0.000000 0.000000
# 3 -0.007305 -0.010128 0.103806 0.000000 0.000000 0.000000
# 4 0.000000 0.000000 0.000000 0.040546 0.000000 0.000000
# 5 0.000000 0.000000 0.000000 0.000000 0.775344 0.000000
# 6 0.000000 0.000000 0.000000 0.000000 0.000000 -0.031103
#
#
# Mechanical properties :
#
#
# Convention : Reuss Voigt Hill
#
# Bulk Modulus (GPa) = 11.76173 47.54690 29.65431
# Shear Modulus (GPa) = 5.03340 9.26721 7.15031
#
# Velocity S-wave (km/s) = 1.70071 2.30767 2.02704
# Velocity P-wave (km/s) = 3.25812 5.86711 4.74543
#
# Compressibility (1/GPa) = 0.08502151
#
# Stress axis : x y z
#
# Youngs Moduli (GPa) = 103.68450 52.14202 9.63337
#
# Poissons Ratio (x) = 0.33220 0.07037
# Poissons Ratio (y) = 0.66057 0.09756
# Poissons Ratio (z) = 0.75740 0.52808
#
# Static dielectric constant tensor:
#      x y z
#    x 1.651010 0.000000 0.000000 
#    y 0.000000 1.572880 0.000000 
#    z 0.000000 0.000000 1.598820 
# 
# From -- ./inp_files/11575.got.cif
#   From: 2010.05.17/outbox.cif.g08.bks.cpg/sg47_6_cif.got.tgz:11575.got - 2010.06.03 20:15:42.
