data_PCOD9387533
_publ_section_title
;
Structure prediction by ZEFSAII (Michael W. Deem and Ramdas Pophale) SiO2 
 PCOD9387533
Probable space group: P M M M
;
_chemical_formula_sum "Si O2"
_cell_formula_units_Z 45
_cell_length_a 7.352536
_cell_length_b 11.519571
_cell_length_c 25.037163
_cell_angle_alpha 90.000000
_cell_angle_beta 90.000000
_cell_angle_gamma 90.000000
_cell_volume 2120.599146
_symmetry_space_group_name_H-M "P M M M"
_symmetry_group_IT_number 47
_symmetry_cell_setting 'orthorhombic'
loop_
_space_group_symop_operation_xyz
x,y,z
-x,-y,z
x,-y,-z
-x,y,-z
-x,-y,-z
x,y,-z
-x,y,z
x,-y,z
loop_
_atom_site_type_symbol
_atom_site_label
_atom_site_fract_x
_atom_site_fract_y
_atom_site_fract_z
Si Si1 0.220686 0.129589 0.937080
Si Si2 0.275414 0.000000 0.599956
Si Si3 0.000000 0.000000 0.500000
Si Si4 0.212046 0.631872 0.883283
Si Si5 0.706325 0.223966 0.661651
Si Si6 0.782322 0.637008 0.442060
Si Si7 0.279667 0.369997 0.758516
O O1 0.286506 0.249657 0.909894
O O2 0.000000 0.129362 0.931940
O O3 0.280496 0.000000 0.917726
O O4 0.263411 0.135434 0.000000
O O5 0.160637 0.000000 0.546275
O O6 0.218079 0.890007 0.634961
O O7 0.500000 0.000000 0.591725
O O8 0.286297 0.500000 0.894301
O O9 0.223399 0.649270 0.819449
O O10 0.000000 0.626480 0.898946
O O11 0.500000 0.194321 0.676650
O O12 0.704153 0.312637 0.611987
O O13 0.789183 0.280858 0.714204
O O14 0.720444 0.685919 0.500000
O O15 0.748160 0.500000 0.443117
O O16 0.000000 0.655177 0.440202
O O17 0.500000 0.368395 0.757716
O O18 0.222255 0.500000 0.743107
#
# Coordination Sequence:
#
# PCOD9387533 Si02
#       7
#     8   4   1   8   8   8   8
#     4   8  14  26  45  70 103 140 175 214 267 327
#     4  10  25  43  61  88 113 143 189 232 276 339
#     4  12  26  44  68  82 110 160 186 228 290 340
#     4   9  17  29  47  75 105 132 171 224 273 316
#     4  10  21  37  55  75 103 134 173 222 264 317
#     4   9  19  33  50  75 104 130 161 206 259 318
#     4   9  18  34  55  75 100 140 180 214 265 328
#
# _framework density 21.220416
#
# number of rings (size 3 to 8) (size 9 to 14) (size 15 to 20)
#    0.000    2.844    0.000    1.733    2.489    2.489 
#    1.600    4.444    0.000    0.533    0.000    3.733 
#    0.000    0.000    0.000    0.000    0.000    0.000 
#
# Total GULP energy -250503.569150 kJ/mol
# GULP energy per Si atom -5566.745981 kJ/mol
# Density = 2.117212 g / cm^3
# Si number density = 21.220416 Si / 1000 Ang^3
#
#
#
# Elastic Constant Matrix: (Units=GPa)
#
#
# Indices 1 2 3 4 5 6 
#
# 1 83.3793 21.1631 4.4096 0.0000 0.0000 0.0000
# 2 21.1631 175.8324 92.9462 0.0000 0.0000 0.0000
# 3 4.4096 92.9462 82.8091 0.0000 0.0000 0.0000
# 4 0.0000 0.0000 0.0000 -75.7285 0.0000 0.0000
# 5 0.0000 0.0000 0.0000 0.0000 16.6822 0.0000
# 6 0.0000 0.0000 0.0000 0.0000 0.0000 -1.0246
#
#
#
# Elastic Compliance Matrix: (Units=1/GPa)
#
#
# Indices 1 2 3 4 5 6 
#
# 1 0.012584 -0.002853 0.002532 0.000000 0.000000 0.000000
# 2 -0.002853 0.014631 -0.016270 0.000000 0.000000 0.000000
# 3 0.002532 -0.016270 0.030203 0.000000 0.000000 0.000000
# 4 0.000000 0.000000 0.000000 -0.013205 0.000000 0.000000
# 5 0.000000 0.000000 0.000000 0.000000 0.059944 0.000000
# 6 0.000000 0.000000 0.000000 0.000000 0.000000 -0.975956
#
#
# Mechanical properties :
#
#
# Convention : Reuss Voigt Hill
#
# Bulk Modulus (GPa) = 41.26139 64.33984 52.80061
# Shear Modulus (GPa) = -6.02020 2.88593 -1.56713
#
# Velocity S-wave (km/s) = -1.68616 1.16745 -0.86029
# Velocity P-wave (km/s) = 3.96176 5.67476 4.89379
#
# Compressibility (1/GPa) = 0.02423573
#
# Stress axis : x y z
#
# Youngs Moduli (GPa) = 79.46826 68.34647 33.10888
#
# Poissons Ratio (x) = 0.19501 -0.08384
# Poissons Ratio (y) = 0.22674 0.53870
# Poissons Ratio (z) = -0.20124 1.11203
#
# Static dielectric constant tensor:
#      x y z
#    x 1.820610 0.000000 0.000000 
#    y 0.000000 1.798150 0.000000 
#    z 0.000000 0.000000 1.720680 
# 
# From -- ./inp_files/4374.got.cif
#   From: 2010.05.17/outbox.cif.g08.bks.cpg/sg47_3_cif.got.tgz:4374.got - 2010.06.03 20:15:42.
