data_PCOD9387497
_publ_section_title
;
Structure prediction by ZEFSAII (Michael W. Deem and Ramdas Pophale) SiO2 
 PCOD9387497
Probable space group: P M M M
;
_chemical_formula_sum "Si O2"
_cell_formula_units_Z 48
_cell_length_a 19.366426
_cell_length_b 8.693635
_cell_length_c 15.817250
_cell_angle_alpha 90.000000
_cell_angle_beta 90.000000
_cell_angle_gamma 90.000000
_cell_volume 2663.065585
_symmetry_space_group_name_H-M "P M M M"
_symmetry_group_IT_number 47
_symmetry_cell_setting 'orthorhombic'
loop_
_space_group_symop_operation_xyz
x,y,z
-x,-y,z
x,-y,-z
-x,y,-z
-x,-y,-z
x,y,-z
-x,y,z
x,-y,z
loop_
_atom_site_type_symbol
_atom_site_label
_atom_site_fract_x
_atom_site_fract_y
_atom_site_fract_z
Si Si1 0.583704 0.823945 0.500000
Si Si2 0.916456 0.818260 0.406981
Si Si3 0.421720 0.312966 0.000000
Si Si4 0.918835 0.316727 0.228609
Si Si5 0.188517 0.815743 0.901485
Si Si6 0.580451 0.813151 0.684905
Si Si7 0.332557 0.315189 0.838263
O O1 0.500000 0.831636 0.500000
O O2 0.601459 0.755725 0.591007
O O3 0.609646 0.000000 0.500000
O O4 0.891806 0.763757 0.500000
O O5 0.892810 0.735294 0.321677
O O6 0.000000 0.802768 0.408282
O O7 0.901138 0.000000 0.400458
O O8 0.380634 0.265630 0.083140
O O9 0.423430 0.500000 0.000000
O O10 0.500000 0.256625 0.000000
O O11 0.912969 0.500000 0.222152
O O12 0.876091 0.239097 0.153906
O O13 0.000000 0.274909 0.222794
O O14 0.256715 0.747123 0.857962
O O15 0.192354 0.000000 0.900243
O O16 0.184856 0.765789 0.000000
O O17 0.500000 0.769303 0.701325
O O18 0.631785 0.749590 0.754640
O O19 0.582101 0.000000 0.683992
O O20 0.330777 0.500000 0.835030
#
# Coordination Sequence:
#
# PCOD9387497 Si02
#       7
#     4   8   4   8   8   8   8
#     4   7  12  26  49  75 105 143 182 219 264 315
#     4   8  14  27  50  80 113 147 180 215 259 312
#     4   9  18  32  51  77 108 141 176 213 261 324
#     4  10  21  36  57  86 116 145 180 224 273 325
#     4  11  24  41  60  79 104 141 185 230 278 333
#     4   9  17  31  53  81 111 144 184 227 268 316
#     4  11  21  35  55  78 109 146 181 222 275 332
#
# _framework density 18.024339000000001
#
# number of rings (size 3 to 8) (size 9 to 14) (size 15 to 20)
#    0.000    2.500    0.833    3.500    0.000    3.667 
#    0.000    3.750    1.833    3.500    0.000    0.000 
#    0.000    0.000    0.000    0.000    0.000    0.000 
#
# Total GULP energy -267587.201774 kJ/mol
# GULP energy per Si atom -5574.733370 kJ/mol
# Density = 1.798332 g / cm^3
# Si number density = 18.024339 Si / 1000 Ang^3
#
#
#
# Elastic Constant Matrix: (Units=GPa)
#
#
# Indices 1 2 3 4 5 6 
#
# 1 73.8594 31.8037 69.2811 0.0000 0.0000 0.0000
# 2 31.8037 33.1811 46.5061 0.0000 0.0000 0.0000
# 3 69.2811 46.5061 190.5025 0.0000 0.0000 0.0000
# 4 0.0000 0.0000 0.0000 14.5050 0.0000 0.0000
# 5 0.0000 0.0000 0.0000 0.0000 1839.1755 0.0000
# 6 0.0000 0.0000 0.0000 0.0000 0.0000 20.1198
#
#
#
# Elastic Compliance Matrix: (Units=1/GPa)
#
#
# Indices 1 2 3 4 5 6 
#
# 1 0.025970 -0.017716 -0.005120 0.000000 0.000000 0.000000
# 2 -0.017716 0.057899 -0.007691 0.000000 0.000000 0.000000
# 3 -0.005120 -0.007691 0.008989 0.000000 0.000000 0.000000
# 4 0.000000 0.000000 0.000000 0.068942 0.000000 0.000000
# 5 0.000000 0.000000 0.000000 0.000000 0.000544 0.000000
# 6 0.000000 0.000000 0.000000 0.000000 0.000000 0.049702
#
#
# Mechanical properties :
#
#
# Convention : Reuss Voigt Hill
#
# Bulk Modulus (GPa) = 31.44383 65.85830 48.65107
# Shear Modulus (GPa) = 17.62413 384.75685 201.19049
#
# Velocity S-wave (km/s) = 3.13037 14.62630 10.57657
# Velocity P-wave (km/s) = 5.52708 17.94034 13.27412
#
# Compressibility (1/GPa) = 0.03180274
#
# Stress axis : x y z
#
# Youngs Moduli (GPa) = 38.50549 17.27152 111.24874
#
# Poissons Ratio (x) = 0.30599 0.56957
# Poissons Ratio (y) = 0.68218 0.85566
# Poissons Ratio (z) = 0.19714 0.13284
#
# Static dielectric constant tensor:
#      x y z
#    x 1.603250 0.000000 0.000000 
#    y 0.000000 1.607660 0.000000 
#    z 0.000000 0.000000 1.638840 
# 
# From -- ./inp_files/24468.got.cif
#   From: 2010.05.17/outbox.cif.g08.bks.cpg/sg47_13_cif.got.tgz:24468.got - 2010.06.03 20:15:42.
