data_PCOD9387927
_publ_section_title
;
Structure prediction by ZEFSAII (Michael W. Deem and Ramdas Pophale) SiO2 
 PCOD9387927
Probable space group: P M M M
;
_chemical_formula_sum "Si O2"
_cell_formula_units_Z 33
_cell_length_a 20.556755
_cell_length_b 9.623345
_cell_length_c 7.697971
_cell_angle_alpha 90.000000
_cell_angle_beta 90.000000
_cell_angle_gamma 90.000000
_cell_volume 1522.849154
_symmetry_space_group_name_H-M "P M M M"
_symmetry_group_IT_number 47
_symmetry_cell_setting 'orthorhombic'
loop_
_space_group_symop_operation_xyz
x,y,z
-x,-y,z
x,-y,-z
-x,y,-z
-x,-y,-z
x,y,-z
-x,y,z
x,-y,z
loop_
_atom_site_type_symbol
_atom_site_label
_atom_site_fract_x
_atom_site_fract_y
_atom_site_fract_z
Si Si1 0.743215 0.844205 0.794656
Si Si2 0.625959 0.657773 0.208063
Si Si3 0.142565 0.349240 0.707107
Si Si4 0.500000 0.840749 0.707364
Si Si5 0.000000 0.000000 0.000000
Si Si6 0.000000 0.758412 0.293018
O O1 0.689106 0.739082 0.721740
O O2 0.813747 0.775512 0.776203
O O3 0.740139 0.000000 0.720934
O O4 0.730006 0.855603 0.000000
O O5 0.619184 0.500000 0.276022
O O6 0.563285 0.753323 0.239604
O O7 0.633169 0.646029 0.000000
O O8 0.152131 0.349966 0.500000
O O9 0.163565 0.500000 0.776967
O O10 0.066320 0.326333 0.736761
O O11 0.500000 0.849200 0.500000
O O12 0.500000 0.000000 0.775611
O O13 0.000000 0.119198 0.845690
O O14 0.000000 0.799892 0.500000
#
# Coordination Sequence:
#
# PCOD9387927 Si02
#       6
#     8   8   8   4   1   4
#     4  10  22  38  60  89 122 155 198 250 302 362
#     4  10  21  39  62  88 117 155 199 246 301 362
#     4  10  22  41  63  87 121 165 206 253 312 370
#     4  11  24  39  58  86 120 155 196 245 296 358
#     4  12  26  40  66  98 128 168 212 258 328 386
#     4  10  24  43  65  93 130 167 212 266 318 380
#
# _framework density 21.669906999999998
#
# number of rings (size 3 to 8) (size 9 to 14) (size 15 to 20)
#    0.000    1.818    0.000    2.727    3.394    8.242 
#    0.000    0.606    0.000    0.000    0.000    0.000 
#    0.000    0.000    0.000    0.000    0.000    0.000 
#
# Total GULP energy -184073.810802 kJ/mol
# GULP energy per Si atom -5577.994267 kJ/mol
# Density = 2.162059 g / cm^3
# Si number density = 21.669907 Si / 1000 Ang^3
#
#
#
# Elastic Constant Matrix: (Units=GPa)
#
#
# Indices 1 2 3 4 5 6 
#
# 1 132.7456 73.5407 -3.6170 0.0000 0.0000 0.0000
# 2 73.5407 215.7039 27.7025 0.0000 0.0000 0.0000
# 3 -3.6170 27.7025 48.6796 0.0000 0.0000 0.0000
# 4 0.0000 0.0000 0.0000 18.5936 0.0000 0.0000
# 5 0.0000 0.0000 0.0000 0.0000 27.1457 0.0000
# 6 0.0000 0.0000 0.0000 0.0000 0.0000 228.5106
#
#
#
# Elastic Compliance Matrix: (Units=1/GPa)
#
#
# Indices 1 2 3 4 5 6 
#
# 1 0.009625 -0.003639 0.002786 0.000000 0.000000 0.000000
# 2 -0.003639 0.006378 -0.003900 0.000000 0.000000 0.000000
# 3 0.002786 -0.003900 0.022969 0.000000 0.000000 0.000000
# 4 0.000000 0.000000 0.000000 0.053782 0.000000 0.000000
# 5 0.000000 0.000000 0.000000 0.000000 0.036838 0.000000
# 6 0.000000 0.000000 0.000000 0.000000 0.000000 0.004376
#
#
# Mechanical properties :
#
#
# Convention : Reuss Voigt Hill
#
# Bulk Modulus (GPa) = 33.93745 65.82014 49.87880
# Shear Modulus (GPa) = 32.61662 74.81683 53.71673
#
# Velocity S-wave (km/s) = 3.88384 5.88223 4.98422
# Velocity P-wave (km/s) = 5.98393 8.75066 7.49605
#
# Compressibility (1/GPa) = 0.02946597
#
# Stress axis : x y z
#
# Youngs Moduli (GPa) = 103.89213 156.79782 43.53728
#
# Poissons Ratio (x) = 0.57066 -0.12131
# Poissons Ratio (y) = 0.37811 0.16979
# Poissons Ratio (z) = -0.28948 0.61148
#
# Static dielectric constant tensor:
#      x y z
#    x 1.760130 0.000000 0.000000 
#    y 0.000000 1.797790 0.000000 
#    z 0.000000 0.000000 1.802830 
# 
# From -- ./inp_files/10438.got.cif
#   From: 2010.05.17/outbox.cif.g08.bks.cpg/sg47_6_cif.got.tgz:10438.got - 2010.06.03 20:15:42.
