data_PCOD9387906
_publ_section_title
;
Structure prediction by ZEFSAII (Michael W. Deem and Ramdas Pophale) SiO2 
 PCOD9387906
Probable space group: P M M M
;
_chemical_formula_sum "Si O2"
_cell_formula_units_Z 44
_cell_length_a 14.501010
_cell_length_b 10.457408
_cell_length_c 14.892953
_cell_angle_alpha 90.000000
_cell_angle_beta 90.000000
_cell_angle_gamma 90.000000
_cell_volume 2258.411744
_symmetry_space_group_name_H-M "P M M M"
_symmetry_group_IT_number 47
_symmetry_cell_setting 'orthorhombic'
loop_
_space_group_symop_operation_xyz
x,y,z
-x,-y,z
x,-y,-z
-x,y,-z
-x,-y,-z
x,y,-z
-x,y,z
x,-y,z
loop_
_atom_site_type_symbol
_atom_site_label
_atom_site_fract_x
_atom_site_fract_y
_atom_site_fract_z
Si Si1 0.695087 0.650666 0.103144
Si Si2 0.705906 0.237563 0.397840
Si Si3 0.896081 0.351301 0.360106
Si Si4 0.396184 0.500000 0.608234
Si Si5 0.099861 0.649673 0.143228
Si Si6 0.392601 0.141200 0.231391
O O1 0.691728 0.500000 0.131820
O O2 0.802238 0.695922 0.107523
O O3 0.638327 0.744750 0.166346
O O4 0.663908 0.656150 0.000000
O O5 0.678264 0.205755 0.500000
O O6 0.815079 0.262127 0.394853
O O7 0.659772 0.373089 0.369848
O O8 0.668632 0.145774 0.321344
O O9 0.878468 0.500000 0.385444
O O10 0.894767 0.345331 0.251570
O O11 0.000000 0.319048 0.389118
O O12 0.500000 0.500000 0.645368
O O13 0.402800 0.500000 0.500000
O O14 0.096872 0.500000 0.117526
O O15 0.000000 0.706128 0.116316
O O16 0.500000 0.157377 0.255861
O O17 0.381944 0.000000 0.189218
#
# Coordination Sequence:
#
# PCOD9387906 Si02
#       6
#     8   8   8   4   8   8
#     4  10  21  38  64  96 124 152 192 243 295 348
#     4  11  21  35  57  85 118 154 197 248 297 349
#     4   9  16  28  50  83 123 161 195 236 292 356
#     4   9  18  30  47  79 114 144 184 239 299 343
#     4   8  14  27  51  85 123 157 188 229 283 341
#     4  11  26  45  63  84 114 157 201 243 300 362
#
# _framework density 19.482717000000001
#
# number of rings (size 3 to 8) (size 9 to 14) (size 15 to 20)
#    0.000    2.273    2.727    1.636    1.273    3.273 
#    0.000    5.455    0.000    2.182    0.000    2.545 
#    0.000    0.000    0.000    0.000    0.000    0.000 
#
# Total GULP energy -245383.706883 kJ/mol
# GULP energy per Si atom -5576.902429 kJ/mol
# Density = 1.943837 g / cm^3
# Si number density = 19.482717 Si / 1000 Ang^3
#
#
#
# Elastic Constant Matrix: (Units=GPa)
#
#
# Indices 1 2 3 4 5 6 
#
# 1 114.9344 36.7571 24.2873 0.0000 0.0000 0.0000
# 2 36.7571 72.0193 34.1340 0.0000 0.0000 0.0000
# 3 24.2873 34.1340 82.5233 0.0000 0.0000 0.0000
# 4 0.0000 0.0000 0.0000 12.0391 0.0000 0.0000
# 5 0.0000 0.0000 0.0000 0.0000 9.1056 0.0000
# 6 0.0000 0.0000 0.0000 0.0000 0.0000 5.3483
#
#
#
# Elastic Compliance Matrix: (Units=1/GPa)
#
#
# Indices 1 2 3 4 5 6 
#
# 1 0.010475 -0.004833 -0.001084 0.000000 0.000000 0.000000
# 2 -0.004833 0.019500 -0.006644 0.000000 0.000000 0.000000
# 3 -0.001084 -0.006644 0.015185 0.000000 0.000000 0.000000
# 4 0.000000 0.000000 0.000000 0.083062 0.000000 0.000000
# 5 0.000000 0.000000 0.000000 0.000000 0.109823 0.000000
# 6 0.000000 0.000000 0.000000 0.000000 0.000000 0.186976
#
#
# Mechanical properties :
#
#
# Convention : Reuss Voigt Hill
#
# Bulk Modulus (GPa) = 49.90039 51.09264 50.49652
# Shear Modulus (GPa) = 10.94519 16.91850 13.93185
#
# Velocity S-wave (km/s) = 2.37278 2.95003 2.67701
# Velocity P-wave (km/s) = 5.75978 6.15509 5.96071
#
# Compressibility (1/GPa) = 0.02003992
#
# Stress axis : x y z
#
# Youngs Moduli (GPa) = 95.46378 51.28095 65.85503
#
# Poissons Ratio (x) = 0.24782 0.07139
# Poissons Ratio (y) = 0.46133 0.43752
# Poissons Ratio (z) = 0.10349 0.34069
#
# Static dielectric constant tensor:
#      x y z
#    x 1.712430 0.000000 0.000000 
#    y 0.000000 1.660600 0.000000 
#    z 0.000000 0.000000 1.708350 
# 
# From -- ./inp_files/23491.got.cif
#   From: 2010.05.17/outbox.cif.g08.bks.cpg/sg47_12_cif.got.tgz:23491.got - 2010.06.03 20:15:42.
