data_PCOD9387214
_publ_section_title
;
Structure prediction by ZEFSAII (Michael W. Deem and Ramdas Pophale) SiO2 
 PCOD9387214
Probable space group: P M M M
;
_chemical_formula_sum "Si O2"
_cell_formula_units_Z 52
_cell_length_a 27.382192
_cell_length_b 8.998295
_cell_length_c 14.349763
_cell_angle_alpha 90.000000
_cell_angle_beta 90.000000
_cell_angle_gamma 90.000000
_cell_volume 3535.681748
_symmetry_space_group_name_H-M "P M M M"
_symmetry_group_IT_number 47
_symmetry_cell_setting 'orthorhombic'
loop_
_space_group_symop_operation_xyz
x,y,z
-x,-y,z
x,-y,-z
-x,y,-z
-x,-y,-z
x,y,-z
-x,y,z
x,-y,z
loop_
_atom_site_type_symbol
_atom_site_label
_atom_site_fract_x
_atom_site_fract_y
_atom_site_fract_z
Si Si1 0.841426 0.673879 0.613339
Si Si2 0.398256 0.677120 0.890746
Si Si3 0.500000 0.830415 0.113130
Si Si4 0.444747 0.323626 0.611943
Si Si5 0.355166 0.178149 0.279842
Si Si6 0.052662 0.319451 0.389695
Si Si7 0.258887 0.821340 0.392021
O O1 0.843016 0.682881 0.500000
O O2 0.836926 0.500000 0.637220
O O3 0.894519 0.731291 0.647296
O O4 0.792818 0.758828 0.642836
O O5 0.398941 0.500000 0.880080
O O6 0.450950 0.743400 0.861959
O O7 0.359614 0.751449 0.822312
O O8 0.390451 0.711470 0.000000
O O9 0.500000 0.000000 0.148016
O O10 0.500000 0.836549 0.000000
O O11 0.440864 0.305980 0.500000
O O12 0.500000 0.277492 0.639023
O O13 0.440056 0.500000 0.632201
O O14 0.401790 0.235895 0.662092
O O15 0.305547 0.224720 0.331881
O O16 0.356606 0.000000 0.274547
O O17 0.051847 0.283448 0.500000
O O18 0.053616 0.500000 0.384161
O O19 0.000000 0.269576 0.350282
O O20 0.265588 0.773640 0.500000
O O21 0.256762 0.000000 0.391379
#
# Coordination Sequence:
#
# PCOD9387214 Si02
#       7
#     8   8   4   8   8   8   8
#     4   8  13  21  35  54  73  98 135 174 208 241
#     4  10  21  36  52  69  89 111 133 162 204 251
#     4   9  17  31  51  71  88 105 126 153 187 233
#     4   9  19  35  51  66  86 111 137 168 208 251
#     4  11  22  33  48  67  86 110 141 174 209 250
#     4   7   9  14  26  46  71  96 125 165 208 243
#     4   9  18  31  43  57  81 111 141 174 211 246
#
# _framework density 14.707207
#
# number of rings (size 3 to 8) (size 9 to 14) (size 15 to 20)
#    0.000    3.000    0.000    3.462    1.077    4.308 
#    0.000    2.308    0.000    0.462    0.000    3.231 
#    0.000    0.000    0.000    0.000    0.000    0.769 
#
# Total GULP energy -289554.957312 kJ/mol
# GULP energy per Si atom -5568.364564 kJ/mol
# Density = 1.467373 g / cm^3
# Si number density = 14.707207 Si / 1000 Ang^3
#
#
#
# Elastic Constant Matrix: (Units=GPa)
#
#
# Indices 1 2 3 4 5 6 
#
# 1 153.0780 41.0212 49.8012 0.0000 0.0000 0.0000
# 2 41.0212 31.9409 21.6944 0.0000 0.0000 0.0000
# 3 49.8012 21.6944 44.7418 0.0000 0.0000 0.0000
# 4 0.0000 0.0000 0.0000 16.8334 0.0000 0.0000
# 5 0.0000 0.0000 0.0000 0.0000 5.5224 0.0000
# 6 0.0000 0.0000 0.0000 0.0000 0.0000 37.0354
#
#
#
# Elastic Compliance Matrix: (Units=1/GPa)
#
#
# Indices 1 2 3 4 5 6 
#
# 1 0.011855 -0.009338 -0.008668 0.000000 0.000000 0.000000
# 2 -0.009338 0.054037 -0.015808 0.000000 0.000000 0.000000
# 3 -0.008668 -0.015808 0.039663 0.000000 0.000000 0.000000
# 4 0.000000 0.000000 0.000000 0.059406 0.000000 0.000000
# 5 0.000000 0.000000 0.000000 0.000000 0.181082 0.000000
# 6 0.000000 0.000000 0.000000 0.000000 0.000000 0.027001
#
#
# Mechanical properties :
#
#
# Convention : Reuss Voigt Hill
#
# Bulk Modulus (GPa) = 26.36533 50.53269 38.44901
# Shear Modulus (GPa) = 11.02992 19.69449 15.36221
#
# Velocity S-wave (km/s) = 2.74152 3.66335 3.23543
# Velocity P-wave (km/s) = 5.29027 7.23376 6.33696
#
# Compressibility (1/GPa) = 0.03792860
#
# Stress axis : x y z
#
# Youngs Moduli (GPa) = 84.35407 18.50587 25.21239
#
# Poissons Ratio (x) = 0.17281 0.21853
# Poissons Ratio (y) = 0.78769 0.39855
# Poissons Ratio (z) = 0.73115 0.29253
#
# Static dielectric constant tensor:
#      x y z
#    x 1.514380 0.000000 0.000000 
#    y 0.000000 1.490540 0.000000 
#    z 0.000000 0.000000 1.484240 
# 
# From -- ./inp_files/25698.got.cif
#   From: 2010.05.17/outbox.cif.g08.bks.cpg/sg47_13_cif.got.tgz:25698.got - 2010.06.03 20:15:42.
