data_PCOD9387608
_publ_section_title
;
Structure prediction by ZEFSAII (Michael W. Deem and Ramdas Pophale) SiO2 
 PCOD9387608
Probable space group: P M M M
;
_chemical_formula_sum "Si O2"
_cell_formula_units_Z 52
_cell_length_a 8.768341
_cell_length_b 14.780487
_cell_length_c 20.823721
_cell_angle_alpha 90.000000
_cell_angle_beta 90.000000
_cell_angle_gamma 90.000000
_cell_volume 2698.761533
_symmetry_space_group_name_H-M "P M M M"
_symmetry_group_IT_number 47
_symmetry_cell_setting 'orthorhombic'
loop_
_space_group_symop_operation_xyz
x,y,z
-x,-y,z
x,-y,-z
-x,y,-z
-x,-y,-z
x,y,-z
-x,y,z
x,-y,z
loop_
_atom_site_type_symbol
_atom_site_label
_atom_site_fract_x
_atom_site_fract_y
_atom_site_fract_z
Si Si1 0.816898 0.287449 0.926924
Si Si2 0.672463 0.890396 0.500000
Si Si3 0.685351 0.395097 0.571802
Si Si4 0.182217 0.104984 0.636358
Si Si5 0.682975 0.275619 0.692950
Si Si6 0.321069 0.901378 0.077895
Si Si7 0.815472 0.603231 0.805396
O O1 0.764274 0.189094 0.901906
O O2 0.769932 0.363551 0.876464
O O3 0.000000 0.287373 0.929719
O O4 0.759504 0.300528 0.000000
O O5 0.500000 0.853498 0.500000
O O6 0.756713 0.866961 0.565773
O O7 0.664643 0.000000 0.500000
O O8 0.734930 0.367231 0.500000
O O9 0.500000 0.393918 0.571806
O O10 0.730913 0.500000 0.582029
O O11 0.735452 0.331256 0.629515
O O12 0.253064 0.174638 0.686500
O O13 0.000000 0.109965 0.637016
O O14 0.226816 0.000000 0.647072
O O15 0.500000 0.273376 0.693656
O O16 0.744501 0.329329 0.753906
O O17 0.500000 0.894418 0.093959
O O18 0.264192 0.000000 0.100645
O O19 0.310172 0.902769 0.000000
O O20 0.768131 0.500000 0.793335
O O21 0.000000 0.607412 0.801320
#
# Coordination Sequence:
#
# PCOD9387608 Si02
#       7
#     8   4   8   8   8   8   8
#     4   9  18  33  55  83 110 139 183 234 280 332
#     4   9  17  31  53  81 112 147 190 237 281 327
#     4   8  15  29  49  75 106 136 170 217 270 318
#     4  10  21  37  56  80 114 154 193 235 286 341
#     4  11  22  35  57  84 110 144 188 234 281 337
#     4   8  14  26  46  74 109 145 175 207 257 320
#     4  10  22  40  59  79 109 148 185 227 285 348
#
# _framework density 19.268097000000001
#
# number of rings (size 3 to 8) (size 9 to 14) (size 15 to 20)
#    0.000    2.692    0.000    2.538    1.077    4.000 
#    0.000    3.846    0.000    0.923    0.000    6.462 
#    0.000    0.000    0.000    0.000    0.000    0.000 
#
# Total GULP energy -290048.955939 kJ/mol
# GULP energy per Si atom -5577.864537 kJ/mol
# Density = 1.922424 g / cm^3
# Si number density = 19.268097 Si / 1000 Ang^3
#
#
#
# Elastic Constant Matrix: (Units=GPa)
#
#
# Indices 1 2 3 4 5 6 
#
# 1 25.9636 35.8562 27.1353 0.0000 0.0000 0.0000
# 2 35.8562 122.3318 68.0694 0.0000 0.0000 0.0000
# 3 27.1353 68.0694 85.0009 0.0000 0.0000 0.0000
# 4 0.0000 0.0000 0.0000 33.6062 0.0000 0.0000
# 5 0.0000 0.0000 0.0000 0.0000 18.8859 0.0000
# 6 0.0000 0.0000 0.0000 0.0000 0.0000 16.5524
#
#
#
# Elastic Compliance Matrix: (Units=1/GPa)
#
#
# Indices 1 2 3 4 5 6 
#
# 1 0.069644 -0.014506 -0.010617 0.000000 0.000000 0.000000
# 2 -0.014506 0.017766 -0.009596 0.000000 0.000000 0.000000
# 3 -0.010617 -0.009596 0.022839 0.000000 0.000000 0.000000
# 4 0.000000 0.000000 0.000000 0.029756 0.000000 0.000000
# 5 0.000000 0.000000 0.000000 0.000000 0.052950 0.000000
# 6 0.000000 0.000000 0.000000 0.000000 0.000000 0.060414
#
#
# Mechanical properties :
#
#
# Convention : Reuss Voigt Hill
#
# Bulk Modulus (GPa) = 24.50311 55.04645 39.77478
# Shear Modulus (GPa) = 14.86288 20.62461 17.74374
#
# Velocity S-wave (km/s) = 2.78037 3.27525 3.03790
# Velocity P-wave (km/s) = 4.80123 6.55238 5.74393
#
# Compressibility (1/GPa) = 0.04081114
#
# Stress axis : x y z
#
# Youngs Moduli (GPa) = 14.35883 56.28773 43.78557
#
# Poissons Ratio (x) = 0.81648 0.46485
# Poissons Ratio (y) = 0.20828 0.42018
# Poissons Ratio (z) = 0.15244 0.54016
#
# Static dielectric constant tensor:
#      x y z
#    x 1.648930 0.000000 0.000000 
#    y 0.000000 1.694390 0.000000 
#    z 0.000000 0.000000 1.677350 
# 
# From -- ./inp_files/29605.got.cif
#   From: 2010.05.17/outbox.cif.g08.bks.cpg/sg47_15_cif.got.tgz:29605.got - 2010.06.03 20:15:42.
