data_PCOD9387601
_publ_section_title
;
Structure prediction by ZEFSAII (Michael W. Deem and Ramdas Pophale) SiO2 
 PCOD9387601
Probable space group: P M M M
;
_chemical_formula_sum "Si O2"
_cell_formula_units_Z 56
_cell_length_a 13.585513
_cell_length_b 13.585504
_cell_length_c 12.958395
_cell_angle_alpha 90.000000
_cell_angle_beta 90.000000
_cell_angle_gamma 90.000000
_cell_volume 2391.679666
_symmetry_space_group_name_H-M "P M M M"
_symmetry_group_IT_number 47
_symmetry_cell_setting 'orthorhombic'
loop_
_space_group_symop_operation_xyz
x,y,z
-x,-y,z
x,-y,-z
-x,y,-z
-x,-y,-z
x,y,-z
-x,y,z
x,-y,z
loop_
_atom_site_type_symbol
_atom_site_label
_atom_site_fract_x
_atom_site_fract_y
_atom_site_fract_z
Si Si1 0.612407 0.112407 0.249999
Si Si2 0.883975 0.822517 0.381890
Si Si3 0.815683 0.108203 0.170721
Si Si4 0.892721 0.682298 0.879894
Si Si5 0.391798 0.315682 0.670722
Si Si6 0.322517 0.383974 0.118110
Si Si7 0.817702 0.392721 0.379894
O O1 0.500000 0.122624 0.211901
O O2 0.698150 0.125523 0.164915
O O3 0.625523 0.198150 0.335085
O O4 0.622624 0.000000 0.288098
O O5 0.848062 0.833661 0.500000
O O6 0.835483 0.887887 0.293930
O O7 0.866111 0.709701 0.345017
O O8 0.000000 0.841993 0.382148
O O9 0.874964 0.199942 0.126210
O O10 0.841041 0.000000 0.130900
O O11 0.790299 0.633889 0.845016
O O12 0.000000 0.656457 0.835510
O O13 0.896662 0.653841 0.000000
O O14 0.500000 0.341041 0.630901
O O15 0.387888 0.335483 0.793930
O O16 0.300058 0.374964 0.626211
O O17 0.341992 0.500000 0.117852
O O18 0.333660 0.348062 0.000000
O O19 0.846158 0.396662 0.500000
O O20 0.843543 0.500000 0.335510
#
# Coordination Sequence:
#
# PCOD9387601 Si02
#       7
#     8   8   8   8   8   8   8
#     4   9  18  34  58  84 107 138 180 222 265 316
#     4  10  21  37  56  80 110 143 183 226 268 318
#     4  11  21  36  59  82 110 145 178 219 272 326
#     4  10  21  37  56  80 110 143 183 226 268 318
#     4  11  21  36  59  82 110 145 178 219 272 326
#     4  10  21  37  56  80 110 143 183 226 268 318
#     4  10  21  37  56  80 110 143 183 226 268 318
#
# _framework density 23.414507
#
# number of rings (size 3 to 8) (size 9 to 14) (size 15 to 20)
#    0.000    1.857    2.857    0.857    0.000    4.000 
#    0.000    5.714    0.000    5.143    0.000    8.000 
#    0.000    0.000    0.000    0.000    0.000    0.000 
#
# Total GULP energy -312619.703843 kJ/mol
# GULP energy per Si atom -5582.494711 kJ/mol
# Density = 2.336122 g / cm^3
# Si number density = 23.414507 Si / 1000 Ang^3
#
#
#
# Elastic Constant Matrix: (Units=GPa)
#
#
# Indices 1 2 3 4 5 6 
#
# 1 88.0665 -1.1593 -0.3681 0.0000 0.0000 0.0000
# 2 -1.1593 88.0663 -0.3681 0.0000 0.0000 0.0000
# 3 -0.3681 -0.3681 66.5360 0.0000 0.0000 0.0000
# 4 0.0000 0.0000 0.0000 15.5381 0.0000 0.0000
# 5 0.0000 0.0000 0.0000 0.0000 15.5382 0.0000
# 6 0.0000 0.0000 0.0000 0.0000 0.0000 6.4920
#
#
#
# Elastic Compliance Matrix: (Units=1/GPa)
#
#
# Indices 1 2 3 4 5 6 
#
# 1 0.011357 0.000150 0.000064 0.000000 0.000000 0.000000
# 2 0.000150 0.011357 0.000064 0.000000 0.000000 0.000000
# 3 0.000064 0.000064 0.015030 0.000000 0.000000 0.000000
# 4 0.000000 0.000000 0.000000 0.064358 0.000000 0.000000
# 5 0.000000 0.000000 0.000000 0.000000 0.064358 0.000000
# 6 0.000000 0.000000 0.000000 0.000000 0.000000 0.154037
#
#
# Mechanical properties :
#
#
# Convention : Reuss Voigt Hill
#
# Bulk Modulus (GPa) = 26.11038 26.54199 26.32618
# Shear Modulus (GPa) = 15.02813 23.81794 19.42303
#
# Velocity S-wave (km/s) = 2.53618 3.19286 2.88328
# Velocity P-wave (km/s) = 4.44431 4.99528 4.72783
#
# Compressibility (1/GPa) = 0.03829895
#
# Stress axis : x y z
#
# Youngs Moduli (GPa) = 88.04917 88.04900 66.53290
#
# Poissons Ratio (x) = -0.01319 -0.00424
# Poissons Ratio (y) = -0.01319 -0.00424
# Poissons Ratio (z) = -0.00561 -0.00561
#
# Static dielectric constant tensor:
#      x y z
#    x 1.881180 0.000000 0.000000 
#    y 0.000000 1.881180 0.000000 
#    z 0.000000 0.000000 1.916300 
# 
# From -- ./inp_files/23842.got.cif
#   From: 2010.05.17/outbox.cif.g08.bks.cpg/sg47_12_cif.got.tgz:23842.got - 2010.06.03 20:15:42.
