data_PCOD9387517
_publ_section_title
;
Structure prediction by ZEFSAII (Michael W. Deem and Ramdas Pophale) SiO2 
 PCOD9387517
Probable space group: P M M M
;
_chemical_formula_sum "Si O2"
_cell_formula_units_Z 40
_cell_length_a 11.314776
_cell_length_b 21.985570
_cell_length_c 7.549217
_cell_angle_alpha 90.000000
_cell_angle_beta 90.000000
_cell_angle_gamma 90.000000
_cell_volume 1877.956808
_symmetry_space_group_name_H-M "P M M M"
_symmetry_group_IT_number 47
_symmetry_cell_setting 'orthorhombic'
loop_
_space_group_symop_operation_xyz
x,y,z
-x,-y,z
x,-y,-z
-x,y,-z
-x,-y,-z
x,y,-z
-x,y,z
x,-y,z
loop_
_atom_site_type_symbol
_atom_site_label
_atom_site_fract_x
_atom_site_fract_y
_atom_site_fract_z
Si Si1 0.637713 0.565362 0.284665
Si Si2 0.000000 0.430143 0.785848
Si Si3 0.363438 0.000000 0.287962
Si Si4 0.362750 0.135569 0.207525
Si Si5 0.868024 0.203657 0.795184
Si Si6 0.799699 0.663718 0.296154
O O1 0.651359 0.566440 0.500000
O O2 0.500000 0.563185 0.246021
O O3 0.690196 0.500000 0.223097
O O4 0.687046 0.629332 0.217349
O O5 0.109453 0.392019 0.714161
O O6 0.000000 0.500000 0.730448
O O7 0.000000 0.427562 0.000000
O O8 0.320355 0.934606 0.223746
O O9 0.500000 0.000000 0.230653
O O10 0.356732 0.000000 0.500000
O O11 0.500000 0.140668 0.279139
O O12 0.253286 0.175051 0.282770
O O13 0.372802 0.151081 0.000000
O O14 0.849517 0.276349 0.793124
O O15 0.000000 0.190753 0.718761
O O16 0.872116 0.183232 0.000000
O O17 0.779474 0.681225 0.500000
#
# Coordination Sequence:
#
# PCOD9387517 Si02
#       6
#     8   4   4   8   8   8
#     4   8  15  29  48  71 100 130 160 203 262 321
#     4  11  23  37  53  73  99 132 171 218 271 321
#     4   9  17  31  54  85 116 142 172 221 280 324
#     4   9  18  34  57  82 107 142 188 228 261 311
#     4  10  21  37  54  73 106 148 182 216 267 323
#     4  11  21  33  53  78 101 131 174 219 263 316
#
# _framework density 21.299742999999999
#
# number of rings (size 3 to 8) (size 9 to 14) (size 15 to 20)
#    0.000    2.400    1.000    2.400    0.000    4.400 
#    0.000    0.500    0.000    4.800    0.000    7.000 
#    0.000    0.000    0.000    0.000    0.000    0.000 
#
# Total GULP energy -222714.805124 kJ/mol
# GULP energy per Si atom -5567.870128 kJ/mol
# Density = 2.125126 g / cm^3
# Si number density = 21.299743 Si / 1000 Ang^3
#
#
#
# Elastic Constant Matrix: (Units=GPa)
#
#
# Indices 1 2 3 4 5 6 
#
# 1 131.1989 65.6236 4.3948 0.0000 0.0000 0.0000
# 2 65.6236 109.7997 -3.1898 0.0000 0.0000 0.0000
# 3 4.3948 -3.1898 55.9656 0.0000 0.0000 0.0000
# 4 0.0000 0.0000 0.0000 20.7726 0.0000 0.0000
# 5 0.0000 0.0000 0.0000 0.0000 16.0422 0.0000
# 6 0.0000 0.0000 0.0000 0.0000 0.0000 -84.5798
#
#
#
# Elastic Compliance Matrix: (Units=1/GPa)
#
#
# Indices 1 2 3 4 5 6 
#
# 1 0.010957 -0.006584 -0.001236 0.000000 0.000000 0.000000
# 2 -0.006584 0.013079 0.001263 0.000000 0.000000 0.000000
# 3 -0.001236 0.001263 0.018037 0.000000 0.000000 0.000000
# 4 0.000000 0.000000 0.000000 0.048140 0.000000 0.000000
# 5 0.000000 0.000000 0.000000 0.000000 0.062336 0.000000
# 6 0.000000 0.000000 0.000000 0.000000 0.000000 -0.011823
#
#
# Mechanical properties :
#
#
# Convention : Reuss Voigt Hill
#
# Bulk Modulus (GPa) = 34.53252 47.84682 41.18967
# Shear Modulus (GPa) = 30.58214 5.78937 18.18576
#
# Velocity S-wave (km/s) = 3.79330 1.65044 2.92516
# Velocity P-wave (km/s) = 5.95259 5.11315 5.54877
#
# Compressibility (1/GPa) = 0.02895821
#
# Stress axis : x y z
#
# Youngs Moduli (GPa) = 91.26728 76.45578 55.44128
#
# Poissons Ratio (x) = 0.50342 0.06851
# Poissons Ratio (y) = 0.60094 -0.07000
# Poissons Ratio (z) = 0.11278 -0.09653
#
# Static dielectric constant tensor:
#      x y z
#    x 2.007000 0.000000 0.000000 
#    y 0.000000 1.773860 0.000000 
#    z 0.000000 0.000000 1.809170 
# 
# From -- ./inp_files/4046.got.cif
#   From: 2010.05.17/outbox.cif.g08.bks.cpg/sg47_3_cif.got.tgz:4046.got - 2010.06.03 20:15:42.
