data_PCOD9387075
_publ_section_title
;
Structure prediction by ZEFSAII (Michael W. Deem and Ramdas Pophale) SiO2 
 PCOD9387075
Probable space group: P M M M
;
_chemical_formula_sum "Si O2"
_cell_formula_units_Z 48
_cell_length_a 9.868148
_cell_length_b 31.331111
_cell_length_c 7.487658
_cell_angle_alpha 90.000000
_cell_angle_beta 90.000000
_cell_angle_gamma 90.000000
_cell_volume 2315.034403
_symmetry_space_group_name_H-M "P M M M"
_symmetry_group_IT_number 47
_symmetry_cell_setting 'orthorhombic'
loop_
_space_group_symop_operation_xyz
x,y,z
-x,-y,z
x,-y,-z
-x,y,-z
-x,-y,-z
x,y,-z
-x,y,z
x,-y,z
loop_
_atom_site_type_symbol
_atom_site_label
_atom_site_fract_x
_atom_site_fract_y
_atom_site_fract_z
Si Si1 0.845513 0.951393 0.782392
Si Si2 0.652275 0.373801 0.711731
Si Si3 0.152359 0.548543 0.784890
Si Si4 0.344262 0.874253 0.781246
Si Si5 0.846534 0.700082 0.286168
Si Si6 0.845997 0.797649 0.786046
O O1 0.737688 0.916362 0.724144
O O2 0.000000 0.940663 0.728606
O O3 0.816012 0.000000 0.726296
O O4 0.844833 0.951254 0.000000
O O5 0.640488 0.366342 0.500000
O O6 0.500000 0.376231 0.784990
O O7 0.735883 0.417333 0.732921
O O8 0.742330 0.334868 0.785370
O O9 0.179700 0.500000 0.724237
O O10 0.000000 0.560704 0.723951
O O11 0.149188 0.547668 0.000000
O O12 0.500000 0.873879 0.723409
O O13 0.259756 0.832827 0.721539
O O14 0.345082 0.874180 0.000000
O O15 0.853419 0.694808 0.500000
O O16 0.805646 0.748925 0.251823
O O17 0.000000 0.694138 0.216310
O O18 0.000000 0.804005 0.717696
O O19 0.852358 0.802301 0.000000
#
# Coordination Sequence:
#
# PCOD9387075 Si02
#       6
#     8   8   8   8   8   8
#     4   8  13  21  33  49  72 106 145 180 216 261
#     4  10  21  35  51  74 103 132 161 195 238 287
#     4   9  19  36  56  77 101 130 165 203 240 279
#     4   9  16  24  35  54  81 111 142 179 222 266
#     4   9  18  33  51  69  91 121 157 196 235 274
#     4   9  17  29  45  64  86 114 148 185 226 272
#
# _framework density 20.734033
#
# number of rings (size 3 to 8) (size 9 to 14) (size 15 to 20)
#    0.000    3.000    0.000    2.000    0.000    5.667 
#    0.000    5.833    0.000    0.000    0.000    0.000 
#    0.000    0.667    0.000    7.667    0.000    9.833 
#
# Total GULP energy -267900.023463 kJ/mol
# GULP energy per Si atom -5581.250489 kJ/mol
# Density = 2.068684 g / cm^3
# Si number density = 20.734033 Si / 1000 Ang^3
#
#
#
# Elastic Constant Matrix: (Units=GPa)
#
#
# Indices 1 2 3 4 5 6 
#
# 1 196.0091 157.9943 6.5726 0.0000 0.0000 0.0000
# 2 157.9943 176.4556 -0.8709 0.0000 0.0000 0.0000
# 3 6.5726 -0.8709 56.8454 0.0000 0.0000 0.0000
# 4 0.0000 0.0000 0.0000 23.0939 0.0000 0.0000
# 5 0.0000 0.0000 0.0000 0.0000 2.2882 0.0000
# 6 0.0000 0.0000 0.0000 0.0000 0.0000 -125.6861
#
#
#
# Elastic Compliance Matrix: (Units=1/GPa)
#
#
# Indices 1 2 3 4 5 6 
#
# 1 0.018659 -0.016719 -0.002414 0.000000 0.000000 0.000000
# 2 -0.016719 0.020648 0.002249 0.000000 0.000000 0.000000
# 3 -0.002414 0.002249 0.017905 0.000000 0.000000 0.000000
# 4 0.000000 0.000000 0.000000 0.043301 0.000000 0.000000
# 5 0.000000 0.000000 0.000000 0.000000 0.437016 0.000000
# 6 0.000000 0.000000 0.000000 0.000000 0.000000 -0.007956
#
#
# Mechanical properties :
#
#
# Convention : Reuss Voigt Hill
#
# Bulk Modulus (GPa) = 42.65091 84.07801 63.36446
# Shear Modulus (GPa) = 8.75420 -2.35318 3.20051
#
# Velocity S-wave (km/s) = 2.05701 -1.06649 1.24377
# Velocity P-wave (km/s) = 5.12415 6.25478 5.71748
#
# Compressibility (1/GPa) = 0.02344616
#
# Stress axis : x y z
#
# Youngs Moduli (GPa) = 53.59354 48.43126 55.84999
#
# Poissons Ratio (x) = 0.80971 0.13480
# Poissons Ratio (y) = 0.89602 -0.12563
# Poissons Ratio (z) = 0.12935 -0.10894
#
# Static dielectric constant tensor:
#      x y z
#    x 1.722260 0.000000 0.000000 
#    y 0.000000 1.707680 0.000000 
#    z 0.000000 0.000000 1.809960 
# 
# From -- ./inp_files/2434.got.cif
#   From: 2010.05.17/outbox.cif.g08.bks.cpg/sg47_2_cif.got.tgz:2434.got - 2010.06.03 20:15:42.
