data_PCOD9387957
_publ_section_title
;
Structure prediction by ZEFSAII (Michael W. Deem and Ramdas Pophale) SiO2 
 PCOD9387957
Probable space group: P M M M
;
_chemical_formula_sum "Si O2"
_cell_formula_units_Z 37
_cell_length_a 21.622811
_cell_length_b 11.320042
_cell_length_c 7.163248
_cell_angle_alpha 90.000000
_cell_angle_beta 90.000000
_cell_angle_gamma 90.000000
_cell_volume 1753.356298
_symmetry_space_group_name_H-M "P M M M"
_symmetry_group_IT_number 47
_symmetry_cell_setting 'orthorhombic'
loop_
_space_group_symop_operation_xyz
x,y,z
-x,-y,z
x,-y,-z
-x,y,-z
-x,-y,-z
x,y,-z
-x,y,z
x,-y,z
loop_
_atom_site_type_symbol
_atom_site_label
_atom_site_fract_x
_atom_site_fract_y
_atom_site_fract_z
Si Si1 0.429582 0.275207 0.726767
Si Si2 0.795789 0.500000 0.727116
Si Si3 0.348260 0.500000 0.273306
Si Si4 0.682120 0.130949 0.726500
Si Si5 0.807758 0.240366 0.274206
Si Si6 0.000000 0.000000 0.000000
Si Si7 0.881820 0.000000 0.727066
O O1 0.432218 0.276775 0.500000
O O2 0.500000 0.276264 0.791579
O O3 0.388686 0.387484 0.782648
O O4 0.386619 0.166187 0.783358
O O5 0.796735 0.500000 0.500000
O O6 0.723275 0.500000 0.783922
O O7 0.825122 0.626134 0.785373
O O8 0.346036 0.500000 0.500000
O O9 0.682434 0.132981 0.500000
O O10 0.736618 0.218500 0.783140
O O11 0.698726 0.000000 0.785718
O O12 0.809357 0.241436 0.500000
O O13 0.845864 0.122555 0.222395
O O14 0.945650 0.000000 0.837126
O O15 0.888189 0.000000 0.500000
#
# Coordination Sequence:
#
# PCOD9387957 Si02
#       7
#     8   4   4   8   8   1   4
#     4   9  15  19  23  36  68 121 178 228 284 344
#     4   9  14  21  40  70 100 131 183 244 286 332
#     4   9  13  18  27  42  71 116 172 232 282 330
#     4   9  14  20  31  49  78 119 174 234 283 333
#     4   9  15  26  47  75 104 139 184 233 282 328
#     4  12  26  44  68 100 128 152 192 222 252 330
#     4  10  21  39  65  92 122 157 188 226 273 321
#
# _framework density 21.102384000000001
#
# number of rings (size 3 to 8) (size 9 to 14) (size 15 to 20)
#    0.000    2.811    3.243    0.486    0.000    1.730 
#    0.000    2.162    0.000    1.946    0.000    3.784 
#    0.000    0.000    0.000    1.946    0.000    7.243 
#
# Total GULP energy -206078.992145 kJ/mol
# GULP energy per Si atom -5569.702490 kJ/mol
# Density = 2.105435 g / cm^3
# Si number density = 21.102384 Si / 1000 Ang^3
#
#
#
# Elastic Constant Matrix: (Units=GPa)
#
#
# Indices 1 2 3 4 5 6 
#
# 1 123.4137 60.8761 15.1290 0.0000 0.0000 0.0000
# 2 60.8761 175.1456 8.0452 0.0000 0.0000 0.0000
# 3 15.1290 8.0452 118.0185 0.0000 0.0000 0.0000
# 4 0.0000 0.0000 0.0000 -31.3456 0.0000 0.0000
# 5 0.0000 0.0000 0.0000 0.0000 -434.7888 0.0000
# 6 0.0000 0.0000 0.0000 0.0000 0.0000 -1.0394
#
#
#
# Elastic Compliance Matrix: (Units=1/GPa)
#
#
# Indices 1 2 3 4 5 6 
#
# 1 0.009905 -0.003395 -0.001038 0.000000 0.000000 0.000000
# 2 -0.003395 0.006891 -0.000035 0.000000 0.000000 0.000000
# 3 -0.001038 -0.000035 0.008609 0.000000 0.000000 0.000000
# 4 0.000000 0.000000 0.000000 -0.031902 0.000000 0.000000
# 5 0.000000 0.000000 0.000000 0.000000 -0.002300 0.000000
# 6 0.000000 0.000000 0.000000 0.000000 0.000000 -0.962121
#
#
# Mechanical properties :
#
#
# Convention : Reuss Voigt Hill
#
# Bulk Modulus (GPa) = 60.72013 64.96428 62.84220
# Shear Modulus (GPa) = -5.22742 -71.26626 -38.24684
#
# Velocity S-wave (km/s) = -1.57561 -5.81764 -4.26190
# Velocity P-wave (km/s) = 5.05237 3.77816 2.37191
#
# Compressibility (1/GPa) = 0.01646900
#
# Stress axis : x y z
#
# Youngs Moduli (GPa) = 100.96191 145.11440 116.16152
#
# Poissons Ratio (x) = 0.49265 0.12061
# Poissons Ratio (y) = 0.34276 0.00401
# Poissons Ratio (z) = 0.10483 0.00501
#
# Static dielectric constant tensor:
#      x y z
#    x 1.677990 0.000000 0.000000 
#    y 0.000000 1.802630 0.000000 
#    z 0.000000 0.000000 1.855490 
# 
# From -- ./inp_files/10621.got.cif
#   From: 2010.05.17/outbox.cif.g08.bks.cpg/sg47_6_cif.got.tgz:10621.got - 2010.06.03 20:15:42.
