data_PCOD9387241
_publ_section_title
;
Structure prediction by ZEFSAII (Michael W. Deem and Ramdas Pophale) SiO2 
 PCOD9387241
Probable space group: P M M M
;
_chemical_formula_sum "Si O2"
_cell_formula_units_Z 64
_cell_length_a 20.981709
_cell_length_b 19.193178
_cell_length_c 7.527956
_cell_angle_alpha 90.000000
_cell_angle_beta 90.000000
_cell_angle_gamma 90.000000
_cell_volume 3031.550607
_symmetry_space_group_name_H-M "P M M M"
_symmetry_group_IT_number 47
_symmetry_cell_setting 'orthorhombic'
loop_
_space_group_symop_operation_xyz
x,y,z
-x,-y,z
x,-y,-z
-x,y,-z
-x,-y,-z
x,y,-z
-x,y,z
x,-y,z
loop_
_atom_site_type_symbol
_atom_site_label
_atom_site_fract_x
_atom_site_fract_y
_atom_site_fract_z
Si Si1 0.196259 0.833737 0.706167
Si Si2 0.681079 0.078257 0.208429
Si Si3 0.304824 0.420676 0.282643
Si Si4 0.928318 0.919770 0.214709
Si Si5 0.072740 0.420704 0.283445
Si Si6 0.187502 0.323787 0.282388
Si Si7 0.572426 0.181300 0.785389
Si Si8 0.571268 0.657859 0.288876
O O1 0.212690 0.826958 0.500000
O O2 0.251301 0.882895 0.781707
O O3 0.127796 0.870208 0.722978
O O4 0.193324 0.755571 0.780792
O O5 0.625253 0.127557 0.282960
O O6 0.683971 0.000000 0.283722
O O7 0.666445 0.071449 0.000000
O O8 0.305202 0.420282 0.500000
O O9 0.294303 0.500000 0.226770
O O10 0.248130 0.369551 0.228461
O O11 0.372506 0.390697 0.220014
O O12 0.000000 0.899760 0.271619
O O13 0.917106 0.000000 0.270626
O O14 0.927558 0.919222 0.000000
O O15 0.073106 0.420377 0.500000
O O16 0.089828 0.500000 0.230283
O O17 0.123683 0.363835 0.224252
O O18 0.000000 0.406785 0.227632
O O19 0.185945 0.322435 0.500000
O O20 0.500000 0.166529 0.724404
O O21 0.588073 0.260904 0.736384
O O22 0.571952 0.178701 0.000000
O O23 0.567841 0.645552 0.500000
O O24 0.500000 0.646726 0.215392
#
# Coordination Sequence:
#
# PCOD9387241 Si02
#       8
#     8   8   8   8   8   8   8   8
#     4  11  22  33  49  75 105 134 163 200 246 294
#     4  10  21  36  53  72  96 128 164 203 247 293
#     4   9  16  26  42  63  88 122 163 201 234 275
#     4   9  19  37  58  76  97 129 167 205 245 290
#     4   8  13  22  37  56  81 117 155 185 219 269
#     4   9  17  27  39  60  92 125 154 189 235 280
#     4   9  18  33  53  75  97 124 161 203 246 295
#     4   9  17  29  46  69  97 126 154 190 240 293
#
# _framework density 21.111308000000001
#
# number of rings (size 3 to 8) (size 9 to 14) (size 15 to 20)
#    0.000    2.750    0.000    2.625    0.000    6.250 
#    0.000    4.375    0.000    0.375    0.000    4.375 
#    0.000    6.000    0.000   11.000    0.000    9.000 
#
# Total GULP energy -357314.840706 kJ/mol
# GULP energy per Si atom -5583.044386 kJ/mol
# Density = 2.106326 g / cm^3
# Si number density = 21.111308 Si / 1000 Ang^3
#
#
#
# Elastic Constant Matrix: (Units=GPa)
#
#
# Indices 1 2 3 4 5 6 
#
# 1 110.8143 80.7976 -8.8352 0.0000 0.0000 0.0000
# 2 80.7976 126.4893 -8.6464 0.0000 0.0000 0.0000
# 3 -8.8352 -8.6464 50.3653 0.0000 0.0000 0.0000
# 4 0.0000 0.0000 0.0000 19.3106 0.0000 0.0000
# 5 0.0000 0.0000 0.0000 0.0000 -15.9129 0.0000
# 6 0.0000 0.0000 0.0000 0.0000 0.0000 43.9577
#
#
#
# Elastic Compliance Matrix: (Units=1/GPa)
#
#
# Indices 1 2 3 4 5 6 
#
# 1 0.016954 -0.010753 0.001128 0.000000 0.000000 0.000000
# 2 -0.010753 0.014819 0.000658 0.000000 0.000000 0.000000
# 3 0.001128 0.000658 0.020166 0.000000 0.000000 0.000000
# 4 0.000000 0.000000 0.000000 0.051785 0.000000 0.000000
# 5 0.000000 0.000000 0.000000 0.000000 -0.062842 0.000000
# 6 0.000000 0.000000 0.000000 0.000000 0.000000 0.022749
#
#
# Mechanical properties :
#
#
# Convention : Reuss Voigt Hill
#
# Bulk Modulus (GPa) = 29.40674 46.03344 37.72009
# Shear Modulus (GPa) = 53.82144 24.42795 39.12469
#
# Velocity S-wave (km/s) = 5.05465 3.40531 4.30962
# Velocity P-wave (km/s) = 6.93005 6.10852 6.53221
#
# Compressibility (1/GPa) = 0.03400581
#
# Stress axis : x y z
#
# Youngs Moduli (GPa) = 58.98272 67.47976 49.58898
#
# Poissons Ratio (x) = 0.72559 -0.05595
# Poissons Ratio (y) = 0.63422 -0.03262
# Poissons Ratio (z) = -0.06654 -0.04439
#
# Static dielectric constant tensor:
#      x y z
#    x 1.733880 0.000000 0.000000 
#    y 0.000000 1.728320 0.000000 
#    z 0.000000 0.000000 1.785130 
# 
# From -- ./inp_files/11567.got.cif
#   From: 2010.05.17/outbox.cif.g08.bks.cpg/sg47_6_cif.got.tgz:11567.got - 2010.06.03 20:15:42.
