data_PCOD9387984
_publ_section_title
;
Structure prediction by ZEFSAII (Michael W. Deem and Ramdas Pophale) SiO2 
 PCOD9387984
Probable space group: P M M M
;
_chemical_formula_sum "Si O2"
_cell_formula_units_Z 64
_cell_length_a 9.339313
_cell_length_b 14.361408
_cell_length_c 28.585454
_cell_angle_alpha 90.000000
_cell_angle_beta 90.000000
_cell_angle_gamma 90.000000
_cell_volume 3834.043583
_symmetry_space_group_name_H-M "P M M M"
_symmetry_group_IT_number 47
_symmetry_cell_setting 'orthorhombic'
loop_
_space_group_symop_operation_xyz
x,y,z
-x,-y,z
x,-y,-z
-x,y,-z
-x,-y,-z
x,y,-z
-x,y,z
x,-y,z
loop_
_atom_site_type_symbol
_atom_site_label
_atom_site_fract_x
_atom_site_fract_y
_atom_site_fract_z
Si Si1 0.838086 0.888809 0.945805
Si Si2 0.833612 0.390929 0.723593
Si Si3 0.827567 0.109293 0.302818
Si Si4 0.171045 0.609931 0.946551
Si Si5 0.671136 0.230907 0.773968
Si Si6 0.328095 0.606154 0.554922
Si Si7 0.166727 0.274053 0.629304
Si Si8 0.330354 0.755366 0.882914
O O1 0.722595 0.842690 0.912968
O O2 0.000000 0.858855 0.932707
O O3 0.833302 0.000000 0.943072
O O4 0.816359 0.862755 0.000000
O O5 0.801304 0.500000 0.724393
O O6 0.729431 0.329364 0.754994
O O7 0.822601 0.348644 0.671579
O O8 0.000000 0.377648 0.738285
O O9 0.748965 0.152939 0.257723
O O10 0.788601 0.175830 0.346909
O O11 0.000000 0.119268 0.296757
O O12 0.795498 0.000000 0.309156
O O13 0.198406 0.500000 0.941131
O O14 0.250997 0.669011 0.907453
O O15 0.000000 0.623978 0.943114
O O16 0.213481 0.635930 0.000000
O O17 0.500000 0.223587 0.768268
O O18 0.706795 0.227344 0.828798
O O19 0.293982 0.618362 0.500000
O O20 0.500000 0.610245 0.559674
O O21 0.283392 0.500000 0.568210
O O22 0.256703 0.684244 0.586924
O O23 0.000000 0.266234 0.615842
O O24 0.500000 0.742127 0.885952
#
# Coordination Sequence:
#
# PCOD9387984 Si02
#       8
#     8   8   8   8   8   8   8   8
#     4   9  19  36  56  76  96 120 154 194 234 282
#     4   9  18  33  52  73  98 129 166 207 247 289
#     4   9  19  37  58  76  96 126 166 212 258 302
#     4   9  19  36  56  76  97 125 165 208 244 283
#     4  10  22  36  48  70 103 132 161 199 243 294
#     4   9  18  31  46  69 105 145 178 206 240 287
#     4   9  17  30  50  76 101 125 161 209 255 296
#     4  11  23  35  49  73 104 133 158 192 242 294
#
# _framework density 16.69256
#
# number of rings (size 3 to 8) (size 9 to 14) (size 15 to 20)
#    0.000    2.625    0.000    3.375    0.000    9.000 
#    0.000    6.875    0.000    0.375    0.000    2.625 
#    0.000    0.000    0.000    0.000    0.000    0.000 
#
# Total GULP energy -356830.306855 kJ/mol
# GULP energy per Si atom -5575.473545 kJ/mol
# Density = 1.665457 g / cm^3
# Si number density = 16.692560 Si / 1000 Ang^3
#
#
#
# Elastic Constant Matrix: (Units=GPa)
#
#
# Indices 1 2 3 4 5 6 
#
# 1 41.7954 41.8325 53.2825 0.0000 0.0000 0.0000
# 2 41.8325 128.0231 62.5378 0.0000 0.0000 0.0000
# 3 53.2825 62.5378 98.7939 0.0000 0.0000 0.0000
# 4 0.0000 0.0000 0.0000 21.3469 0.0000 0.0000
# 5 0.0000 0.0000 0.0000 0.0000 32.6940 0.0000
# 6 0.0000 0.0000 0.0000 0.0000 0.0000 38.6588
#
#
#
# Elastic Compliance Matrix: (Units=1/GPa)
#
#
# Indices 1 2 3 4 5 6 
#
# 1 0.081196 -0.007441 -0.039081 0.000000 0.000000 0.000000
# 2 -0.007441 0.011989 -0.003577 0.000000 0.000000 0.000000
# 3 -0.039081 -0.003577 0.033464 0.000000 0.000000 0.000000
# 4 0.000000 0.000000 0.000000 0.046845 0.000000 0.000000
# 5 0.000000 0.000000 0.000000 0.000000 0.030587 0.000000
# 6 0.000000 0.000000 0.000000 0.000000 0.000000 0.025867
#
#
# Mechanical properties :
#
#
# Convention : Reuss Voigt Hill
#
# Bulk Modulus (GPa) = 37.80409 64.87979 51.34194
# Shear Modulus (GPa) = 14.75089 25.93725 20.34407
#
# Velocity S-wave (km/s) = 2.97590 3.94613 3.49485
# Velocity P-wave (km/s) = 5.87405 7.72751 6.86363
#
# Compressibility (1/GPa) = 0.02645216
#
# Stress axis : x y z
#
# Youngs Moduli (GPa) = 12.31590 83.40655 29.88302
#
# Poissons Ratio (x) = 0.62059 1.16787
# Poissons Ratio (y) = 0.09164 0.10688
# Poissons Ratio (z) = 0.48132 0.29831
#
# Static dielectric constant tensor:
#      x y z
#    x 1.557600 0.000000 0.000000 
#    y 0.000000 1.568760 0.000000 
#    z 0.000000 0.000000 1.545160 
# 
# From -- ./inp_files/34467.got.cif
#   From: 2010.05.17/outbox.cif.g08.bks.cpg/sg47_18_cif.got.tgz:34467.got - 2010.06.03 20:15:42.
