data_PCOD9387258
_publ_section_title
;
Structure prediction by ZEFSAII (Michael W. Deem and Ramdas Pophale) SiO2 
 PCOD9387258
Probable space group: P M M M
;
_chemical_formula_sum "Si O2"
_cell_formula_units_Z 64
_cell_length_a 20.793555
_cell_length_b 7.860018
_cell_length_c 20.684267
_cell_angle_alpha 90.000000
_cell_angle_beta 90.000000
_cell_angle_gamma 90.000000
_cell_volume 3380.589368
_symmetry_space_group_name_H-M "P M M M"
_symmetry_group_IT_number 47
_symmetry_cell_setting 'orthorhombic'
loop_
_space_group_symop_operation_xyz
x,y,z
-x,-y,z
x,-y,-z
-x,y,-z
-x,-y,-z
x,y,-z
-x,y,z
x,-y,z
loop_
_atom_site_type_symbol
_atom_site_label
_atom_site_fract_x
_atom_site_fract_y
_atom_site_fract_z
Si Si1 0.572686 0.797274 0.321956
Si Si2 0.678390 0.702601 0.573104
Si Si3 0.427100 0.296187 0.176475
Si Si4 0.073445 0.207925 0.676107
Si Si5 0.177319 0.796541 0.573276
Si Si6 0.323409 0.294666 0.073687
Si Si7 0.073370 0.792143 0.176396
Si Si8 0.177702 0.795104 0.073488
O O1 0.500000 0.730667 0.334263
O O2 0.622965 0.748839 0.376894
O O3 0.592545 0.738041 0.250382
O O4 0.569454 0.000000 0.320190
O O5 0.666099 0.768865 0.500000
O O6 0.681355 0.500000 0.569809
O O7 0.749127 0.764537 0.593493
O O8 0.500000 0.229245 0.167832
O O9 0.429959 0.500000 0.168533
O O10 0.376136 0.230051 0.124378
O O11 0.125342 0.269646 0.624307
O O12 0.087958 0.260405 0.749866
O O13 0.000000 0.258258 0.660738
O O14 0.074576 0.000000 0.675773
O O15 0.169452 0.728771 0.500000
O O16 0.168594 0.000000 0.570127
O O17 0.327178 0.500000 0.072548
O O18 0.250691 0.248027 0.092426
O O19 0.334322 0.233686 0.000000
O O20 0.125237 0.731566 0.124481
O O21 0.000000 0.741206 0.161108
O O22 0.074339 0.000000 0.175887
O O23 0.172535 0.000000 0.071716
O O24 0.167396 0.731831 0.000000
#
# Coordination Sequence:
#
# PCOD9387258 Si02
#       8
#     8   8   8   8   8   8   8   8
#     4  10  21  36  54  76 101 128 159 198 243 290
#     4  10  21  36  53  73  99 131 165 201 241 287
#     4   9  18  33  52  73  98 128 162 199 237 281
#     4   8  14  25  42  66  94 121 152 193 240 287
#     4   9  17  29  46  69  96 124 156 196 239 283
#     4   9  18  32  49  70  97 128 161 198 240 284
#     4   8  14  25  41  62  88 116 148 189 234 278
#     4   9  17  28  43  65  91 118 151 192 236 282
#
# _framework density 18.931611
#
# number of rings (size 3 to 8) (size 9 to 14) (size 15 to 20)
#    0.000    3.000    0.000    1.500    0.000    4.000 
#    0.000    6.250    0.000    0.750    0.000    8.750 
#    0.000    0.000    0.000    0.000    0.000    0.000 
#
# Total GULP energy -356816.394411 kJ/mol
# GULP energy per Si atom -5575.256163 kJ/mol
# Density = 1.888852 g / cm^3
# Si number density = 18.931611 Si / 1000 Ang^3
#
#
#
# Elastic Constant Matrix: (Units=GPa)
#
#
# Indices 1 2 3 4 5 6 
#
# 1 159.5477 2.8586 137.0320 0.0000 0.0000 0.0000
# 2 2.8586 20.4130 4.5643 0.0000 0.0000 0.0000
# 3 137.0320 4.5643 142.0610 0.0000 0.0000 0.0000
# 4 0.0000 0.0000 0.0000 8.6160 0.0000 0.0000
# 5 0.0000 0.0000 0.0000 0.0000 45.5227 0.0000
# 6 0.0000 0.0000 0.0000 0.0000 0.0000 -174.9052
#
#
#
# Elastic Compliance Matrix: (Units=1/GPa)
#
#
# Indices 1 2 3 4 5 6 
#
# 1 0.036698 0.002796 -0.035489 0.000000 0.000000 0.000000
# 2 0.002796 0.049556 -0.004289 0.000000 0.000000 0.000000
# 3 -0.035489 -0.004289 0.041410 0.000000 0.000000 0.000000
# 4 0.000000 0.000000 0.000000 0.116063 0.000000 0.000000
# 5 0.000000 0.000000 0.000000 0.000000 0.021967 0.000000
# 6 0.000000 0.000000 0.000000 0.000000 0.000000 -0.005717
#
#
# Mechanical properties :
#
#
# Convention : Reuss Voigt Hill
#
# Bulk Modulus (GPa) = 18.62212 67.88127 43.25169
# Shear Modulus (GPa) = 14.21096 -12.31551 0.94773
#
# Velocity S-wave (km/s) = 2.74277 -2.55331 0.70830
# Velocity P-wave (km/s) = 4.45962 5.21933 4.85436
#
# Compressibility (1/GPa) = 0.05369959
#
# Stress axis : x y z
#
# Youngs Moduli (GPa) = 27.24911 20.17920 24.14886
#
# Poissons Ratio (x) = -0.05642 0.85702
# Poissons Ratio (y) = -0.07619 0.10358
# Poissons Ratio (z) = 0.96705 0.08655
#
# Static dielectric constant tensor:
#      x y z
#    x 1.588990 0.000000 0.000000 
#    y 0.000000 1.690530 0.000000 
#    z 0.000000 0.000000 1.566700 
# 
# From -- ./inp_files/9972.got.cif
#   From: 2010.05.17/outbox.cif.g08.bks.cpg/sg47_5_cif.got.tgz:9972.got - 2010.06.03 20:15:42.
