data_PCOD9387090
_publ_section_title
;
Structure prediction by ZEFSAII (Michael W. Deem and Ramdas Pophale) SiO2 
 PCOD9387090
Probable space group: P M M M
;
_chemical_formula_sum "Si O2"
_cell_formula_units_Z 48
_cell_length_a 15.889441
_cell_length_b 18.080830
_cell_length_c 8.098341
_cell_angle_alpha 90.000000
_cell_angle_beta 90.000000
_cell_angle_gamma 90.000000
_cell_volume 2326.607059
_symmetry_space_group_name_H-M "P M M M"
_symmetry_group_IT_number 47
_symmetry_cell_setting 'orthorhombic'
loop_
_space_group_symop_operation_xyz
x,y,z
-x,-y,z
x,-y,-z
-x,y,-z
-x,-y,-z
x,y,-z
-x,y,z
x,-y,z
loop_
_atom_site_type_symbol
_atom_site_label
_atom_site_fract_x
_atom_site_fract_y
_atom_site_fract_z
Si Si1 0.597026 0.690605 0.199640
Si Si2 0.899323 0.157773 0.187937
Si Si3 0.747510 0.415296 0.300286
Si Si4 0.147158 0.000000 0.812676
Si Si5 0.399079 0.146612 0.810485
Si Si6 0.096243 0.681236 0.696547
Si Si7 0.321268 0.000000 0.316685
O O1 0.500000 0.677177 0.254760
O O2 0.664140 0.629710 0.251725
O O3 0.626387 0.772657 0.255875
O O4 0.594815 0.693977 0.000000
O O5 0.877091 0.078568 0.265461
O O6 0.874740 0.234281 0.272513
O O7 0.000000 0.159464 0.180899
O O8 0.865354 0.158559 0.000000
O O9 0.751332 0.415787 0.500000
O O10 0.744332 0.500000 0.242726
O O11 0.831958 0.373727 0.238606
O O12 0.246928 0.000000 0.814053
O O13 0.110604 0.000000 0.000000
O O14 0.500000 0.149121 0.816252
O O15 0.372440 0.075033 0.709958
O O16 0.368643 0.138495 0.000000
O O17 0.090965 0.670383 0.500000
O O18 0.000000 0.671707 0.762313
O O19 0.284474 0.000000 0.500000
#
# Coordination Sequence:
#
# PCOD9387090 Si02
#       7
#     8   8   8   4   8   8   4
#     4   9  20  39  62  86 111 144 187 232 280 335
#     4   9  18  34  56  79 103 137 183 230 273 319
#     4  10  22  38  57  84 116 149 185 227 278 336
#     4  10  21  35  51  74 107 147 185 222 268 322
#     4   9  19  38  60  78 102 141 185 226 272 327
#     4   9  19  36  57  81 112 149 187 228 276 330
#     4  12  25  34  47  78 115 146 181 226 270 316
#
# _framework density 20.6309
#
# number of rings (size 3 to 8) (size 9 to 14) (size 15 to 20)
#    0.000    2.500    0.000    2.250    2.333    5.667 
#    0.000    5.000    0.000    2.500    0.000    3.500 
#    0.000    0.000    0.000    0.000    0.000    0.000 
#
# Total GULP energy -267660.121003 kJ/mol
# GULP energy per Si atom -5576.252521 kJ/mol
# Density = 2.058394 g / cm^3
# Si number density = 20.630900 Si / 1000 Ang^3
#
#
#
# Elastic Constant Matrix: (Units=GPa)
#
#
# Indices 1 2 3 4 5 6 
#
# 1 91.2357 91.9236 10.3751 0.0000 0.0000 0.0000
# 2 91.9236 211.7155 17.2057 0.0000 0.0000 0.0000
# 3 10.3751 17.2057 22.8570 0.0000 0.0000 0.0000
# 4 0.0000 0.0000 0.0000 18.5679 0.0000 0.0000
# 5 0.0000 0.0000 0.0000 0.0000 17.6198 0.0000
# 6 0.0000 0.0000 0.0000 0.0000 0.0000 40.7664
#
#
#
# Elastic Compliance Matrix: (Units=1/GPa)
#
#
# Indices 1 2 3 4 5 6 
#
# 1 0.019635 -0.008309 -0.002658 0.000000 0.000000 0.000000
# 2 -0.008309 0.008547 -0.002662 0.000000 0.000000 0.000000
# 3 -0.002658 -0.002662 0.046961 0.000000 0.000000 0.000000
# 4 0.000000 0.000000 0.000000 0.053856 0.000000 0.000000
# 5 0.000000 0.000000 0.000000 0.000000 0.056754 0.000000
# 6 0.000000 0.000000 0.000000 0.000000 0.000000 0.024530
#
#
# Mechanical properties :
#
#
# Convention : Reuss Voigt Hill
#
# Bulk Modulus (GPa) = 20.88372 62.75744 41.82058
# Shear Modulus (GPa) = 19.72363 29.14441 24.43402
#
# Velocity S-wave (km/s) = 3.09532 3.76261 3.44516
# Velocity P-wave (km/s) = 4.78740 7.02577 6.01168
#
# Compressibility (1/GPa) = 0.04788419
#
# Stress axis : x y z
#
# Youngs Moduli (GPa) = 50.93074 116.99555 21.29437
#
# Poissons Ratio (x) = 0.97212 0.05660
# Poissons Ratio (y) = 0.42318 0.05669
# Poissons Ratio (z) = 0.13536 0.31149
#
# Static dielectric constant tensor:
#      x y z
#    x 1.725230 0.000000 0.000000 
#    y 0.000000 1.759260 0.000000 
#    z 0.000000 0.000000 1.761070 
# 
# From -- ./inp_files/9151.got.cif
#   From: 2010.05.17/outbox.cif.g08.bks.cpg/sg47_5_cif.got.tgz:9151.got - 2010.06.03 20:15:42.
