data_PCOD9387092
_publ_section_title
;
Structure prediction by ZEFSAII (Michael W. Deem and Ramdas Pophale) SiO2 
 PCOD9387092
Probable space group: P M M M
;
_chemical_formula_sum "Si O2"
_cell_formula_units_Z 56
_cell_length_a 20.530938
_cell_length_b 9.062910
_cell_length_c 15.489162
_cell_angle_alpha 90.000000
_cell_angle_beta 90.000000
_cell_angle_gamma 90.000000
_cell_volume 2882.069044
_symmetry_space_group_name_H-M "P M M M"
_symmetry_group_IT_number 47
_symmetry_cell_setting 'orthorhombic'
loop_
_space_group_symop_operation_xyz
x,y,z
-x,-y,z
x,-y,-z
-x,y,-z
-x,-y,-z
x,y,-z
-x,y,z
x,-y,z
loop_
_atom_site_type_symbol
_atom_site_label
_atom_site_fract_x
_atom_site_fract_y
_atom_site_fract_z
Si Si1 0.922685 0.324750 0.746777
Si Si2 0.288304 0.666454 0.103018
Si Si3 0.428537 0.175493 0.643172
Si Si4 0.164876 0.824078 0.603057
Si Si5 0.704145 0.664096 0.398584
Si Si6 0.570464 0.324410 0.172372
Si Si7 0.157306 0.175493 0.102263
O O1 0.910296 0.500000 0.745204
O O2 0.888586 0.250621 0.663890
O O3 0.892134 0.256338 0.833773
O O4 0.000000 0.299763 0.744806
O O5 0.276368 0.500000 0.136652
O O6 0.361972 0.710075 0.125767
O O7 0.230056 0.773482 0.129572
O O8 0.285388 0.659993 0.000000
O O9 0.500000 0.216680 0.606295
O O10 0.365372 0.257835 0.608666
O O11 0.430550 0.225304 0.742604
O O12 0.421206 0.000000 0.633752
O O13 0.155348 0.793719 0.500000
O O14 0.235144 0.760498 0.632941
O O15 0.164215 0.000000 0.613683
O O16 0.716362 0.648803 0.500000
O O17 0.702494 0.500000 0.359058
O O18 0.500000 0.302566 0.126919
O O19 0.572937 0.500000 0.194352
O O20 0.151100 0.000000 0.110873
O O21 0.147990 0.212531 0.000000
#
# Coordination Sequence:
#
# PCOD9387092 Si02
#       7
#     8   8   8   8   8   8   8
#     4  11  25  43  65  94 125 160 200 240 291 357
#     4   9  18  33  54  80 110 146 189 238 292 349
#     4  10  21  35  51  74 107 148 192 239 292 347
#     4  10  22  41  65  93 125 160 199 245 295 350
#     4  10  21  37  58  83 111 146 189 237 290 348
#     4   9  18  32  50  74 106 145 189 238 291 345
#     4  10  22  40  62  89 122 160 202 250 302 356
#
# _framework density 19.430486999999999
#
# number of rings (size 3 to 8) (size 9 to 14) (size 15 to 20)
#    0.000    2.143    0.000    2.143    2.000    6.286 
#    0.000    5.714    0.000    0.000    0.000    4.000 
#    0.000    0.000    0.000    0.000    0.000    0.000 
#
# Total GULP energy -312340.670593 kJ/mol
# GULP energy per Si atom -5577.511975 kJ/mol
# Density = 1.938626 g / cm^3
# Si number density = 19.430487 Si / 1000 Ang^3
#
#
#
# Elastic Constant Matrix: (Units=GPa)
#
#
# Indices 1 2 3 4 5 6 
#
# 1 167.0264 96.0464 64.2453 0.0000 0.0000 0.0000
# 2 96.0464 106.3440 57.1588 0.0000 0.0000 0.0000
# 3 64.2453 57.1588 67.8007 0.0000 0.0000 0.0000
# 4 0.0000 0.0000 0.0000 24.6643 0.0000 0.0000
# 5 0.0000 0.0000 0.0000 0.0000 43.6564 0.0000
# 6 0.0000 0.0000 0.0000 0.0000 0.0000 22.0180
#
#
#
# Elastic Compliance Matrix: (Units=1/GPa)
#
#
# Indices 1 2 3 4 5 6 
#
# 1 0.013161 -0.009478 -0.004480 0.000000 0.000000 0.000000
# 2 -0.009478 0.024021 -0.011270 0.000000 0.000000 0.000000
# 3 -0.004480 -0.011270 0.028495 0.000000 0.000000 0.000000
# 4 0.000000 0.000000 0.000000 0.040544 0.000000 0.000000
# 5 0.000000 0.000000 0.000000 0.000000 0.022906 0.000000
# 6 0.000000 0.000000 0.000000 0.000000 0.000000 0.045417
#
#
# Mechanical properties :
#
#
# Convention : Reuss Voigt Hill
#
# Bulk Modulus (GPa) = 65.69843 86.23025 75.96434
# Shear Modulus (GPa) = 21.73213 26.31579 24.02396
#
# Velocity S-wave (km/s) = 3.34796 3.68415 3.52007
# Velocity P-wave (km/s) = 6.98789 7.91028 7.46334
#
# Compressibility (1/GPa) = 0.01522106
#
# Stress axis : x y z
#
# Youngs Moduli (GPa) = 75.98418 41.62966 35.09412
#
# Poissons Ratio (x) = 0.39458 0.15722
# Poissons Ratio (y) = 0.72021 0.39550
# Poissons Ratio (z) = 0.34040 0.46915
#
# Static dielectric constant tensor:
#      x y z
#    x 1.686620 0.000000 0.000000 
#    y 0.000000 1.670590 0.000000 
#    z 0.000000 0.000000 1.696510 
# 
# From -- ./inp_files/11266.got.cif
#   From: 2010.05.17/outbox.cif.g08.bks.cpg/sg47_6_cif.got.tgz:11266.got - 2010.06.03 20:15:42.
