data_PCOD9387902
_publ_section_title
;
Structure prediction by ZEFSAII (Michael W. Deem and Ramdas Pophale) SiO2 
 PCOD9387902
Probable space group: P M M M
;
_chemical_formula_sum "Si O2"
_cell_formula_units_Z 40
_cell_length_a 22.370553
_cell_length_b 10.907357
_cell_length_c 8.710528
_cell_angle_alpha 90.000000
_cell_angle_beta 90.000000
_cell_angle_gamma 90.000000
_cell_volume 2125.400258
_symmetry_space_group_name_H-M "P M M M"
_symmetry_group_IT_number 47
_symmetry_cell_setting 'orthorhombic'
loop_
_space_group_symop_operation_xyz
x,y,z
-x,-y,z
x,-y,-z
-x,y,-z
-x,-y,-z
x,y,-z
-x,y,z
x,-y,z
loop_
_atom_site_type_symbol
_atom_site_label
_atom_site_fract_x
_atom_site_fract_y
_atom_site_fract_z
Si Si1 0.934499 0.645487 0.824543
Si Si2 0.371947 0.356362 0.316045
Si Si3 0.933490 0.000000 0.686349
Si Si4 0.500000 0.647566 0.825902
Si Si5 0.840723 0.207149 0.318035
Si Si6 0.287632 0.141901 0.183713
O O1 0.939378 0.500000 0.833337
O O2 0.874642 0.670062 0.728487
O O3 0.000000 0.689813 0.762845
O O4 0.927852 0.691781 0.000000
O O5 0.368996 0.355576 0.500000
O O6 0.359726 0.500000 0.267078
O O7 0.438808 0.322238 0.260823
O O8 0.328416 0.251085 0.251617
O O9 0.893317 0.114439 0.729884
O O10 0.937093 0.000000 0.500000
O O11 0.000000 0.000000 0.749092
O O12 0.500000 0.500000 0.834916
O O13 0.500000 0.696553 0.000000
O O14 0.830229 0.198434 0.500000
O O15 0.779938 0.173750 0.233665
O O16 0.301087 0.000000 0.233709
O O17 0.292832 0.144671 0.000000
#
# Coordination Sequence:
#
# PCOD9387902 Si02
#       6
#     8   8   4   4   8   8
#     4   9  19  36  55  76 106 142 179 225 283 344
#     4  10  21  38  63  94 125 158 200 247 294 347
#     4   9  18  32  51  77 105 132 169 222 281 335
#     4   9  17  33  60  93 128 163 198 240 292 345
#     4  11  21  35  56  79 107 142 182 230 284 342
#     4  11  24  41  60  83 117 159 202 246 297 355
#
# _framework density 18.819984999999999
#
# number of rings (size 3 to 8) (size 9 to 14) (size 15 to 20)
#    0.000    2.000    1.000    3.300    0.000    6.000 
#    0.000    1.500    0.000    5.400    0.000    0.000 
#    0.000    0.000    0.000    0.000    0.000    0.000 
#
# Total GULP energy -222832.285877 kJ/mol
# GULP energy per Si atom -5570.807147 kJ/mol
# Density = 1.877715 g / cm^3
# Si number density = 18.819985 Si / 1000 Ang^3
#
#
#
# Elastic Constant Matrix: (Units=GPa)
#
#
# Indices 1 2 3 4 5 6 
#
# 1 155.8265 75.1139 39.4967 0.0000 0.0000 0.0000
# 2 75.1139 102.2060 36.3180 0.0000 0.0000 0.0000
# 3 39.4967 36.3180 57.6411 0.0000 0.0000 0.0000
# 4 0.0000 0.0000 0.0000 24.2278 0.0000 0.0000
# 5 0.0000 0.0000 0.0000 0.0000 33.0823 0.0000
# 6 0.0000 0.0000 0.0000 0.0000 0.0000 -20.8809
#
#
#
# Elastic Compliance Matrix: (Units=1/GPa)
#
#
# Indices 1 2 3 4 5 6 
#
# 1 0.010314 -0.006531 -0.002952 0.000000 0.000000 0.000000
# 2 -0.006531 0.016742 -0.006074 0.000000 0.000000 0.000000
# 3 -0.002952 -0.006074 0.023199 0.000000 0.000000 0.000000
# 4 0.000000 0.000000 0.000000 0.041275 0.000000 0.000000
# 5 0.000000 0.000000 0.000000 0.000000 0.030228 0.000000
# 6 0.000000 0.000000 0.000000 0.000000 0.000000 -0.047891
#
#
# Mechanical properties :
#
#
# Convention : Reuss Voigt Hill
#
# Bulk Modulus (GPa) = 52.24438 68.61455 60.42947
# Shear Modulus (GPa) = 44.89940 18.26884 31.58412
#
# Velocity S-wave (km/s) = 4.88969 3.11901 4.10106
# Velocity P-wave (km/s) = 7.72652 7.03622 7.38944
#
# Compressibility (1/GPa) = 0.01914081
#
# Stress axis : x y z
#
# Youngs Moduli (GPa) = 96.95763 59.72988 43.10612
#
# Poissons Ratio (x) = 0.39008 0.12726
# Poissons Ratio (y) = 0.63321 0.26181
# Poissons Ratio (z) = 0.28625 0.36278
#
# Static dielectric constant tensor:
#      x y z
#    x 1.631040 0.000000 0.000000 
#    y 0.000000 2.009810 0.000000 
#    z 0.000000 0.000000 1.659500 
# 
# From -- ./inp_files/10702.got.cif
#   From: 2010.05.17/outbox.cif.g08.bks.cpg/sg47_6_cif.got.tgz:10702.got - 2010.06.03 20:15:42.
