data_PCOD9387323
_publ_section_title
;
Structure prediction by ZEFSAII (Michael W. Deem and Ramdas Pophale) SiO2 
 PCOD9387323
Probable space group: P M M M
;
_chemical_formula_sum "Si O2"
_cell_formula_units_Z 56
_cell_length_a 14.641700
_cell_length_b 8.860353
_cell_length_c 26.316514
_cell_angle_alpha 90.000000
_cell_angle_beta 90.000000
_cell_angle_gamma 90.000000
_cell_volume 3414.057954
_symmetry_space_group_name_H-M "P M M M"
_symmetry_group_IT_number 47
_symmetry_cell_setting 'orthorhombic'
loop_
_space_group_symop_operation_xyz
x,y,z
-x,-y,z
x,-y,-z
-x,y,-z
-x,-y,-z
x,y,-z
-x,y,z
x,-y,z
loop_
_atom_site_type_symbol
_atom_site_label
_atom_site_fract_x
_atom_site_fract_y
_atom_site_fract_z
Si Si1 0.895718 0.318610 0.440296
Si Si2 0.607864 0.319487 0.000000
Si Si3 0.395070 0.816380 0.500000
Si Si4 0.103976 0.319037 0.939805
Si Si5 0.606680 0.319590 0.306218
Si Si6 0.393430 0.181017 0.802520
Si Si7 0.715682 0.180951 0.600579
Si Si8 0.712987 0.819199 0.096067
O O1 0.882602 0.279718 0.500000
O O2 0.887174 0.500000 0.436118
O O3 0.818238 0.238939 0.407764
O O4 0.000000 0.278141 0.426680
O O5 0.655986 0.252138 0.950227
O O6 0.619589 0.500000 0.000000
O O7 0.500000 0.284672 0.000000
O O8 0.500000 0.764920 0.500000
O O9 0.342051 0.768920 0.550791
O O10 0.395802 0.000000 0.500000
O O11 0.113055 0.500000 0.934157
O O12 0.183288 0.236361 0.909565
O O13 0.000000 0.277466 0.925809
O O14 0.115630 0.285950 0.000000
O O15 0.500000 0.277312 0.314858
O O16 0.613492 0.500000 0.307918
O O17 0.631580 0.260454 0.250191
O O18 0.668646 0.247216 0.349542
O O19 0.500000 0.215985 0.813487
O O20 0.332051 0.225762 0.850390
O O21 0.386393 0.000000 0.795938
O O22 0.714099 0.000000 0.602522
O O23 0.708664 0.000000 0.091943
#
# Coordination Sequence:
#
# PCOD9387323 Si02
#       8
#     8   4   4   8   8   8   8   8
#     4   9  18  33  52  74 104 140 174 212 259 310
#     4  11  23  35  48  71 106 145 177 206 250 309
#     4   9  18  30  44  69 104 138 169 201 246 305
#     4   9  18  33  52  74 104 141 177 212 253 307
#     4  10  21  36  54  77 103 135 178 221 259 305
#     4   9  19  36  55  75 102 137 174 213 260 311
#     4  11  20  32  52  77 106 139 173 214 260 307
#     4  11  21  33  53  80 107 135 170 216 265 310
#
# _framework density 16.402767000000001
#
# number of rings (size 3 to 8) (size 9 to 14) (size 15 to 20)
#    0.000    2.143    1.429    3.214    0.000    4.286 
#    0.000    2.857    0.000    2.571    0.000    4.000 
#    0.000    0.000    0.000    0.000    0.000    0.000 
#
# Total GULP energy -312565.410308 kJ/mol
# GULP energy per Si atom -5581.525184 kJ/mol
# Density = 1.636543 g / cm^3
# Si number density = 16.402767 Si / 1000 Ang^3
#
#
#
# Elastic Constant Matrix: (Units=GPa)
#
#
# Indices 1 2 3 4 5 6 
#
# 1 141.0354 53.6789 97.8111 0.0000 0.0000 0.0000
# 2 53.6789 40.2633 52.0893 0.0000 0.0000 0.0000
# 3 97.8111 52.0893 137.2108 0.0000 0.0000 0.0000
# 4 0.0000 0.0000 0.0000 20.0288 0.0000 0.0000
# 5 0.0000 0.0000 0.0000 0.0000 21.6423 0.0000
# 6 0.0000 0.0000 0.0000 0.0000 0.0000 27.9330
#
#
#
# Elastic Compliance Matrix: (Units=1/GPa)
#
#
# Indices 1 2 3 4 5 6 
#
# 1 0.017257 -0.013937 -0.007011 0.000000 0.000000 0.000000
# 2 -0.013937 0.060063 -0.012867 0.000000 0.000000 0.000000
# 3 -0.007011 -0.012867 0.017170 0.000000 0.000000 0.000000
# 4 0.000000 0.000000 0.000000 0.049928 0.000000 0.000000
# 5 0.000000 0.000000 0.000000 0.000000 0.046206 0.000000
# 6 0.000000 0.000000 0.000000 0.000000 0.000000 0.035800
#
#
# Mechanical properties :
#
#
# Convention : Reuss Voigt Hill
#
# Bulk Modulus (GPa) = 37.22809 80.62981 58.92895
# Shear Modulus (GPa) = 16.50121 21.58282 19.04201
#
# Velocity S-wave (km/s) = 3.17519 3.63134 3.41090
# Velocity P-wave (km/s) = 6.01564 8.17588 7.17750
#
# Compressibility (1/GPa) = 0.02686144
#
# Stress axis : x y z
#
# Youngs Moduli (GPa) = 57.94704 16.64909 58.23989
#
# Poissons Ratio (x) = 0.23204 0.40831
# Poissons Ratio (y) = 0.80761 0.74936
# Poissons Ratio (z) = 0.40626 0.21422
#
# Static dielectric constant tensor:
#      x y z
#    x 1.547060 0.000000 0.000000 
#    y 0.000000 1.547530 0.000000 
#    z 0.000000 0.000000 1.520770 
# 
# From -- ./inp_files/31064.got.cif
#   From: 2010.05.17/outbox.cif.g08.bks.cpg/sg47_16_cif.got.tgz:31064.got - 2010.06.03 20:15:42.
