data_PCOD9387510
_publ_section_title
;
Structure prediction by ZEFSAII (Michael W. Deem and Ramdas Pophale) SiO2 
 PCOD9387510
Probable space group: P M M M
;
_chemical_formula_sum "Si O2"
_cell_formula_units_Z 33
_cell_length_a 18.919762
_cell_length_b 10.159097
_cell_length_c 9.371281
_cell_angle_alpha 90.000000
_cell_angle_beta 90.000000
_cell_angle_gamma 90.000000
_cell_volume 1801.232342
_symmetry_space_group_name_H-M "P M M M"
_symmetry_group_IT_number 47
_symmetry_cell_setting 'orthorhombic'
loop_
_space_group_symop_operation_xyz
x,y,z
-x,-y,z
x,-y,-z
-x,y,-z
-x,-y,-z
x,y,-z
-x,y,z
x,-y,z
loop_
_atom_site_type_symbol
_atom_site_label
_atom_site_fract_x
_atom_site_fract_y
_atom_site_fract_z
Si Si1 0.000000 0.000000 0.000000
Si Si2 0.311535 0.843927 0.171029
Si Si3 0.918564 0.500000 0.326403
Si Si4 0.173841 0.251100 0.336212
Si Si5 0.584547 0.348620 0.331165
Si Si6 0.921833 0.000000 0.706394
O O1 0.938863 0.000000 0.874587
O O2 0.240315 0.784150 0.239073
O O3 0.374660 0.758930 0.239085
O O4 0.316212 0.000000 0.206479
O O5 0.311024 0.832037 0.000000
O O6 0.921893 0.500000 0.500000
O O7 0.873497 0.627119 0.283767
O O8 0.000000 0.500000 0.275379
O O9 0.197036 0.277842 0.500000
O O10 0.122184 0.126747 0.335674
O O11 0.599471 0.329965 0.500000
O O12 0.500000 0.338116 0.312483
O O13 0.605012 0.500000 0.294702
O O14 0.000000 0.000000 0.643263
#
# Coordination Sequence:
#
# PCOD9387510 Si02
#       6
#     1   8   4   8   8   4
#     4   8  24  36  58  86 116 160 180 254 312 360
#     4  11  25  40  59  86 126 168 202 244 299 358
#     4   9  20  38  57  83 118 149 184 247 315 356
#     4  11  22  37  60  87 116 153 201 253 300 355
#     4   9  20  41  68  95 123 156 197 247 300 354
#     4  10  21  36  62  81 112 153 201 239 301 357
#
# _framework density 18.320792000000001
#
# number of rings (size 3 to 8) (size 9 to 14) (size 15 to 20)
#    0.364    1.576    1.212    2.545    3.394    4.848 
#    0.000    3.636    0.000    1.455    0.000    0.000 
#    0.000    0.000    0.000    0.000    0.000    0.000 
#
# Total GULP energy -183863.658412 kJ/mol
# GULP energy per Si atom -5571.626012 kJ/mol
# Density = 1.827909 g / cm^3
# Si number density = 18.320792 Si / 1000 Ang^3
#
#
#
# Elastic Constant Matrix: (Units=GPa)
#
#
# Indices 1 2 3 4 5 6 
#
# 1 102.5510 78.5954 49.1888 0.0000 0.0000 0.0000
# 2 78.5954 168.0901 49.9349 0.0000 0.0000 0.0000
# 3 49.1888 49.9349 94.9391 0.0000 0.0000 0.0000
# 4 0.0000 0.0000 0.0000 24.5931 0.0000 0.0000
# 5 0.0000 0.0000 0.0000 0.0000 32.2154 0.0000
# 6 0.0000 0.0000 0.0000 0.0000 0.0000 37.8399
#
#
#
# Elastic Compliance Matrix: (Units=1/GPa)
#
#
# Indices 1 2 3 4 5 6 
#
# 1 0.017402 -0.006469 -0.005613 0.000000 0.000000 0.000000
# 2 -0.006469 0.009456 -0.001622 0.000000 0.000000 0.000000
# 3 -0.005613 -0.001622 0.014294 0.000000 0.000000 0.000000
# 4 0.000000 0.000000 0.000000 0.040662 0.000000 0.000000
# 5 0.000000 0.000000 0.000000 0.000000 0.031041 0.000000
# 6 0.000000 0.000000 0.000000 0.000000 0.000000 0.026427
#
#
# Mechanical properties :
#
#
# Convention : Reuss Voigt Hill
#
# Bulk Modulus (GPa) = 72.76241 80.11314 76.43778
# Shear Modulus (GPa) = 29.19343 31.45376 30.32360
#
# Velocity S-wave (km/s) = 3.99615 4.14797 4.07276
# Velocity P-wave (km/s) = 7.81628 8.17091 7.99556
#
# Compressibility (1/GPa) = 0.01374336
#
# Stress axis : x y z
#
# Youngs Moduli (GPa) = 57.46583 105.75567 69.95738
#
# Poissons Ratio (x) = 0.68414 0.39270
# Poissons Ratio (y) = 0.37175 0.11345
# Poissons Ratio (z) = 0.32258 0.17151
#
# Static dielectric constant tensor:
#      x y z
#    x 1.622160 0.000000 0.000000 
#    y 0.000000 1.610450 0.000000 
#    z 0.000000 0.000000 1.622590 
# 
# From -- ./inp_files/10442.got.cif
#   From: 2010.05.17/outbox.cif.g08.bks.cpg/sg47_6_cif.got.tgz:10442.got - 2010.06.03 20:15:42.
