data_PCOD9387504
_publ_section_title
;
Structure prediction by ZEFSAII (Michael W. Deem and Ramdas Pophale) SiO2 
 PCOD9387504
Probable space group: P M M M
;
_chemical_formula_sum "Si O2"
_cell_formula_units_Z 37
_cell_length_a 18.525810
_cell_length_b 12.371398
_cell_length_c 7.831148
_cell_angle_alpha 90.000000
_cell_angle_beta 90.000000
_cell_angle_gamma 90.000000
_cell_volume 1794.822132
_symmetry_space_group_name_H-M "P M M M"
_symmetry_group_IT_number 47
_symmetry_cell_setting 'orthorhombic'
loop_
_space_group_symop_operation_xyz
x,y,z
-x,-y,z
x,-y,-z
-x,y,-z
-x,-y,-z
x,y,-z
-x,y,z
x,-y,z
loop_
_atom_site_type_symbol
_atom_site_label
_atom_site_fract_x
_atom_site_fract_y
_atom_site_fract_z
Si Si1 0.579524 0.261790 0.791245
Si Si2 0.144855 0.729528 0.698402
Si Si3 0.000000 0.171998 0.187063
Si Si4 0.718135 0.875708 0.793379
Si Si5 0.623914 0.500000 0.791774
Si Si6 0.209092 0.500000 0.795095
Si Si7 0.000000 0.000000 0.500000
O O1 0.500000 0.222813 0.739369
O O2 0.646831 0.188997 0.733920
O O3 0.589521 0.386650 0.736834
O O4 0.581415 0.261401 0.000000
O O5 0.128562 0.741853 0.500000
O O6 0.210190 0.810940 0.742846
O O7 0.171423 0.608688 0.733774
O O8 0.072739 0.758123 0.799006
O O9 0.000000 0.092327 0.347715
O O10 0.000000 0.119611 0.000000
O O11 0.719470 0.000000 0.733954
O O12 0.715802 0.877055 0.000000
O O13 0.707463 0.500000 0.739323
O O14 0.620746 0.500000 0.000000
O O15 0.209421 0.500000 0.000000
#
# Coordination Sequence:
#
# PCOD9387504 Si02
#       7
#     8   8   4   8   4   4   1
#     4   9  16  28  50  84 123 159 206 272 337 399
#     4  12  25  44  65  97 133 171 224 275 333 402
#     4  12  27  48  74 105 143 184 228 282 337 391
#     4  10  21  36  57  87 122 167 220 272 334 400
#     4   9  15  27  51  85 119 154 207 268 332 407
#     4  11  21  39  68  95 127 170 216 268 338 413
#     4  12  26  52  72 112 144 184 232 280 330 394
#
# _framework density 20.614854000000001
#
# number of rings (size 3 to 8) (size 9 to 14) (size 15 to 20)
#    0.000    1.514    3.243    2.757    1.514    2.595 
#    0.000    4.324    0.000    0.649    0.000    3.027 
#    0.000    0.000    0.000    0.000    0.000    0.000 
#
# Total GULP energy -206507.157357 kJ/mol
# GULP energy per Si atom -5581.274523 kJ/mol
# Density = 2.056793 g / cm^3
# Si number density = 20.614854 Si / 1000 Ang^3
#
#
#
# Elastic Constant Matrix: (Units=GPa)
#
#
# Indices 1 2 3 4 5 6 
#
# 1 180.6758 81.3866 21.2323 0.0000 0.0000 0.0000
# 2 81.3866 158.3062 18.6012 0.0000 0.0000 0.0000
# 3 21.2323 18.6012 79.3639 0.0000 0.0000 0.0000
# 4 0.0000 0.0000 0.0000 15.7024 0.0000 0.0000
# 5 0.0000 0.0000 0.0000 0.0000 83.1582 0.0000
# 6 0.0000 0.0000 0.0000 0.0000 0.0000 8.0264
#
#
#
# Elastic Compliance Matrix: (Units=1/GPa)
#
#
# Indices 1 2 3 4 5 6 
#
# 1 0.007296 -0.003621 -0.001103 0.000000 0.000000 0.000000
# 2 -0.003621 0.008293 -0.000975 0.000000 0.000000 0.000000
# 3 -0.001103 -0.000975 0.013124 0.000000 0.000000 0.000000
# 4 0.000000 0.000000 0.000000 0.063685 0.000000 0.000000
# 5 0.000000 0.000000 0.000000 0.000000 0.012025 0.000000
# 6 0.000000 0.000000 0.000000 0.000000 0.000000 0.124589
#
#
# Mechanical properties :
#
#
# Convention : Reuss Voigt Hill
#
# Bulk Modulus (GPa) = 57.75624 73.42070 65.58847
# Shear Modulus (GPa) = 20.31030 41.18578 30.74804
#
# Velocity S-wave (km/s) = 3.14224 4.47460 3.86625
# Velocity P-wave (km/s) = 6.42203 7.89866 7.19831
#
# Compressibility (1/GPa) = 0.01731415
#
# Stress axis : x y z
#
# Youngs Moduli (GPa) = 137.06992 120.58270 76.19746
#
# Poissons Ratio (x) = 0.43664 0.08405
# Poissons Ratio (y) = 0.49634 0.07429
# Poissons Ratio (z) = 0.15120 0.11756
#
# Static dielectric constant tensor:
#      x y z
#    x 1.721770 0.000000 0.000000 
#    y 0.000000 1.651870 0.000000 
#    z 0.000000 0.000000 1.747970 
# 
# From -- ./inp_files/8740.got.cif
#   From: 2010.05.17/outbox.cif.g08.bks.cpg/sg47_5_cif.got.tgz:8740.got - 2010.06.03 20:15:42.
