data_PCOD9387907
_publ_section_title
;
Structure prediction by ZEFSAII (Michael W. Deem and Ramdas Pophale) SiO2 
 PCOD9387907
Probable space group: P M M M
;
_chemical_formula_sum "Si O2"
_cell_formula_units_Z 56
_cell_length_a 14.183408
_cell_length_b 8.799564
_cell_length_c 20.584779
_cell_angle_alpha 90.000000
_cell_angle_beta 90.000000
_cell_angle_gamma 90.000000
_cell_volume 2569.141113
_symmetry_space_group_name_H-M "P M M M"
_symmetry_group_IT_number 47
_symmetry_cell_setting 'orthorhombic'
loop_
_space_group_symop_operation_xyz
x,y,z
-x,-y,z
x,-y,-z
-x,y,-z
-x,-y,-z
x,y,-z
-x,y,z
x,-y,z
loop_
_atom_site_type_symbol
_atom_site_label
_atom_site_fract_x
_atom_site_fract_y
_atom_site_fract_z
Si Si1 0.142120 0.172987 0.288194
Si Si2 0.104347 0.681614 0.847355
Si Si3 0.886928 0.675642 0.571043
Si Si4 0.387922 0.172756 0.423749
Si Si5 0.283957 0.180745 0.075620
Si Si6 0.686761 0.666745 0.307021
Si Si7 0.500000 0.336261 0.775723
Si Si8 0.500000 0.174545 0.900333
O O1 0.101525 0.266423 0.228049
O O2 0.130332 0.237771 0.361258
O O3 0.253075 0.197162 0.278243
O O4 0.111707 0.000000 0.285568
O O5 0.110936 0.500000 0.850623
O O6 0.199190 0.747682 0.881394
O O7 0.000000 0.726722 0.875174
O O8 0.853123 0.737258 0.500000
O O9 0.855715 0.500000 0.575896
O O10 0.000000 0.673341 0.566879
O O11 0.374636 0.193472 0.500000
O O12 0.500000 0.183129 0.410974
O O13 0.334265 0.295639 0.381593
O O14 0.358112 0.000000 0.406777
O O15 0.394289 0.236490 0.081911
O O16 0.286423 0.000000 0.090360
O O17 0.258555 0.201571 0.000000
O O18 0.731743 0.500000 0.298314
O O19 0.589738 0.665040 0.269596
O O20 0.500000 0.500000 0.812432
O O21 0.500000 0.195992 0.823374
O O22 0.500000 0.000000 0.922856
#
# Coordination Sequence:
#
# PCOD9387907 Si02
#       8
#     8   8   8   8   8   8   4   4
#     4  12  25  39  59  89 122 159 205 259 319 382
#     4  11  25  45  68  95 131 175 222 273 329 391
#     4   9  19  38  63  88 115 150 192 240 300 369
#     4   9  18  33  52  74 103 142 192 252 317 384
#     4  10  22  42  69 102 139 177 219 266 318 381
#     4  11  22  37  55  78 110 150 199 253 311 376
#     4  10  22  37  54  80 112 149 197 250 301 355
#     4  10  21  38  64  97 133 174 213 253 308 373
#
# _framework density 21.797167000000002
#
# number of rings (size 3 to 8) (size 9 to 14) (size 15 to 20)
#    0.000    1.714    0.714    4.500    0.000    9.714 
#    0.000    2.857    0.000    1.286    0.000    0.000 
#    0.000    0.000    0.000    0.000    0.000    0.000 
#
# Total GULP energy -312207.065293 kJ/mol
# GULP energy per Si atom -5575.126166 kJ/mol
# Density = 2.174756 g / cm^3
# Si number density = 21.797167 Si / 1000 Ang^3
#
#
#
# Elastic Constant Matrix: (Units=GPa)
#
#
# Indices 1 2 3 4 5 6 
#
# 1 140.2550 35.0049 49.4815 0.0000 0.0000 0.0000
# 2 35.0049 62.0238 35.7987 0.0000 0.0000 0.0000
# 3 49.4815 35.7987 100.2488 0.0000 0.0000 0.0000
# 4 0.0000 0.0000 0.0000 -432.4070 0.0000 0.0000
# 5 0.0000 0.0000 0.0000 0.0000 30.8127 0.0000
# 6 0.0000 0.0000 0.0000 0.0000 0.0000 14.3088
#
#
#
# Elastic Compliance Matrix: (Units=1/GPa)
#
#
# Indices 1 2 3 4 5 6 
#
# 1 0.009113 -0.003208 -0.003353 0.000000 0.000000 0.000000
# 2 -0.003208 0.021438 -0.006072 0.000000 0.000000 0.000000
# 3 -0.003353 -0.006072 0.013798 0.000000 0.000000 0.000000
# 4 0.000000 0.000000 0.000000 -0.002313 0.000000 0.000000
# 5 0.000000 0.000000 0.000000 0.000000 0.032454 0.000000
# 6 0.000000 0.000000 0.000000 0.000000 0.000000 0.069887
#
#
# Mechanical properties :
#
#
# Convention : Reuss Voigt Hill
#
# Bulk Modulus (GPa) = 52.39971 60.34419 56.37195
# Shear Modulus (GPa) = 28.40824 -65.30759 -18.44967
#
# Velocity S-wave (km/s) = 3.61404 -5.47965 -2.91250
# Velocity P-wave (km/s) = 6.44259 3.50583 3.82205
#
# Compressibility (1/GPa) = 0.01908408
#
# Stress axis : x y z
#
# Youngs Moduli (GPa) = 109.72874 46.64585 72.47314
#
# Poissons Ratio (x) = 0.14966 0.24297
# Poissons Ratio (y) = 0.35205 0.44005
# Poissons Ratio (z) = 0.36787 0.28323
#
# Static dielectric constant tensor:
#      x y z
#    x 1.940470 0.000000 0.000000 
#    y 0.000000 1.806070 0.000000 
#    z 0.000000 0.000000 1.794190 
# 
# From -- ./inp_files/31031.got.cif
#   From: 2010.05.17/outbox.cif.g08.bks.cpg/sg47_16_cif.got.tgz:31031.got - 2010.06.03 20:15:42.
