data_PCOD9387528
_publ_section_title
;
Structure prediction by ZEFSAII (Michael W. Deem and Ramdas Pophale) SiO2 
 PCOD9387528
Probable space group: P M M M
;
_chemical_formula_sum "Si O2"
_cell_formula_units_Z 52
_cell_length_a 11.182922
_cell_length_b 7.519537
_cell_length_c 28.696178
_cell_angle_alpha 90.000000
_cell_angle_beta 90.000000
_cell_angle_gamma 90.000000
_cell_volume 2413.072964
_symmetry_space_group_name_H-M "P M M M"
_symmetry_group_IT_number 47
_symmetry_cell_setting 'orthorhombic'
loop_
_space_group_symop_operation_xyz
x,y,z
-x,-y,z
x,-y,-z
-x,y,-z
-x,-y,-z
x,y,-z
-x,y,z
x,-y,z
loop_
_atom_site_type_symbol
_atom_site_label
_atom_site_fract_x
_atom_site_fract_y
_atom_site_fract_z
Si Si1 0.865482 0.204866 0.728791
Si Si2 0.000000 0.717457 0.552098
Si Si3 0.367619 0.211818 0.780182
Si Si4 0.866747 0.716692 0.945587
Si Si5 0.367010 0.714524 0.889991
Si Si6 0.639815 0.212798 0.550206
Si Si7 0.808868 0.295943 0.625402
O O1 0.751008 0.286111 0.755240
O O2 0.831835 0.204221 0.674141
O O3 0.000000 0.281540 0.734585
O O4 0.873474 0.000000 0.744585
O O5 0.889347 0.775556 0.583255
O O6 0.000000 0.500000 0.550005
O O7 0.000000 0.784702 0.500000
O O8 0.500000 0.281814 0.766271
O O9 0.356470 0.238944 0.835548
O O10 0.370224 0.000000 0.770698
O O11 0.866439 0.500000 0.943569
O O12 0.750279 0.779316 0.917443
O O13 0.000000 0.773253 0.929100
O O14 0.856127 0.765492 0.000000
O O15 0.500000 0.776024 0.905863
O O16 0.367475 0.500000 0.893940
O O17 0.693493 0.278040 0.500000
O O18 0.500000 0.249161 0.547447
O O19 0.683293 0.287206 0.599517
O O20 0.656139 0.000000 0.551351
O O21 0.842572 0.500000 0.634086
#
# Coordination Sequence:
#
# PCOD9387528 Si02
#       7
#     8   4   8   8   8   8   8
#     4  10  21  37  55  74 100 133 171 212 254 306
#     4   9  18  32  49  71 101 133 159 189 236 291
#     4   9  19  36  55  73  96 131 171 210 259 315
#     4   8  14  25  42  67 101 138 172 206 248 300
#     4   9  17  29  47  73 101 127 162 212 260 300
#     4   9  19  36  55  75 102 135 169 204 242 289
#     4  11  21  34  53  77 105 133 163 202 250 301
#
# _framework density 21.549287
#
# number of rings (size 3 to 8) (size 9 to 14) (size 15 to 20)
#    0.000    2.692    0.769    1.846    0.000    3.385 
#    0.000    3.846    0.000    2.308    0.000    3.231 
#    0.000    0.000    0.000    0.000    0.000    0.000 
#
# Total GULP energy -289769.744721 kJ/mol
# GULP energy per Si atom -5572.495091 kJ/mol
# Density = 2.150024 g / cm^3
# Si number density = 21.549287 Si / 1000 Ang^3
#
#
#
# Elastic Constant Matrix: (Units=GPa)
#
#
# Indices 1 2 3 4 5 6 
#
# 1 209.1809 12.1399 93.3506 0.0000 0.0000 0.0000
# 2 12.1399 51.5709 -3.3506 0.0000 0.0000 0.0000
# 3 93.3506 -3.3506 79.2250 0.0000 0.0000 0.0000
# 4 0.0000 0.0000 0.0000 111.6615 0.0000 0.0000
# 5 0.0000 0.0000 0.0000 0.0000 58.2686 0.0000
# 6 0.0000 0.0000 0.0000 0.0000 0.0000 -12.0491
#
#
#
# Elastic Compliance Matrix: (Units=1/GPa)
#
#
# Indices 1 2 3 4 5 6 
#
# 1 0.010621 -0.003322 -0.012655 0.000000 0.000000 0.000000
# 2 -0.003322 0.020484 0.004781 0.000000 0.000000 0.000000
# 3 -0.012655 0.004781 0.027736 0.000000 0.000000 0.000000
# 4 0.000000 0.000000 0.000000 0.008956 0.000000 0.000000
# 5 0.000000 0.000000 0.000000 0.000000 0.017162 0.000000
# 6 0.000000 0.000000 0.000000 0.000000 0.000000 -0.082994
#
#
# Mechanical properties :
#
#
# Convention : Reuss Voigt Hill
#
# Bulk Modulus (GPa) = 27.43670 60.47295 43.95483
# Shear Modulus (GPa) = 136.96253 47.43200 92.19727
#
# Velocity S-wave (km/s) = 7.98096 4.69667 6.54807
# Velocity P-wave (km/s) = 9.88369 7.58519 8.80973
#
# Compressibility (1/GPa) = 0.03644753
#
# Stress axis : x y z
#
# Youngs Moduli (GPa) = 94.15361 48.81973 36.05421
#
# Poissons Ratio (x) = 0.16220 0.45627
# Poissons Ratio (y) = 0.31282 -0.17238
# Poissons Ratio (z) = 1.19153 -0.23341
#
# Static dielectric constant tensor:
#      x y z
#    x 2.115770 0.000000 0.000000 
#    y 0.000000 1.822040 0.000000 
#    z 0.000000 0.000000 1.750040 
# 
# From -- ./inp_files/33581.got.cif
#   From: 2010.05.17/outbox.cif.g08.bks.cpg/sg47_17_cif.got.tgz:33581.got - 2010.06.03 20:15:42.
