data_PCOD9387919
_publ_section_title
;
Structure prediction by ZEFSAII (Michael W. Deem and Ramdas Pophale) SiO2 
 PCOD9387919
Probable space group: P M M M
;
_chemical_formula_sum "Si O2"
_cell_formula_units_Z 52
_cell_length_a 20.350581
_cell_length_b 8.831421
_cell_length_c 15.341503
_cell_angle_alpha 90.000000
_cell_angle_beta 90.000000
_cell_angle_gamma 90.000000
_cell_volume 2757.244699
_symmetry_space_group_name_H-M "P M M M"
_symmetry_group_IT_number 47
_symmetry_cell_setting 'orthorhombic'
loop_
_space_group_symop_operation_xyz
x,y,z
-x,-y,z
x,-y,-z
-x,y,-z
-x,-y,-z
x,y,-z
-x,y,z
x,-y,z
loop_
_atom_site_type_symbol
_atom_site_label
_atom_site_fract_x
_atom_site_fract_y
_atom_site_fract_z
Si Si1 0.708440 0.680385 0.903189
Si Si2 0.222671 0.319579 0.601883
Si Si3 0.371257 0.321901 0.668615
Si Si4 0.815770 0.179209 0.774991
Si Si5 0.576170 0.180712 0.155365
Si Si6 0.576301 0.831436 0.500000
Si Si7 0.922098 0.679821 0.899377
O O1 0.708441 0.500000 0.890493
O O2 0.753244 0.752646 0.828029
O O3 0.633734 0.740011 0.899390
O O4 0.735493 0.713693 0.000000
O O5 0.218801 0.269201 0.500000
O O6 0.210596 0.500000 0.601915
O O7 0.295661 0.295641 0.641217
O O8 0.179091 0.241145 0.676174
O O9 0.379227 0.500000 0.688172
O O10 0.401032 0.225579 0.747309
O O11 0.407553 0.267683 0.583128
O O12 0.878212 0.229614 0.831799
O O13 0.808472 0.000000 0.772533
O O14 0.500000 0.227276 0.139970
O O15 0.579357 0.000000 0.143327
O O16 0.500000 0.855414 0.500000
O O17 0.608802 0.000000 0.500000
O O18 0.907857 0.500000 0.890375
O O19 0.000000 0.700894 0.885685
O O20 0.907672 0.721448 0.000000
#
# Coordination Sequence:
#
# PCOD9387919 Si02
#       7
#     8   8   8   8   8   4   8
#     4  11  24  41  61  84 112 151 201 250 294 351
#     4  10  21  39  61  84 113 151 198 248 295 348
#     4  11  21  36  57  79 104 140 189 242 296 358
#     4  12  24  37  60  93 128 162 195 240 299 355
#     4  11  24  40  57  79 109 145 187 240 305 369
#     4  11  23  35  49  73 107 143 180 233 302 367
#     4   9  19  38  65  96 130 169 209 244 282 336
#
# _framework density 18.859407000000001
#
# number of rings (size 3 to 8) (size 9 to 14) (size 15 to 20)
#    0.000    1.308    2.308    4.385    0.000    8.615 
#    0.000    2.308    0.000    0.462    0.000    3.231 
#    0.000    0.000    0.000    0.000    0.000    0.000 
#
# Total GULP energy -290291.069667 kJ/mol
# GULP energy per Si atom -5582.520571 kJ/mol
# Density = 1.881648 g / cm^3
# Si number density = 18.859407 Si / 1000 Ang^3
#
#
#
# Elastic Constant Matrix: (Units=GPa)
#
#
# Indices 1 2 3 4 5 6 
#
# 1 58.6176 30.8346 41.6757 0.0000 0.0000 0.0000
# 2 30.8346 29.0923 44.1006 0.0000 0.0000 0.0000
# 3 41.6757 44.1006 127.8454 0.0000 0.0000 0.0000
# 4 0.0000 0.0000 0.0000 51.6795 0.0000 0.0000
# 5 0.0000 0.0000 0.0000 0.0000 35.2491 0.0000
# 6 0.0000 0.0000 0.0000 0.0000 0.0000 39.1116
#
#
#
# Elastic Compliance Matrix: (Units=1/GPa)
#
#
# Indices 1 2 3 4 5 6 
#
# 1 0.039192 -0.046474 0.003255 0.000000 0.000000 0.000000
# 2 -0.046474 0.127156 -0.028713 0.000000 0.000000 0.000000
# 3 0.003255 -0.028713 0.016665 0.000000 0.000000 0.000000
# 4 0.000000 0.000000 0.000000 0.019350 0.000000 0.000000
# 5 0.000000 0.000000 0.000000 0.000000 0.028369 0.000000
# 6 0.000000 0.000000 0.000000 0.000000 0.000000 0.025568
#
#
# Mechanical properties :
#
#
# Convention : Reuss Voigt Hill
#
# Bulk Modulus (GPa) = 25.54257 49.86412 37.70335
# Shear Modulus (GPa) = 12.10029 31.80434 21.95232
#
# Velocity S-wave (km/s) = 2.53574 4.11102 3.41544
# Velocity P-wave (km/s) = 4.70599 7.00224 5.96564
#
# Compressibility (1/GPa) = 0.03915033
#
# Stress axis : x y z
#
# Youngs Moduli (GPa) = 25.51554 7.86437 60.00446
#
# Poissons Ratio (x) = 0.36548 -0.19533
# Poissons Ratio (y) = 1.18580 1.72291
# Poissons Ratio (z) = -0.08306 0.22581
#
# Static dielectric constant tensor:
#      x y z
#    x 1.664370 0.000000 0.000000 
#    y 0.000000 1.638720 0.000000 
#    z 0.000000 0.000000 1.642510 
# 
# From -- ./inp_files/25031.got.cif
#   From: 2010.05.17/outbox.cif.g08.bks.cpg/sg47_13_cif.got.tgz:25031.got - 2010.06.03 20:15:42.
