data_PCOD9387631
_publ_section_title
;
Structure prediction by ZEFSAII (Michael W. Deem and Ramdas Pophale) SiO2 
 PCOD9387631
Probable space group: P M M M
;
_chemical_formula_sum "Si O2"
_cell_formula_units_Z 52
_cell_length_a 7.591939
_cell_length_b 16.265000
_cell_length_c 20.077325
_cell_angle_alpha 90.000000
_cell_angle_beta 90.000000
_cell_angle_gamma 90.000000
_cell_volume 2479.206071
_symmetry_space_group_name_H-M "P M M M"
_symmetry_group_IT_number 47
_symmetry_cell_setting 'orthorhombic'
loop_
_space_group_symop_operation_xyz
x,y,z
-x,-y,z
x,-y,-z
-x,y,-z
-x,-y,-z
x,y,-z
-x,y,z
x,-y,z
loop_
_atom_site_type_symbol
_atom_site_label
_atom_site_fract_x
_atom_site_fract_y
_atom_site_fract_z
Si Si1 0.791104 0.909107 0.794998
Si Si2 0.786304 0.820827 0.073319
Si Si3 0.787462 0.321960 0.424492
Si Si4 0.293389 0.753889 0.708452
Si Si5 0.203478 0.500000 0.581413
Si Si6 0.293397 0.628198 0.072858
Si Si7 0.715843 0.589116 0.780557
O O1 0.720114 0.874004 0.864973
O O2 0.769141 0.838457 0.740267
O O3 0.000000 0.916910 0.804493
O O4 0.721401 0.000000 0.778641
O O5 0.722657 0.726951 0.078913
O O6 0.000000 0.817872 0.075665
O O7 0.735643 0.852069 0.000000
O O8 0.727259 0.306062 0.500000
O O9 0.740034 0.255476 0.369783
O O10 0.716987 0.411701 0.400918
O O11 0.000000 0.328545 0.426804
O O12 0.500000 0.751813 0.720842
O O13 0.218992 0.671109 0.743489
O O14 0.201601 0.500000 0.500000
O O15 0.000000 0.500000 0.603416
O O16 0.500000 0.606480 0.070979
O O17 0.224363 0.593380 0.142296
O O18 0.218009 0.605381 0.000000
O O19 0.500000 0.591238 0.780193
O O20 0.767943 0.500000 0.751866
#
# Coordination Sequence:
#
# PCOD9387631 Si02
#       7
#     8   8   8   8   4   8   8
#     4  10  21  37  57  79 104 137 177 220 267 322
#     4   9  17  30  50  75 102 131 166 214 269 319
#     4   9  18  34  56  80 108 143 180 217 257 306
#     4  11  22  35  54  79 110 144 175 216 267 315
#     4   7  12  26  49  77 107 139 176 213 248 293
#     4   9  16  28  48  70  95 133 180 223 261 303
#     4   9  18  31  46  70 105 141 179 220 261 305
#
# _framework density 20.974454999999999
#
# number of rings (size 3 to 8) (size 9 to 14) (size 15 to 20)
#    0.000    2.692    1.538    1.385    1.077    1.231 
#    0.000    3.077    0.000    4.154    0.000    8.615 
#    0.000    0.000    0.000    0.000    0.000    0.000 
#
# Total GULP energy -290145.401652 kJ/mol
# GULP energy per Si atom -5579.719263 kJ/mol
# Density = 2.092672 g / cm^3
# Si number density = 20.974455 Si / 1000 Ang^3
#
#
#
# Elastic Constant Matrix: (Units=GPa)
#
#
# Indices 1 2 3 4 5 6 
#
# 1 46.2564 3.6189 -6.2078 0.0000 0.0000 0.0000
# 2 3.6189 152.5804 78.8846 0.0000 0.0000 0.0000
# 3 -6.2078 78.8846 108.1737 0.0000 0.0000 0.0000
# 4 0.0000 0.0000 0.0000 4.3464 0.0000 0.0000
# 5 0.0000 0.0000 0.0000 0.0000 5.4716 0.0000
# 6 0.0000 0.0000 0.0000 0.0000 0.0000 4.6408
#
#
#
# Elastic Compliance Matrix: (Units=1/GPa)
#
#
# Indices 1 2 3 4 5 6 
#
# 1 0.022123 -0.001896 0.002652 0.000000 0.000000 0.000000
# 2 -0.001896 0.010683 -0.007899 0.000000 0.000000 0.000000
# 3 0.002652 -0.007899 0.015157 0.000000 0.000000 0.000000
# 4 0.000000 0.000000 0.000000 0.230075 0.000000 0.000000
# 5 0.000000 0.000000 0.000000 0.000000 0.182763 0.000000
# 6 0.000000 0.000000 0.000000 0.000000 0.000000 0.215479
#
#
# Mechanical properties :
#
#
# Convention : Reuss Voigt Hill
#
# Bulk Modulus (GPa) = 29.69395 51.06687 40.38041
# Shear Modulus (GPa) = 7.12463 18.27275 12.69869
#
# Velocity S-wave (km/s) = 1.84504 2.95480 2.46323
# Velocity P-wave (km/s) = 4.32745 6.00343 5.23297
#
# Compressibility (1/GPa) = 0.03367690
#
# Stress axis : x y z
#
# Youngs Moduli (GPa) = 45.20207 93.60891 65.97642
#
# Poissons Ratio (x) = 0.17747 -0.17498
# Poissons Ratio (y) = 0.08570 0.52115
# Poissons Ratio (z) = -0.11988 0.73943
#
# Static dielectric constant tensor:
#      x y z
#    x 1.803210 0.000000 0.000000 
#    y 0.000000 1.773710 0.000000 
#    z 0.000000 0.000000 1.782050 
# 
# From -- ./inp_files/21378.got.cif
#   From: 2010.05.17/outbox.cif.g08.bks.cpg/sg47_11_cif.got.tgz:21378.got - 2010.06.03 20:15:42.
