data_PCOD9387430
_publ_section_title
;
Structure prediction by ZEFSAII (Michael W. Deem and Ramdas Pophale) SiO2 
 PCOD9387430
Probable space group: P M M M
;
_chemical_formula_sum "Si O2"
_cell_formula_units_Z 44
_cell_length_a 29.317870
_cell_length_b 9.455069
_cell_length_c 8.033190
_cell_angle_alpha 90.000000
_cell_angle_beta 90.000000
_cell_angle_gamma 90.000000
_cell_volume 2226.820221
_symmetry_space_group_name_H-M "P M M M"
_symmetry_group_IT_number 47
_symmetry_cell_setting 'orthorhombic'
loop_
_space_group_symop_operation_xyz
x,y,z
-x,-y,z
x,-y,-z
-x,y,-z
-x,-y,-z
x,y,-z
-x,y,z
x,-y,z
loop_
_atom_site_type_symbol
_atom_site_label
_atom_site_fract_x
_atom_site_fract_y
_atom_site_fract_z
Si Si1 0.224580 0.160670 0.799789
Si Si2 0.312577 0.338953 0.301228
Si Si3 0.948465 0.162110 0.298987
Si Si4 0.138436 0.339757 0.199986
Si Si5 0.500000 0.827931 0.807584
Si Si6 0.400651 0.836867 0.201754
O O1 0.270189 0.246888 0.761442
O O2 0.180308 0.244734 0.735746
O O3 0.226623 0.000000 0.735501
O O4 0.220630 0.152711 0.000000
O O5 0.309872 0.343667 0.500000
O O6 0.310498 0.500000 0.236568
O O7 0.359634 0.263139 0.253161
O O8 0.948278 0.162844 0.500000
O O9 0.909429 0.266036 0.238751
O O10 0.000000 0.199455 0.244772
O O11 0.939184 0.000000 0.245063
O O12 0.140558 0.500000 0.264723
O O13 0.142926 0.346162 0.000000
O O14 0.549263 0.788785 0.734782
O O15 0.500000 0.000000 0.810474
O O16 0.500000 0.779143 0.000000
O O17 0.392564 0.000000 0.255286
O O18 0.402952 0.839137 0.000000
#
# Coordination Sequence:
#
# PCOD9387430 Si02
#       6
#     8   8   8   8   4   8
#     4  10  21  38  60  82 102 130 172 218 263 312
#     4  11  24  38  51  73 107 143 176 211 256 310
#     4   9  19  36  56  78 106 142 183 222 259 303
#     4  10  21  36  55  81 111 140 171 211 261 315
#     4   7  12  26  50  79 106 130 164 213 260 303
#     4   9  17  32  56  82 105 133 172 216 261 308
#
# _framework density 19.759117
#
# number of rings (size 3 to 8) (size 9 to 14) (size 15 to 20)
#    0.000    2.455    0.000    3.818    0.000    8.000 
#    0.000    3.636    0.000    4.364    0.000    0.000 
#    0.000    0.000    0.000    0.000    0.000    0.000 
#
# Total GULP energy -245551.930720 kJ/mol
# GULP energy per Si atom -5580.725698 kJ/mol
# Density = 1.971414 g / cm^3
# Si number density = 19.759117 Si / 1000 Ang^3
#
#
#
# Elastic Constant Matrix: (Units=GPa)
#
#
# Indices 1 2 3 4 5 6 
#
# 1 190.8113 126.3507 3.9516 0.0000 0.0000 0.0000
# 2 126.3507 174.9175 12.9819 0.0000 0.0000 0.0000
# 3 3.9516 12.9819 12.8401 0.0000 0.0000 0.0000
# 4 0.0000 0.0000 0.0000 14.1358 0.0000 0.0000
# 5 0.0000 0.0000 0.0000 0.0000 68.3546 0.0000
# 6 0.0000 0.0000 0.0000 0.0000 0.0000 -50.4609
#
#
#
# Elastic Compliance Matrix: (Units=1/GPa)
#
#
# Indices 1 2 3 4 5 6 
#
# 1 0.010302 -0.007791 0.004707 0.000000 0.000000 0.000000
# 2 -0.007791 0.012073 -0.009808 0.000000 0.000000 0.000000
# 3 0.004707 -0.009808 0.086350 0.000000 0.000000 0.000000
# 4 0.000000 0.000000 0.000000 0.070742 0.000000 0.000000
# 5 0.000000 0.000000 0.000000 0.000000 0.014630 0.000000
# 6 0.000000 0.000000 0.000000 0.000000 0.000000 -0.019817
#
#
# Mechanical properties :
#
#
# Convention : Reuss Voigt Hill
#
# Bulk Modulus (GPa) = 12.05708 73.90415 42.98062
# Shear Modulus (GPa) = 21.95757 22.09155 22.02456
#
# Velocity S-wave (km/s) = 3.33718 3.34734 3.34226
# Velocity P-wave (km/s) = 4.57868 7.24040 6.05754
#
# Compressibility (1/GPa) = 0.08293879
#
# Stress axis : x y z
#
# Youngs Moduli (GPa) = 97.06389 82.83003 11.58084
#
# Poissons Ratio (x) = 0.64535 -0.05451
# Poissons Ratio (y) = 0.75625 0.11359
# Poissons Ratio (z) = -0.45685 0.81244
#
# Static dielectric constant tensor:
#      x y z
#    x 1.682870 0.000000 0.000000 
#    y 0.000000 1.681740 0.000000 
#    z 0.000000 0.000000 1.711260 
# 
# From -- ./inp_files/13598.got.cif
#   From: 2010.05.17/outbox.cif.g08.bks.cpg/sg47_7_cif.got.tgz:13598.got - 2010.06.03 20:15:42.
