data_PCOD9387472
_publ_section_title
;
Structure prediction by ZEFSAII (Michael W. Deem and Ramdas Pophale) SiO2 
 PCOD9387472
Probable space group: P M M M
;
_chemical_formula_sum "Si O2"
_cell_formula_units_Z 64
_cell_length_a 26.599323
_cell_length_b 9.085420
_cell_length_c 14.060427
_cell_angle_alpha 90.000000
_cell_angle_beta 90.000000
_cell_angle_gamma 90.000000
_cell_volume 3397.927449
_symmetry_space_group_name_H-M "P M M M"
_symmetry_group_IT_number 47
_symmetry_cell_setting 'orthorhombic'
loop_
_space_group_symop_operation_xyz
x,y,z
-x,-y,z
x,-y,-z
-x,y,-z
-x,-y,-z
x,y,-z
-x,y,z
x,-y,z
loop_
_atom_site_type_symbol
_atom_site_label
_atom_site_fract_x
_atom_site_fract_y
_atom_site_fract_z
Si Si1 0.745458 0.828864 0.384935
Si Si2 0.349542 0.325302 0.712898
Si Si3 0.092747 0.326513 0.888033
Si Si4 0.193895 0.166340 0.115255
Si Si5 0.691778 0.176106 0.888761
Si Si6 0.848833 0.329322 0.385138
Si Si7 0.055766 0.175214 0.291140
Si Si8 0.442199 0.826342 0.386339
O O1 0.743446 0.822568 0.500000
O O2 0.697348 0.745226 0.344026
O O3 0.798307 0.756223 0.354807
O O4 0.743811 0.000000 0.356277
O O5 0.346142 0.500000 0.710054
O O6 0.344277 0.264223 0.819719
O O7 0.400969 0.268793 0.666738
O O8 0.085141 0.500000 0.873581
O O9 0.149921 0.279596 0.862219
O O10 0.059194 0.232038 0.817241
O O11 0.084869 0.294420 0.000000
O O12 0.250494 0.207238 0.142507
O O13 0.181908 0.000000 0.149310
O O14 0.195464 0.158475 0.000000
O O15 0.684884 0.000000 0.879366
O O16 0.686409 0.213231 0.000000
O O17 0.850181 0.324296 0.500000
O O18 0.846367 0.500000 0.355807
O O19 0.899062 0.254331 0.345883
O O20 0.000000 0.210677 0.329097
O O21 0.062536 0.000000 0.294750
O O22 0.437045 0.806830 0.500000
O O23 0.500000 0.791200 0.361061
O O24 0.433805 0.000000 0.366687
#
# Coordination Sequence:
#
# PCOD9387472 Si02
#       8
#     8   8   8   8   8   8   8   8
#     4  10  21  38  60  85 116 154 193 232 276 334
#     4  12  24  34  53  87 125 162 195 236 291 346
#     4  10  21  36  56  82 112 145 180 226 284 340
#     4   8  15  30  52  76 102 136 180 227 274 329
#     4   9  19  36  56  78 109 153 202 246 286 333
#     4  10  22  41  64  88 114 143 178 228 290 347
#     4  11  25  42  60  82 108 144 189 232 275 334
#     4   9  19  38  63  88 116 154 201 250 295 342
#
# _framework density 18.83501
#
# number of rings (size 3 to 8) (size 9 to 14) (size 15 to 20)
#    0.000    2.125    0.000    4.125    1.750    6.500 
#    0.000    4.375    0.000    0.375    0.000    2.625 
#    0.000    0.000    0.000    0.000    0.000    0.000 
#
# Total GULP energy -357629.388217 kJ/mol
# GULP energy per Si atom -5587.959191 kJ/mol
# Density = 1.879214 g / cm^3
# Si number density = 18.835010 Si / 1000 Ang^3
#
#
#
# Elastic Constant Matrix: (Units=GPa)
#
#
# Indices 1 2 3 4 5 6 
#
# 1 129.8173 84.3409 50.3439 0.0000 0.0000 0.0000
# 2 84.3409 111.8030 47.5981 0.0000 0.0000 0.0000
# 3 50.3439 47.5981 59.1827 0.0000 0.0000 0.0000
# 4 0.0000 0.0000 0.0000 23.6253 0.0000 0.0000
# 5 0.0000 0.0000 0.0000 0.0000 28.3281 0.0000
# 6 0.0000 0.0000 0.0000 0.0000 0.0000 -111.5834
#
#
#
# Elastic Compliance Matrix: (Units=1/GPa)
#
#
# Indices 1 2 3 4 5 6 
#
# 1 0.016437 -0.009804 -0.006098 0.000000 0.000000 0.000000
# 2 -0.009804 0.019449 -0.007302 0.000000 0.000000 0.000000
# 3 -0.006098 -0.007302 0.027957 0.000000 0.000000 0.000000
# 4 0.000000 0.000000 0.000000 0.042327 0.000000 0.000000
# 5 0.000000 0.000000 0.000000 0.000000 0.035301 0.000000
# 6 0.000000 0.000000 0.000000 0.000000 0.000000 -0.008962
#
#
# Mechanical properties :
#
#
# Convention : Reuss Voigt Hill
#
# Bulk Modulus (GPa) = 57.35442 73.92985 65.64214
# Shear Modulus (GPa) = 27.06685 -4.02465 11.52110
#
# Velocity S-wave (km/s) = 3.79496 -1.46336 2.47591
# Velocity P-wave (km/s) = 7.05119 6.03997 6.56508
#
# Compressibility (1/GPa) = 0.01743545
#
# Stress axis : x y z
#
# Youngs Moduli (GPa) = 60.83736 51.41706 35.76975
#
# Poissons Ratio (x) = 0.50409 0.21811
# Poissons Ratio (y) = 0.59644 0.26120
# Poissons Ratio (z) = 0.37096 0.37546
#
# Static dielectric constant tensor:
#      x y z
#    x 1.635390 0.000000 0.000000 
#    y 0.000000 1.623610 0.000000 
#    z 0.000000 0.000000 1.690760 
# 
# From -- ./inp_files/7828.got.cif
#   From: 2010.05.17/outbox.cif.g08.bks.cpg/sg47_4_cif.got.tgz:7828.got - 2010.06.03 20:15:42.
