data_PCOD9387392
_publ_section_title
;
Structure prediction by ZEFSAII (Michael W. Deem and Ramdas Pophale) SiO2 
 PCOD9387392
Probable space group: P M M M
;
_chemical_formula_sum "Si O2"
_cell_formula_units_Z 48
_cell_length_a 10.282666
_cell_length_b 8.743303
_cell_length_c 29.657380
_cell_angle_alpha 90.000000
_cell_angle_beta 90.000000
_cell_angle_gamma 90.000000
_cell_volume 2666.330867
_symmetry_space_group_name_H-M "P M M M"
_symmetry_group_IT_number 47
_symmetry_cell_setting 'orthorhombic'
loop_
_space_group_symop_operation_xyz
x,y,z
-x,-y,z
x,-y,-z
-x,y,-z
-x,-y,-z
x,y,-z
-x,y,z
x,-y,z
loop_
_atom_site_type_symbol
_atom_site_label
_atom_site_fract_x
_atom_site_fract_y
_atom_site_fract_z
Si Si1 0.649368 0.315435 0.777676
Si Si2 0.350763 0.817060 0.123319
Si Si3 0.151788 0.315080 0.300474
Si Si4 0.241146 0.816758 0.395451
Si Si5 0.000000 0.323319 0.446295
Si Si6 0.850196 0.684443 0.051932
Si Si7 0.500000 0.186396 0.447770
O O1 0.500000 0.271935 0.765241
O O2 0.653056 0.500000 0.780357
O O3 0.677289 0.248453 0.826974
O O4 0.756685 0.266735 0.741184
O O5 0.500000 0.772295 0.112110
O O6 0.250411 0.754659 0.086793
O O7 0.344325 0.000000 0.124806
O O8 0.152569 0.500000 0.301972
O O9 0.213960 0.252621 0.346420
O O10 0.000000 0.266860 0.296680
O O11 0.124706 0.761583 0.427027
O O12 0.373597 0.765776 0.419711
O O13 0.242242 0.000000 0.391937
O O14 0.000000 0.500000 0.430592
O O15 0.000000 0.321289 0.500000
O O16 0.843364 0.500000 0.054367
O O17 0.000000 0.728270 0.061878
O O18 0.822232 0.728511 0.000000
O O19 0.500000 0.238496 0.500000
O O20 0.500000 0.000000 0.449232
#
# Coordination Sequence:
#
# PCOD9387392 Si02
#       7
#     8   8   8   8   4   8   4
#     4   9  19  36  57  79 105 146 193 231 273 327
#     4  10  21  36  54  81 116 150 185 231 284 334
#     4  10  21  37  56  80 113 146 179 225 276 327
#     4  11  22  37  59  85 112 146 185 225 272 329
#     4  11  23  39  59  83 113 147 183 227 276 323
#     4   9  19  36  57  81 110 147 192 238 282 333
#     4   9  20  38  57  81 113 145 181 225 270 321
#
# _framework density 18.002265999999999
#
# number of rings (size 3 to 8) (size 9 to 14) (size 15 to 20)
#    0.000    2.167    0.833    2.250    1.167    4.667 
#    0.000    5.417    0.000    3.000    0.000    0.000 
#    0.000    0.000    0.000    0.000    0.000    0.000 
#
# Total GULP energy -267920.205222 kJ/mol
# GULP energy per Si atom -5581.670942 kJ/mol
# Density = 1.796129 g / cm^3
# Si number density = 18.002266 Si / 1000 Ang^3
#
#
#
# Elastic Constant Matrix: (Units=GPa)
#
#
# Indices 1 2 3 4 5 6 
#
# 1 186.5090 36.8138 130.5164 0.0000 0.0000 0.0000
# 2 36.8138 16.4020 36.5355 0.0000 0.0000 0.0000
# 3 130.5164 36.5355 161.7273 0.0000 0.0000 0.0000
# 4 0.0000 0.0000 0.0000 -32.0052 0.0000 0.0000
# 5 0.0000 0.0000 0.0000 0.0000 67.5674 0.0000
# 6 0.0000 0.0000 0.0000 0.0000 0.0000 24.1427
#
#
#
# Elastic Compliance Matrix: (Units=1/GPa)
#
#
# Indices 1 2 3 4 5 6 
#
# 1 0.013407 -0.012059 -0.008095 0.000000 0.000000 0.000000
# 2 -0.012059 0.133570 -0.020443 0.000000 0.000000 0.000000
# 3 -0.008095 -0.020443 0.017335 0.000000 0.000000 0.000000
# 4 0.000000 0.000000 0.000000 -0.031245 0.000000 0.000000
# 5 0.000000 0.000000 0.000000 0.000000 0.014800 0.000000
# 6 0.000000 0.000000 0.000000 0.000000 0.000000 0.041420
#
#
# Mechanical properties :
#
#
# Convention : Reuss Voigt Hill
#
# Bulk Modulus (GPa) = 12.03116 85.81885 48.92501
# Shear Modulus (GPa) = 16.76796 22.65916 19.71356
#
# Velocity S-wave (km/s) = 3.05525 3.55164 3.31276
# Velocity P-wave (km/s) = 4.37536 8.03701 6.47060
#
# Compressibility (1/GPa) = 0.08311747
#
# Stress axis : x y z
#
# Youngs Moduli (GPa) = 74.58815 7.48669 57.68817
#
# Poissons Ratio (x) = 0.09028 0.46701
# Poissons Ratio (y) = 0.89945 1.17931
# Poissons Ratio (z) = 0.60382 0.15305
#
# Static dielectric constant tensor:
#      x y z
#    x 1.602360 0.000000 0.000000 
#    y 0.000000 1.611840 0.000000 
#    z 0.000000 0.000000 1.584350 
# 
# From -- ./inp_files/2538.got.cif
#   From: 2010.05.17/outbox.cif.g08.bks.cpg/sg47_2_cif.got.tgz:2538.got - 2010.06.03 20:15:42.
