data_PCOD9387731
_publ_section_title
;
Structure prediction by ZEFSAII (Michael W. Deem and Ramdas Pophale) SiO2 
 PCOD9387731
Probable space group: P M M M
;
_chemical_formula_sum "Si O2"
_cell_formula_units_Z 64
_cell_length_a 21.272554
_cell_length_b 8.042991
_cell_length_c 18.025043
_cell_angle_alpha 90.000000
_cell_angle_beta 90.000000
_cell_angle_gamma 90.000000
_cell_volume 3083.994018
_symmetry_space_group_name_H-M "P M M M"
_symmetry_group_IT_number 47
_symmetry_cell_setting 'orthorhombic'
loop_
_space_group_symop_operation_xyz
x,y,z
-x,-y,z
x,-y,-z
-x,y,-z
-x,-y,-z
x,y,-z
-x,y,z
x,-y,z
loop_
_atom_site_type_symbol
_atom_site_label
_atom_site_fract_x
_atom_site_fract_y
_atom_site_fract_z
Si Si1 0.840503 0.693690 0.580369
Si Si2 0.706790 0.192272 0.620790
Si Si3 0.929300 0.806620 0.709800
Si Si4 0.566577 0.301478 0.205440
Si Si5 0.568701 0.697073 0.384496
Si Si6 0.297340 0.296881 0.792204
Si Si7 0.931098 0.305797 0.874294
Si Si8 0.202671 0.703560 0.080932
O O1 0.859234 0.763881 0.500000
O O2 0.857107 0.500000 0.582562
O O3 0.765297 0.709143 0.587563
O O4 0.876595 0.775189 0.648729
O O5 0.636326 0.232678 0.592319
O O6 0.709331 0.229162 0.709115
O O7 0.719110 0.000000 0.606970
O O8 0.920681 0.705544 0.785603
O O9 0.000000 0.769127 0.681007
O O10 0.927717 0.000000 0.731090
O O11 0.500000 0.230530 0.178461
O O12 0.565240 0.500000 0.191896
O O13 0.567888 0.281548 0.294934
O O14 0.633987 0.241579 0.178421
O O15 0.500000 0.761264 0.410962
O O16 0.569850 0.500000 0.399783
O O17 0.296874 0.500000 0.786665
O O18 0.244039 0.242908 0.849229
O O19 0.933855 0.500000 0.895349
O O20 0.868788 0.235165 0.911204
O O21 0.000000 0.231944 0.890394
O O22 0.201696 0.500000 0.083974
O O23 0.228113 0.749933 0.000000
#
# Coordination Sequence:
#
# PCOD9387731 Si02
#       8
#     8   8   8   8   8   8   8   8
#     4  11  24  40  57  76 101 136 176 213 248 295
#     4  11  21  32  51  78 107 136 169 214 262 307
#     4  10  21  37  58  83 109 134 161 201 254 308
#     4   7  10  18  35  60  86 113 150 195 240 285
#     4   8  14  27  48  73 102 135 170 209 254 305
#     4   9  16  28  47  67  91 127 168 207 249 302
#     4   9  17  30  50  74  99 129 164 201 242 294
#     4   9  17  28  44  68  95 124 163 212 258 293
#
# _framework density 20.752310000000001
#
# number of rings (size 3 to 8) (size 9 to 14) (size 15 to 20)
#    0.000    2.750    0.000    4.125    0.000    3.500 
#    0.000    2.500    0.000    2.250    0.000    7.000 
#    0.000    0.000    0.000    6.250    0.000    7.875 
#
# Total GULP energy -356767.876473 kJ/mol
# GULP energy per Si atom -5574.498070 kJ/mol
# Density = 2.070508 g / cm^3
# Si number density = 20.752310 Si / 1000 Ang^3
#
#
#
# Elastic Constant Matrix: (Units=GPa)
#
#
# Indices 1 2 3 4 5 6 
#
# 1 100.4626 -2.1774 29.5650 0.0000 0.0000 0.0000
# 2 -2.1774 23.2855 -4.1968 0.0000 0.0000 0.0000
# 3 29.5650 -4.1968 55.0970 0.0000 0.0000 0.0000
# 4 0.0000 0.0000 0.0000 -35.3027 0.0000 0.0000
# 5 0.0000 0.0000 0.0000 0.0000 -32.3829 0.0000
# 6 0.0000 0.0000 0.0000 0.0000 0.0000 13.9198
#
#
#
# Elastic Compliance Matrix: (Units=1/GPa)
#
#
# Indices 1 2 3 4 5 6 
#
# 1 0.011821 -0.000038 -0.006346 0.000000 0.000000 0.000000
# 2 -0.000038 0.043543 0.003337 0.000000 0.000000 0.000000
# 3 -0.006346 0.003337 0.021809 0.000000 0.000000 0.000000
# 4 0.000000 0.000000 0.000000 -0.028326 0.000000 0.000000
# 5 0.000000 0.000000 0.000000 0.000000 -0.030880 0.000000
# 6 0.000000 0.000000 0.000000 0.000000 0.000000 0.071840
#
#
# Mechanical properties :
#
#
# Convention : Reuss Voigt Hill
#
# Bulk Modulus (GPa) = 14.06889 25.02522 19.54706
# Shear Modulus (GPa) = 41.80844 -0.37622 20.71611
#
# Velocity S-wave (km/s) = 4.49334 -0.42624 3.16295
# Velocity P-wave (km/s) = 5.80640 3.44136 4.77270
#
# Compressibility (1/GPa) = 0.07107883
#
# Stress axis : x y z
#
# Youngs Moduli (GPa) = 84.59779 22.96582 45.85222
#
# Poissons Ratio (x) = 0.00088 0.29097
# Poissons Ratio (y) = 0.00325 -0.15302
# Poissons Ratio (z) = 0.53685 -0.07664
#
# Static dielectric constant tensor:
#      x y z
#    x 1.796900 0.000000 0.000000 
#    y 0.000000 1.741340 0.000000 
#    z 0.000000 0.000000 1.722420 
# 
# From -- ./inp_files/28830.got.cif
#   From: 2010.05.17/outbox.cif.g08.bks.cpg/sg47_15_cif.got.tgz:28830.got - 2010.06.03 20:15:42.
