data_PCOD9387676
_publ_section_title
;
Structure prediction by ZEFSAII (Michael W. Deem and Ramdas Pophale) SiO2 
 PCOD9387676
Probable space group: P M M M
;
_chemical_formula_sum "Si O2"
_cell_formula_units_Z 48
_cell_length_a 31.466743
_cell_length_b 8.895888
_cell_length_c 9.470256
_cell_angle_alpha 90.000000
_cell_angle_beta 90.000000
_cell_angle_gamma 90.000000
_cell_volume 2650.957826
_symmetry_space_group_name_H-M "P M M M"
_symmetry_group_IT_number 47
_symmetry_cell_setting 'orthorhombic'
loop_
_space_group_symop_operation_xyz
x,y,z
-x,-y,z
x,-y,-z
-x,y,-z
-x,-y,-z
x,y,-z
-x,y,z
x,-y,z
loop_
_atom_site_type_symbol
_atom_site_label
_atom_site_fract_x
_atom_site_fract_y
_atom_site_fract_z
Si Si1 0.748122 0.820199 0.666038
Si Si2 0.500000 0.320215 0.666388
Si Si3 0.578344 0.820608 0.166538
Si Si4 0.669847 0.320654 0.833598
Si Si5 0.916849 0.820007 0.166288
Si Si6 0.826246 0.320643 0.833468
Si Si7 0.000000 0.816659 0.337640
O O1 0.748576 0.783590 0.500000
O O2 0.707167 0.748764 0.740868
O O3 0.789983 0.756595 0.741626
O O4 0.746782 0.000000 0.681461
O O5 0.500000 0.500000 0.683489
O O6 0.500000 0.285382 0.500000
O O7 0.541408 0.251657 0.740922
O O8 0.624274 0.751367 0.201474
O O9 0.579168 0.000000 0.185675
O O10 0.570236 0.790148 0.000000
O O11 0.668068 0.500000 0.814999
O O12 0.678198 0.290258 0.000000
O O13 0.873017 0.739147 0.205141
O O14 0.957317 0.769622 0.256709
O O15 0.911469 0.000000 0.184514
O O16 0.925080 0.792971 0.000000
O O17 0.824144 0.500000 0.817371
O O18 0.819656 0.285245 0.000000
O O19 0.000000 0.768567 0.500000
O O20 0.000000 0.000000 0.334902
#
# Coordination Sequence:
#
# PCOD9387676 Si02
#       7
#     8   4   8   8   8   8   4
#     4  11  24  39  56  81 112 146 183 223 270 324
#     4  11  24  39  56  82 116 153 190 229 278 332
#     4  10  21  38  61  87 113 145 187 232 277 326
#     4  10  21  38  61  87 113 144 183 226 273 325
#     4   9  17  31  52  76 102 135 175 218 265 317
#     4  10  21  37  57  81 108 140 180 225 273 324
#     4   9  17  29  48  75 104 134 172 219 266 313
#
# _framework density 18.106663000000001
#
# number of rings (size 3 to 8) (size 9 to 14) (size 15 to 20)
#    0.000    2.000    0.000    3.250    0.000   10.333 
#    0.000    2.083    0.000    2.500    0.000    0.000 
#    0.000    0.000    0.000    0.000    0.000    0.000 
#
# Total GULP energy -268180.725500 kJ/mol
# GULP energy per Si atom -5587.098448 kJ/mol
# Density = 1.806545 g / cm^3
# Si number density = 18.106663 Si / 1000 Ang^3
#
#
#
# Elastic Constant Matrix: (Units=GPa)
#
#
# Indices 1 2 3 4 5 6 
#
# 1 207.6204 83.7167 132.5604 0.0000 0.0000 0.0000
# 2 83.7167 64.6846 74.0572 0.0000 0.0000 0.0000
# 3 132.5604 74.0572 116.6999 0.0000 0.0000 0.0000
# 4 0.0000 0.0000 0.0000 25.3026 0.0000 0.0000
# 5 0.0000 0.0000 0.0000 0.0000 -20.5787 0.0000
# 6 0.0000 0.0000 0.0000 0.0000 0.0000 82.1622
#
#
#
# Elastic Compliance Matrix: (Units=1/GPa)
#
#
# Indices 1 2 3 4 5 6 
#
# 1 0.017533 0.000402 -0.020171 0.000000 0.000000 0.000000
# 2 0.000402 0.056544 -0.036339 0.000000 0.000000 0.000000
# 3 -0.020171 -0.036339 0.054542 0.000000 0.000000 0.000000
# 4 0.000000 0.000000 0.000000 0.039522 0.000000 0.000000
# 5 0.000000 0.000000 0.000000 0.000000 -0.048594 0.000000
# 6 0.000000 0.000000 0.000000 0.000000 0.000000 0.012171
#
#
# Mechanical properties :
#
#
# Convention : Reuss Voigt Hill
#
# Bulk Modulus (GPa) = 60.96549 107.74151 84.35350
# Shear Modulus (GPa) = 20.04794 23.95527 22.00161
#
# Velocity S-wave (km/s) = 3.33109 3.64126 3.48963
# Velocity P-wave (km/s) = 6.96694 8.79269 7.93251
#
# Compressibility (1/GPa) = 0.01640272
#
# Stress axis : x y z
#
# Youngs Moduli (GPa) = 57.03460 17.68536 18.33445
#
# Poissons Ratio (x) = -0.00711 0.36983
# Poissons Ratio (y) = -0.02292 0.66626
# Poissons Ratio (z) = 1.15045 0.64267
#
# Static dielectric constant tensor:
#      x y z
#    x 1.583530 0.000000 0.000000 
#    y 0.000000 1.602070 0.000000 
#    z 0.000000 0.000000 1.603570 
# 
# From -- ./inp_files/13898.got.cif
#   From: 2010.05.17/outbox.cif.g08.bks.cpg/sg47_7_cif.got.tgz:13898.got - 2010.06.03 20:15:42.
