data_PCOD9387940
_publ_section_title
;
Structure prediction by ZEFSAII (Michael W. Deem and Ramdas Pophale) SiO2 
 PCOD9387940
Probable space group: P M M M
;
_chemical_formula_sum "Si O2"
_cell_formula_units_Z 33
_cell_length_a 9.529117
_cell_length_b 7.834088
_cell_length_c 20.749323
_cell_angle_alpha 90.000000
_cell_angle_beta 90.000000
_cell_angle_gamma 90.000000
_cell_volume 1548.977239
_symmetry_space_group_name_H-M "P M M M"
_symmetry_group_IT_number 47
_symmetry_cell_setting 'orthorhombic'
loop_
_space_group_symop_operation_xyz
x,y,z
-x,-y,z
x,-y,-z
-x,y,-z
-x,-y,-z
x,y,-z
-x,y,z
x,-y,z
loop_
_atom_site_type_symbol
_atom_site_label
_atom_site_fract_x
_atom_site_fract_y
_atom_site_fract_z
Si Si1 0.000000 0.500000 0.000000
Si Si2 0.160634 0.703859 0.500000
Si Si3 0.340088 0.794875 0.625614
Si Si4 0.654692 0.703412 0.133255
Si Si5 0.772900 0.190249 0.000000
Si Si6 0.159679 0.205848 0.253457
O O1 0.120208 0.348083 0.000000
O O2 0.153067 0.500000 0.500000
O O3 0.247223 0.757699 0.562948
O O4 0.000000 0.770903 0.500000
O O5 0.500000 0.729644 0.620323
O O6 0.258608 0.729757 0.688798
O O7 0.348819 0.000000 0.631304
O O8 0.500000 0.752611 0.158117
O O9 0.657142 0.500000 0.123600
O O10 0.683542 0.789926 0.065059
O O11 0.772216 0.748617 0.185289
O O12 0.836091 0.000000 0.000000
O O13 0.000000 0.268981 0.259208
O O14 0.155366 0.000000 0.257919
#
# Coordination Sequence:
#
# PCOD9387940 Si02
#       6
#     1   4   8   8   4   8
#     4  12  26  48  66 102 144 168 216 282 332 402
#     4  11  24  39  58  86 122 159 202 251 310 380
#     4  10  21  39  63  90 120 158 206 259 314 378
#     4  11  24  43  65  93 131 173 218 272 327 387
#     4  12  26  44  72  99 132 179 223 272 335 395
#     4  10  22  39  62  92 124 161 209 260 318 385
#
# _framework density 21.304379000000001
#
# number of rings (size 3 to 8) (size 9 to 14) (size 15 to 20)
#    0.000    1.333    1.212    3.455    1.697    9.697 
#    0.000    0.000    0.000    0.000    0.000    0.000 
#    0.000    0.000    0.000    0.000    0.000    0.000 
#
# Total GULP energy -184250.520518 kJ/mol
# GULP energy per Si atom -5583.349107 kJ/mol
# Density = 2.125589 g / cm^3
# Si number density = 21.304379 Si / 1000 Ang^3
#
#
#
# Elastic Constant Matrix: (Units=GPa)
#
#
# Indices 1 2 3 4 5 6 
#
# 1 204.7766 28.3645 84.3631 0.0000 0.0000 0.0000
# 2 28.3645 75.4895 0.0260 0.0000 0.0000 0.0000
# 3 84.3631 0.0260 160.2810 0.0000 0.0000 0.0000
# 4 0.0000 0.0000 0.0000 51.5082 0.0000 0.0000
# 5 0.0000 0.0000 0.0000 0.0000 168.4186 0.0000
# 6 0.0000 0.0000 0.0000 0.0000 0.0000 19.6592
#
#
#
# Elastic Compliance Matrix: (Units=1/GPa)
#
#
# Indices 1 2 3 4 5 6 
#
# 1 0.006679 -0.002508 -0.003515 0.000000 0.000000 0.000000
# 2 -0.002508 0.014189 0.001318 0.000000 0.000000 0.000000
# 3 -0.003515 0.001318 0.008089 0.000000 0.000000 0.000000
# 4 0.000000 0.000000 0.000000 0.019414 0.000000 0.000000
# 5 0.000000 0.000000 0.000000 0.000000 0.005938 0.000000
# 6 0.000000 0.000000 0.000000 0.000000 0.000000 0.050867
#
#
# Mechanical properties :
#
#
# Convention : Reuss Voigt Hill
#
# Bulk Modulus (GPa) = 51.16146 74.00604 62.58375
# Shear Modulus (GPa) = 41.28765 69.77011 55.52888
#
# Velocity S-wave (km/s) = 4.40704 5.72890 5.11088
# Velocity P-wave (km/s) = 7.06842 8.86416 8.01673
#
# Compressibility (1/GPa) = 0.01954596
#
# Stress axis : x y z
#
# Youngs Moduli (GPa) = 149.72519 70.47765 123.62576
#
# Poissons Ratio (x) = 0.17678 0.43454
# Poissons Ratio (y) = 0.37556 -0.16293
# Poissons Ratio (z) = 0.52628 -0.09289
#
# Static dielectric constant tensor:
#      x y z
#    x 1.767860 0.000000 0.000000 
#    y 0.000000 1.769550 0.000000 
#    z 0.000000 0.000000 1.723570 
# 
# From -- ./inp_files/29164.got.cif
#   From: 2010.05.17/outbox.cif.g08.bks.cpg/sg47_15_cif.got.tgz:29164.got - 2010.06.03 20:15:42.
