data_PCOD9387722
_publ_section_title
;
Structure prediction by ZEFSAII (Michael W. Deem and Ramdas Pophale) SiO2 
 PCOD9387722
Probable space group: P M M M
;
_chemical_formula_sum "Si O2"
_cell_formula_units_Z 56
_cell_length_a 23.489361
_cell_length_b 9.315673
_cell_length_c 14.722482
_cell_angle_alpha 90.000000
_cell_angle_beta 90.000000
_cell_angle_gamma 90.000000
_cell_volume 3221.561822
_symmetry_space_group_name_H-M "P M M M"
_symmetry_group_IT_number 47
_symmetry_cell_setting 'orthorhombic'
loop_
_space_group_symop_operation_xyz
x,y,z
-x,-y,z
x,-y,-z
-x,y,-z
-x,-y,-z
x,y,-z
-x,y,z
x,-y,z
loop_
_atom_site_type_symbol
_atom_site_label
_atom_site_fract_x
_atom_site_fract_y
_atom_site_fract_z
Si Si1 0.607424 0.669378 0.106018
Si Si2 0.565064 0.170037 0.723385
Si Si3 0.162033 0.170471 0.216263
Si Si4 0.777344 0.170763 0.395378
Si Si5 0.340010 0.333121 0.608796
Si Si6 0.257713 0.333981 0.108059
Si Si7 0.066849 0.671696 0.895315
O O1 0.595389 0.500000 0.120459
O O2 0.573527 0.766384 0.175920
O O3 0.675103 0.690507 0.123220
O O4 0.596448 0.700996 0.000000
O O5 0.500000 0.194694 0.693836
O O6 0.609851 0.251229 0.659895
O O7 0.576035 0.000000 0.722750
O O8 0.174138 0.202799 0.322035
O O9 0.217205 0.228934 0.162687
O O10 0.107676 0.247773 0.173658
O O11 0.157077 0.000000 0.205165
O O12 0.792612 0.202539 0.500000
O O13 0.720445 0.258473 0.371774
O O14 0.764745 0.000000 0.389254
O O15 0.348387 0.325365 0.500000
O O16 0.338718 0.500000 0.636157
O O17 0.245084 0.500000 0.132557
O O18 0.247705 0.319394 0.000000
O O19 0.074368 0.500000 0.887254
O O20 0.000000 0.703019 0.881365
O O21 0.081235 0.710359 0.000000
#
# Coordination Sequence:
#
# PCOD9387722 Si02
#       7
#     8   8   8   8   8   8   8
#     4   9  19  36  56  76  99 131 171 214 259 304
#     4  11  24  38  52  73 101 134 171 209 253 310
#     4  11  21  30  48  79 107 133 169 211 252 293
#     4   9  19  36  55  76 106 140 169 201 249 310
#     4  10  21  37  58  82 104 128 164 212 263 311
#     4   9  18  32  49  71 101 134 164 197 245 305
#     4   9  19  36  55  74 101 141 182 213 248 298
#
# _framework density 17.382873
#
# number of rings (size 3 to 8) (size 9 to 14) (size 15 to 20)
#    0.000    2.286    0.000    3.857    0.000    9.429 
#    0.000    5.000    0.000    0.429    0.000    3.000 
#    0.000    0.000    0.000    0.000    0.000    0.000 
#
# Total GULP energy -312690.599958 kJ/mol
# GULP energy per Si atom -5583.760714 kJ/mol
# Density = 1.734331 g / cm^3
# Si number density = 17.382873 Si / 1000 Ang^3
#
#
#
# Elastic Constant Matrix: (Units=GPa)
#
#
# Indices 1 2 3 4 5 6 
#
# 1 84.8377 65.2149 73.8039 0.0000 0.0000 0.0000
# 2 65.2149 72.9588 62.8688 0.0000 0.0000 0.0000
# 3 73.8039 62.8688 87.6963 0.0000 0.0000 0.0000
# 4 0.0000 0.0000 0.0000 27.1091 0.0000 0.0000
# 5 0.0000 0.0000 0.0000 0.0000 17.7044 0.0000
# 6 0.0000 0.0000 0.0000 0.0000 0.0000 41.3916
#
#
#
# Elastic Compliance Matrix: (Units=1/GPa)
#
#
# Indices 1 2 3 4 5 6 
#
# 1 0.057817 -0.025511 -0.030370 0.000000 0.000000 0.000000
# 2 -0.025511 0.047113 -0.012305 0.000000 0.000000 0.000000
# 3 -0.030370 -0.012305 0.045783 0.000000 0.000000 0.000000
# 4 0.000000 0.000000 0.000000 0.036888 0.000000 0.000000
# 5 0.000000 0.000000 0.000000 0.000000 0.056483 0.000000
# 6 0.000000 0.000000 0.000000 0.000000 0.000000 0.024160
#
#
# Mechanical properties :
#
#
# Convention : Reuss Voigt Hill
#
# Bulk Modulus (GPa) = 69.72631 72.14092 70.93361
# Shear Modulus (GPa) = 12.21306 20.14802 16.18054
#
# Velocity S-wave (km/s) = 2.65352 3.40821 3.05426
# Velocity P-wave (km/s) = 7.04183 7.55507 7.30296
#
# Compressibility (1/GPa) = 0.01434179
#
# Stress axis : x y z
#
# Youngs Moduli (GPa) = 17.29582 21.22541 21.84201
#
# Poissons Ratio (x) = 0.54148 0.66333
# Poissons Ratio (y) = 0.44124 0.26878
# Poissons Ratio (z) = 0.52527 0.26119
#
# Static dielectric constant tensor:
#      x y z
#    x 1.570290 0.000000 0.000000 
#    y 0.000000 1.573770 0.000000 
#    z 0.000000 0.000000 1.603080 
# 
# From -- ./inp_files/11221.got.cif
#   From: 2010.05.17/outbox.cif.g08.bks.cpg/sg47_6_cif.got.tgz:11221.got - 2010.06.03 20:15:42.
