data_PCOD9387415
_publ_section_title
;
Structure prediction by ZEFSAII (Michael W. Deem and Ramdas Pophale) SiO2 
 PCOD9387415
Probable space group: P M M M
;
_chemical_formula_sum "Si O2"
_cell_formula_units_Z 52
_cell_length_a 7.692169
_cell_length_b 15.171732
_cell_length_c 20.593150
_cell_angle_alpha 90.000000
_cell_angle_beta 90.000000
_cell_angle_gamma 90.000000
_cell_volume 2403.293228
_symmetry_space_group_name_H-M "P M M M"
_symmetry_group_IT_number 47
_symmetry_cell_setting 'orthorhombic'
loop_
_space_group_symop_operation_xyz
x,y,z
-x,-y,z
x,-y,-z
-x,y,-z
-x,-y,-z
x,y,-z
-x,y,z
x,-y,z
loop_
_atom_site_type_symbol
_atom_site_label
_atom_site_fract_x
_atom_site_fract_y
_atom_site_fract_z
Si Si1 0.199369 0.606728 0.500000
Si Si2 0.795444 0.787568 0.926194
Si Si3 0.295680 0.901740 0.807830
Si Si4 0.709338 0.594743 0.923730
Si Si5 0.288330 0.101803 0.572817
Si Si6 0.714070 0.221530 0.693265
Si Si7 0.296103 0.401000 0.356195
O O1 0.205649 0.500000 0.500000
O O2 0.282745 0.630911 0.568670
O O3 0.000000 0.635247 0.500000
O O4 0.719511 0.860285 0.878891
O O5 0.767948 0.688987 0.897859
O O6 0.000000 0.802744 0.929833
O O7 0.723857 0.789647 0.000000
O O8 0.500000 0.909071 0.792534
O O9 0.224372 0.832315 0.755776
O O10 0.220426 0.000000 0.803632
O O11 0.500000 0.594933 0.921417
O O12 0.768483 0.500000 0.895945
O O13 0.761637 0.594769 0.000000
O O14 0.232145 0.127230 0.500000
O O15 0.500000 0.102457 0.572915
O O16 0.232231 0.166642 0.629565
O O17 0.236328 0.000000 0.584706
O O18 0.500000 0.224516 0.693772
O O19 0.776086 0.322155 0.687313
O O20 0.500000 0.408807 0.341383
O O21 0.220043 0.500000 0.350763
#
# Coordination Sequence:
#
# PCOD9387415 Si02
#       7
#     4   8   8   8   8   8   8
#     4   9  17  29  45  67  98 135 172 210 251 293
#     4  10  21  36  55  80 109 141 179 222 266 320
#     4  10  21  37  56  77 102 134 175 225 280 335
#     4   8  14  27  50  80 112 143 173 207 250 301
#     4   8  13  21  36  62  94 124 156 197 244 290
#     4   9  17  29  47  70  99 132 166 206 256 313
#     4   9  17  29  47  72 101 132 167 207 251 304
#
# _framework density 21.636976000000001
#
# number of rings (size 3 to 8) (size 9 to 14) (size 15 to 20)
#    0.000    3.000    0.000    2.077    1.077    4.615 
#    0.000    4.615    0.000    2.769    0.000    0.000 
#    0.000    1.231    0.000    0.000    0.000    0.000 
#
# Total GULP energy -289936.443029 kJ/mol
# GULP energy per Si atom -5575.700827 kJ/mol
# Density = 2.158773 g / cm^3
# Si number density = 21.636976 Si / 1000 Ang^3
#
#
#
# Elastic Constant Matrix: (Units=GPa)
#
#
# Indices 1 2 3 4 5 6 
#
# 1 33.4215 3.9551 -2.9250 0.0000 0.0000 0.0000
# 2 3.9551 162.5508 81.0609 0.0000 0.0000 0.0000
# 3 -2.9250 81.0609 79.9918 0.0000 0.0000 0.0000
# 4 0.0000 0.0000 0.0000 27.1902 0.0000 0.0000
# 5 0.0000 0.0000 0.0000 0.0000 -34.8314 0.0000
# 6 0.0000 0.0000 0.0000 0.0000 0.0000 -35.9310
#
#
#
# Elastic Compliance Matrix: (Units=1/GPa)
#
#
# Indices 1 2 3 4 5 6 
#
# 1 0.030563 -0.002630 0.003783 0.000000 0.000000 0.000000
# 2 -0.002630 0.012663 -0.012929 0.000000 0.000000 0.000000
# 3 0.003783 -0.012929 0.025741 0.000000 0.000000 0.000000
# 4 0.000000 0.000000 0.000000 0.036778 0.000000 0.000000
# 5 0.000000 0.000000 0.000000 0.000000 -0.028710 0.000000
# 6 0.000000 0.000000 0.000000 0.000000 0.000000 -0.027831
#
#
# Mechanical properties :
#
#
# Convention : Reuss Voigt Hill
#
# Bulk Modulus (GPa) = 22.01889 48.90514 35.46201
# Shear Modulus (GPa) = 56.88644 4.21044 30.54844
#
# Velocity S-wave (km/s) = 5.13307 1.39649 3.76155
# Velocity P-wave (km/s) = 6.73274 5.02512 5.94061
#
# Compressibility (1/GPa) = 0.04541556
#
# Stress axis : x y z
#
# Youngs Moduli (GPa) = 32.71917 78.96943 38.84863
#
# Poissons Ratio (x) = 0.20769 -0.14696
# Poissons Ratio (y) = 0.08605 0.50226
# Poissons Ratio (z) = -0.12377 1.02096
#
# Static dielectric constant tensor:
#      x y z
#    x 1.803940 0.000000 0.000000 
#    y 0.000000 1.819490 0.000000 
#    z 0.000000 0.000000 1.784320 
# 
# From -- ./inp_files/29580.got.cif
#   From: 2010.05.17/outbox.cif.g08.bks.cpg/sg47_15_cif.got.tgz:29580.got - 2010.06.03 20:15:42.
