data_PCOD9387222
_publ_section_title
;
Structure prediction by ZEFSAII (Michael W. Deem and Ramdas Pophale) SiO2 
 PCOD9387222
Probable space group: P M M M
;
_chemical_formula_sum "Si O2"
_cell_formula_units_Z 48
_cell_length_a 34.075277
_cell_length_b 8.014096
_cell_length_c 9.475421
_cell_angle_alpha 90.000000
_cell_angle_beta 90.000000
_cell_angle_gamma 90.000000
_cell_volume 2587.572045
_symmetry_space_group_name_H-M "P M M M"
_symmetry_group_IT_number 47
_symmetry_cell_setting 'orthorhombic'
loop_
_space_group_symop_operation_xyz
x,y,z
-x,-y,z
x,-y,-z
-x,y,-z
-x,-y,-z
x,y,-z
-x,y,z
x,-y,z
loop_
_atom_site_type_symbol
_atom_site_label
_atom_site_fract_x
_atom_site_fract_y
_atom_site_fract_z
Si Si1 0.500000 0.194365 0.827723
Si Si2 0.659847 0.301104 0.339843
Si Si3 0.415186 0.798646 0.161143
Si Si4 0.955252 0.000000 0.328742
Si Si5 0.820613 0.699963 0.159949
Si Si6 0.101405 0.303169 0.330401
Si Si7 0.745467 0.801520 0.338876
O O1 0.457679 0.266116 0.784854
O O2 0.500000 0.000000 0.783469
O O3 0.500000 0.196429 0.000000
O O4 0.657069 0.233941 0.500000
O O5 0.659711 0.500000 0.345093
O O6 0.622401 0.245678 0.251889
O O7 0.702384 0.247002 0.283397
O O8 0.418258 0.000000 0.157060
O O9 0.409904 0.739957 0.000000
O O10 0.931942 0.830763 0.289670
O O11 0.956453 0.000000 0.500000
O O12 0.000000 0.000000 0.276952
O O13 0.822165 0.500000 0.151720
O O14 0.858761 0.748409 0.250570
O O15 0.780902 0.744289 0.241304
O O16 0.821386 0.767066 0.000000
O O17 0.107226 0.292427 0.500000
O O18 0.092578 0.500000 0.299245
O O19 0.749270 0.733564 0.500000
O O20 0.747092 0.000000 0.346944
#
# Coordination Sequence:
#
# PCOD9387222 Si02
#       7
#     4   8   8   4   8   8   8
#     4   7  12  26  48  73  98 124 158 201 248 297
#     4  10  21  36  52  71  99 135 170 205 250 304
#     4   9  17  31  53  77  99 126 163 207 252 300
#     4   9  18  32  53  83 113 141 183 235 277 320
#     4  10  21  36  54  78 108 140 174 216 264 313
#     4   9  18  33  54  79 109 146 184 224 273 325
#     4  10  21  36  55  77 100 131 172 215 258 308
#
# _framework density 18.550207
#
# number of rings (size 3 to 8) (size 9 to 14) (size 15 to 20)
#    0.000    2.667    0.000    2.500    1.167    4.333 
#    0.000    2.500    0.000    5.000    0.000    2.333 
#    0.000    0.000    0.000    0.000    0.000    0.000 
#
# Total GULP energy -267519.160402 kJ/mol
# GULP energy per Si atom -5573.315842 kJ/mol
# Density = 1.850799 g / cm^3
# Si number density = 18.550207 Si / 1000 Ang^3
#
#
#
# Elastic Constant Matrix: (Units=GPa)
#
#
# Indices 1 2 3 4 5 6 
#
# 1 218.3853 49.5450 75.6847 0.0000 0.0000 0.0000
# 2 49.5450 41.9626 24.5225 0.0000 0.0000 0.0000
# 3 75.6847 24.5225 53.9805 0.0000 0.0000 0.0000
# 4 0.0000 0.0000 0.0000 16.4972 0.0000 0.0000
# 5 0.0000 0.0000 0.0000 0.0000 -72.1848 0.0000
# 6 0.0000 0.0000 0.0000 0.0000 0.0000 77.0936
#
#
#
# Elastic Compliance Matrix: (Units=1/GPa)
#
#
# Indices 1 2 3 4 5 6 
#
# 1 0.009541 -0.004694 -0.011245 0.000000 0.000000 0.000000
# 2 -0.004694 0.034753 -0.009207 0.000000 0.000000 0.000000
# 3 -0.011245 -0.009207 0.038474 0.000000 0.000000 0.000000
# 4 0.000000 0.000000 0.000000 0.060616 0.000000 0.000000
# 5 0.000000 0.000000 0.000000 0.000000 -0.013853 0.000000
# 6 0.000000 0.000000 0.000000 0.000000 0.000000 0.012971
#
#
# Mechanical properties :
#
#
# Convention : Reuss Voigt Hill
#
# Bulk Modulus (GPa) = 30.79110 68.20362 49.49736
# Shear Modulus (GPa) = 24.55569 15.25296 19.90433
#
# Velocity S-wave (km/s) = 3.64227 2.87061 3.27922
# Velocity P-wave (km/s) = 5.85859 6.91622 6.40925
#
# Compressibility (1/GPa) = 0.03247692
#
# Stress axis : x y z
#
# Youngs Moduli (GPa) = 104.81078 28.77468 25.99153
#
# Poissons Ratio (x) = 0.13506 0.29227
# Poissons Ratio (y) = 0.49193 0.23930
# Poissons Ratio (z) = 1.17860 0.26493
#
# Static dielectric constant tensor:
#      x y z
#    x 1.643790 0.000000 0.000000 
#    y 0.000000 1.664420 0.000000 
#    z 0.000000 0.000000 1.647410 
# 
# From -- ./inp_files/13895.got.cif
#   From: 2010.05.17/outbox.cif.g08.bks.cpg/sg47_7_cif.got.tgz:13895.got - 2010.06.03 20:15:42.
