data_PCOD9387441
_publ_section_title
;
Structure prediction by ZEFSAII (Michael W. Deem and Ramdas Pophale) SiO2 
 PCOD9387441
Probable space group: P M M M
;
_chemical_formula_sum "Si O2"
_cell_formula_units_Z 48
_cell_length_a 9.109457
_cell_length_b 31.504537
_cell_length_c 9.263557
_cell_angle_alpha 90.000000
_cell_angle_beta 90.000000
_cell_angle_gamma 90.000000
_cell_volume 2658.541045
_symmetry_space_group_name_H-M "P M M M"
_symmetry_group_IT_number 47
_symmetry_cell_setting 'orthorhombic'
loop_
_space_group_symop_operation_xyz
x,y,z
-x,-y,z
x,-y,-z
-x,y,-z
-x,-y,-z
x,y,-z
-x,y,z
x,-y,z
loop_
_atom_site_type_symbol
_atom_site_label
_atom_site_fract_x
_atom_site_fract_y
_atom_site_fract_z
Si Si1 0.174225 0.500000 0.828430
Si Si2 0.825934 0.921058 0.327629
Si Si3 0.673338 0.832077 0.671919
Si Si4 0.825140 0.753791 0.171167
Si Si5 0.674159 0.000000 0.827961
Si Si6 0.674090 0.421288 0.672106
Si Si7 0.174250 0.332980 0.671066
O O1 0.246175 0.541443 0.757519
O O2 0.000000 0.500000 0.801461
O O3 0.198787 0.500000 0.000000
O O4 0.804197 0.927400 0.500000
O O5 0.756134 0.875621 0.289260
O O6 0.747777 0.958666 0.242247
O O7 0.000000 0.921029 0.299848
O O8 0.694250 0.825325 0.500000
O O9 0.500000 0.836558 0.699193
O O10 0.739467 0.792432 0.756597
O O11 0.781856 0.708866 0.241647
O O12 0.000000 0.759254 0.198034
O O13 0.801500 0.752921 0.000000
O O14 0.500000 0.000000 0.798813
O O15 0.696209 0.000000 0.000000
O O16 0.699865 0.426942 0.500000
O O17 0.500000 0.422835 0.696911
O O18 0.738416 0.375269 0.712263
O O19 0.196825 0.325419 0.500000
O O20 0.000000 0.340205 0.693741
#
# Coordination Sequence:
#
# PCOD9387441 Si02
#       7
#     4   8   8   8   4   8   8
#     4  11  24  39  56  80 110 145 184 225 270 322
#     4  10  21  38  61  86 110 141 184 230 275 325
#     4  10  21  37  58  83 110 143 184 229 276 325
#     4  10  21  36  55  81 113 148 184 224 272 325
#     4  11  24  39  56  82 116 151 184 221 270 326
#     4  10  21  37  58  84 112 142 179 224 273 325
#     4   9  18  34  56  80 108 145 187 228 269 317
#
# _framework density 18.055015999999998
#
# number of rings (size 3 to 8) (size 9 to 14) (size 15 to 20)
#    0.000    2.000    0.000    3.000    0.000    9.333 
#    0.000    3.333    0.000    0.000    0.000    0.000 
#    0.000    0.000    0.000    0.000    0.000    0.000 
#
# Total GULP energy -268195.065916 kJ/mol
# GULP energy per Si atom -5587.397207 kJ/mol
# Density = 1.801392 g / cm^3
# Si number density = 18.055016 Si / 1000 Ang^3
#
#
#
# Elastic Constant Matrix: (Units=GPa)
#
#
# Indices 1 2 3 4 5 6 
#
# 1 114.1837 118.2636 84.4298 0.0000 0.0000 0.0000
# 2 118.2636 210.6835 101.2263 0.0000 0.0000 0.0000
# 3 84.4298 101.2263 67.9486 0.0000 0.0000 0.0000
# 4 0.0000 0.0000 0.0000 -27.0086 0.0000 0.0000
# 5 0.0000 0.0000 0.0000 0.0000 27.2005 0.0000
# 6 0.0000 0.0000 0.0000 0.0000 0.0000 212.9973
#
#
#
# Elastic Compliance Matrix: (Units=1/GPa)
#
#
# Indices 1 2 3 4 5 6 
#
# 1 0.120021 0.015063 -0.171574 0.000000 0.000000 0.000000
# 2 0.015063 0.018590 -0.046412 0.000000 0.000000 0.000000
# 3 -0.171574 -0.046412 0.297048 0.000000 0.000000 0.000000
# 4 0.000000 0.000000 0.000000 -0.037025 0.000000 0.000000
# 5 0.000000 0.000000 0.000000 0.000000 0.036764 0.000000
# 6 0.000000 0.000000 0.000000 0.000000 0.000000 0.004695
#
#
# Mechanical properties :
#
#
# Convention : Reuss Voigt Hill
#
# Bulk Modulus (GPa) = 33.53921 111.18392 72.36156
# Shear Modulus (GPa) = 5.84197 48.56426 27.20311
#
# Velocity S-wave (km/s) = 1.80074 5.19195 3.88581
# Velocity P-wave (km/s) = 4.78957 9.88211 7.76518
#
# Compressibility (1/GPa) = 0.02981585
#
# Stress axis : x y z
#
# Youngs Moduli (GPa) = 8.33186 53.79199 3.36646
#
# Poissons Ratio (x) = -0.81029 0.57759
# Poissons Ratio (y) = -0.12551 0.15624
# Poissons Ratio (z) = 1.42953 2.49658
#
# Static dielectric constant tensor:
#      x y z
#    x 1.600960 0.000000 0.000000 
#    y 0.000000 1.578780 0.000000 
#    z 0.000000 0.000000 1.598380 
# 
# From -- ./inp_files/2795.got.cif
#   From: 2010.05.17/outbox.cif.g08.bks.cpg/sg47_2_cif.got.tgz:2795.got - 2010.06.03 20:15:42.
