data_PCOD9387542
_publ_section_title
;
Structure prediction by ZEFSAII (Michael W. Deem and Ramdas Pophale) SiO2 
 PCOD9387542
Probable space group: P M M M
;
_chemical_formula_sum "Si O2"
_cell_formula_units_Z 40
_cell_length_a 7.882785
_cell_length_b 11.371565
_cell_length_c 22.659410
_cell_angle_alpha 90.000000
_cell_angle_beta 90.000000
_cell_angle_gamma 90.000000
_cell_volume 2031.180494
_symmetry_space_group_name_H-M "P M M M"
_symmetry_group_IT_number 47
_symmetry_cell_setting 'orthorhombic'
loop_
_space_group_symop_operation_xyz
x,y,z
-x,-y,z
x,-y,-z
-x,y,-z
-x,-y,-z
x,y,-z
-x,y,z
x,-y,z
loop_
_atom_site_type_symbol
_atom_site_label
_atom_site_fract_x
_atom_site_fract_y
_atom_site_fract_z
Si Si1 0.198370 0.752271 0.118389
Si Si2 0.302238 0.631941 0.764550
Si Si3 0.793641 0.868861 0.569594
Si Si4 0.800276 0.638778 0.000000
Si Si5 0.704574 0.000000 0.930701
Si Si6 0.197614 0.366394 0.633400
O O1 0.275188 0.717274 0.180779
O O2 0.000000 0.721757 0.122739
O O3 0.224024 0.886808 0.101887
O O4 0.274265 0.685865 0.061170
O O5 0.500000 0.631658 0.748904
O O6 0.253553 0.500000 0.784593
O O7 0.207011 0.656100 0.703637
O O8 0.755179 0.860837 0.500000
O O9 0.729791 0.749974 0.601491
O O10 0.000000 0.869410 0.575448
O O11 0.736208 0.000000 0.590266
O O12 0.793736 0.500000 0.000000
O O13 0.000000 0.676290 0.000000
O O14 0.500000 0.000000 0.928360
O O15 0.754154 0.000000 0.000000
O O16 0.268810 0.500000 0.623178
O O17 0.000000 0.372801 0.615743
#
# Coordination Sequence:
#
# PCOD9387542 Si02
#       6
#     8   8   8   4   4   8
#     4  11  21  36  58  80 105 136 177 221 264 315
#     4  10  21  37  55  76 106 142 176 215 269 325
#     4   8  14  26  46  74 107 138 169 213 268 318
#     4   9  18  31  51  80 106 127 160 213 268 313
#     4  11  23  39  57  77 109 143 172 211 264 321
#     4   9  17  30  50  76 104 136 176 220 263 313
#
# _framework density 19.692981
#
# number of rings (size 3 to 8) (size 9 to 14) (size 15 to 20)
#    0.000    2.400    1.000    2.700    0.000    2.800 
#    1.800    2.000    0.000    3.000    0.000    4.200 
#    0.000    0.000    0.000    0.000    0.000    0.000 
#
# Total GULP energy -222943.508253 kJ/mol
# GULP energy per Si atom -5573.587706 kJ/mol
# Density = 1.964816 g / cm^3
# Si number density = 19.692981 Si / 1000 Ang^3
#
#
#
# Elastic Constant Matrix: (Units=GPa)
#
#
# Indices 1 2 3 4 5 6 
#
# 1 27.2936 -3.7152 -2.8391 0.0000 0.0000 0.0000
# 2 -3.7152 137.4283 76.4051 0.0000 0.0000 0.0000
# 3 -2.8391 76.4051 71.0626 0.0000 0.0000 0.0000
# 4 0.0000 0.0000 0.0000 87.0851 0.0000 0.0000
# 5 0.0000 0.0000 0.0000 0.0000 -28.8893 0.0000
# 6 0.0000 0.0000 0.0000 0.0000 0.0000 -6.1628
#
#
#
# Elastic Compliance Matrix: (Units=1/GPa)
#
#
# Indices 1 2 3 4 5 6 
#
# 1 0.036802 0.000441 0.000996 0.000000 0.000000 0.000000
# 2 0.000441 0.018095 -0.019438 0.000000 0.000000 0.000000
# 3 0.000996 -0.019438 0.035011 0.000000 0.000000 0.000000
# 4 0.000000 0.000000 0.000000 0.011483 0.000000 0.000000
# 5 0.000000 0.000000 0.000000 0.000000 -0.034615 0.000000
# 6 0.000000 0.000000 0.000000 0.000000 0.000000 -0.162263
#
#
# Mechanical properties :
#
#
# Convention : Reuss Voigt Hill
#
# Bulk Modulus (GPa) = 18.55042 41.72067 30.13555
# Shear Modulus (GPa) = -120.43926 21.46885 -49.48521
#
# Velocity S-wave (km/s) = -7.82887 3.30537 -5.01826
# Velocity P-wave (km/s) = 8.50185 5.98321 4.27098
#
# Compressibility (1/GPa) = 0.05390713
#
# Stress axis : x y z
#
# Youngs Moduli (GPa) = 27.17221 55.26294 28.56218
#
# Poissons Ratio (x) = -0.02438 -0.02845
# Poissons Ratio (y) = -0.01199 0.55519
# Poissons Ratio (z) = -0.02706 1.07421
#
# Static dielectric constant tensor:
#      x y z
#    x 1.724940 0.000000 0.000000 
#    y 0.000000 1.846500 0.000000 
#    z 0.000000 0.000000 1.660800 
# 
# From -- ./inp_files/29362.got.cif
#   From: 2010.05.17/outbox.cif.g08.bks.cpg/sg47_15_cif.got.tgz:29362.got - 2010.06.03 20:15:42.
