data_PCOD9387675
_publ_section_title
;
Structure prediction by ZEFSAII (Michael W. Deem and Ramdas Pophale) SiO2 
 PCOD9387675
Probable space group: P M M M
;
_chemical_formula_sum "Si O2"
_cell_formula_units_Z 48
_cell_length_a 9.332148
_cell_length_b 31.727708
_cell_length_c 8.522842
_cell_angle_alpha 90.000000
_cell_angle_beta 90.000000
_cell_angle_gamma 90.000000
_cell_volume 2523.508402
_symmetry_space_group_name_H-M "P M M M"
_symmetry_group_IT_number 47
_symmetry_cell_setting 'orthorhombic'
loop_
_space_group_symop_operation_xyz
x,y,z
-x,-y,z
x,-y,-z
-x,y,-z
-x,-y,-z
x,y,-z
-x,y,z
x,-y,z
loop_
_atom_site_type_symbol
_atom_site_label
_atom_site_fract_x
_atom_site_fract_y
_atom_site_fract_z
Si Si1 0.167252 0.258288 0.687390
Si Si2 0.665655 0.661777 0.187630
Si Si3 0.167468 0.833397 0.189044
Si Si4 0.335217 0.083297 0.191715
Si Si5 0.334465 0.500000 0.188090
Si Si6 0.165561 0.581085 0.312030
Si Si7 0.835004 0.000000 0.191848
O O1 0.174225 0.262127 0.500000
O O2 0.264231 0.294039 0.763686
O O3 0.210846 0.211242 0.738045
O O4 0.000000 0.263847 0.735434
O O5 0.500000 0.659350 0.239658
O O6 0.757512 0.623893 0.259648
O O7 0.668666 0.657792 0.000000
O O8 0.260471 0.873253 0.241361
O O9 0.000000 0.840762 0.227436
O O10 0.178275 0.830037 0.000000
O O11 0.500000 0.080978 0.241501
O O12 0.246948 0.042218 0.242368
O O13 0.333444 0.083218 0.000000
O O14 0.500000 0.500000 0.242356
O O15 0.252314 0.541342 0.246697
O O16 0.334839 0.500000 0.000000
O O17 0.165753 0.578894 0.500000
O O18 0.000000 0.580264 0.258170
O O19 0.000000 0.000000 0.241948
O O20 0.834454 0.000000 0.000000
#
# Coordination Sequence:
#
# PCOD9387675 Si02
#       7
#     8   8   8   8   4   8   4
#     4  10  21  37  57  81 108 140 180 224 270 323
#     4  11  24  40  59  85 115 147 185 228 275 328
#     4   9  17  30  48  70  98 133 171 211 258 312
#     4   9  16  25  39  62  93 127 164 208 256 306
#     4  11  24  41  62  90 122 155 194 237 280 328
#     4  11  24  41  62  89 119 152 192 234 277 329
#     4   9  15  23  37  59  90 127 164 203 252 310
#
# _framework density 19.021138000000001
#
# number of rings (size 3 to 8) (size 9 to 14) (size 15 to 20)
#    0.000    2.000    0.000    3.750    0.000   13.000 
#    0.000    1.667    0.000    0.000    0.000    0.583 
#    0.000    4.667    0.000    0.000    0.000    0.000 
#
# Total GULP energy -268183.224593 kJ/mol
# GULP energy per Si atom -5587.150512 kJ/mol
# Density = 1.897785 g / cm^3
# Si number density = 19.021138 Si / 1000 Ang^3
#
#
#
# Elastic Constant Matrix: (Units=GPa)
#
#
# Indices 1 2 3 4 5 6 
#
# 1 172.9850 115.2665 32.4973 0.0000 0.0000 0.0000
# 2 115.2665 165.8270 26.0589 0.0000 0.0000 0.0000
# 3 32.4973 26.0589 23.0607 0.0000 0.0000 0.0000
# 4 0.0000 0.0000 0.0000 139.1415 0.0000 0.0000
# 5 0.0000 0.0000 0.0000 0.0000 19.7017 0.0000
# 6 0.0000 0.0000 0.0000 0.0000 0.0000 1446.2070
#
#
#
# Elastic Compliance Matrix: (Units=1/GPa)
#
#
# Indices 1 2 3 4 5 6 
#
# 1 0.012202 -0.007027 -0.009254 0.000000 0.000000 0.000000
# 2 -0.007027 0.011380 -0.002956 0.000000 0.000000 0.000000
# 3 -0.009254 -0.002956 0.059745 0.000000 0.000000 0.000000
# 4 0.000000 0.000000 0.000000 0.007187 0.000000 0.000000
# 5 0.000000 0.000000 0.000000 0.000000 0.050757 0.000000
# 6 0.000000 0.000000 0.000000 0.000000 0.000000 0.000691
#
#
# Mechanical properties :
#
#
# Convention : Reuss Voigt Hill
#
# Bulk Modulus (GPa) = 22.29569 78.83533 50.56551
# Shear Modulus (GPa) = 25.59012 333.54671 179.56841
#
# Velocity S-wave (km/s) = 3.67188 13.25656 9.72675
# Velocity P-wave (km/s) = 5.45197 16.60878 12.36073
#
# Compressibility (1/GPa) = 0.04485171
#
# Stress axis : x y z
#
# Youngs Moduli (GPa) = 81.95441 87.87625 16.73773
#
# Poissons Ratio (x) = 0.61754 0.15489
# Poissons Ratio (y) = 0.57592 0.04948
# Poissons Ratio (z) = 0.75841 0.25978
#
# Static dielectric constant tensor:
#      x y z
#    x 1.648620 0.000000 0.000000 
#    y 0.000000 1.621200 0.000000 
#    z 0.000000 0.000000 1.645350 
# 
# From -- ./inp_files/2671.got.cif
#   From: 2010.05.17/outbox.cif.g08.bks.cpg/sg47_2_cif.got.tgz:2671.got - 2010.06.03 20:15:42.
