data_PCOD9387007
_publ_section_title
;
Structure prediction by ZEFSAII (Michael W. Deem and Ramdas Pophale) SiO2 
 PCOD9387007
Probable space group: P M M M
;
_chemical_formula_sum "Si O2"
_cell_formula_units_Z 64
_cell_length_a 41.566171
_cell_length_b 8.826650
_cell_length_c 10.217019
_cell_angle_alpha 90.000000
_cell_angle_beta 90.000000
_cell_angle_gamma 90.000000
_cell_volume 3748.522543
_symmetry_space_group_name_H-M "P M M M"
_symmetry_group_IT_number 47
_symmetry_cell_setting 'orthorhombic'
loop_
_space_group_symop_operation_xyz
x,y,z
-x,-y,z
x,-y,-z
-x,y,-z
-x,-y,-z
x,y,-z
-x,y,z
x,-y,z
loop_
_atom_site_type_symbol
_atom_site_label
_atom_site_fract_x
_atom_site_fract_y
_atom_site_fract_z
Si Si1 0.161723 0.317387 0.650833
Si Si2 0.088119 0.682631 0.349111
Si Si3 0.408178 0.817136 0.651641
Si Si4 0.536497 0.815439 0.849818
Si Si5 0.963172 0.182627 0.849189
Si Si6 0.713169 0.817366 0.848303
Si Si7 0.787160 0.817426 0.849726
Si Si8 0.661429 0.681252 0.348292
O O1 0.168185 0.272712 0.500000
O O2 0.162966 0.500000 0.656382
O O3 0.124924 0.271756 0.682489
O O4 0.187462 0.250041 0.749547
O O5 0.081634 0.727276 0.500000
O O6 0.086864 0.500000 0.343608
O O7 0.062442 0.749985 0.250087
O O8 0.415302 0.778821 0.500000
O O9 0.436429 0.765057 0.748294
O O10 0.373654 0.747266 0.685787
O O11 0.405813 0.000000 0.660285
O O12 0.500000 0.767739 0.816557
O O13 0.536542 0.000000 0.847633
O O14 0.543289 0.770211 0.000000
O O15 0.000000 0.228156 0.817981
O O16 0.961911 0.000000 0.843659
O O17 0.956601 0.227311 0.000000
O O18 0.750207 0.773482 0.819736
O O19 0.688306 0.744574 0.748580
O O20 0.711169 0.000000 0.839240
O O21 0.706395 0.776537 0.000000
O O22 0.788533 0.000000 0.844740
O O23 0.794020 0.771651 0.000000
O O24 0.668046 0.724877 0.500000
O O25 0.660524 0.500000 0.341253
#
# Coordination Sequence:
#
# PCOD9387007 Si02
#       8
#     8   8   8   8   8   8   8   8
#     4   9  19  35  52  72 101 134 166 201 241 287
#     4   9  19  35  52  72 100 132 166 204 244 287
#     4   9  17  29  46  68  93 122 157 196 237 282
#     4   8  14  25  42  66  94 120 149 190 238 284
#     4   9  19  35  52  72 100 131 163 202 248 296
#     4   9  19  36  55  74  98 128 162 201 244 290
#     4   9  19  35  53  75 102 129 160 200 244 290
#     4  10  21  35  50  71 100 131 163 201 244 290
#
# _framework density 17.073392999999999
#
# number of rings (size 3 to 8) (size 9 to 14) (size 15 to 20)
#    0.000    3.000    0.000    2.625    0.000    5.250 
#    0.000   11.875    0.000    0.375    0.000    2.625 
#    0.000    0.000    0.000    0.000    0.000    0.000 
#
# Total GULP energy -356745.305855 kJ/mol
# GULP energy per Si atom -5574.145404 kJ/mol
# Density = 1.703453 g / cm^3
# Si number density = 17.073393 Si / 1000 Ang^3
#
#
#
# Elastic Constant Matrix: (Units=GPa)
#
#
# Indices 1 2 3 4 5 6 
#
# 1 180.7395 42.0211 144.4280 0.0000 0.0000 0.0000
# 2 42.0211 13.4581 37.4424 0.0000 0.0000 0.0000
# 3 144.4280 37.4424 137.1335 0.0000 0.0000 0.0000
# 4 0.0000 0.0000 0.0000 28.1418 0.0000 0.0000
# 5 0.0000 0.0000 0.0000 0.0000 43.9199 0.0000
# 6 0.0000 0.0000 0.0000 0.0000 0.0000 77.5800
#
#
#
# Elastic Compliance Matrix: (Units=1/GPa)
#
#
# Indices 1 2 3 4 5 6 
#
# 1 0.037650 -0.030110 -0.031432 0.000000 0.000000 0.000000
# 2 -0.030110 0.333203 -0.059265 0.000000 0.000000 0.000000
# 3 -0.031432 -0.059265 0.056578 0.000000 0.000000 0.000000
# 4 0.000000 0.000000 0.000000 0.035534 0.000000 0.000000
# 5 0.000000 0.000000 0.000000 0.000000 0.022769 0.000000
# 6 0.000000 0.000000 0.000000 0.000000 0.000000 0.012890
#
#
# Mechanical properties :
#
#
# Convention : Reuss Voigt Hill
#
# Bulk Modulus (GPa) = 5.38163 86.56819 45.97491
# Shear Modulus (GPa) = 6.23304 37.09099 21.66202
#
# Velocity S-wave (km/s) = 1.91276 4.66600 3.56583
# Velocity P-wave (km/s) = 2.83498 8.93546 6.62871
#
# Compressibility (1/GPa) = 0.18581739
#
# Stress axis : x y z
#
# Youngs Moduli (GPa) = 26.56010 3.00117 17.67481
#
# Poissons Ratio (x) = 0.09036 0.55556
# Poissons Ratio (y) = 0.79972 1.04750
# Poissons Ratio (z) = 0.83484 0.17786
#
# Static dielectric constant tensor:
#      x y z
#    x 1.557890 0.000000 0.000000 
#    y 0.000000 1.575380 0.000000 
#    z 0.000000 0.000000 1.565420 
# 
# From -- ./inp_files/20112.got.cif
#   From: 2010.05.17/outbox.cif.g08.bks.cpg/sg47_11_cif.got.tgz:20112.got - 2010.06.03 20:15:42.
