data_PCOD9387077
_publ_section_title
;
Structure prediction by ZEFSAII (Michael W. Deem and Ramdas Pophale) SiO2 
 PCOD9387077
Probable space group: P M M M
;
_chemical_formula_sum "Si O2"
_cell_formula_units_Z 44
_cell_length_a 9.621544
_cell_length_b 7.542334
_cell_length_c 29.105097
_cell_angle_alpha 90.000000
_cell_angle_beta 90.000000
_cell_angle_gamma 90.000000
_cell_volume 2112.124828
_symmetry_space_group_name_H-M "P M M M"
_symmetry_group_IT_number 47
_symmetry_cell_setting 'orthorhombic'
loop_
_space_group_symop_operation_xyz
x,y,z
-x,-y,z
x,-y,-z
-x,y,-z
-x,-y,-z
x,y,-z
-x,y,z
x,-y,z
loop_
_atom_site_type_symbol
_atom_site_label
_atom_site_fract_x
_atom_site_fract_y
_atom_site_fract_z
Si Si1 0.341120 0.287641 0.825749
Si Si2 0.844361 0.210860 0.638858
Si Si3 0.660783 0.716462 0.000000
Si Si4 0.839703 0.283043 0.911511
Si Si5 0.657950 0.286420 0.448404
Si Si6 0.342186 0.212703 0.278071
O O1 0.500000 0.219733 0.831129
O O2 0.348220 0.500000 0.830673
O O3 0.236750 0.223484 0.864927
O O4 0.294413 0.249800 0.773795
O O5 0.761989 0.234842 0.591550
O O6 0.756128 0.282829 0.681772
O O7 0.000000 0.283886 0.636460
O O8 0.855141 0.000000 0.646168
O O9 0.746173 0.771300 0.954894
O O10 0.658050 0.500000 0.000000
O O11 0.500000 0.774670 0.000000
O O12 0.841683 0.500000 0.911520
O O13 0.000000 0.225662 0.914746
O O14 0.695901 0.226020 0.500000
O O15 0.500000 0.225399 0.438552
O O16 0.654712 0.500000 0.449465
O O17 0.500000 0.281628 0.282662
O O18 0.349028 0.000000 0.282795
#
# Coordination Sequence:
#
# PCOD9387077 Si02
#       6
#     8   8   4   8   8   8
#     4   9  17  29  45  66  91 118 151 192 235 278
#     4  10  21  35  51  74 103 132 163 201 244 290
#     4   9  15  23  37  57  84 119 154 187 226 272
#     4   9  16  25  38  59  88 119 150 186 229 277
#     4   9  19  36  56  77 101 130 165 203 242 287
#     4   9  18  33  51  69  92 125 163 200 238 282
#
# _framework density 20.832103
#
# number of rings (size 3 to 8) (size 9 to 14) (size 15 to 20)
#    0.000    2.818    0.000    1.909    0.000    6.909 
#    0.000    4.545    0.000    0.000    0.000    0.636 
#    0.000    5.091    0.000    0.000    0.000    0.000 
#
# Total GULP energy -245618.268358 kJ/mol
# GULP energy per Si atom -5582.233372 kJ/mol
# Density = 2.078469 g / cm^3
# Si number density = 20.832103 Si / 1000 Ang^3
#
#
#
# Elastic Constant Matrix: (Units=GPa)
#
#
# Indices 1 2 3 4 5 6 
#
# 1 181.9454 5.4732 157.0745 0.0000 0.0000 0.0000
# 2 5.4732 49.5604 -1.0794 0.0000 0.0000 0.0000
# 3 157.0745 -1.0794 216.4454 0.0000 0.0000 0.0000
# 4 0.0000 0.0000 0.0000 25.9336 0.0000 0.0000
# 5 0.0000 0.0000 0.0000 0.0000 -66.6323 0.0000
# 6 0.0000 0.0000 0.0000 0.0000 0.0000 4.8047
#
#
#
# Elastic Compliance Matrix: (Units=1/GPa)
#
#
# Indices 1 2 3 4 5 6 
#
# 1 0.014888 -0.001880 -0.010814 0.000000 0.000000 0.000000
# 2 -0.001880 0.020417 0.001466 0.000000 0.000000 0.000000
# 3 -0.010814 0.001466 0.012475 0.000000 0.000000 0.000000
# 4 0.000000 0.000000 0.000000 0.038560 0.000000 0.000000
# 5 0.000000 0.000000 0.000000 0.000000 -0.015008 0.000000
# 6 0.000000 0.000000 0.000000 0.000000 0.000000 0.208129
#
#
# Mechanical properties :
#
#
# Convention : Reuss Voigt Hill
#
# Bulk Modulus (GPa) = 39.48668 85.65419 62.57043
# Shear Modulus (GPa) = 16.11039 11.92006 14.01523
#
# Velocity S-wave (km/s) = 2.78392 2.39466 2.59660
# Velocity P-wave (km/s) = 5.41567 6.98939 6.25224
#
# Compressibility (1/GPa) = 0.02532500
#
# Stress axis : x y z
#
# Youngs Moduli (GPa) = 67.16658 48.97906 80.16014
#
# Poissons Ratio (x) = 0.09207 0.86684
# Poissons Ratio (y) = 0.12625 -0.11751
# Poissons Ratio (z) = 0.72633 -0.07180
#
# Static dielectric constant tensor:
#      x y z
#    x 1.726140 0.000000 0.000000 
#    y 0.000000 1.792440 0.000000 
#    z 0.000000 0.000000 1.711630 
# 
# From -- ./inp_files/2239.got.cif
#   From: 2010.05.17/outbox.cif.g08.bks.cpg/sg47_2_cif.got.tgz:2239.got - 2010.06.03 20:15:42.
