data_PCOD9387522
_publ_section_title
;
Structure prediction by ZEFSAII (Michael W. Deem and Ramdas Pophale) SiO2 
 PCOD9387522
Probable space group: P M M M
;
_chemical_formula_sum "Si O2"
_cell_formula_units_Z 44
_cell_length_a 21.775863
_cell_length_b 14.265624
_cell_length_c 8.910726
_cell_angle_alpha 90.000000
_cell_angle_beta 90.000000
_cell_angle_gamma 90.000000
_cell_volume 2768.083829
_symmetry_space_group_name_H-M "P M M M"
_symmetry_group_IT_number 47
_symmetry_cell_setting 'orthorhombic'
loop_
_space_group_symop_operation_xyz
x,y,z
-x,-y,z
x,-y,-z
-x,y,-z
-x,-y,-z
x,y,-z
-x,y,z
x,-y,z
loop_
_atom_site_type_symbol
_atom_site_label
_atom_site_fract_x
_atom_site_fract_y
_atom_site_fract_z
Si Si1 0.934000 0.387577 0.680415
Si Si2 0.628799 0.109752 0.321046
Si Si3 0.200959 0.388317 0.319110
Si Si4 0.684220 0.282465 0.821733
Si Si5 0.500000 0.113832 0.171331
Si Si6 0.430651 0.612789 0.677712
O O1 0.934234 0.373994 0.500000
O O2 0.934056 0.500000 0.703823
O O3 0.867003 0.354968 0.733113
O O4 0.000000 0.351297 0.738812
O O5 0.629200 0.119725 0.500000
O O6 0.677356 0.178609 0.246183
O O7 0.561930 0.138994 0.258114
O O8 0.638216 0.000000 0.284570
O O9 0.204764 0.377144 0.500000
O O10 0.206166 0.500000 0.289525
O O11 0.255980 0.333918 0.241937
O O12 0.623914 0.338622 0.766388
O O13 0.685480 0.279209 0.000000
O O14 0.500000 0.000000 0.165741
O O15 0.500000 0.148640 0.000000
O O16 0.424339 0.634409 0.500000
O O17 0.500000 0.640053 0.724664
O O18 0.426100 0.500000 0.692655
#
# Coordination Sequence:
#
# PCOD9387522 Si02
#       6
#     8   8   8   8   4   8
#     4   7  10  19  39  67  94 120 154 195 233 265
#     4  10  21  37  55  71  88 115 152 193 237 287
#     4   9  17  30  48  69  96 130 165 198 230 270
#     4  12  24  33  46  68  96 126 155 193 239 284
#     4   9  17  31  51  73  94 111 132 173 231 287
#     4   9  19  36  54  68  85 115 157 201 239 276
#
# _framework density 15.895473000000001
#
# number of rings (size 3 to 8) (size 9 to 14) (size 15 to 20)
#    0.000    2.636    0.000    5.182    1.273    5.455 
#    0.000    0.909    0.000    0.545    0.000    2.545 
#    0.000    0.727    0.000    8.364    0.000    2.727 
#
# Total GULP energy -245289.932374 kJ/mol
# GULP energy per Si atom -5574.771190 kJ/mol
# Density = 1.585929 g / cm^3
# Si number density = 15.895473 Si / 1000 Ang^3
#
#
#
# Elastic Constant Matrix: (Units=GPa)
#
#
# Indices 1 2 3 4 5 6 
#
# 1 157.7757 60.0301 59.9585 0.0000 0.0000 0.0000
# 2 60.0301 58.3452 39.0865 0.0000 0.0000 0.0000
# 3 59.9585 39.0865 60.9133 0.0000 0.0000 0.0000
# 4 0.0000 0.0000 0.0000 10.8122 0.0000 0.0000
# 5 0.0000 0.0000 0.0000 0.0000 -15.3030 0.0000
# 6 0.0000 0.0000 0.0000 0.0000 0.0000 9.8135
#
#
#
# Elastic Compliance Matrix: (Units=1/GPa)
#
#
# Indices 1 2 3 4 5 6 
#
# 1 0.011794 -0.007643 -0.006705 0.000000 0.000000 0.000000
# 2 -0.007643 0.035015 -0.014945 0.000000 0.000000 0.000000
# 3 -0.006705 -0.014945 0.032607 0.000000 0.000000 0.000000
# 4 0.000000 0.000000 0.000000 0.092488 0.000000 0.000000
# 5 0.000000 0.000000 0.000000 0.000000 -0.065347 0.000000
# 6 0.000000 0.000000 0.000000 0.000000 0.000000 0.101900
#
#
# Mechanical properties :
#
#
# Convention : Reuss Voigt Hill
#
# Bulk Modulus (GPa) = 48.00848 66.13159 57.07004
# Shear Modulus (GPa) = 18.24906 8.92848 13.58877
#
# Velocity S-wave (km/s) = 3.39199 2.37259 2.92701
# Velocity P-wave (km/s) = 6.75344 7.01427 6.88509
#
# Compressibility (1/GPa) = 0.02082965
#
# Stress axis : x y z
#
# Youngs Moduli (GPa) = 84.78791 28.55917 30.66866
#
# Poissons Ratio (x) = 0.21828 0.20563
# Poissons Ratio (y) = 0.64803 0.45835
# Poissons Ratio (z) = 0.56850 0.42682
#
# Static dielectric constant tensor:
#      x y z
#    x 1.553480 0.000000 0.000000 
#    y 0.000000 1.538580 0.000000 
#    z 0.000000 0.000000 1.521330 
# 
# From -- ./inp_files/6819.got.cif
#   From: 2010.05.17/outbox.cif.g08.bks.cpg/sg47_4_cif.got.tgz:6819.got - 2010.06.03 20:15:42.
