data_PCOD9387933
_publ_section_title
;
Structure prediction by ZEFSAII (Michael W. Deem and Ramdas Pophale) SiO2 
 PCOD9387933
Probable space group: P M M M
;
_chemical_formula_sum "Si O2"
_cell_formula_units_Z 52
_cell_length_a 15.082951
_cell_length_b 7.574902
_cell_length_c 21.723436
_cell_angle_alpha 90.000000
_cell_angle_beta 90.000000
_cell_angle_gamma 90.000000
_cell_volume 2481.943310
_symmetry_space_group_name_H-M "P M M M"
_symmetry_group_IT_number 47
_symmetry_cell_setting 'orthorhombic'
loop_
_space_group_symop_operation_xyz
x,y,z
-x,-y,z
x,-y,-z
-x,y,-z
-x,-y,-z
x,y,-z
-x,y,z
x,-y,z
loop_
_atom_site_type_symbol
_atom_site_label
_atom_site_fract_x
_atom_site_fract_y
_atom_site_fract_z
Si Si1 0.402625 0.500000 0.573399
Si Si2 0.785821 0.214758 0.699994
Si Si3 0.792258 0.294980 0.933764
Si Si4 0.402670 0.214416 0.750767
Si Si5 0.402585 0.786917 0.104391
Si Si6 0.098991 0.791528 0.187036
Si Si7 0.257932 0.789359 0.429664
O O1 0.500000 0.500000 0.601392
O O2 0.412514 0.500000 0.500000
O O3 0.345427 0.324421 0.584461
O O4 0.686372 0.276025 0.717654
O O5 0.852183 0.281844 0.752338
O O6 0.804811 0.255197 0.628406
O O7 0.784710 0.000000 0.704201
O O8 0.815503 0.500000 0.934840
O O9 0.686104 0.279157 0.927286
O O10 0.839878 0.223419 0.873223
O O11 0.818552 0.215700 0.000000
O O12 0.500000 0.273701 0.728698
O O13 0.396369 0.259132 0.823179
O O14 0.402687 0.000000 0.747124
O O15 0.500000 0.728177 0.081939
O O16 0.400992 0.000000 0.100019
O O17 0.000000 0.719192 0.177358
O O18 0.090435 0.000000 0.198117
O O19 0.228959 0.747413 0.500000
O O20 0.275472 0.000000 0.427741
#
# Coordination Sequence:
#
# PCOD9387933 Si02
#       7
#     4   8   8   8   8   8   8
#     4   9  18  32  48  72 111 153 196 243 281 329
#     4   9  16  30  53  79 108 139 175 224 278 332
#     4  11  24  39  55  78 113 152 182 218 274 338
#     4   8  13  23  44  73 101 131 168 214 268 316
#     4   9  17  32  55  80 106 139 183 229 267 311
#     4  10  21  39  63  86 106 133 178 237 292 341
#     4   9  18  32  51  76 109 152 194 233 286 345
#
# _framework density 20.951324
#
# number of rings (size 3 to 8) (size 9 to 14) (size 15 to 20)
#    0.000    2.692    1.538    1.385    0.000    3.385 
#    1.385    6.154    0.000    0.462    0.000    3.231 
#    0.000    1.846    0.000    0.154    0.000    0.000 
#
# Total GULP energy -289825.398839 kJ/mol
# GULP energy per Si atom -5573.565362 kJ/mol
# Density = 2.090364 g / cm^3
# Si number density = 20.951324 Si / 1000 Ang^3
#
#
#
# Elastic Constant Matrix: (Units=GPa)
#
#
# Indices 1 2 3 4 5 6 
#
# 1 108.2898 1.7077 72.9091 0.0000 0.0000 0.0000
# 2 1.7077 46.3281 13.8810 0.0000 0.0000 0.0000
# 3 72.9091 13.8810 162.5074 0.0000 0.0000 0.0000
# 4 0.0000 0.0000 0.0000 18.3848 0.0000 0.0000
# 5 0.0000 0.0000 0.0000 0.0000 13.0740 0.0000
# 6 0.0000 0.0000 0.0000 0.0000 0.0000 -22.6088
#
#
#
# Elastic Compliance Matrix: (Units=1/GPa)
#
#
# Indices 1 2 3 4 5 6 
#
# 1 0.013311 0.001333 -0.006086 0.000000 0.000000 0.000000
# 2 0.001333 0.022286 -0.002502 0.000000 0.000000 0.000000
# 3 -0.006086 -0.002502 0.009098 0.000000 0.000000 0.000000
# 4 0.000000 0.000000 0.000000 0.054393 0.000000 0.000000
# 5 0.000000 0.000000 0.000000 0.000000 0.076488 0.000000
# 6 0.000000 0.000000 0.000000 0.000000 0.000000 -0.044231
#
#
# Mechanical properties :
#
#
# Convention : Reuss Voigt Hill
#
# Bulk Modulus (GPa) = 33.12901 54.90232 44.01566
# Shear Modulus (GPa) = 32.06876 17.01183 24.54029
#
# Velocity S-wave (km/s) = 3.91657 2.85260 3.42614
# Velocity P-wave (km/s) = 6.02490 6.09191 6.05850
#
# Compressibility (1/GPa) = 0.03018503
#
# Stress axis : x y z
#
# Youngs Moduli (GPa) = 75.12645 44.87212 109.91863
#
# Poissons Ratio (x) = -0.05981 0.66894
# Poissons Ratio (y) = -0.10013 0.27497
# Poissons Ratio (z) = 0.45720 0.11225
#
# Static dielectric constant tensor:
#      x y z
#    x 1.743530 0.000000 0.000000 
#    y 0.000000 1.801660 0.000000 
#    z 0.000000 0.000000 1.793400 
# 
# From -- ./inp_files/30897.got.cif
#   From: 2010.05.17/outbox.cif.g08.bks.cpg/sg47_16_cif.got.tgz:30897.got - 2010.06.03 20:15:42.
