data_PCOD9387513
_publ_section_title
;
Structure prediction by ZEFSAII (Michael W. Deem and Ramdas Pophale) SiO2 
 PCOD9387513
Probable space group: P M M M
;
_chemical_formula_sum "Si O2"
_cell_formula_units_Z 40
_cell_length_a 13.237610
_cell_length_b 20.058661
_cell_length_c 8.946084
_cell_angle_alpha 90.000000
_cell_angle_beta 90.000000
_cell_angle_gamma 90.000000
_cell_volume 2375.442336
_symmetry_space_group_name_H-M "P M M M"
_symmetry_group_IT_number 47
_symmetry_cell_setting 'orthorhombic'
loop_
_space_group_symop_operation_xyz
x,y,z
-x,-y,z
x,-y,-z
-x,y,-z
-x,-y,-z
x,y,-z
-x,y,z
x,-y,z
loop_
_atom_site_type_symbol
_atom_site_label
_atom_site_fract_x
_atom_site_fract_y
_atom_site_fract_z
Si Si1 0.115713 0.921151 0.820801
Si Si2 0.305332 0.848867 0.679708
Si Si3 0.696520 0.573444 0.820986
Si Si4 0.615607 0.707492 0.679349
Si Si5 0.112753 0.500000 0.819026
Si Si6 0.500000 0.079509 0.821688
O O1 0.201219 0.879620 0.738073
O O2 0.000000 0.903397 0.780415
O O3 0.129212 0.000000 0.789362
O O4 0.126116 0.912811 0.000000
O O5 0.311213 0.853336 0.500000
O O6 0.317975 0.771235 0.723884
O O7 0.400059 0.888424 0.749547
O O8 0.651028 0.500000 0.782409
O O9 0.650066 0.637273 0.745101
O O10 0.815106 0.562478 0.780166
O O11 0.688914 0.580250 0.000000
O O12 0.618327 0.703031 0.500000
O O13 0.500000 0.721200 0.724745
O O14 0.000000 0.500000 0.758342
O O15 0.106947 0.500000 0.000000
O O16 0.500000 0.000000 0.796653
O O17 0.500000 0.091246 0.000000
#
# Coordination Sequence:
#
# PCOD9387513 Si02
#       6
#     8   8   8   8   4   4
#     4   9  19  37  59  82 110 143 181 228 278 330
#     4  11  22  37  55  79 112 147 186 230 273 327
#     4   8  17  32  52  80 104 128 171 219 257 305
#     4  10  21  37  52  70 105 147 179 213 265 322
#     4   7  12  28  52  75 102 130 159 207 262 305
#     4  11  23  37  55  81 110 143 184 229 281 334
#
# _framework density 16.83897
#
# number of rings (size 3 to 8) (size 9 to 14) (size 15 to 20)
#    0.600    2.000    1.000    2.100    0.000    6.800 
#    0.000    4.000    0.000    4.800    0.000    0.000 
#    0.000    0.000    0.000    0.000    0.000    0.000 
#
# Total GULP energy -222753.840404 kJ/mol
# GULP energy per Si atom -5568.846010 kJ/mol
# Density = 1.680064 g / cm^3
# Si number density = 16.838970 Si / 1000 Ang^3
#
#
#
# Elastic Constant Matrix: (Units=GPa)
#
#
# Indices 1 2 3 4 5 6 
#
# 1 118.6992 81.3656 46.0719 0.0000 0.0000 0.0000
# 2 81.3656 134.0039 53.5410 0.0000 0.0000 0.0000
# 3 46.0719 53.5410 36.0845 0.0000 0.0000 0.0000
# 4 0.0000 0.0000 0.0000 31.0846 0.0000 0.0000
# 5 0.0000 0.0000 0.0000 0.0000 16.3228 0.0000
# 6 0.0000 0.0000 0.0000 0.0000 0.0000 21.1512
#
#
#
# Elastic Compliance Matrix: (Units=1/GPa)
#
#
# Indices 1 2 3 4 5 6 
#
# 1 0.017613 -0.004198 -0.016259 0.000000 0.000000 0.000000
# 2 -0.004198 0.019329 -0.023319 0.000000 0.000000 0.000000
# 3 -0.016259 -0.023319 0.083072 0.000000 0.000000 0.000000
# 4 0.000000 0.000000 0.000000 0.032170 0.000000 0.000000
# 5 0.000000 0.000000 0.000000 0.000000 0.061264 0.000000
# 6 0.000000 0.000000 0.000000 0.000000 0.000000 0.047279
#
#
# Mechanical properties :
#
#
# Convention : Reuss Voigt Hill
#
# Bulk Modulus (GPa) = 30.80594 72.30495 51.55545
# Shear Modulus (GPa) = 13.92374 20.89900 17.41137
#
# Velocity S-wave (km/s) = 2.87867 3.52676 3.21906
# Velocity P-wave (km/s) = 5.42062 7.72116 6.67081
#
# Compressibility (1/GPa) = 0.03246127
#
# Stress axis : x y z
#
# Youngs Moduli (GPa) = 56.77547 51.73665 12.03782
#
# Poissons Ratio (x) = 0.21721 0.19572
# Poissons Ratio (y) = 0.23836 0.28071
# Poissons Ratio (z) = 0.92310 1.20644
#
# Static dielectric constant tensor:
#      x y z
#    x 1.573510 0.000000 0.000000 
#    y 0.000000 1.561450 0.000000 
#    z 0.000000 0.000000 1.563600 
# 
# From -- ./inp_files/4105.got.cif
#   From: 2010.05.17/outbox.cif.g08.bks.cpg/sg47_3_cif.got.tgz:4105.got - 2010.06.03 20:15:42.
