data_PCOD9387368
_publ_section_title
;
Structure prediction by ZEFSAII (Michael W. Deem and Ramdas Pophale) SiO2 
 PCOD9387368
Probable space group: P M M M
;
_chemical_formula_sum "Si O2"
_cell_formula_units_Z 48
_cell_length_a 9.485632
_cell_length_b 17.990235
_cell_length_c 14.310321
_cell_angle_alpha 90.000000
_cell_angle_beta 90.000000
_cell_angle_gamma 90.000000
_cell_volume 2442.038374
_symmetry_space_group_name_H-M "P M M M"
_symmetry_group_IT_number 47
_symmetry_cell_setting 'orthorhombic'
loop_
_space_group_symop_operation_xyz
x,y,z
-x,-y,z
x,-y,-z
-x,y,-z
-x,-y,-z
x,y,-z
-x,y,z
x,-y,z
loop_
_atom_site_type_symbol
_atom_site_label
_atom_site_fract_x
_atom_site_fract_y
_atom_site_fract_z
Si Si1 0.162662 0.806938 0.112375
Si Si2 0.667107 0.086229 0.239155
Si Si3 0.335377 0.210753 0.610316
Si Si4 0.160876 0.644321 0.386099
Si Si5 0.660301 0.500000 0.613679
Si Si6 0.328385 0.500000 0.892018
Si Si7 0.337977 0.661908 0.114222
O O1 0.243760 0.875716 0.157655
O O2 0.241486 0.730892 0.140446
O O3 0.000000 0.805449 0.141492
O O4 0.168274 0.811529 0.000000
O O5 0.500000 0.091127 0.217741
O O6 0.692411 0.137149 0.330093
O O7 0.702322 0.000000 0.253387
O O8 0.314355 0.197276 0.500000
O O9 0.500000 0.231711 0.623348
O O10 0.237481 0.279188 0.639845
O O11 0.156647 0.643603 0.500000
O O12 0.254447 0.573489 0.359384
O O13 0.000000 0.639675 0.352579
O O14 0.500000 0.500000 0.650001
O O15 0.652519 0.500000 0.500000
O O16 0.500000 0.500000 0.892677
O O17 0.287097 0.419525 0.853090
O O18 0.280985 0.500000 0.000000
O O19 0.500000 0.673835 0.144587
O O20 0.340468 0.659011 0.000000
#
# Coordination Sequence:
#
# PCOD9387368 Si02
#       7
#     8   8   8   8   4   4   8
#     4  10  21  36  54  78 109 144 180 219 266 316
#     4  10  22  39  59  83 107 134 172 216 264 321
#     4   9  18  34  56  81 109 139 171 212 265 322
#     4   9  16  26  43  70 104 141 180 219 260 309
#     4   9  15  23  39  66 101 140 182 225 265 306
#     4   7  10  18  37  68 101 132 170 213 253 296
#     4   8  13  24  45  72 102 137 176 216 258 306
#
# _framework density 19.655712000000001
#
# number of rings (size 3 to 8) (size 9 to 14) (size 15 to 20)
#    0.000    3.000    0.000    2.250    0.000    5.667 
#    0.000    3.750    0.000    3.500    0.000    5.833 
#    0.000    0.000    0.000    0.000    0.000    0.000 
#
# Total GULP energy -267941.841222 kJ/mol
# GULP energy per Si atom -5582.121692 kJ/mol
# Density = 1.961097 g / cm^3
# Si number density = 19.655712 Si / 1000 Ang^3
#
#
#
# Elastic Constant Matrix: (Units=GPa)
#
#
# Indices 1 2 3 4 5 6 
#
# 1 117.8921 116.4486 36.2870 0.0000 0.0000 0.0000
# 2 116.4486 211.4337 35.3613 0.0000 0.0000 0.0000
# 3 36.2870 35.3613 63.0564 0.0000 0.0000 0.0000
# 4 0.0000 0.0000 0.0000 46.6567 0.0000 0.0000
# 5 0.0000 0.0000 0.0000 0.0000 10.3012 0.0000
# 6 0.0000 0.0000 0.0000 0.0000 0.0000 -34.4853
#
#
#
# Elastic Compliance Matrix: (Units=1/GPa)
#
#
# Indices 1 2 3 4 5 6 
#
# 1 0.020487 -0.010275 -0.006027 0.000000 0.000000 0.000000
# 2 -0.010275 0.010373 0.000096 0.000000 0.000000 0.000000
# 3 -0.006027 0.000096 0.019273 0.000000 0.000000 0.000000
# 4 0.000000 0.000000 0.000000 0.021433 0.000000 0.000000
# 5 0.000000 0.000000 0.000000 0.000000 0.097076 0.000000
# 6 0.000000 0.000000 0.000000 0.000000 0.000000 -0.028998
#
#
# Mechanical properties :
#
#
# Convention : Reuss Voigt Hill
#
# Bulk Modulus (GPa) = 56.43262 85.39734 70.91498
# Shear Modulus (GPa) = 28.09557 18.11355 23.10456
#
# Velocity S-wave (km/s) = 3.78482 3.03898 3.43222
# Velocity P-wave (km/s) = 6.91901 7.47361 7.20165
#
# Compressibility (1/GPa) = 0.01772025
#
# Stress axis : x y z
#
# Youngs Moduli (GPa) = 48.81125 96.40651 51.88489
#
# Poissons Ratio (x) = 0.99061 0.31273
# Poissons Ratio (y) = 0.50155 -0.00499
# Poissons Ratio (z) = 0.29420 -0.00928
#
# Static dielectric constant tensor:
#      x y z
#    x 1.660270 0.000000 0.000000 
#    y 0.000000 1.662240 0.000000 
#    z 0.000000 0.000000 1.743350 
# 
# From -- ./inp_files/26479.got.cif
#   From: 2010.05.17/outbox.cif.g08.bks.cpg/sg47_14_cif.got.tgz:26479.got - 2010.06.03 20:15:42.
