data_PCOD9387387
_publ_section_title
;
Structure prediction by ZEFSAII (Michael W. Deem and Ramdas Pophale) SiO2 
 PCOD9387387
Probable space group: P M M M
;
_chemical_formula_sum "Si O2"
_cell_formula_units_Z 56
_cell_length_a 9.288554
_cell_length_b 21.033588
_cell_length_c 15.375888
_cell_angle_alpha 90.000000
_cell_angle_beta 90.000000
_cell_angle_gamma 90.000000
_cell_volume 3004.012116
_symmetry_space_group_name_H-M "P M M M"
_symmetry_group_IT_number 47
_symmetry_cell_setting 'orthorhombic'
loop_
_space_group_symop_operation_xyz
x,y,z
-x,-y,z
x,-y,-z
-x,y,-z
-x,-y,-z
x,y,-z
-x,y,z
x,-y,z
loop_
_atom_site_type_symbol
_atom_site_label
_atom_site_fract_x
_atom_site_fract_y
_atom_site_fract_z
Si Si1 0.671147 0.072114 0.358591
Si Si2 0.825398 0.500000 0.100658
Si Si3 0.161607 0.924041 0.000000
Si Si4 0.668278 0.576884 0.598253
Si Si5 0.168405 0.800414 0.598377
Si Si6 0.665376 0.118471 0.165931
Si Si7 0.173182 0.383239 0.226276
Si Si8 0.669302 0.741845 0.242497
O O1 0.500000 0.083415 0.375233
O O2 0.765480 0.128376 0.398526
O O3 0.692892 0.079842 0.254773
O O4 0.705109 0.000000 0.385753
O O5 0.784495 0.561801 0.157594
O O6 0.000000 0.500000 0.097424
O O7 0.774616 0.500000 0.000000
O O8 0.237604 0.901039 0.086815
O O9 0.000000 0.900025 0.000000
O O10 0.162620 0.000000 0.000000
O O11 0.711106 0.597106 0.500000
O O12 0.500000 0.594794 0.611085
O O13 0.674455 0.500000 0.599642
O O14 0.764476 0.600952 0.677798
O O15 0.178731 0.776638 0.500000
O O16 0.259979 0.758071 0.664396
O O17 0.000000 0.801810 0.623984
O O18 0.500000 0.107086 0.141876
O O19 0.683163 0.192550 0.189637
O O20 0.244648 0.316373 0.201456
O O21 0.000000 0.379543 0.229419
O O22 0.500000 0.727589 0.251185
#
# Coordination Sequence:
#
# PCOD9387387 Si02
#       8
#     8   4   4   8   8   8   8   8
#     4   9  18  33  54  79 107 144 189 233 280 334
#     4   9  20  40  62  87 120 152 185 227 278 339
#     4  11  23  35  53  85 117 142 175 222 277 337
#     4   9  18  33  54  81 115 153 189 228 278 335
#     4  10  21  36  54  79 112 148 189 236 281 330
#     4   9  19  37  57  76 104 143 185 228 275 329
#     4  11  21  36  61  89 117 151 190 235 285 337
#     4  10  22  40  60  81 109 147 189 233 280 334
#
# _framework density 18.641736000000002
#
# number of rings (size 3 to 8) (size 9 to 14) (size 15 to 20)
#    0.000    2.286    0.714    3.214    0.000    6.571 
#    1.286    2.143    0.000    3.000    0.000    0.000 
#    0.000    0.000    0.000    0.000    0.000    0.000 
#
# Total GULP energy -312557.583341 kJ/mol
# GULP energy per Si atom -5581.385417 kJ/mol
# Density = 1.859931 g / cm^3
# Si number density = 18.641736 Si / 1000 Ang^3
#
#
#
# Elastic Constant Matrix: (Units=GPa)
#
#
# Indices 1 2 3 4 5 6 
#
# 1 79.4899 27.8596 53.5205 0.0000 0.0000 0.0000
# 2 27.8596 75.9621 19.1264 0.0000 0.0000 0.0000
# 3 53.5205 19.1264 89.5665 0.0000 0.0000 0.0000
# 4 0.0000 0.0000 0.0000 -3.3599 0.0000 0.0000
# 5 0.0000 0.0000 0.0000 0.0000 23.5347 0.0000
# 6 0.0000 0.0000 0.0000 0.0000 0.0000 31.9376
#
#
#
# Elastic Compliance Matrix: (Units=1/GPa)
#
#
# Indices 1 2 3 4 5 6 
#
# 1 0.022856 -0.005225 -0.012542 0.000000 0.000000 0.000000
# 2 -0.005225 0.015107 -0.000104 0.000000 0.000000 0.000000
# 3 -0.012542 -0.000104 0.018681 0.000000 0.000000 0.000000
# 4 0.000000 0.000000 0.000000 -0.297626 0.000000 0.000000
# 5 0.000000 0.000000 0.000000 0.000000 0.042491 0.000000
# 6 0.000000 0.000000 0.000000 0.000000 0.000000 0.031311
#
#
# Mechanical properties :
#
#
# Convention : Reuss Voigt Hill
#
# Bulk Modulus (GPa) = 47.83954 49.55906 48.69930
# Shear Modulus (GPa) = -40.16956 20.05660 -10.05648
#
# Velocity S-wave (km/s) = -4.64704 3.28365 -2.32515
# Velocity P-wave (km/s) = 1.75356 6.40462 4.35570
#
# Compressibility (1/GPa) = 0.02090321
#
# Stress axis : x y z
#
# Youngs Moduli (GPa) = 43.75284 66.19535 53.52914
#
# Poissons Ratio (x) = 0.34584 0.67135
# Poissons Ratio (y) = 0.22859 0.00557
# Poissons Ratio (z) = 0.54874 0.00688
#
# Static dielectric constant tensor:
#      x y z
#    x 1.624720 0.000000 0.000000 
#    y 0.000000 1.653990 0.000000 
#    z 0.000000 0.000000 1.649910 
# 
# From -- ./inp_files/21654.got.cif
#   From: 2010.05.17/outbox.cif.g08.bks.cpg/sg47_11_cif.got.tgz:21654.got - 2010.06.03 20:15:42.
