data_PCOD9387286
_publ_section_title
;
Structure prediction by ZEFSAII (Michael W. Deem and Ramdas Pophale) SiO2 
 PCOD9387286
Probable space group: P M M M
;
_chemical_formula_sum "Si O2"
_cell_formula_units_Z 64
_cell_length_a 24.672339
_cell_length_b 15.650964
_cell_length_c 8.320083
_cell_angle_alpha 90.000000
_cell_angle_beta 90.000000
_cell_angle_gamma 90.000000
_cell_volume 3212.765851
_symmetry_space_group_name_H-M "P M M M"
_symmetry_group_IT_number 47
_symmetry_cell_setting 'orthorhombic'
loop_
_space_group_symop_operation_xyz
x,y,z
-x,-y,z
x,-y,-z
-x,y,-z
-x,-y,-z
x,y,-z
-x,y,z
x,-y,z
loop_
_atom_site_type_symbol
_atom_site_label
_atom_site_fract_x
_atom_site_fract_y
_atom_site_fract_z
Si Si1 0.226929 0.592869 0.309586
Si Si2 0.561053 0.398084 0.809369
Si Si3 0.666624 0.319000 0.682209
Si Si4 0.936759 0.596492 0.195839
Si Si5 0.149308 0.734132 0.187898
Si Si6 0.441047 0.897263 0.812579
Si Si7 0.677852 0.857210 0.184151
Si Si8 0.204237 0.905908 0.691231
O O1 0.213786 0.599582 0.500000
O O2 0.210014 0.500000 0.249601
O O3 0.291370 0.604139 0.296031
O O4 0.199005 0.669758 0.218132
O O5 0.500000 0.372071 0.767873
O O6 0.565520 0.500000 0.784303
O O7 0.606168 0.349271 0.711462
O O8 0.569037 0.382575 0.000000
O O9 0.674313 0.286445 0.500000
O O10 0.681955 0.244514 0.803541
O O11 0.920272 0.500000 0.249551
O O12 0.900598 0.676229 0.254600
O O13 0.000000 0.607384 0.236870
O O14 0.932894 0.595802 0.000000
O O15 0.167419 0.826116 0.254080
O O16 0.139445 0.746272 0.000000
O O17 0.500000 0.868300 0.745033
O O18 0.382020 0.874980 0.741696
O O19 0.442592 0.000000 0.813573
O O20 0.440028 0.867767 0.000000
O O21 0.732548 0.892929 0.261597
O O22 0.676520 0.887585 0.000000
O O23 0.201743 0.906649 0.500000
O O24 0.187118 0.000000 0.752767
#
# Coordination Sequence:
#
# PCOD9387286 Si02
#       8
#     8   8   8   8   8   8   8   8
#     4  10  21  36  53  75 111 155 188 223 277 336
#     4   9  19  36  55  73  95 128 175 231 285 335
#     4  11  22  35  51  73 105 142 179 219 274 343
#     4   8  15  30  54  88 130 167 194 227 277 333
#     4  11  21  34  58  90 118 149 195 243 283 331
#     4   8  15  29  49  73  99 125 157 206 272 340
#     4  11  21  34  55  81 106 135 179 234 287 341
#     4  11  24  41  59  79 110 154 197 240 296 354
#
# _framework density 19.920532000000001
#
# number of rings (size 3 to 8) (size 9 to 14) (size 15 to 20)
#    0.000    2.125    1.250    3.750    0.000    4.250 
#    0.000    1.875    0.000    3.000    0.000   11.375 
#    0.000    0.000    0.000    0.000    0.000    0.000 
#
# Total GULP energy -356824.327872 kJ/mol
# GULP energy per Si atom -5575.380123 kJ/mol
# Density = 1.987519 g / cm^3
# Si number density = 19.920532 Si / 1000 Ang^3
#
#
#
# Elastic Constant Matrix: (Units=GPa)
#
#
# Indices 1 2 3 4 5 6 
#
# 1 115.0390 62.0050 13.0451 0.0000 0.0000 0.0000
# 2 62.0050 129.0926 21.6085 0.0000 0.0000 0.0000
# 3 13.0451 21.6085 16.1707 0.0000 0.0000 0.0000
# 4 0.0000 0.0000 0.0000 11.8750 0.0000 0.0000
# 5 0.0000 0.0000 0.0000 0.0000 1735.0729 0.0000
# 6 0.0000 0.0000 0.0000 0.0000 0.0000 35.5362
#
#
#
# Elastic Compliance Matrix: (Units=1/GPa)
#
#
# Indices 1 2 3 4 5 6 
#
# 1 0.011808 -0.005252 -0.002508 0.000000 0.000000 0.000000
# 2 -0.005252 0.012314 -0.012218 0.000000 0.000000 0.000000
# 3 -0.002508 -0.012218 0.080190 0.000000 0.000000 0.000000
# 4 0.000000 0.000000 0.000000 0.084211 0.000000 0.000000
# 5 0.000000 0.000000 0.000000 0.000000 0.000576 0.000000
# 6 0.000000 0.000000 0.000000 0.000000 0.000000 0.028140
#
#
# Mechanical properties :
#
#
# Convention : Reuss Voigt Hill
#
# Bulk Modulus (GPa) = 15.53843 50.40217 32.97030
# Shear Modulus (GPa) = 17.94383 367.40640 192.67511
#
# Velocity S-wave (km/s) = 3.00454 13.59546 9.84540
# Velocity P-wave (km/s) = 4.45573 16.48651 12.07598
#
# Compressibility (1/GPa) = 0.06435655
#
# Stress axis : x y z
#
# Youngs Moduli (GPa) = 84.69084 81.20838 12.47031
#
# Poissons Ratio (x) = 0.42647 0.03127
# Poissons Ratio (y) = 0.44476 0.15237
# Poissons Ratio (z) = 0.21239 0.99223
#
# Static dielectric constant tensor:
#      x y z
#    x 1.736570 0.000000 0.000000 
#    y 0.000000 1.723250 0.000000 
#    z 0.000000 0.000000 1.718580 
# 
# From -- ./inp_files/12697.got.cif
#   From: 2010.05.17/outbox.cif.g08.bks.cpg/sg47_7_cif.got.tgz:12697.got - 2010.06.03 20:15:42.
