data_PCOD9387554
_publ_section_title
;
Structure prediction by ZEFSAII (Michael W. Deem and Ramdas Pophale) SiO2 
 PCOD9387554
Probable space group: P M M M
;
_chemical_formula_sum "Si O2"
_cell_formula_units_Z 40
_cell_length_a 8.653420
_cell_length_b 9.761296
_cell_length_c 26.307019
_cell_angle_alpha 90.000000
_cell_angle_beta 90.000000
_cell_angle_gamma 90.000000
_cell_volume 2222.116908
_symmetry_space_group_name_H-M "P M M M"
_symmetry_group_IT_number 47
_symmetry_cell_setting 'orthorhombic'
loop_
_space_group_symop_operation_xyz
x,y,z
-x,-y,z
x,-y,-z
-x,y,-z
-x,-y,-z
x,y,-z
-x,y,z
x,-y,z
loop_
_atom_site_type_symbol
_atom_site_label
_atom_site_fract_x
_atom_site_fract_y
_atom_site_fract_z
Si Si1 0.186103 0.339938 0.651293
Si Si2 0.811739 0.158948 0.556622
Si Si3 0.815013 0.158006 0.852108
Si Si4 0.315079 0.658980 0.761380
Si Si5 0.313657 0.342771 0.058955
O O1 0.221244 0.500000 0.642540
O O2 0.240864 0.250737 0.603555
O O3 0.259131 0.300036 0.705148
O O4 0.000000 0.326422 0.655389
O O5 0.762079 0.203979 0.500000
O O6 0.000000 0.163578 0.556703
O O7 0.767910 0.000000 0.563205
O O8 0.752306 0.242550 0.804133
O O9 0.758937 0.235793 0.902558
O O10 0.000000 0.158995 0.850615
O O11 0.761889 0.000000 0.851263
O O12 0.500000 0.662426 0.763678
O O13 0.265564 0.500000 0.769695
O O14 0.500000 0.335663 0.062675
O O15 0.269138 0.500000 0.071755
O O16 0.272042 0.317961 0.000000
#
# Coordination Sequence:
#
# PCOD9387554 Si02
#       5
#     8   8   8   8   8
#     4   9  17  29  47  72  99 126 160 205 254 301
#     4   8  14  25  42  66  96 128 161 199 245 296
#     4  11  24  38  53  78 110 140 172 213 259 305
#     4  10  21  37  56  76 100 133 173 215 259 310
#     4   9  19  37  60  84 109 139 176 214 252 299
#
# _framework density 18.000854
#
# number of rings (size 3 to 8) (size 9 to 14) (size 15 to 20)
#    0.000    2.600    0.000    3.000    0.000    7.600 
#    0.000    7.000    0.000    0.600    0.000    4.200 
#    0.000    0.000    0.000    0.000    0.000    0.000 
#
# Total GULP energy -223162.386709 kJ/mol
# GULP energy per Si atom -5579.059668 kJ/mol
# Density = 1.795988 g / cm^3
# Si number density = 18.000854 Si / 1000 Ang^3
#
#
#
# Elastic Constant Matrix: (Units=GPa)
#
#
# Indices 1 2 3 4 5 6 
#
# 1 18.7188 33.9493 39.3801 0.0000 0.0000 0.0000
# 2 33.9493 122.8704 121.3475 0.0000 0.0000 0.0000
# 3 39.3801 121.3475 171.0869 0.0000 0.0000 0.0000
# 4 0.0000 0.0000 0.0000 -106.4598 0.0000 0.0000
# 5 0.0000 0.0000 0.0000 0.0000 60.0044 0.0000
# 6 0.0000 0.0000 0.0000 0.0000 0.0000 20.3405
#
#
#
# Elastic Compliance Matrix: (Units=1/GPa)
#
#
# Indices 1 2 3 4 5 6 
#
# 1 0.115336 -0.018860 -0.013170 0.000000 0.000000 0.000000
# 2 -0.018860 0.030257 -0.017119 0.000000 0.000000 0.000000
# 3 -0.013170 -0.017119 0.021019 0.000000 0.000000 0.000000
# 4 0.000000 0.000000 0.000000 -0.009393 0.000000 0.000000
# 5 0.000000 0.000000 0.000000 0.000000 0.016665 0.000000
# 6 0.000000 0.000000 0.000000 0.000000 0.000000 0.049163
#
#
# Mechanical properties :
#
#
# Convention : Reuss Voigt Hill
#
# Bulk Modulus (GPa) = 14.63884 78.00330 46.32107
# Shear Modulus (GPa) = 14.52998 2.64364 8.58681
#
# Velocity S-wave (km/s) = 2.84418 1.21318 2.18645
# Velocity P-wave (km/s) = 4.35152 6.73718 5.67121
#
# Compressibility (1/GPa) = 0.06831144
#
# Stress axis : x y z
#
# Youngs Moduli (GPa) = 8.67035 33.05051 47.57689
#
# Poissons Ratio (x) = 0.62334 0.62660
# Poissons Ratio (y) = 0.16353 0.81447
# Poissons Ratio (z) = 0.11419 0.56580
#
# Static dielectric constant tensor:
#      x y z
#    x 1.612260 0.000000 0.000000 
#    y 0.000000 1.605180 0.000000 
#    z 0.000000 0.000000 1.600330 
# 
# From -- ./inp_files/1368.got.cif
#   From: 2010.05.17/outbox.cif.g08.bks.cpg/sg47_1_cif.got.tgz:1368.got - 2010.06.03 20:15:42.
