data_PCOD9387564
_publ_section_title
;
Structure prediction by ZEFSAII (Michael W. Deem and Ramdas Pophale) SiO2 
 PCOD9387564
Probable space group: P M M M
;
_chemical_formula_sum "Si O2"
_cell_formula_units_Z 44
_cell_length_a 7.580609
_cell_length_b 29.974964
_cell_length_c 9.476911
_cell_angle_alpha 90.000000
_cell_angle_beta 90.000000
_cell_angle_gamma 90.000000
_cell_volume 2153.424099
_symmetry_space_group_name_H-M "P M M M"
_symmetry_group_IT_number 47
_symmetry_cell_setting 'orthorhombic'
loop_
_space_group_symop_operation_xyz
x,y,z
-x,-y,z
x,-y,-z
-x,y,-z
-x,-y,-z
x,y,-z
-x,y,z
x,-y,z
loop_
_atom_site_type_symbol
_atom_site_label
_atom_site_fract_x
_atom_site_fract_y
_atom_site_fract_z
Si Si1 0.215339 0.634852 0.335300
Si Si2 0.709700 0.170700 0.661265
Si Si3 0.215214 0.450757 0.835984
Si Si4 0.710744 0.912221 0.159567
Si Si5 0.787959 0.268202 0.336157
Si Si6 0.789936 0.000000 0.339682
O O1 0.264159 0.631922 0.500000
O O2 0.278203 0.591734 0.251264
O O3 0.271445 0.683694 0.278418
O O4 0.000000 0.634326 0.330546
O O5 0.781435 0.169264 0.500000
O O6 0.500000 0.164043 0.649942
O O7 0.781604 0.131143 0.758145
O O8 0.735481 0.220310 0.723689
O O9 0.270777 0.500000 0.784674
O O10 0.000000 0.450385 0.831219
O O11 0.264925 0.446759 0.000000
O O12 0.500000 0.906461 0.148026
O O13 0.738774 0.956102 0.252895
O O14 0.780226 0.916968 0.000000
O O15 0.728080 0.267347 0.500000
O O16 0.000000 0.268998 0.336213
O O17 0.718191 0.000000 0.500000
O O18 0.000000 0.000000 0.349385
#
# Coordination Sequence:
#
# PCOD9387564 Si02
#       6
#     8   8   8   8   8   4
#     4   8  13  21  33  49  70  99 135 171 208 254
#     4   9  17  30  49  71  93 120 156 193 226 266
#     4   8  13  20  29  43  67  99 131 164 206 255
#     4  10  21  37  56  77 102 132 163 196 237 281
#     4   8  14  25  41  61  86 115 145 180 223 267
#     4  11  24  39  56  80 106 131 162 199 236 276
#
# _framework density 20.432576000000001
#
# number of rings (size 3 to 8) (size 9 to 14) (size 15 to 20)
#    0.000    3.182    0.000    2.727    0.000    4.000 
#    0.000    4.545    0.000    1.091    0.000    0.000 
#    0.000    0.727    0.000    9.091    0.000   10.545 
#
# Total GULP energy -245190.719044 kJ/mol
# GULP energy per Si atom -5572.516342 kJ/mol
# Density = 2.038607 g / cm^3
# Si number density = 20.432576 Si / 1000 Ang^3
#
#
#
# Elastic Constant Matrix: (Units=GPa)
#
#
# Indices 1 2 3 4 5 6 
#
# 1 43.2135 0.9998 5.3523 0.0000 0.0000 0.0000
# 2 0.9998 251.6356 105.7908 0.0000 0.0000 0.0000
# 3 5.3523 105.7908 101.2196 0.0000 0.0000 0.0000
# 4 0.0000 0.0000 0.0000 -31.5237 0.0000 0.0000
# 5 0.0000 0.0000 0.0000 0.0000 2.3310 0.0000
# 6 0.0000 0.0000 0.0000 0.0000 0.0000 19.1904
#
#
#
# Elastic Compliance Matrix: (Units=1/GPa)
#
#
# Indices 1 2 3 4 5 6 
#
# 1 0.023375 0.000761 -0.002032 0.000000 0.000000 0.000000
# 2 0.000761 0.007114 -0.007475 0.000000 0.000000 0.000000
# 3 -0.002032 -0.007475 0.017800 0.000000 0.000000 0.000000
# 4 0.000000 0.000000 0.000000 -0.031722 0.000000 0.000000
# 5 0.000000 0.000000 0.000000 0.000000 0.429009 0.000000
# 6 0.000000 0.000000 0.000000 0.000000 0.000000 0.052109
#
#
# Mechanical properties :
#
#
# Convention : Reuss Voigt Hill
#
# Bulk Modulus (GPa) = 32.47054 68.92829 50.69941
# Shear Modulus (GPa) = 9.51582 16.92792 13.22187
#
# Velocity S-wave (km/s) = 2.16039 2.88145 2.54657
# Velocity P-wave (km/s) = 4.70628 6.69911 5.78909
#
# Compressibility (1/GPa) = 0.03079715
#
# Stress axis : x y z
#
# Youngs Moduli (GPa) = 42.78086 140.57544 56.18083
#
# Poissons Ratio (x) = -0.10701 0.11414
# Poissons Ratio (y) = -0.03257 0.41996
# Poissons Ratio (z) = 0.08692 1.05082
#
# Static dielectric constant tensor:
#      x y z
#    x 1.777070 0.000000 0.000000 
#    y 0.000000 1.752180 0.000000 
#    z 0.000000 0.000000 1.706560 
# 
# From -- ./inp_files/2160.got.cif
#   From: 2010.05.17/outbox.cif.g08.bks.cpg/sg47_2_cif.got.tgz:2160.got - 2010.06.03 20:15:42.
