data_PCOD9387987
_publ_section_title
;
Structure prediction by ZEFSAII (Michael W. Deem and Ramdas Pophale) SiO2 
 PCOD9387987
Probable space group: P M M M
;
_chemical_formula_sum "Si O2"
_cell_formula_units_Z 41
_cell_length_a 28.043176
_cell_length_b 9.865854
_cell_length_c 7.785405
_cell_angle_alpha 90.000000
_cell_angle_beta 90.000000
_cell_angle_gamma 90.000000
_cell_volume 2153.987068
_symmetry_space_group_name_H-M "P M M M"
_symmetry_group_IT_number 47
_symmetry_cell_setting 'orthorhombic'
loop_
_space_group_symop_operation_xyz
x,y,z
-x,-y,z
x,-y,-z
-x,y,-z
-x,-y,-z
x,y,-z
-x,y,z
x,-y,z
loop_
_atom_site_type_symbol
_atom_site_label
_atom_site_fract_x
_atom_site_fract_y
_atom_site_fract_z
Si Si1 0.622290 0.164844 0.308449
Si Si2 0.000000 0.734358 0.294857
Si Si3 0.000000 0.500000 0.000000
Si Si4 0.270746 0.844052 0.791678
Si Si5 0.445176 0.165732 0.000000
Si Si6 0.896440 0.148717 0.295314
Si Si7 0.813843 0.347494 0.795968
O O1 0.609724 0.208801 0.500000
O O2 0.676738 0.202149 0.265196
O O3 0.584706 0.210216 0.166239
O O4 0.621955 0.000000 0.304317
O O5 0.048129 0.819862 0.266981
O O6 0.000000 0.692329 0.500000
O O7 0.000000 0.616698 0.153757
O O8 0.229118 0.745654 0.727773
O O9 0.263140 0.000000 0.734575
O O10 0.270464 0.845732 0.000000
O O11 0.500000 0.209671 0.000000
O O12 0.445415 0.000000 0.000000
O O13 0.889160 0.146027 0.500000
O O14 0.863119 0.267811 0.227276
O O15 0.883362 0.000000 0.225269
O O16 0.815353 0.500000 0.724883
O O17 0.805855 0.358258 0.000000
#
# Coordination Sequence:
#
# PCOD9387987 Si02
#       7
#     8   4   1   8   4   8   8
#     4   9  16  26  43  67  95 132 180 225 266 322
#     4  10  24  43  65  91 122 155 194 240 282 338
#     4  12  26  40  66  94 120 152 188 228 288 350
#     4   9  16  30  50  70  99 142 184 226 275 327
#     4   9  16  26  40  63 101 141 175 217 271 325
#     4  10  22  41  62  83 113 152 192 237 287 337
#     4  10  22  36  54  82 116 146 182 231 285 345
#
# _framework density 19.034469999999999
#
# number of rings (size 3 to 8) (size 9 to 14) (size 15 to 20)
#    0.000    2.439    0.976    1.024    2.732    3.902 
#    0.000    4.390    0.000    0.000    0.000    0.000 
#    0.000    1.561    0.000    1.756    0.000    1.951 
#
# Total GULP energy -228427.492394 kJ/mol
# GULP energy per Si atom -5571.402254 kJ/mol
# Density = 1.899115 g / cm^3
# Si number density = 19.034470 Si / 1000 Ang^3
#
#
#
# Elastic Constant Matrix: (Units=GPa)
#
#
# Indices 1 2 3 4 5 6 
#
# 1 155.1518 55.4721 40.0534 0.0000 0.0000 0.0000
# 2 55.4721 97.0572 30.0591 0.0000 0.0000 0.0000
# 3 40.0534 30.0591 69.6971 0.0000 0.0000 0.0000
# 4 0.0000 0.0000 0.0000 12.0868 0.0000 0.0000
# 5 0.0000 0.0000 0.0000 0.0000 129.9549 0.0000
# 6 0.0000 0.0000 0.0000 0.0000 0.0000 -11.9149
#
#
#
# Elastic Compliance Matrix: (Units=1/GPa)
#
#
# Indices 1 2 3 4 5 6 
#
# 1 0.008712 -0.003957 -0.003300 0.000000 0.000000 0.000000
# 2 -0.003957 0.013689 -0.003630 0.000000 0.000000 0.000000
# 3 -0.003300 -0.003630 0.017810 0.000000 0.000000 0.000000
# 4 0.000000 0.000000 0.000000 0.082735 0.000000 0.000000
# 5 0.000000 0.000000 0.000000 0.000000 0.007695 0.000000
# 6 0.000000 0.000000 0.000000 0.000000 0.000000 -0.083928
#
#
# Mechanical properties :
#
#
# Convention : Reuss Voigt Hill
#
# Bulk Modulus (GPa) = 54.23890 63.67504 58.95697
# Shear Modulus (GPa) = 66.99542 39.11346 53.05444
#
# Velocity S-wave (km/s) = 5.93913 4.53799 5.28520
# Velocity P-wave (km/s) = 8.69414 7.80916 8.26350
#
# Compressibility (1/GPa) = 0.01843695
#
# Stress axis : x y z
#
# Youngs Moduli (GPa) = 114.78345 73.05091 56.14942
#
# Poissons Ratio (x) = 0.28908 0.18529
# Poissons Ratio (y) = 0.45423 0.20381
# Poissons Ratio (z) = 0.37878 0.26515
#
# Static dielectric constant tensor:
#      x y z
#    x 1.638610 0.000000 0.000000 
#    y 0.000000 1.659580 0.000000 
#    z 0.000000 0.000000 1.693990 
# 
# From -- ./inp_files/13133.got.cif
#   From: 2010.05.17/outbox.cif.g08.bks.cpg/sg47_7_cif.got.tgz:13133.got - 2010.06.03 20:15:42.
