data_PCOD9387965
_publ_section_title
;
Structure prediction by ZEFSAII (Michael W. Deem and Ramdas Pophale) SiO2 
 PCOD9387965
Probable space group: P M M M
;
_chemical_formula_sum "Si O2"
_cell_formula_units_Z 56
_cell_length_a 14.959925
_cell_length_b 23.272700
_cell_length_c 8.075734
_cell_angle_alpha 90.000000
_cell_angle_beta 90.000000
_cell_angle_gamma 90.000000
_cell_volume 2811.630159
_symmetry_space_group_name_H-M "P M M M"
_symmetry_group_IT_number 47
_symmetry_cell_setting 'orthorhombic'
loop_
_space_group_symop_operation_xyz
x,y,z
-x,-y,z
x,-y,-z
-x,y,-z
-x,-y,-z
x,y,-z
-x,y,z
x,-y,z
loop_
_atom_site_type_symbol
_atom_site_label
_atom_site_fract_x
_atom_site_fract_y
_atom_site_fract_z
Si Si1 0.104528 0.627050 0.798662
Si Si2 0.395505 0.064557 0.300021
Si Si3 0.891054 0.500000 0.192737
Si Si4 0.247754 0.846569 0.803290
Si Si5 0.394219 0.636723 0.181438
Si Si6 0.609043 0.564212 0.500000
Si Si7 0.102534 0.063878 0.202009
Si Si8 0.253696 0.283017 0.308494
O O1 0.134092 0.562957 0.738599
O O2 0.167966 0.677768 0.735692
O O3 0.000000 0.635449 0.753315
O O4 0.108607 0.626429 0.000000
O O5 0.389407 0.065937 0.500000
O O6 0.500000 0.070862 0.256267
O O7 0.336292 0.115968 0.230193
O O8 0.366659 0.000000 0.245495
O O9 0.000000 0.500000 0.193829
O O10 0.862743 0.500000 0.000000
O O11 0.167757 0.886855 0.739160
O O12 0.242891 0.784232 0.723204
O O13 0.238034 0.838728 0.000000
O O14 0.500000 0.648265 0.197076
O O15 0.365627 0.596289 0.332040
O O16 0.335730 0.693476 0.200023
O O17 0.378681 0.610570 0.000000
O O18 0.643805 0.500000 0.500000
O O19 0.500000 0.562491 0.500000
O O20 0.000000 0.072946 0.250956
O O21 0.130424 0.000000 0.256069
O O22 0.104893 0.063955 0.000000
O O23 0.275880 0.292088 0.500000
#
# Coordination Sequence:
#
# PCOD9387965 Si02
#       8
#     8   8   4   8   8   4   8   8
#     4   9  18  36  61  86 114 148 189 240 296 356
#     4   9  19  37  59  83 114 151 186 222 276 345
#     4   7  12  28  57  87 110 137 178 231 291 351
#     4  11  22  35  55  83 112 145 191 242 291 344
#     4  10  21  40  64  87 117 158 201 247 300 358
#     4   9  18  36  62  92 123 153 192 243 299 359
#     4   8  15  30  53  81 111 141 176 223 282 346
#     4  12  25  40  56  79 116 158 203 251 300 358
#
# _framework density 19.917272000000001
#
# number of rings (size 3 to 8) (size 9 to 14) (size 15 to 20)
#    0.000    2.429    0.714    3.857    0.000    2.857 
#    1.286    3.929    0.000    2.571    0.000    5.000 
#    0.000    0.000    0.000    0.000    0.000    0.000 
#
# Total GULP energy -312484.573449 kJ/mol
# GULP energy per Si atom -5580.081669 kJ/mol
# Density = 1.987194 g / cm^3
# Si number density = 19.917272 Si / 1000 Ang^3
#
#
#
# Elastic Constant Matrix: (Units=GPa)
#
#
# Indices 1 2 3 4 5 6 
#
# 1 66.5029 64.0756 24.2565 0.0000 0.0000 0.0000
# 2 64.0756 170.0043 35.2285 0.0000 0.0000 0.0000
# 3 24.2565 35.2285 68.1508 0.0000 0.0000 0.0000
# 4 0.0000 0.0000 0.0000 34.9155 0.0000 0.0000
# 5 0.0000 0.0000 0.0000 0.0000 28.0713 0.0000
# 6 0.0000 0.0000 0.0000 0.0000 0.0000 63.6635
#
#
#
# Elastic Compliance Matrix: (Units=1/GPa)
#
#
# Indices 1 2 3 4 5 6 
#
# 1 0.024770 -0.008410 -0.004469 0.000000 0.000000 0.000000
# 2 -0.008410 0.009443 -0.001888 0.000000 0.000000 0.000000
# 3 -0.004469 -0.001888 0.017240 0.000000 0.000000 0.000000
# 4 0.000000 0.000000 0.000000 0.028641 0.000000 0.000000
# 5 0.000000 0.000000 0.000000 0.000000 0.035624 0.000000
# 6 0.000000 0.000000 0.000000 0.000000 0.000000 0.015708
#
#
# Mechanical properties :
#
#
# Convention : Reuss Voigt Hill
#
# Bulk Modulus (GPa) = 45.62221 61.30881 53.46551
# Shear Modulus (GPa) = 29.71504 37.40322 33.55913
#
# Velocity S-wave (km/s) = 3.86673 4.33821 4.10924
# Velocity P-wave (km/s) = 6.54913 7.47944 7.02969
#
# Compressibility (1/GPa) = 0.02191915
#
# Stress axis : x y z
#
# Youngs Moduli (GPa) = 40.37164 105.89658 58.00481
#
# Poissons Ratio (x) = 0.89057 0.25922
# Poissons Ratio (y) = 0.33952 0.10952
# Poissons Ratio (z) = 0.18042 0.19994
#
# Static dielectric constant tensor:
#      x y z
#    x 1.698750 0.000000 0.000000 
#    y 0.000000 1.626140 0.000000 
#    z 0.000000 0.000000 1.720000 
# 
# From -- ./inp_files/7420.got.cif
#   From: 2010.05.17/outbox.cif.g08.bks.cpg/sg47_4_cif.got.tgz:7420.got - 2010.06.03 20:15:42.
