data_PCOD9387884
_publ_section_title
;
Structure prediction by ZEFSAII (Michael W. Deem and Ramdas Pophale) SiO2 
 PCOD9387884
Probable space group: P M M M
;
_chemical_formula_sum "Si O2"
_cell_formula_units_Z 48
_cell_length_a 15.032597
_cell_length_b 9.839316
_cell_length_c 17.163596
_cell_angle_alpha 90.000000
_cell_angle_beta 90.000000
_cell_angle_gamma 90.000000
_cell_volume 2538.675589
_symmetry_space_group_name_H-M "P M M M"
_symmetry_group_IT_number 47
_symmetry_cell_setting 'orthorhombic'
loop_
_space_group_symop_operation_xyz
x,y,z
-x,-y,z
x,-y,-z
-x,y,-z
-x,-y,-z
x,y,-z
-x,y,z
x,-y,z
loop_
_atom_site_type_symbol
_atom_site_label
_atom_site_fract_x
_atom_site_fract_y
_atom_site_fract_z
Si Si1 0.286546 0.744170 0.659505
Si Si2 0.101532 0.661561 0.593805
Si Si3 0.162243 0.844257 0.092563
Si Si4 0.393107 0.000000 0.594415
Si Si5 0.311737 0.335978 0.838317
Si Si6 0.000000 0.657764 0.904471
Si Si7 0.500000 0.336629 0.911393
Si Si8 0.600407 0.500000 0.592126
O O1 0.183524 0.739968 0.632871
O O2 0.292533 0.710596 0.750644
O O3 0.341346 0.626179 0.617390
O O4 0.341217 0.874780 0.632664
O O5 0.108119 0.676233 0.500000
O O6 0.111858 0.500000 0.611085
O O7 0.000000 0.700512 0.616360
O O8 0.249817 0.757203 0.108249
O O9 0.083940 0.746240 0.122589
O O10 0.163395 0.000000 0.123418
O O11 0.148697 0.855765 0.000000
O O12 0.500000 0.000000 0.609983
O O13 0.383187 0.000000 0.500000
O O14 0.296787 0.500000 0.846564
O O15 0.411999 0.303514 0.863635
O O16 0.000000 0.500000 0.878734
O O17 0.000000 0.653557 0.000000
O O18 0.500000 0.500000 0.918338
O O19 0.500000 0.281670 0.000000
O O20 0.500000 0.500000 0.626241
O O21 0.591937 0.500000 0.500000
#
# Coordination Sequence:
#
# PCOD9387884 Si02
#       8
#     8   8   8   4   8   4   4   4
#     4  12  23  39  61  90 126 164 207 263 318 375
#     4   9  17  33  60  90 119 156 204 257 310 365
#     4  10  21  38  61  89 122 163 209 253 309 384
#     4  11  26  44  63  89 127 173 211 250 313 395
#     4  11  23  38  61  91 123 160 204 263 323 370
#     4   9  17  33  61  93 121 155 202 259 312 369
#     4   9  20  38  61  87 118 157 201 251 311 379
#     4  11  22  36  63  93 119 155 205 260 309 369
#
# _framework density 18.907498
#
# number of rings (size 3 to 8) (size 9 to 14) (size 15 to 20)
#    0.000    1.667    1.667    3.750    3.500    4.000 
#    1.500    0.833    0.000    3.000    0.000    0.000 
#    0.000    0.000    0.000    0.000    0.000    0.000 
#
# Total GULP energy -267711.947431 kJ/mol
# GULP energy per Si atom -5577.332238 kJ/mol
# Density = 1.886446 g / cm^3
# Si number density = 18.907498 Si / 1000 Ang^3
#
#
#
# Elastic Constant Matrix: (Units=GPa)
#
#
# Indices 1 2 3 4 5 6 
#
# 1 178.7788 68.0842 21.3172 0.0000 0.0000 0.0000
# 2 68.0842 151.6792 15.2221 0.0000 0.0000 0.0000
# 3 21.3172 15.2221 37.0673 0.0000 0.0000 0.0000
# 4 0.0000 0.0000 0.0000 21.3271 0.0000 0.0000
# 5 0.0000 0.0000 0.0000 0.0000 12.1061 0.0000
# 6 0.0000 0.0000 0.0000 0.0000 0.0000 1828.6153
#
#
#
# Elastic Compliance Matrix: (Units=1/GPa)
#
#
# Indices 1 2 3 4 5 6 
#
# 1 0.007027 -0.002867 -0.002864 0.000000 0.000000 0.000000
# 2 -0.002867 0.008046 -0.001655 0.000000 0.000000 0.000000
# 3 -0.002864 -0.001655 0.029305 0.000000 0.000000 0.000000
# 4 0.000000 0.000000 0.000000 0.046889 0.000000 0.000000
# 5 0.000000 0.000000 0.000000 0.000000 0.082603 0.000000
# 6 0.000000 0.000000 0.000000 0.000000 0.000000 0.000547
#
#
# Mechanical properties :
#
#
# Convention : Reuss Voigt Hill
#
# Bulk Modulus (GPa) = 33.77767 64.08581 48.93174
# Shear Modulus (GPa) = 25.11860 389.93650 207.52755
#
# Velocity S-wave (km/s) = 3.64881 14.37642 10.48798
# Velocity P-wave (km/s) = 5.97120 17.59384 13.13770
#
# Compressibility (1/GPa) = 0.02960535
#
# Stress axis : x y z
#
# Youngs Moduli (GPa) = 142.31463 124.28907 34.12413
#
# Poissons Ratio (x) = 0.35629 0.09772
# Poissons Ratio (y) = 0.40797 0.05649
# Poissons Ratio (z) = 0.40756 0.20576
#
# Static dielectric constant tensor:
#      x y z
#    x 1.678110 0.000000 0.000000 
#    y 0.000000 1.589150 0.000000 
#    z 0.000000 0.000000 1.670830 
# 
# From -- ./inp_files/28085.got.cif
#   From: 2010.05.17/outbox.cif.g08.bks.cpg/sg47_15_cif.got.tgz:28085.got - 2010.06.03 20:15:42.
