data_PCOD9387880
_publ_section_title
;
Structure prediction by ZEFSAII (Michael W. Deem and Ramdas Pophale) SiO2 
 PCOD9387880
Probable space group: P M M M
;
_chemical_formula_sum "Si O2"
_cell_formula_units_Z 40
_cell_length_a 15.982942
_cell_length_b 8.553754
_cell_length_c 14.949838
_cell_angle_alpha 90.000000
_cell_angle_beta 90.000000
_cell_angle_gamma 90.000000
_cell_volume 2043.854456
_symmetry_space_group_name_H-M "P M M M"
_symmetry_group_IT_number 47
_symmetry_cell_setting 'orthorhombic'
loop_
_space_group_symop_operation_xyz
x,y,z
-x,-y,z
x,-y,-z
-x,y,-z
-x,-y,-z
x,y,-z
-x,y,z
x,-y,z
loop_
_atom_site_type_symbol
_atom_site_label
_atom_site_fract_x
_atom_site_fract_y
_atom_site_fract_z
Si Si1 0.098580 0.810270 0.902682
Si Si2 0.500000 0.313316 0.397709
Si Si3 0.343751 0.186300 0.287059
Si Si4 0.399991 0.312585 0.099964
Si Si5 0.158674 0.810527 0.288554
Si Si6 0.000000 0.687234 0.603205
O O1 0.144932 0.756325 0.813989
O O2 0.000000 0.771468 0.894605
O O3 0.103356 0.000000 0.903598
O O4 0.128737 0.754023 0.000000
O O5 0.500000 0.500000 0.399124
O O6 0.500000 0.254754 0.500000
O O7 0.418183 0.258501 0.344497
O O8 0.355832 0.231826 0.183171
O O9 0.251417 0.237543 0.318100
O O10 0.348757 0.000000 0.294493
O O11 0.500000 0.282972 0.107160
O O12 0.388919 0.500000 0.106226
O O13 0.373276 0.262247 0.000000
O O14 0.082706 0.748737 0.347411
O O15 0.155022 0.000000 0.289191
O O16 0.000000 0.500000 0.606450
O O17 0.000000 0.738234 0.500000
#
# Coordination Sequence:
#
# PCOD9387880 Si02
#       6
#     8   4   8   8   8   4
#     4   8  13  25  51  83 113 148 187 224 265 322
#     4  11  25  45  66  83 108 153 199 242 300 365
#     4  11  23  37  60  94 124 151 191 247 303 353
#     4   9  18  34  57  84 119 165 207 239 281 344
#     4  10  21  38  61  89 120 154 191 234 291 352
#     4  11  25  43  62  85 114 150 195 247 296 345
#
# _framework density 19.570865999999999
#
# number of rings (size 3 to 8) (size 9 to 14) (size 15 to 20)
#    0.000    2.200    2.000    2.400    0.000    5.200 
#    0.000    7.000    0.000    1.200    0.000    0.000 
#    0.000    0.000    0.000    0.000    0.000    0.000 
#
# Total GULP energy -223299.630751 kJ/mol
# GULP energy per Si atom -5582.490769 kJ/mol
# Density = 1.952632 g / cm^3
# Si number density = 19.570866 Si / 1000 Ang^3
#
#
#
# Elastic Constant Matrix: (Units=GPa)
#
#
# Indices 1 2 3 4 5 6 
#
# 1 156.4598 33.6296 89.8441 0.0000 0.0000 0.0000
# 2 33.6296 21.5556 25.9541 0.0000 0.0000 0.0000
# 3 89.8441 25.9541 145.2272 0.0000 0.0000 0.0000
# 4 0.0000 0.0000 0.0000 -60.4650 0.0000 0.0000
# 5 0.0000 0.0000 0.0000 0.0000 -6.2091 0.0000
# 6 0.0000 0.0000 0.0000 0.0000 0.0000 -11.3271
#
#
#
# Elastic Compliance Matrix: (Units=1/GPa)
#
#
# Indices 1 2 3 4 5 6 
#
# 1 0.012103 -0.012572 -0.005241 0.000000 0.000000 0.000000
# 2 -0.012572 0.072171 -0.005120 0.000000 0.000000 0.000000
# 3 -0.005241 -0.005120 0.011043 0.000000 0.000000 0.000000
# 4 0.000000 0.000000 0.000000 -0.016538 0.000000 0.000000
# 5 0.000000 0.000000 0.000000 0.000000 -0.161055 0.000000
# 6 0.000000 0.000000 0.000000 0.000000 0.000000 -0.088284
#
#
# Mechanical properties :
#
#
# Convention : Reuss Voigt Hill
#
# Bulk Modulus (GPa) = 20.22207 69.12201 44.67204
# Shear Modulus (GPa) = -46.20651 -4.01259 -25.10955
#
# Velocity S-wave (km/s) = -4.86427 -1.43344 -3.58579
# Velocity P-wave (km/s) = 4.60358 5.71453 2.39404
#
# Compressibility (1/GPa) = 0.04945092
#
# Stress axis : x y z
#
# Youngs Moduli (GPa) = 82.62342 13.85591 90.55588
#
# Poissons Ratio (x) = 0.17420 0.47457
# Poissons Ratio (y) = 1.03878 0.46366
# Poissons Ratio (z) = 0.43300 0.07094
#
# Static dielectric constant tensor:
#      x y z
#    x 1.683310 0.000000 0.000000 
#    y 0.000000 1.661770 0.000000 
#    z 0.000000 0.000000 1.687050 
# 
# From -- ./inp_files/20731.got.cif
#   From: 2010.05.17/outbox.cif.g08.bks.cpg/sg47_11_cif.got.tgz:20731.got - 2010.06.03 20:15:42.
