data_PCOD9387537
_publ_section_title
;
Structure prediction by ZEFSAII (Michael W. Deem and Ramdas Pophale) SiO2 
 PCOD9387537
Probable space group: P M M M
;
_chemical_formula_sum "Si O2"
_cell_formula_units_Z 56
_cell_length_a 14.562585
_cell_length_b 21.807503
_cell_length_c 8.781724
_cell_angle_alpha 90.000000
_cell_angle_beta 90.000000
_cell_angle_gamma 90.000000
_cell_volume 2788.843846
_symmetry_space_group_name_H-M "P M M M"
_symmetry_group_IT_number 47
_symmetry_cell_setting 'orthorhombic'
loop_
_space_group_symop_operation_xyz
x,y,z
-x,-y,z
x,-y,-z
-x,y,-z
-x,-y,-z
x,y,-z
-x,y,z
x,-y,z
loop_
_atom_site_type_symbol
_atom_site_label
_atom_site_fract_x
_atom_site_fract_y
_atom_site_fract_z
Si Si1 0.888348 0.067909 0.675560
Si Si2 0.387568 0.000000 0.322122
Si Si3 0.607049 0.133171 0.314036
Si Si4 0.713175 0.620963 0.818937
Si Si5 0.895960 0.426640 0.681156
Si Si6 0.394563 0.500000 0.185776
Si Si7 0.720128 0.748343 0.318517
Si Si8 0.106753 0.196424 0.180523
O O1 0.858562 0.077578 0.500000
O O2 0.864808 0.126970 0.773840
O O3 0.000000 0.065657 0.674687
O O4 0.856584 0.000000 0.724545
O O5 0.358899 0.933784 0.258483
O O6 0.500000 0.000000 0.319123
O O7 0.360464 0.000000 0.500000
O O8 0.610691 0.131316 0.500000
O O9 0.500000 0.139869 0.272719
O O10 0.664156 0.191932 0.263707
O O11 0.818116 0.608044 0.772585
O O12 0.656486 0.561716 0.763601
O O13 0.682807 0.684893 0.746839
O O14 0.704822 0.624862 0.000000
O O15 0.884022 0.416351 0.500000
O O16 0.887081 0.500000 0.706962
O O17 0.000000 0.408967 0.722385
O O18 0.500000 0.500000 0.233065
O O19 0.391600 0.500000 0.000000
O O20 0.716345 0.746690 0.500000
O O21 0.824469 0.758348 0.264808
O O22 0.000000 0.204481 0.225462
O O23 0.113796 0.204315 0.000000
#
# Coordination Sequence:
#
# PCOD9387537 Si02
#       8
#     8   4   8   8   8   4   8   8
#     4   8  14  27  49  75 102 136 182 236 290 340
#     4   7  10  22  48  78 106 137 172 218 277 335
#     4   8  15  30  53  81 112 143 179 227 284 344
#     4  11  22  38  60  85 115 153 193 235 276 324
#     4   9  18  34  58  87 118 150 182 223 280 338
#     4   9  20  40  64  89 116 148 189 231 274 329
#     4  11  23  37  55  83 117 153 188 232 287 340
#     4  10  21  37  55  75 106 150 198 244 286 335
#
# _framework density 20.080006000000001
#
# number of rings (size 3 to 8) (size 9 to 14) (size 15 to 20)
#    0.000    2.714    0.714    3.000    0.000    2.571 
#    1.286    2.143    0.000    4.286    0.000    0.000 
#    0.000    6.857    0.000    0.000    0.000    0.000 
#
# Total GULP energy -312545.727145 kJ/mol
# GULP energy per Si atom -5581.173699 kJ/mol
# Density = 2.003430 g / cm^3
# Si number density = 20.080006 Si / 1000 Ang^3
#
#
#
# Elastic Constant Matrix: (Units=GPa)
#
#
# Indices 1 2 3 4 5 6 
#
# 1 76.1768 67.4124 17.7795 0.0000 0.0000 0.0000
# 2 67.4124 169.3407 37.0061 0.0000 0.0000 0.0000
# 3 17.7795 37.0061 22.3841 0.0000 0.0000 0.0000
# 4 0.0000 0.0000 0.0000 28.7360 0.0000 0.0000
# 5 0.0000 0.0000 0.0000 0.0000 6.4127 0.0000
# 6 0.0000 0.0000 0.0000 0.0000 0.0000 14.5043
#
#
#
# Elastic Compliance Matrix: (Units=1/GPa)
#
#
# Indices 1 2 3 4 5 6 
#
# 1 0.020538 -0.007219 -0.004378 0.000000 0.000000 0.000000
# 2 -0.007219 0.011783 -0.013746 0.000000 0.000000 0.000000
# 3 -0.004378 -0.013746 0.070877 0.000000 0.000000 0.000000
# 4 0.000000 0.000000 0.000000 0.034800 0.000000 0.000000
# 5 0.000000 0.000000 0.000000 0.000000 0.155940 0.000000
# 6 0.000000 0.000000 0.000000 0.000000 0.000000 0.068945
#
#
# Mechanical properties :
#
#
# Convention : Reuss Voigt Hill
#
# Bulk Modulus (GPa) = 19.04343 56.92196 37.98270
# Shear Modulus (GPa) = 11.59899 19.64420 15.62159
#
# Velocity S-wave (km/s) = 2.40602 3.13117 2.79223
# Velocity P-wave (km/s) = 4.15005 6.44061 5.41776
#
# Compressibility (1/GPa) = 0.05251154
#
# Stress axis : x y z
#
# Youngs Moduli (GPa) = 48.69104 84.86847 14.10892
#
# Poissons Ratio (x) = 0.61267 0.06177
# Poissons Ratio (y) = 0.35150 0.19394
# Poissons Ratio (z) = 0.21318 1.16659
#
# Static dielectric constant tensor:
#      x y z
#    x 1.727320 0.000000 0.000000 
#    y 0.000000 1.734010 0.000000 
#    z 0.000000 0.000000 1.677200 
# 
# From -- ./inp_files/7383.got.cif
#   From: 2010.05.17/outbox.cif.g08.bks.cpg/sg47_4_cif.got.tgz:7383.got - 2010.06.03 20:15:42.
