data_PCOD9387748
_publ_section_title
;
Structure prediction by ZEFSAII (Michael W. Deem and Ramdas Pophale) SiO2 
 PCOD9387748
Probable space group: P M M M
;
_chemical_formula_sum "Si O2"
_cell_formula_units_Z 28
_cell_length_a 9.034074
_cell_length_b 7.296500
_cell_length_c 21.176121
_cell_angle_alpha 90.000000
_cell_angle_beta 90.000000
_cell_angle_gamma 90.000000
_cell_volume 1395.868929
_symmetry_space_group_name_H-M "P M M M"
_symmetry_group_IT_number 47
_symmetry_cell_setting 'orthorhombic'
loop_
_space_group_symop_operation_xyz
x,y,z
-x,-y,z
x,-y,-z
-x,y,-z
-x,-y,-z
x,y,-z
-x,y,z
x,-y,z
loop_
_atom_site_type_symbol
_atom_site_label
_atom_site_fract_x
_atom_site_fract_y
_atom_site_fract_z
Si Si1 0.827693 0.722993 0.294722
Si Si2 0.177080 0.000000 0.926555
Si Si3 0.177448 0.279430 0.432055
Si Si4 0.325770 0.281315 0.834889
O O1 0.826131 0.500000 0.296169
O O2 0.768906 0.784886 0.363462
O O3 0.736806 0.778091 0.233403
O O4 0.000000 0.777379 0.288190
O O5 0.241527 0.174324 0.889596
O O6 0.000000 0.000000 0.922453
O O7 0.220127 0.000000 0.000000
O O8 0.235113 0.211580 0.500000
O O9 0.196001 0.500000 0.432760
O O10 0.000000 0.245781 0.431568
O O11 0.500000 0.243704 0.838362
O O12 0.303283 0.500000 0.840414
#
# Coordination Sequence:
#
# PCOD9387748 Si02
#       4
#     8   4   8   8
#     4   8  13  23  42  68  99 137 181 226 267 310
#     4  11  25  43  63  87 112 139 176 223 271 322
#     4   7   9  14  28  55  91 129 171 220 268 308
#     4  10  21  37  58  84 115 150 184 220 266 323
#
# _framework density 20.059191999999999
#
# number of rings (size 3 to 8) (size 9 to 14) (size 15 to 20)
#    0.000    3.286    0.000    3.857    0.000    3.429 
#    0.000    2.857    0.000    0.857    0.000    7.000 
#    0.000    8.000    0.000    0.857    0.000    0.571 
#
# Total GULP energy -156094.498243 kJ/mol
# GULP energy per Si atom -5574.803509 kJ/mol
# Density = 2.001354 g / cm^3
# Si number density = 20.059192 Si / 1000 Ang^3
#
#
#
# Elastic Constant Matrix: (Units=GPa)
#
#
# Indices 1 2 3 4 5 6 
#
# 1 56.3544 25.7994 78.5210 0.0000 0.0000 0.0000
# 2 25.7994 81.7215 49.4553 0.0000 0.0000 0.0000
# 3 78.5210 49.4553 252.4199 0.0000 0.0000 0.0000
# 4 0.0000 0.0000 0.0000 54.0418 0.0000 0.0000
# 5 0.0000 0.0000 0.0000 0.0000 -12.9689 0.0000
# 6 0.0000 0.0000 0.0000 0.0000 0.0000 1.2651
#
#
#
# Elastic Compliance Matrix: (Units=1/GPa)
#
#
# Indices 1 2 3 4 5 6 
#
# 1 0.032870 -0.004753 -0.009294 0.000000 0.000000 0.000000
# 2 -0.004753 0.014570 -0.001376 0.000000 0.000000 0.000000
# 3 -0.009294 -0.001376 0.007122 0.000000 0.000000 0.000000
# 4 0.000000 0.000000 0.000000 0.018504 0.000000 0.000000
# 5 0.000000 0.000000 0.000000 0.000000 -0.077108 0.000000
# 6 0.000000 0.000000 0.000000 0.000000 0.000000 0.790474
#
#
# Mechanical properties :
#
#
# Convention : Reuss Voigt Hill
#
# Bulk Modulus (GPa) = 42.16389 77.56082 59.86235
# Shear Modulus (GPa) = 6.05925 24.24894 15.15410
#
# Velocity S-wave (km/s) = 1.73990 3.48065 2.75156
# Velocity P-wave (km/s) = 5.01016 7.40967 6.32475
#
# Compressibility (1/GPa) = 0.02371698
#
# Stress axis : x y z
#
# Youngs Moduli (GPa) = 30.42263 68.63454 140.40309
#
# Poissons Ratio (x) = 0.32620 1.30489
# Poissons Ratio (y) = 0.14459 0.19322
# Poissons Ratio (z) = 0.28274 0.09445
#
# Static dielectric constant tensor:
#      x y z
#    x 1.653280 0.000000 0.000000 
#    y 0.000000 1.803540 0.000000 
#    z 0.000000 0.000000 1.729660 
# 
# From -- ./inp_files/865.got.cif
#   From: 2010.05.17/outbox.cif.g08.bks.cpg/sg47_1_cif.got.tgz:865.got - 2010.06.03 20:15:42.
