data_PCOD9387175
_publ_section_title
;
Structure prediction by ZEFSAII (Michael W. Deem and Ramdas Pophale) SiO2 
 PCOD9387175
Probable space group: P M M M
;
_chemical_formula_sum "Si O2"
_cell_formula_units_Z 48
_cell_length_a 7.844625
_cell_length_b 9.894113
_cell_length_c 30.122530
_cell_angle_alpha 90.000000
_cell_angle_beta 90.000000
_cell_angle_gamma 90.000000
_cell_volume 2337.978426
_symmetry_space_group_name_H-M "P M M M"
_symmetry_group_IT_number 47
_symmetry_cell_setting 'orthorhombic'
loop_
_space_group_symop_operation_xyz
x,y,z
-x,-y,z
x,-y,-z
-x,y,-z
-x,-y,-z
x,y,-z
-x,y,z
x,-y,z
loop_
_atom_site_type_symbol
_atom_site_label
_atom_site_fract_x
_atom_site_fract_y
_atom_site_fract_z
Si Si1 0.205728 0.000000 0.948497
Si Si2 0.794969 0.655936 0.287675
Si Si3 0.801143 0.500000 0.049792
Si Si4 0.706274 0.844468 0.795096
Si Si5 0.791265 0.156462 0.630460
Si Si6 0.696932 0.748541 0.890300
Si Si7 0.792130 0.346557 0.550869
O O1 0.279162 0.874016 0.922552
O O2 0.000000 0.000000 0.945710
O O3 0.252803 0.000000 0.000000
O O4 0.731739 0.500000 0.287471
O O5 0.753741 0.740402 0.243501
O O6 0.734610 0.748024 0.328908
O O7 0.000000 0.648109 0.291453
O O8 0.763255 0.373764 0.080804
O O9 0.000000 0.500000 0.042594
O O10 0.720012 0.500000 0.000000
O O11 0.500000 0.851129 0.797055
O O12 0.772343 0.787962 0.842376
O O13 0.765715 0.000000 0.787684
O O14 0.737133 0.232395 0.585368
O O15 0.000000 0.154311 0.630970
O O16 0.735734 0.000000 0.633872
O O17 0.500000 0.719720 0.881714
O O18 0.738223 0.322903 0.500000
O O19 0.740941 0.500000 0.563814
O O20 0.000000 0.346053 0.551083
#
# Coordination Sequence:
#
# PCOD9387175 Si02
#       7
#     4   8   4   8   8   8   8
#     4  11  23  39  61  91 123 153 187 231 282 331
#     4  10  21  35  53  79 107 139 180 223 271 329
#     4  11  25  43  61  87 123 155 187 233 284 331
#     4  10  22  41  60  81 110 141 176 223 275 323
#     4   9  16  26  41  63  95 133 174 223 273 323
#     4  11  23  41  63  87 115 152 194 233 278 336
#     4   8  13  21  34  54  85 129 176 220 270 326
#
# _framework density 20.530557000000002
#
# number of rings (size 3 to 8) (size 9 to 14) (size 15 to 20)
#    0.000    2.167    0.833    3.000    1.167    8.333 
#    0.000    1.667    0.000    0.000    0.000    0.000 
#    0.000    0.667    0.000    7.000    0.000    9.667 
#
# Total GULP energy -267840.131264 kJ/mol
# GULP energy per Si atom -5580.002735 kJ/mol
# Density = 2.048383 g / cm^3
# Si number density = 20.530557 Si / 1000 Ang^3
#
#
#
# Elastic Constant Matrix: (Units=GPa)
#
#
# Indices 1 2 3 4 5 6 
#
# 1 21.0774 7.4769 2.1953 0.0000 0.0000 0.0000
# 2 7.4769 233.4505 123.5867 0.0000 0.0000 0.0000
# 3 2.1953 123.5867 175.6794 0.0000 0.0000 0.0000
# 4 0.0000 0.0000 0.0000 52.8995 0.0000 0.0000
# 5 0.0000 0.0000 0.0000 0.0000 -6.6360 0.0000
# 6 0.0000 0.0000 0.0000 0.0000 0.0000 20.1651
#
#
#
# Elastic Compliance Matrix: (Units=1/GPa)
#
#
# Indices 1 2 3 4 5 6 
#
# 1 0.048054 -0.001946 0.000768 0.000000 0.000000 0.000000
# 2 -0.001946 0.006904 -0.004833 0.000000 0.000000 0.000000
# 3 0.000768 -0.004833 0.009082 0.000000 0.000000 0.000000
# 4 0.000000 0.000000 0.000000 0.018904 0.000000 0.000000
# 5 0.000000 0.000000 0.000000 0.000000 -0.150693 0.000000
# 6 0.000000 0.000000 0.000000 0.000000 0.000000 0.049591
#
#
# Mechanical properties :
#
#
# Convention : Reuss Voigt Hill
#
# Bulk Modulus (GPa) = 19.22315 77.41390 48.31852
# Shear Modulus (GPa) = 446.29394 33.08228 239.68811
#
# Velocity S-wave (km/s) = 14.75982 4.01854 10.81667
# Velocity P-wave (km/s) = 17.31627 7.70195 13.40099
#
# Compressibility (1/GPa) = 0.05202061
#
# Stress axis : x y z
#
# Youngs Moduli (GPa) = 20.80975 144.83789 110.10450
#
# Poissons Ratio (x) = 0.28183 -0.08460
# Poissons Ratio (y) = 0.04049 0.53210
# Poissons Ratio (z) = -0.01599 0.69996
#
# Static dielectric constant tensor:
#      x y z
#    x 1.759420 0.000000 0.000000 
#    y 0.000000 1.675170 0.000000 
#    z 0.000000 0.000000 1.739420 
# 
# From -- ./inp_files/34155.got.cif
#   From: 2010.05.17/outbox.cif.g08.bks.cpg/sg47_18_cif.got.tgz:34155.got - 2010.06.03 20:15:42.
