data_PCOD9387480
_publ_section_title
;
Structure prediction by ZEFSAII (Michael W. Deem and Ramdas Pophale) SiO2 
 PCOD9387480
Probable space group: P M M M
;
_chemical_formula_sum "Si O2"
_cell_formula_units_Z 64
_cell_length_a 15.399701
_cell_length_b 7.591506
_cell_length_c 25.506516
_cell_angle_alpha 90.000000
_cell_angle_beta 90.000000
_cell_angle_gamma 90.000000
_cell_volume 2981.888290
_symmetry_space_group_name_H-M "P M M M"
_symmetry_group_IT_number 47
_symmetry_cell_setting 'orthorhombic'
loop_
_space_group_symop_operation_xyz
x,y,z
-x,-y,z
x,-y,-z
-x,y,-z
-x,-y,-z
x,y,-z
-x,y,z
x,-y,z
loop_
_atom_site_type_symbol
_atom_site_label
_atom_site_fract_x
_atom_site_fract_y
_atom_site_fract_z
Si Si1 0.100420 0.215072 0.559605
Si Si2 0.402301 0.286986 0.439389
Si Si3 0.287256 0.212743 0.057048
Si Si4 0.598137 0.710102 0.840742
Si Si5 0.906764 0.286248 0.202248
Si Si6 0.727594 0.293241 0.753102
Si Si7 0.905434 0.207395 0.079258
Si Si8 0.751613 0.200994 0.363902
O O1 0.124888 0.269926 0.500000
O O2 0.166338 0.279410 0.604310
O O3 0.000000 0.265045 0.568558
O O4 0.103924 0.000000 0.559657
O O5 0.389935 0.236970 0.500000
O O6 0.500000 0.235802 0.423637
O O7 0.397248 0.500000 0.436511
O O8 0.328368 0.208949 0.403637
O O9 0.344893 0.263522 0.106849
O O10 0.187427 0.278962 0.060819
O O11 0.283164 0.000000 0.058109
O O12 0.322930 0.266608 0.000000
O O13 0.500000 0.781461 0.845165
O O14 0.590001 0.500000 0.834126
O O15 0.651749 0.780449 0.790342
O O16 0.906347 0.500000 0.202756
O O17 0.821606 0.219195 0.231062
O O18 0.902885 0.227235 0.142050
O O19 0.000000 0.228941 0.224531
O O20 0.730731 0.500000 0.766187
O O21 0.720744 0.280721 0.690850
O O22 0.000000 0.280536 0.062379
O O23 0.906451 0.000000 0.065689
O O24 0.774383 0.000000 0.351680
#
# Coordination Sequence:
#
# PCOD9387480 Si02
#       8
#     8   8   8   8   8   8   8   8
#     4   8  15  30  51  75 108 150 189 223 264 314
#     4   9  19  37  59  80 105 141 180 217 267 331
#     4  10  21  36  56  84 116 145 174 215 270 329
#     4  10  22  41  62  80 100 135 185 233 276 326
#     4   9  17  31  53  77 101 134 177 222 265 310
#     4  10  21  37  54  75 106 144 182 221 272 329
#     4   9  17  30  51  79 110 143 176 210 253 309
#     4  11  22  33  52  84 115 142 180 229 275 320
#
# _framework density 21.462909
#
# number of rings (size 3 to 8) (size 9 to 14) (size 15 to 20)
#    0.000    2.500    1.250    1.500    0.000    4.000 
#    0.000    4.375    0.000    1.125    0.000    7.000 
#    0.000    0.000    0.000    0.000    0.000    0.000 
#
# Total GULP energy -357045.599623 kJ/mol
# GULP energy per Si atom -5578.837494 kJ/mol
# Density = 2.141406 g / cm^3
# Si number density = 21.462909 Si / 1000 Ang^3
#
#
#
# Elastic Constant Matrix: (Units=GPa)
#
#
# Indices 1 2 3 4 5 6 
#
# 1 168.5221 9.7901 92.2214 0.0000 0.0000 0.0000
# 2 9.7901 44.4463 -2.4137 0.0000 0.0000 0.0000
# 3 92.2214 -2.4137 113.4008 0.0000 0.0000 0.0000
# 4 0.0000 0.0000 0.0000 7.1165 0.0000 0.0000
# 5 0.0000 0.0000 0.0000 0.0000 -10.4877 0.0000
# 6 0.0000 0.0000 0.0000 0.0000 0.0000 -35.5988
#
#
#
# Elastic Compliance Matrix: (Units=1/GPa)
#
#
# Indices 1 2 3 4 5 6 
#
# 1 0.011060 -0.002928 -0.009057 0.000000 0.000000 0.000000
# 2 -0.002928 0.023300 0.002877 0.000000 0.000000 0.000000
# 3 -0.009057 0.002877 0.016245 0.000000 0.000000 0.000000
# 4 0.000000 0.000000 0.000000 0.140519 0.000000 0.000000
# 5 0.000000 0.000000 0.000000 0.000000 -0.095349 0.000000
# 6 0.000000 0.000000 0.000000 0.000000 0.000000 -0.028091
#
#
# Mechanical properties :
#
#
# Convention : Reuss Voigt Hill
#
# Bulk Modulus (GPa) = 30.87395 58.39610 44.63502
# Shear Modulus (GPa) = 51.70791 7.32407 29.51599
#
# Velocity S-wave (km/s) = 4.91366 1.84928 3.71240
# Velocity P-wave (km/s) = 6.82701 5.64152 6.26238
#
# Compressibility (1/GPa) = 0.03238977
#
# Stress axis : x y z
#
# Youngs Moduli (GPa) = 90.41301 42.91796 61.55755
#
# Poissons Ratio (x) = 0.12567 0.55753
# Poissons Ratio (y) = 0.26474 -0.17711
# Poissons Ratio (z) = 0.81887 -0.12348
#
# Static dielectric constant tensor:
#      x y z
#    x 1.791800 0.000000 0.000000 
#    y 0.000000 1.827160 0.000000 
#    z 0.000000 0.000000 1.751080 
# 
# From -- ./inp_files/12720.got.cif
#   From: 2010.05.17/outbox.cif.g08.bks.cpg/sg47_7_cif.got.tgz:12720.got - 2010.06.03 20:15:42.
