data_PCOD9387520
_publ_section_title
;
Structure prediction by ZEFSAII (Michael W. Deem and Ramdas Pophale) SiO2 
 PCOD9387520
Probable space group: P M M M
;
_chemical_formula_sum "Si O2"
_cell_formula_units_Z 44
_cell_length_a 7.431089
_cell_length_b 9.038231
_cell_length_c 33.737705
_cell_angle_alpha 90.000000
_cell_angle_beta 90.000000
_cell_angle_gamma 90.000000
_cell_volume 2265.955810
_symmetry_space_group_name_H-M "P M M M"
_symmetry_group_IT_number 47
_symmetry_cell_setting 'orthorhombic'
loop_
_space_group_symop_operation_xyz
x,y,z
-x,-y,z
x,-y,-z
-x,y,-z
-x,-y,-z
x,y,-z
-x,y,z
x,-y,z
loop_
_atom_site_type_symbol
_atom_site_label
_atom_site_fract_x
_atom_site_fract_y
_atom_site_fract_z
Si Si1 0.784242 0.331045 0.957298
Si Si2 0.708547 0.677047 0.290293
Si Si3 0.284333 0.320893 0.500000
Si Si4 0.714419 0.833341 0.875810
Si Si5 0.000000 0.321845 0.355762
Si Si6 0.000000 0.178540 0.558626
Si Si7 0.282785 0.175220 0.790275
O O1 0.719301 0.500000 0.955130
O O2 0.742202 0.250475 0.916636
O O3 0.000000 0.334753 0.959083
O O4 0.721897 0.267363 0.000000
O O5 0.500000 0.721543 0.296004
O O6 0.713994 0.500000 0.285509
O O7 0.781546 0.747681 0.249646
O O8 0.828401 0.713836 0.328230
O O9 0.261328 0.500000 0.500000
O O10 0.500000 0.291070 0.500000
O O11 0.175519 0.248966 0.463122
O O12 0.500000 0.843494 0.871020
O O13 0.780669 0.769182 0.833606
O O14 0.785942 0.000000 0.879828
O O15 0.000000 0.500000 0.363675
O O16 0.000000 0.231476 0.396142
O O17 0.000000 0.000000 0.554587
O O18 0.500000 0.193683 0.789127
O O19 0.244853 0.000000 0.789041
#
# Coordination Sequence:
#
# PCOD9387520 Si02
#       7
#     8   8   4   8   4   4   8
#     4   9  19  35  50  65  90 123 157 195 241 295
#     4   9  18  33  53  75 101 139 184 228 276 327
#     4  10  21  40  67  93 120 162 209 249 298 357
#     4   9  18  32  50  73  98 123 155 197 247 305
#     4  10  21  37  54  78 115 152 193 241 282 335
#     4  11  23  38  59  90 128 162 198 253 305 347
#     4   8  15  30  50  70  96 128 160 201 254 310
#
# _framework density 19.417856
#
# number of rings (size 3 to 8) (size 9 to 14) (size 15 to 20)
#    0.000    2.818    0.000    3.273    0.000    4.364 
#    1.636    6.364    0.000    0.000    0.000    0.000 
#    0.000    0.000    0.000    0.000    0.000    0.000 
#
# Total GULP energy -245161.490320 kJ/mol
# GULP energy per Si atom -5571.852053 kJ/mol
# Density = 1.937366 g / cm^3
# Si number density = 19.417856 Si / 1000 Ang^3
#
#
#
# Elastic Constant Matrix: (Units=GPa)
#
#
# Indices 1 2 3 4 5 6 
#
# 1 104.4385 33.9092 58.4038 0.0000 0.0000 0.0000
# 2 33.9092 61.4766 76.7279 0.0000 0.0000 0.0000
# 3 58.4038 76.7279 220.1633 0.0000 0.0000 0.0000
# 4 0.0000 0.0000 0.0000 39.5264 0.0000 0.0000
# 5 0.0000 0.0000 0.0000 0.0000 21.4969 0.0000
# 6 0.0000 0.0000 0.0000 0.0000 0.0000 15.7539
#
#
#
# Elastic Compliance Matrix: (Units=1/GPa)
#
#
# Indices 1 2 3 4 5 6 
#
# 1 0.011954 -0.004665 -0.001545 0.000000 0.000000 0.000000
# 2 -0.004665 0.030608 -0.009430 0.000000 0.000000 0.000000
# 3 -0.001545 -0.009430 0.008238 0.000000 0.000000 0.000000
# 4 0.000000 0.000000 0.000000 0.025300 0.000000 0.000000
# 5 0.000000 0.000000 0.000000 0.000000 0.046518 0.000000
# 6 0.000000 0.000000 0.000000 0.000000 0.000000 0.063476
#
#
# Mechanical properties :
#
#
# Convention : Reuss Voigt Hill
#
# Bulk Modulus (GPa) = 51.22720 80.46226 65.84473
# Shear Modulus (GPa) = 22.33329 29.82462 26.07895
#
# Velocity S-wave (km/s) = 3.39505 3.92336 3.66873
# Velocity P-wave (km/s) = 6.46585 7.87724 7.20618
#
# Compressibility (1/GPa) = 0.01952088
#
# Stress axis : x y z
#
# Youngs Moduli (GPa) = 83.65579 32.67079 121.38381
#
# Poissons Ratio (x) = 0.15240 0.18758
# Poissons Ratio (y) = 0.39023 1.14462
# Poissons Ratio (z) = 0.12928 0.30808
#
# Static dielectric constant tensor:
#      x y z
#    x 1.725540 0.000000 0.000000 
#    y 0.000000 1.664040 0.000000 
#    z 0.000000 0.000000 1.707550 
# 
# From -- ./inp_files/33994.got.cif
#   From: 2010.05.17/outbox.cif.g08.bks.cpg/sg47_17_cif.got.tgz:33994.got - 2010.06.03 20:15:42.
