data_PCOD9387276
_publ_section_title
;
Structure prediction by ZEFSAII (Michael W. Deem and Ramdas Pophale) SiO2 
 PCOD9387276
Probable space group: P M M M
;
_chemical_formula_sum "Si O2"
_cell_formula_units_Z 52
_cell_length_a 18.335996
_cell_length_b 16.814424
_cell_length_c 9.374755
_cell_angle_alpha 90.000000
_cell_angle_beta 90.000000
_cell_angle_gamma 90.000000
_cell_volume 2890.323319
_symmetry_space_group_name_H-M "P M M M"
_symmetry_group_IT_number 47
_symmetry_cell_setting 'orthorhombic'
loop_
_space_group_symop_operation_xyz
x,y,z
-x,-y,z
x,-y,-z
-x,y,-z
-x,-y,-z
x,y,-z
-x,y,z
x,-y,z
loop_
_atom_site_type_symbol
_atom_site_label
_atom_site_fract_x
_atom_site_fract_y
_atom_site_fract_z
Si Si1 0.218658 0.357097 0.839091
Si Si2 0.920306 0.595214 0.330942
Si Si3 0.000000 0.092534 0.326336
Si Si4 0.623255 0.588850 0.171348
Si Si5 0.159565 0.903994 0.665074
Si Si6 0.416596 0.748861 0.668367
Si Si7 0.285068 0.180280 0.163807
O O1 0.149111 0.366642 0.741434
O O2 0.290005 0.407438 0.797245
O O3 0.247279 0.267057 0.838527
O O4 0.198588 0.380337 0.000000
O O5 0.917871 0.609336 0.500000
O O6 0.916442 0.500000 0.309139
O O7 0.000000 0.622641 0.278124
O O8 0.920755 0.126277 0.284271
O O9 0.000000 0.092857 0.500000
O O10 0.000000 0.000000 0.280655
O O11 0.595632 0.500000 0.203066
O O12 0.589414 0.661659 0.258367
O O13 0.614966 0.602811 0.000000
O O14 0.169852 0.878536 0.500000
O O15 0.226754 0.875892 0.759574
O O16 0.155937 0.000000 0.665278
O O17 0.399129 0.742779 0.500000
O O18 0.500000 0.776351 0.683098
O O19 0.359117 0.805828 0.747656
O O20 0.299580 0.156943 0.000000
#
# Coordination Sequence:
#
# PCOD9387276 Si02
#       7
#     8   8   4   8   8   8   8
#     4   9  18  32  47  65  92 126 165 205 245 294
#     4   9  18  31  45  63  88 119 160 210 258 300
#     4   7  12  26  49  77 107 137 168 201 240 289
#     4   9  18  32  50  73 101 132 166 206 255 312
#     4   9  17  32  56  83 110 140 174 211 250 297
#     4  10  21  36  54  76 102 133 171 216 262 309
#     4  10  21  36  53  75 104 137 171 208 253 309
#
# _framework density 17.991066
#
# number of rings (size 3 to 8) (size 9 to 14) (size 15 to 20)
#    0.000    2.846    0.000    3.692    0.000    6.462 
#    1.385    2.692    0.000    1.846    0.000    3.231 
#    0.000    0.000    0.000    0.000    0.000    0.000 
#
# Total GULP energy -289751.933084 kJ/mol
# GULP energy per Si atom -5572.152559 kJ/mol
# Density = 1.795012 g / cm^3
# Si number density = 17.991066 Si / 1000 Ang^3
#
#
#
# Elastic Constant Matrix: (Units=GPa)
#
#
# Indices 1 2 3 4 5 6 
#
# 1 127.0375 21.5277 66.4046 0.0000 0.0000 0.0000
# 2 21.5277 17.0199 17.5551 0.0000 0.0000 0.0000
# 3 66.4046 17.5551 74.1182 0.0000 0.0000 0.0000
# 4 0.0000 0.0000 0.0000 21.0107 0.0000 0.0000
# 5 0.0000 0.0000 0.0000 0.0000 86.8830 0.0000
# 6 0.0000 0.0000 0.0000 0.0000 0.0000 5.6572
#
#
#
# Elastic Compliance Matrix: (Units=1/GPa)
#
#
# Indices 1 2 3 4 5 6 
#
# 1 0.015402 -0.006945 -0.012154 0.000000 0.000000 0.000000
# 2 -0.006945 0.080880 -0.012935 0.000000 0.000000 0.000000
# 3 -0.012154 -0.012935 0.027445 0.000000 0.000000 0.000000
# 4 0.000000 0.000000 0.000000 0.047595 0.000000 0.000000
# 5 0.000000 0.000000 0.000000 0.000000 0.011510 0.000000
# 6 0.000000 0.000000 0.000000 0.000000 0.000000 0.176765
#
#
# Mechanical properties :
#
#
# Convention : Reuss Voigt Hill
#
# Bulk Modulus (GPa) = 16.76167 47.68338 32.22253
# Shear Modulus (GPa) = 11.27270 30.22273 20.74772
#
# Velocity S-wave (km/s) = 2.50586 4.10307 3.39960
# Velocity P-wave (km/s) = 4.20824 7.00060 5.77571
#
# Compressibility (1/GPa) = 0.05965991
#
# Stress axis : x y z
#
# Youngs Moduli (GPa) = 64.92870 12.36393 36.43714
#
# Poissons Ratio (x) = 0.08586 0.44285
# Poissons Ratio (y) = 0.45091 0.47131
# Poissons Ratio (z) = 0.78913 0.15993
#
# Static dielectric constant tensor:
#      x y z
#    x 1.636820 0.000000 0.000000 
#    y 0.000000 1.625820 0.000000 
#    z 0.000000 0.000000 1.610790 
# 
# From -- ./inp_files/9508.got.cif
#   From: 2010.05.17/outbox.cif.g08.bks.cpg/sg47_5_cif.got.tgz:9508.got - 2010.06.03 20:15:42.
