data_PCOD9387922
_publ_section_title
;
Structure prediction by ZEFSAII (Michael W. Deem and Ramdas Pophale) SiO2 
 PCOD9387922
Probable space group: P M M M
;
_chemical_formula_sum "Si O2"
_cell_formula_units_Z 48
_cell_length_a 35.914681
_cell_length_b 7.888362
_cell_length_c 8.750286
_cell_angle_alpha 90.000000
_cell_angle_beta 90.000000
_cell_angle_gamma 90.000000
_cell_volume 2479.026068
_symmetry_space_group_name_H-M "P M M M"
_symmetry_group_IT_number 47
_symmetry_cell_setting 'orthorhombic'
loop_
_space_group_symop_operation_xyz
x,y,z
-x,-y,z
x,-y,-z
-x,y,-z
-x,-y,-z
x,y,-z
-x,y,z
x,-y,z
loop_
_atom_site_type_symbol
_atom_site_label
_atom_site_fract_x
_atom_site_fract_y
_atom_site_fract_z
Si Si1 0.233997 0.697334 0.317963
Si Si2 0.000000 0.201439 0.324699
Si Si3 0.155697 0.706278 0.826923
Si Si4 0.717667 0.000000 0.816623
Si Si5 0.418734 0.687120 0.186608
Si Si6 0.920219 0.296423 0.325026
Si Si7 0.500000 0.802009 0.814234
Si Si8 0.368212 0.000000 0.186657
O O1 0.237874 0.703166 0.500000
O O2 0.239809 0.500000 0.268539
O O3 0.191795 0.747531 0.272706
O O4 0.261639 0.831848 0.242891
O O5 0.039427 0.255249 0.254957
O O6 0.000000 0.272340 0.500000
O O7 0.000000 0.000000 0.332658
O O8 0.153781 0.500000 0.828647
O O9 0.116276 0.767492 0.761539
O O10 0.161322 0.764699 0.000000
O O11 0.674601 0.000000 0.765609
O O12 0.718748 0.000000 0.000000
O O13 0.406614 0.500000 0.233446
O O14 0.461257 0.720351 0.236979
O O15 0.391141 0.834846 0.237129
O O16 0.419250 0.692028 0.000000
O O17 0.919732 0.231498 0.500000
O O18 0.917602 0.500000 0.331149
O O19 0.500000 0.000000 0.774213
O O20 0.500000 0.791505 0.000000
O O21 0.368500 0.000000 0.000000
#
# Coordination Sequence:
#
# PCOD9387922 Si02
#       8
#     8   4   8   4   8   8   4   4
#     4  10  21  39  62  85 110 142 182 229 279 334
#     4   9  17  29  44  65  94 128 168 211 250 292
#     4   9  17  31  53  80 107 133 165 211 268 326
#     4  11  23  37  56  83 114 147 185 228 282 344
#     4   9  15  23  36  55  83 125 176 223 266 313
#     4   9  16  28  48  71  95 128 170 211 252 304
#     4   9  13  19  33  52  81 121 170 227 270 304
#     4   9  18  30  41  60  93 132 173 219 266 322
#
# _framework density 19.362442999999999
#
# number of rings (size 3 to 8) (size 9 to 14) (size 15 to 20)
#    0.000    2.667    0.833    1.750    0.000    5.667 
#    1.500    2.083    0.000    2.500    0.000    0.000 
#    0.000    0.000    0.000    6.000    0.000   29.333 
#
# Total GULP energy -267663.523336 kJ/mol
# GULP energy per Si atom -5576.323403 kJ/mol
# Density = 1.931837 g / cm^3
# Si number density = 19.362443 Si / 1000 Ang^3
#
#
#
# Elastic Constant Matrix: (Units=GPa)
#
#
# Indices 1 2 3 4 5 6 
#
# 1 180.4898 80.7479 29.8234 0.0000 0.0000 0.0000
# 2 80.7479 108.2704 21.9305 0.0000 0.0000 0.0000
# 3 29.8234 21.9305 30.8284 0.0000 0.0000 0.0000
# 4 0.0000 0.0000 0.0000 12.6467 0.0000 0.0000
# 5 0.0000 0.0000 0.0000 0.0000 86.7004 0.0000
# 6 0.0000 0.0000 0.0000 0.0000 0.0000 0.0341
#
#
#
# Elastic Compliance Matrix: (Units=1/GPa)
#
#
# Indices 1 2 3 4 5 6 
#
# 1 0.008819 -0.005665 -0.004501 0.000000 0.000000 0.000000
# 2 -0.005665 0.014431 -0.004785 0.000000 0.000000 0.000000
# 3 -0.004501 -0.004785 0.040196 0.000000 0.000000 0.000000
# 4 0.000000 0.000000 0.000000 0.079072 0.000000 0.000000
# 5 0.000000 0.000000 0.000000 0.000000 0.011534 0.000000
# 6 0.000000 0.000000 0.000000 0.000000 0.000000 29.307557
#
#
# Mechanical properties :
#
#
# Convention : Reuss Voigt Hill
#
# Bulk Modulus (GPa) = 29.81287 64.95468 47.38378
# Shear Modulus (GPa) = 0.16948 32.34870 16.25909
#
# Velocity S-wave (km/s) = 0.29617 4.09185 2.90094
# Velocity P-wave (km/s) = 3.94305 7.47956 5.97877
#
# Compressibility (1/GPa) = 0.03354256
#
# Stress axis : x y z
#
# Youngs Moduli (GPa) = 113.39422 69.29760 24.87815
#
# Poissons Ratio (x) = 0.39259 0.11198
# Poissons Ratio (y) = 0.64241 0.11904
# Poissons Ratio (z) = 0.51040 0.33158
#
# Static dielectric constant tensor:
#      x y z
#    x 1.672510 0.000000 0.000000 
#    y 0.000000 1.685130 0.000000 
#    z 0.000000 0.000000 1.675170 
# 
# From -- ./inp_files/14009.got.cif
#   From: 2010.05.17/outbox.cif.g08.bks.cpg/sg47_8_cif.got.tgz:14009.got - 2010.06.03 20:15:42.
