data_PCOD9387577
_publ_section_title
;
Structure prediction by ZEFSAII (Michael W. Deem and Ramdas Pophale) SiO2 
 PCOD9387577
Probable space group: P M M M
;
_chemical_formula_sum "Si O2"
_cell_formula_units_Z 44
_cell_length_a 9.943597
_cell_length_b 29.005381
_cell_length_c 8.561625
_cell_angle_alpha 90.000000
_cell_angle_beta 90.000000
_cell_angle_gamma 90.000000
_cell_volume 2469.325214
_symmetry_space_group_name_H-M "P M M M"
_symmetry_group_IT_number 47
_symmetry_cell_setting 'orthorhombic'
loop_
_space_group_symop_operation_xyz
x,y,z
-x,-y,z
x,-y,-z
-x,y,-z
-x,-y,-z
x,y,-z
-x,y,z
x,-y,z
loop_
_atom_site_type_symbol
_atom_site_label
_atom_site_fract_x
_atom_site_fract_y
_atom_site_fract_z
Si Si1 0.843968 0.318376 0.188149
Si Si2 0.344484 0.500000 0.813000
Si Si3 0.655613 0.868109 0.811673
Si Si4 0.655249 0.764681 0.190347
Si Si5 0.155145 0.419880 0.313214
Si Si6 0.844824 0.051852 0.311702
O O1 0.749883 0.276743 0.243365
O O2 0.811698 0.367814 0.261954
O O3 0.000000 0.308057 0.222957
O O4 0.830888 0.322485 0.000000
O O5 0.500000 0.500000 0.757654
O O6 0.260835 0.544251 0.755759
O O7 0.346513 0.500000 0.000000
O O8 0.500000 0.874947 0.764205
O O9 0.696677 0.816336 0.760568
O O10 0.749631 0.908259 0.749813
O O11 0.659245 0.868698 0.000000
O O12 0.500000 0.757531 0.236306
O O13 0.658463 0.764551 0.000000
O O14 0.157309 0.423408 0.500000
O O15 0.000000 0.429438 0.261369
O O16 0.842033 0.052410 0.500000
O O17 0.000000 0.059110 0.263086
O O18 0.804523 0.000000 0.261235
#
# Coordination Sequence:
#
# PCOD9387577 Si02
#       6
#     8   4   8   8   8   8
#     4   9  17  30  50  75 100 129 168 208 243 286
#     4  11  24  39  56  80 106 133 170 213 254 298
#     4   9  18  32  50  74 102 130 163 204 249 297
#     4   8  15  29  48  70  98 130 162 200 246 292
#     4  10  21  37  56  78 106 139 171 205 250 300
#     4   9  19  35  51  68  94 128 165 205 250 300
#
# _framework density 17.818633999999999
#
# number of rings (size 3 to 8) (size 9 to 14) (size 15 to 20)
#    0.000    2.818    0.000    2.727    0.000    5.818 
#    0.000    7.273    0.000    3.273    0.000    0.000 
#    0.000    0.000    0.000    0.000    0.000    0.000 
#
# Total GULP energy -245334.062719 kJ/mol
# GULP energy per Si atom -5575.774153 kJ/mol
# Density = 1.777808 g / cm^3
# Si number density = 17.818634 Si / 1000 Ang^3
#
#
#
# Elastic Constant Matrix: (Units=GPa)
#
#
# Indices 1 2 3 4 5 6 
#
# 1 119.3948 131.5855 30.7175 0.0000 0.0000 0.0000
# 2 131.5855 189.8879 35.7586 0.0000 0.0000 0.0000
# 3 30.7175 35.7586 15.0087 0.0000 0.0000 0.0000
# 4 0.0000 0.0000 0.0000 204.5272 0.0000 0.0000
# 5 0.0000 0.0000 0.0000 0.0000 20.9644 0.0000
# 6 0.0000 0.0000 0.0000 0.0000 0.0000 54.9442
#
#
#
# Elastic Compliance Matrix: (Units=1/GPa)
#
#
# Indices 1 2 3 4 5 6 
#
# 1 0.041754 -0.023292 -0.029963 0.000000 0.000000 0.000000
# 2 -0.023292 0.022545 -0.006043 0.000000 0.000000 0.000000
# 3 -0.029963 -0.006043 0.142351 0.000000 0.000000 0.000000
# 4 0.000000 0.000000 0.000000 0.004889 0.000000 0.000000
# 5 0.000000 0.000000 0.000000 0.000000 0.047700 0.000000
# 6 0.000000 0.000000 0.000000 0.000000 0.000000 0.018200
#
#
# Mechanical properties :
#
#
# Convention : Reuss Voigt Hill
#
# Bulk Modulus (GPa) = 11.35677 80.04605 45.70141
# Shear Modulus (GPa) = 11.75402 64.50249 38.12826
#
# Velocity S-wave (km/s) = 2.57115 6.02313 4.63081
# Velocity P-wave (km/s) = 3.89894 9.66390 7.36861
#
# Compressibility (1/GPa) = 0.08805322
#
# Stress axis : x y z
#
# Youngs Moduli (GPa) = 23.94965 44.35657 7.02491
#
# Poissons Ratio (x) = 1.03314 0.21049
# Poissons Ratio (y) = 0.55783 0.04245
# Poissons Ratio (z) = 0.71761 0.26805
#
# Static dielectric constant tensor:
#      x y z
#    x 1.597100 0.000000 0.000000 
#    y 0.000000 1.594470 0.000000 
#    z 0.000000 0.000000 1.609860 
# 
# From -- ./inp_files/2164.got.cif
#   From: 2010.05.17/outbox.cif.g08.bks.cpg/sg47_2_cif.got.tgz:2164.got - 2010.06.03 20:15:42.
