data_PCOD9387454
_publ_section_title
;
Structure prediction by ZEFSAII (Michael W. Deem and Ramdas Pophale) SiO2 
 PCOD9387454
Probable space group: P M M M
;
_chemical_formula_sum "Si O2"
_cell_formula_units_Z 38
_cell_length_a 18.494973
_cell_length_b 7.459230
_cell_length_c 12.782993
_cell_angle_alpha 90.000000
_cell_angle_beta 90.000000
_cell_angle_gamma 90.000000
_cell_volume 1763.519439
_symmetry_space_group_name_H-M "P M M M"
_symmetry_group_IT_number 47
_symmetry_cell_setting 'orthorhombic'
loop_
_space_group_symop_operation_xyz
x,y,z
-x,-y,z
x,-y,-z
-x,y,-z
-x,-y,-z
x,y,-z
-x,y,z
x,-y,z
loop_
_atom_site_type_symbol
_atom_site_label
_atom_site_fract_x
_atom_site_fract_y
_atom_site_fract_z
Si Si1 0.680575 0.788125 0.188910
Si Si2 0.580785 0.715406 0.380836
Si Si3 0.844721 0.792073 0.166261
Si Si4 0.084604 0.283437 0.615510
Si Si5 0.582272 0.780177 0.000000
Si Si6 0.891293 0.500000 0.000000
O O1 0.644114 0.762656 0.301376
O O2 0.761696 0.722192 0.170766
O O3 0.686169 0.000000 0.172311
O O4 0.625428 0.718178 0.101914
O O5 0.592523 0.777971 0.500000
O O6 0.500000 0.777426 0.346652
O O7 0.578183 0.500000 0.383758
O O8 0.873661 0.787705 0.284634
O O9 0.887814 0.658068 0.091414
O O10 0.846557 0.000000 0.130432
O O11 0.110966 0.226496 0.500000
O O12 0.088756 0.500000 0.618587
O O13 0.000000 0.234785 0.623264
O O14 0.500000 0.720285 0.000000
O O15 0.581189 0.000000 0.000000
#
# Coordination Sequence:
#
# PCOD9387454 Si02
#       6
#     8   8   8   8   4   2
#     4  10  21  36  55  83 116 148 194 254 305 362
#     4   9  19  35  53  76 110 151 194 242 300 370
#     4  11  24  41  64  96 129 168 217 262 316 387
#     4   9  19  40  70 101 133 169 211 261 318 380
#     4   9  17  32  54  77 106 146 189 241 303 352
#     4  12  24  44  65  86 125 176 208 256 318 364
#
# _framework density 21.547822
#
# number of rings (size 3 to 8) (size 9 to 14) (size 15 to 20)
#    0.000    2.211    1.053    2.842    1.474    5.053 
#    0.000    7.368    0.000    3.158    0.000    0.000 
#    0.000    0.000    0.000    0.000    0.000    0.000 
#
# Total GULP energy -211703.955339 kJ/mol
# GULP energy per Si atom -5571.156719 kJ/mol
# Density = 2.149878 g / cm^3
# Si number density = 21.547822 Si / 1000 Ang^3
#
#
#
# Elastic Constant Matrix: (Units=GPa)
#
#
# Indices 1 2 3 4 5 6 
#
# 1 36.6491 7.2347 25.4798 0.0000 0.0000 0.0000
# 2 7.2347 100.2492 18.0664 0.0000 0.0000 0.0000
# 3 25.4798 18.0664 123.0201 0.0000 0.0000 0.0000
# 4 0.0000 0.0000 0.0000 11.3422 0.0000 0.0000
# 5 0.0000 0.0000 0.0000 0.0000 45.0250 0.0000
# 6 0.0000 0.0000 0.0000 0.0000 0.0000 17.7586
#
#
#
# Elastic Compliance Matrix: (Units=1/GPa)
#
#
# Indices 1 2 3 4 5 6 
#
# 1 0.032003 -0.001145 -0.006460 0.000000 0.000000 0.000000
# 2 -0.001145 0.010287 -0.001274 0.000000 0.000000 0.000000
# 3 -0.006460 -0.001274 0.009654 0.000000 0.000000 0.000000
# 4 0.000000 0.000000 0.000000 0.088167 0.000000 0.000000
# 5 0.000000 0.000000 0.000000 0.000000 0.022210 0.000000
# 6 0.000000 0.000000 0.000000 0.000000 0.000000 0.056311
#
#
# Mechanical properties :
#
#
# Convention : Reuss Voigt Hill
#
# Bulk Modulus (GPa) = 29.25165 40.16447 34.70806
# Shear Modulus (GPa) = 20.17875 28.76765 24.47320
#
# Velocity S-wave (km/s) = 3.06349 3.65781 3.37376
# Velocity P-wave (km/s) = 5.11058 6.04315 5.59632
#
# Compressibility (1/GPa) = 0.03418611
#
# Stress axis : x y z
#
# Youngs Moduli (GPa) = 31.24671 97.20716 103.58577
#
# Poissons Ratio (x) = 0.11134 0.66920
# Poissons Ratio (y) = 0.03579 0.13192
# Poissons Ratio (z) = 0.20186 0.12380
#
# Static dielectric constant tensor:
#      x y z
#    x 1.778690 0.000000 0.000000 
#    y 0.000000 1.817790 0.000000 
#    z 0.000000 0.000000 1.759010 
# 
# From -- ./inp_files/18223.got.cif
#   From: 2010.05.17/outbox.cif.g08.bks.cpg/sg47_10_cif.got.tgz:18223.got - 2010.06.03 20:15:42.
