data_PCOD9387474
_publ_section_title
;
Structure prediction by ZEFSAII (Michael W. Deem and Ramdas Pophale) SiO2 
 PCOD9387474
Probable space group: P M M M
;
_chemical_formula_sum "Si O2"
_cell_formula_units_Z 38
_cell_length_a 26.348186
_cell_length_b 7.565561
_cell_length_c 9.115106
_cell_angle_alpha 90.000000
_cell_angle_beta 90.000000
_cell_angle_gamma 90.000000
_cell_volume 1816.994369
_symmetry_space_group_name_H-M "P M M M"
_symmetry_group_IT_number 47
_symmetry_cell_setting 'orthorhombic'
loop_
_space_group_symop_operation_xyz
x,y,z
-x,-y,z
x,-y,-z
-x,y,-z
-x,-y,-z
x,y,-z
-x,y,z
x,-y,z
loop_
_atom_site_type_symbol
_atom_site_label
_atom_site_fract_x
_atom_site_fract_y
_atom_site_fract_z
Si Si1 0.311644 0.711803 0.165946
Si Si2 0.110115 0.210511 0.832860
Si Si3 0.415622 0.289428 0.676337
Si Si4 0.000000 0.709642 0.832733
Si Si5 0.791508 0.211399 0.664589
Si Si6 0.500000 0.000000 0.754484
O O1 0.313302 0.500000 0.157752
O O2 0.359950 0.761385 0.264434
O O3 0.258364 0.758083 0.239396
O O4 0.315464 0.781858 0.000000
O O5 0.054133 0.238998 0.766254
O O6 0.157452 0.281490 0.741243
O O7 0.116748 0.000000 0.843621
O O8 0.110343 0.282170 0.000000
O O9 0.418609 0.268888 0.500000
O O10 0.424502 0.500000 0.708123
O O11 0.456069 0.156540 0.745678
O O12 0.000000 0.500000 0.842037
O O13 0.000000 0.785166 0.000000
O O14 0.784864 0.281619 0.500000
O O15 0.797449 0.000000 0.653942
#
# Coordination Sequence:
#
# PCOD9387474 Si02
#       6
#     8   8   8   4   8   2
#     4  10  22  40  60  83 114 151 189 235 290 343
#     4   9  17  31  51  75 105 143 184 227 278 335
#     4  10  21  38  60  88 122 157 197 245 291 342
#     4   9  17  29  48  75 104 136 180 231 278 329
#     4  10  21  36  56  83 113 145 186 235 285 341
#     4  12  23  38  65  94 119 158 205 240 287 348
#
# _framework density 20.913658000000002
#
# number of rings (size 3 to 8) (size 9 to 14) (size 15 to 20)
#    0.000    2.211    0.000    2.842    1.474    5.474 
#    0.000    3.684    0.000    5.684    0.000    0.000 
#    0.000    0.000    0.000    0.000    0.000    0.000 
#
# Total GULP energy -211539.125063 kJ/mol
# GULP energy per Si atom -5566.819081 kJ/mol
# Density = 2.086606 g / cm^3
# Si number density = 20.913658 Si / 1000 Ang^3
#
#
#
# Elastic Constant Matrix: (Units=GPa)
#
#
# Indices 1 2 3 4 5 6 
#
# 1 174.2890 22.9430 14.6045 0.0000 0.0000 0.0000
# 2 22.9430 68.3160 5.7992 0.0000 0.0000 0.0000
# 3 14.6045 5.7992 19.4962 0.0000 0.0000 0.0000
# 4 0.0000 0.0000 0.0000 8.3102 0.0000 0.0000
# 5 0.0000 0.0000 0.0000 0.0000 46.3926 0.0000
# 6 0.0000 0.0000 0.0000 0.0000 0.0000 41.7800
#
#
#
# Elastic Compliance Matrix: (Units=1/GPa)
#
#
# Indices 1 2 3 4 5 6 
#
# 1 0.006323 -0.001766 -0.004211 0.000000 0.000000 0.000000
# 2 -0.001766 0.015510 -0.003291 0.000000 0.000000 0.000000
# 3 -0.004211 -0.003291 0.055425 0.000000 0.000000 0.000000
# 4 0.000000 0.000000 0.000000 0.120334 0.000000 0.000000
# 5 0.000000 0.000000 0.000000 0.000000 0.021555 0.000000
# 6 0.000000 0.000000 0.000000 0.000000 0.000000 0.023935
#
#
# Mechanical properties :
#
#
# Convention : Reuss Voigt Hill
#
# Bulk Modulus (GPa) = 17.02913 38.75495 27.89204
# Shear Modulus (GPa) = 17.78139 33.88019 25.83079
#
# Velocity S-wave (km/s) = 2.91903 4.02929 3.51823
# Velocity P-wave (km/s) = 4.41829 6.34177 5.46532
#
# Compressibility (1/GPa) = 0.05872292
#
# Stress axis : x y z
#
# Youngs Moduli (GPa) = 158.15422 64.47332 18.04228
#
# Poissons Ratio (x) = 0.11386 0.07598
# Poissons Ratio (y) = 0.27930 0.05937
# Poissons Ratio (z) = 0.66602 0.21216
#
# Static dielectric constant tensor:
#      x y z
#    x 1.737260 0.000000 0.000000 
#    y 0.000000 1.777210 0.000000 
#    z 0.000000 0.000000 1.769220 
# 
# From -- ./inp_files/12147.got.cif
#   From: 2010.05.17/outbox.cif.g08.bks.cpg/sg47_7_cif.got.tgz:12147.got - 2010.06.03 20:15:42.
