data_PCOD9387121
_publ_section_title
;
Structure prediction by ZEFSAII (Michael W. Deem and Ramdas Pophale) SiO2 
 PCOD9387121
Probable space group: P M M M
;
_chemical_formula_sum "Si O2"
_cell_formula_units_Z 48
_cell_length_a 8.672316
_cell_length_b 30.655556
_cell_length_c 10.325361
_cell_angle_alpha 90.000000
_cell_angle_beta 90.000000
_cell_angle_gamma 90.000000
_cell_volume 2745.045429
_symmetry_space_group_name_H-M "P M M M"
_symmetry_group_IT_number 47
_symmetry_cell_setting 'orthorhombic'
loop_
_space_group_symop_operation_xyz
x,y,z
-x,-y,z
x,-y,-z
-x,y,-z
-x,-y,-z
x,y,-z
-x,y,z
x,-y,z
loop_
_atom_site_type_symbol
_atom_site_label
_atom_site_fract_x
_atom_site_fract_y
_atom_site_fract_z
Si Si1 0.687011 0.642752 0.848836
Si Si2 0.315338 0.807967 0.651758
Si Si3 0.815680 0.051577 0.500000
Si Si4 0.317947 0.453142 0.843172
Si Si5 0.314825 0.099455 0.248925
Si Si6 0.815101 0.949343 0.000000
Si Si7 0.184261 0.713247 0.649825
O O1 0.500000 0.642114 0.847222
O O2 0.743532 0.594366 0.805001
O O3 0.745892 0.679256 0.751222
O O4 0.732386 0.649914 0.000000
O O5 0.282851 0.817748 0.500000
O O6 0.500000 0.802452 0.663794
O O7 0.267729 0.849858 0.735000
O O8 0.235448 0.762422 0.684079
O O9 0.743643 0.073883 0.625505
O O10 0.000000 0.057632 0.500000
O O11 0.783980 0.000000 0.500000
O O12 0.500000 0.453613 0.809611
O O13 0.251324 0.500000 0.798981
O O14 0.310516 0.452995 0.000000
O O15 0.500000 0.098318 0.244755
O O16 0.246495 0.075785 0.124889
O O17 0.000000 0.949037 0.000000
O O18 0.764242 0.000000 0.000000
O O19 0.235403 0.705337 0.500000
O O20 0.000000 0.710318 0.652909
#
# Coordination Sequence:
#
# PCOD9387121 Si02
#       7
#     8   8   4   8   8   4   8
#     4   9  17  30  50  77 105 134 170 214 265 314
#     4   9  18  36  59  82 106 132 169 219 269 314
#     4  11  23  37  57  87 119 149 179 217 266 317
#     4   7  10  19  39  68  99 128 162 208 259 308
#     4  11  22  39  62  87 111 141 183 228 270 315
#     4  11  25  43  59  81 117 155 185 215 262 323
#     4  10  21  35  52  75 102 137 178 215 256 311
#
# _framework density 17.486048
#
# number of rings (size 3 to 8) (size 9 to 14) (size 15 to 20)
#    0.000    2.500    0.833    3.500    0.000    6.000 
#    1.500    0.000    0.000    1.000    0.000    5.833 
#    0.000    0.000    0.000    0.000    0.000    0.000 
#
# Total GULP energy -267548.267455 kJ/mol
# GULP energy per Si atom -5573.922239 kJ/mol
# Density = 1.744625 g / cm^3
# Si number density = 17.486048 Si / 1000 Ang^3
#
#
#
# Elastic Constant Matrix: (Units=GPa)
#
#
# Indices 1 2 3 4 5 6 
#
# 1 27.1673 47.6825 30.3570 0.0000 0.0000 0.0000
# 2 47.6825 190.5230 94.3020 0.0000 0.0000 0.0000
# 3 30.3570 94.3020 110.4573 0.0000 0.0000 0.0000
# 4 0.0000 0.0000 0.0000 30.2367 0.0000 0.0000
# 5 0.0000 0.0000 0.0000 0.0000 23.3767 0.0000
# 6 0.0000 0.0000 0.0000 0.0000 0.0000 -70.4525
#
#
#
# Elastic Compliance Matrix: (Units=1/GPa)
#
#
# Indices 1 2 3 4 5 6 
#
# 1 0.068879 -0.013627 -0.007296 0.000000 0.000000 0.000000
# 2 -0.013627 0.011786 -0.006317 0.000000 0.000000 0.000000
# 3 -0.007296 -0.006317 0.016451 0.000000 0.000000 0.000000
# 4 0.000000 0.000000 0.000000 0.033072 0.000000 0.000000
# 5 0.000000 0.000000 0.000000 0.000000 0.042778 0.000000
# 6 0.000000 0.000000 0.000000 0.000000 0.000000 -0.014194
#
#
# Mechanical properties :
#
#
# Convention : Reuss Voigt Hill
#
# Bulk Modulus (GPa) = 23.45413 74.75896 49.10654
# Shear Modulus (GPa) = 21.98138 7.01925 14.50032
#
# Velocity S-wave (km/s) = 3.54938 2.00572 2.88280
# Velocity P-wave (km/s) = 5.49906 6.94336 6.26298
#
# Compressibility (1/GPa) = 0.04263642
#
# Stress axis : x y z
#
# Youngs Moduli (GPa) = 14.51813 84.84733 60.78510
#
# Poissons Ratio (x) = 1.15624 0.44348
# Poissons Ratio (y) = 0.19784 0.38397
# Poissons Ratio (z) = 0.10592 0.53597
#
# Static dielectric constant tensor:
#      x y z
#    x 1.589290 0.000000 0.000000 
#    y 0.000000 1.618700 0.000000 
#    z 0.000000 0.000000 1.584630 
# 
# From -- ./inp_files/2739.got.cif
#   From: 2010.05.17/outbox.cif.g08.bks.cpg/sg47_2_cif.got.tgz:2739.got - 2010.06.03 20:15:42.
