data_PCOD9387256
_publ_section_title
;
Structure prediction by ZEFSAII (Michael W. Deem and Ramdas Pophale) SiO2 
 PCOD9387256
Probable space group: P M M M
;
_chemical_formula_sum "Si O2"
_cell_formula_units_Z 56
_cell_length_a 19.541714
_cell_length_b 8.641172
_cell_length_c 19.233765
_cell_angle_alpha 90.000000
_cell_angle_beta 90.000000
_cell_angle_gamma 90.000000
_cell_volume 3247.877257
_symmetry_space_group_name_H-M "P M M M"
_symmetry_group_IT_number 47
_symmetry_cell_setting 'orthorhombic'
loop_
_space_group_symop_operation_xyz
x,y,z
-x,-y,z
x,-y,-z
-x,y,-z
-x,-y,-z
x,y,-z
-x,y,z
x,-y,z
loop_
_atom_site_type_symbol
_atom_site_label
_atom_site_fract_x
_atom_site_fract_y
_atom_site_fract_z
Si Si1 0.794126 0.314833 0.790090
Si Si2 0.077861 0.814930 0.709160
Si Si3 0.154552 0.313357 0.579583
Si Si4 0.292786 0.685853 0.341513
Si Si5 0.421930 0.186559 0.419842
Si Si6 0.277595 0.187464 0.080381
Si Si7 0.572972 0.817807 0.084342
O O1 0.793841 0.500000 0.791242
O O2 0.866528 0.257734 0.760819
O O3 0.736109 0.263866 0.733828
O O4 0.776816 0.248622 0.865255
O O5 0.101680 0.762671 0.632553
O O6 0.000000 0.765443 0.722740
O O7 0.081477 0.000000 0.714017
O O8 0.144208 0.268294 0.500000
O O9 0.148629 0.500000 0.585265
O O10 0.231174 0.272841 0.605387
O O11 0.298532 0.500000 0.340805
O O12 0.363942 0.753604 0.368092
O O13 0.407605 0.235676 0.500000
O O14 0.500000 0.235413 0.402856
O O15 0.420891 0.000000 0.418983
O O16 0.353115 0.246089 0.104441
O O17 0.279139 0.000000 0.081499
O O18 0.266367 0.233530 0.000000
O O19 0.500000 0.749445 0.107989
O O20 0.572322 0.000000 0.103217
O O21 0.573211 0.812832 0.000000
#
# Coordination Sequence:
#
# PCOD9387256 Si02
#       7
#     8   8   8   8   8   8   8
#     4  10  21  36  53  73  99 131 164 199 242 296
#     4  10  21  36  54  76 101 129 162 201 243 287
#     4   9  18  32  50  74 104 135 165 198 238 287
#     4   9  18  32  48  67  93 127 168 207 241 284
#     4   9  18  31  46  67  95 126 164 212 261 301
#     4   9  17  30  51  78 104 130 163 205 249 291
#     4   7  10  19  38  65  95 124 154 189 229 274
#
# _framework density 17.242031000000001
#
# number of rings (size 3 to 8) (size 9 to 14) (size 15 to 20)
#    0.000    3.000    0.000    3.857    0.000    6.000 
#    0.000    2.857    0.000    3.429    0.000    5.000 
#    0.000    0.000    0.000    0.000    0.000    0.000 
#
# Total GULP energy -311921.637267 kJ/mol
# GULP energy per Si atom -5570.029237 kJ/mol
# Density = 1.720279 g / cm^3
# Si number density = 17.242031 Si / 1000 Ang^3
#
#
#
# Elastic Constant Matrix: (Units=GPa)
#
#
# Indices 1 2 3 4 5 6 
#
# 1 129.2664 27.9709 73.5860 0.0000 0.0000 0.0000
# 2 27.9709 16.6151 27.1701 0.0000 0.0000 0.0000
# 3 73.5860 27.1701 102.9178 0.0000 0.0000 0.0000
# 4 0.0000 0.0000 0.0000 21.7500 0.0000 0.0000
# 5 0.0000 0.0000 0.0000 0.0000 12.7434 0.0000
# 6 0.0000 0.0000 0.0000 0.0000 0.0000 -7.8448
#
#
#
# Elastic Compliance Matrix: (Units=1/GPa)
#
#
# Indices 1 2 3 4 5 6 
#
# 1 0.014509 -0.013130 -0.006908 0.000000 0.000000 0.000000
# 2 -0.013130 0.117788 -0.021708 0.000000 0.000000 0.000000
# 3 -0.006908 -0.021708 0.020387 0.000000 0.000000 0.000000
# 4 0.000000 0.000000 0.000000 0.045977 0.000000 0.000000
# 5 0.000000 0.000000 0.000000 0.000000 0.078472 0.000000
# 6 0.000000 0.000000 0.000000 0.000000 0.000000 -0.127473
#
#
# Mechanical properties :
#
#
# Convention : Reuss Voigt Hill
#
# Bulk Modulus (GPa) = 14.45241 56.25034 35.35138
# Shear Modulus (GPa) = 19.51479 13.33455 16.42467
#
# Velocity S-wave (km/s) = 3.36790 2.78398 3.08976
# Velocity P-wave (km/s) = 4.85015 6.55964 5.76857
#
# Compressibility (1/GPa) = 0.06919260
#
# Stress axis : x y z
#
# Youngs Moduli (GPa) = 68.92074 8.48982 49.05184
#
# Poissons Ratio (x) = 0.11147 0.33885
# Poissons Ratio (y) = 0.90491 1.06482
# Poissons Ratio (z) = 0.47610 0.18430
#
# Static dielectric constant tensor:
#      x y z
#    x 1.601040 0.000000 0.000000 
#    y 0.000000 1.589690 0.000000 
#    z 0.000000 0.000000 1.576660 
# 
# From -- ./inp_files/31301.got.cif
#   From: 2010.05.17/outbox.cif.g08.bks.cpg/sg47_16_cif.got.tgz:31301.got - 2010.06.03 20:15:42.
