data_PCOD9387952
_publ_section_title
;
Structure prediction by ZEFSAII (Michael W. Deem and Ramdas Pophale) SiO2 
 PCOD9387952
Probable space group: P M M M
;
_chemical_formula_sum "Si O2"
_cell_formula_units_Z 44
_cell_length_a 7.633528
_cell_length_b 31.042079
_cell_length_c 9.561874
_cell_angle_alpha 90.000000
_cell_angle_beta 90.000000
_cell_angle_gamma 90.000000
_cell_volume 2265.787202
_symmetry_space_group_name_H-M "P M M M"
_symmetry_group_IT_number 47
_symmetry_cell_setting 'orthorhombic'
loop_
_space_group_symop_operation_xyz
x,y,z
-x,-y,z
x,-y,-z
-x,y,-z
-x,-y,-z
x,y,-z
-x,y,z
x,-y,z
loop_
_atom_site_type_symbol
_atom_site_label
_atom_site_fract_x
_atom_site_fract_y
_atom_site_fract_z
Si Si1 0.787924 0.803188 0.660884
Si Si2 0.298896 0.901216 0.335219
Si Si3 0.785283 0.278914 0.160421
Si Si4 0.000000 0.948595 0.835119
Si Si5 0.710729 0.453671 0.336841
Si Si6 0.791615 0.640346 0.659467
O O1 0.738488 0.793684 0.500000
O O2 0.718140 0.850370 0.697898
O O3 0.730992 0.764677 0.761069
O O4 0.000000 0.805683 0.665905
O O5 0.251683 0.905633 0.500000
O O6 0.500000 0.914624 0.317698
O O7 0.167968 0.927992 0.240200
O O8 0.724458 0.320855 0.245741
O O9 0.000000 0.279240 0.161178
O O10 0.729028 0.279872 0.000000
O O11 0.000000 0.000000 0.818213
O O12 0.000000 0.938553 0.000000
O O13 0.768415 0.453056 0.500000
O O14 0.500000 0.454225 0.336137
O O15 0.770482 0.500000 0.277096
O O16 0.764324 0.407448 0.278246
O O17 0.720093 0.641588 0.500000
O O18 0.000000 0.646396 0.648592
#
# Coordination Sequence:
#
# PCOD9387952 Si02
#       6
#     8   8   8   4   8   8
#     4   9  16  30  53  79 107 140 178 223 274 327
#     4  10  21  39  64  93 122 154 198 251 301 348
#     4   9  17  28  44  68  97 132 170 205 247 307
#     4  11  25  43  63  89 125 167 205 243 292 351
#     4   8  14  25  41  61  84 110 143 187 241 298
#     4   9  16  26  42  65  90 116 151 197 246 295
#
# _framework density 19.419298000000001
#
# number of rings (size 3 to 8) (size 9 to 14) (size 15 to 20)
#    0.000    2.818    0.909    1.364    0.000    4.727 
#    0.000    4.545    0.000    6.545    0.000    3.818 
#    0.000    0.000    0.000    0.000    0.000    0.000 
#
# Total GULP energy -245391.556856 kJ/mol
# GULP energy per Si atom -5577.080838 kJ/mol
# Density = 1.937510 g / cm^3
# Si number density = 19.419298 Si / 1000 Ang^3
#
#
#
# Elastic Constant Matrix: (Units=GPa)
#
#
# Indices 1 2 3 4 5 6 
#
# 1 58.1723 44.6347 38.1083 0.0000 0.0000 0.0000
# 2 44.6347 154.0623 102.9063 0.0000 0.0000 0.0000
# 3 38.1083 102.9063 101.8070 0.0000 0.0000 0.0000
# 4 0.0000 0.0000 0.0000 -20.9125 0.0000 0.0000
# 5 0.0000 0.0000 0.0000 0.0000 4.7625 0.0000
# 6 0.0000 0.0000 0.0000 0.0000 0.0000 150.4432
#
#
#
# Elastic Compliance Matrix: (Units=1/GPa)
#
#
# Indices 1 2 3 4 5 6 
#
# 1 0.023169 -0.002831 -0.005811 0.000000 0.000000 0.000000
# 2 -0.002831 0.020328 -0.019488 0.000000 0.000000 0.000000
# 3 -0.005811 -0.019488 0.031696 0.000000 0.000000 0.000000
# 4 0.000000 0.000000 0.000000 -0.047818 0.000000 0.000000
# 5 0.000000 0.000000 0.000000 0.000000 0.209972 0.000000
# 6 0.000000 0.000000 0.000000 0.000000 0.000000 0.006647
#
#
# Mechanical properties :
#
#
# Convention : Reuss Voigt Hill
#
# Bulk Modulus (GPa) = 52.81670 76.14891 64.48280
# Shear Modulus (GPa) = 16.30975 35.41814 25.86394
#
# Velocity S-wave (km/s) = 2.90120 4.27530 3.65344
# Velocity P-wave (km/s) = 6.20320 7.97929 7.14664
#
# Compressibility (1/GPa) = 0.01893341
#
# Stress axis : x y z
#
# Youngs Moduli (GPa) = 43.16045 49.19313 31.54974
#
# Poissons Ratio (x) = 0.13927 0.18334
# Poissons Ratio (y) = 0.12219 0.61484
# Poissons Ratio (z) = 0.25081 0.95867
#
# Static dielectric constant tensor:
#      x y z
#    x 1.717370 0.000000 0.000000 
#    y 0.000000 1.681480 0.000000 
#    z 0.000000 0.000000 1.649940 
# 
# From -- ./inp_files/2255.got.cif
#   From: 2010.05.17/outbox.cif.g08.bks.cpg/sg47_2_cif.got.tgz:2255.got - 2010.06.03 20:15:42.
