data_PCOD9387163
_publ_section_title
;
Structure prediction by ZEFSAII (Michael W. Deem and Ramdas Pophale) SiO2 
 PCOD9387163
Probable space group: P M M M
;
_chemical_formula_sum "Si O2"
_cell_formula_units_Z 56
_cell_length_a 23.987627
_cell_length_b 14.605482
_cell_length_c 9.223496
_cell_angle_alpha 90.000000
_cell_angle_beta 90.000000
_cell_angle_gamma 90.000000
_cell_volume 3231.459704
_symmetry_space_group_name_H-M "P M M M"
_symmetry_group_IT_number 47
_symmetry_cell_setting 'orthorhombic'
loop_
_space_group_symop_operation_xyz
x,y,z
-x,-y,z
x,-y,-z
-x,y,-z
-x,-y,-z
x,y,-z
-x,y,z
x,-y,z
loop_
_atom_site_type_symbol
_atom_site_label
_atom_site_fract_x
_atom_site_fract_y
_atom_site_fract_z
Si Si1 0.141825 0.750000 0.672197
Si Si2 0.935690 0.390857 0.829826
Si Si3 0.064310 0.890857 0.829825
Si Si4 0.356119 0.892951 0.826596
Si Si5 0.643881 0.607049 0.826596
Si Si6 0.740242 0.750000 0.171881
Si Si7 0.565693 0.750000 0.673125
O O1 0.143444 0.750000 0.500000
O O2 0.107491 0.663460 0.732862
O O3 0.107491 0.836540 0.732862
O O4 0.203589 0.750000 0.737885
O O5 0.929933 0.500000 0.814003
O O6 0.000000 0.366984 0.795021
O O7 0.926787 0.368806 0.000000
O O8 0.000000 0.866984 0.795022
O O9 0.070067 0.000000 0.814001
O O10 0.073213 0.868807 0.000000
O O11 0.298737 0.838185 0.797293
O O12 0.404065 0.838164 0.742551
O O13 0.353225 0.000000 0.789391
O O14 0.365984 0.884979 0.000000
O O15 0.646775 0.500000 0.789390
O O16 0.701263 0.661815 0.797293
O O17 0.595935 0.661836 0.742552
O O18 0.634016 0.615021 0.000000
O O19 0.753191 0.749999 0.000000
O O20 0.573519 0.750000 0.500000
O O21 0.500000 0.750001 0.704500
#
# Coordination Sequence:
#
# PCOD9387163 Si02
#       7
#     8   8   8   8   8   8   8
#     4  12  24  34  50  80 113 141 170 210 265 322
#     4   9  19  37  59  79 100 133 178 221 260 309
#     4   9  19  37  59  79 100 133 178 221 260 309
#     4   9  19  37  60  82 103 134 179 227 270 307
#     4   9  19  37  60  82 103 134 179 227 270 307
#     4   9  19  36  55  76 104 138 178 221 262 310
#     4  10  21  35  52  80 117 150 178 209 251 311
#
# _framework density 17.329629000000001
#
# number of rings (size 3 to 8) (size 9 to 14) (size 15 to 20)
#    0.000    2.429    0.000    3.857    0.000    8.571 
#    0.000    7.143    0.000    0.000    0.000    0.000 
#    0.000    0.000    0.000    0.000    0.000    0.000 
#
# Total GULP energy -312566.049937 kJ/mol
# GULP energy per Si atom -5581.536606 kJ/mol
# Density = 1.729019 g / cm^3
# Si number density = 17.329629 Si / 1000 Ang^3
#
#
#
# Elastic Constant Matrix: (Units=GPa)
#
#
# Indices 1 2 3 4 5 6 
#
# 1 169.2846 91.5117 108.5069 0.0000 0.0000 0.0000
# 2 91.5117 151.3606 71.8012 0.0000 0.0000 0.0000
# 3 108.5069 71.8012 93.7770 0.0000 0.0000 0.0000
# 4 0.0000 0.0000 0.0000 47.7688 0.0000 0.0000
# 5 0.0000 0.0000 0.0000 0.0000 129.0866 0.0000
# 6 0.0000 0.0000 0.0000 0.0000 0.0000 9.9772
#
#
#
# Elastic Compliance Matrix: (Units=1/GPa)
#
#
# Indices 1 2 3 4 5 6 
#
# 1 0.023258 -0.002035 -0.025353 0.000000 0.000000 0.000000
# 2 -0.002035 0.010553 -0.005726 0.000000 0.000000 0.000000
# 3 -0.025353 -0.005726 0.044383 0.000000 0.000000 0.000000
# 4 0.000000 0.000000 0.000000 0.020934 0.000000 0.000000
# 5 0.000000 0.000000 0.000000 0.000000 0.007747 0.000000
# 6 0.000000 0.000000 0.000000 0.000000 0.000000 0.100229
#
#
# Mechanical properties :
#
#
# Convention : Reuss Voigt Hill
#
# Bulk Modulus (GPa) = 83.56504 106.45131 95.00817
# Shear Modulus (GPa) = 18.02980 46.87334 32.45157
#
# Velocity S-wave (km/s) = 3.22903 5.20642 4.33206
# Velocity P-wave (km/s) = 7.88846 9.88449 8.94234
#
# Compressibility (1/GPa) = 0.01196673
#
# Stress axis : x y z
#
# Youngs Moduli (GPa) = 42.99649 94.75949 22.53130
#
# Poissons Ratio (x) = 0.19281 0.57123
# Poissons Ratio (y) = 0.08749 0.12901
# Poissons Ratio (z) = 1.09009 0.54256
#
# Static dielectric constant tensor:
#      x y z
#    x 1.559850 0.000000 0.000000 
#    y 0.000000 1.590480 0.000000 
#    z 0.000000 0.000000 1.567320 
# 
# From -- ./inp_files/11227.got.cif
#   From: 2010.05.17/outbox.cif.g08.bks.cpg/sg47_6_cif.got.tgz:11227.got - 2010.06.03 20:15:42.
