data_PCOD9387324
_publ_section_title
;
Structure prediction by ZEFSAII (Michael W. Deem and Ramdas Pophale) SiO2 
 PCOD9387324
Probable space group: P M M M
;
_chemical_formula_sum "Si O2"
_cell_formula_units_Z 48
_cell_length_a 31.048042
_cell_length_b 9.909562
_cell_length_c 9.225633
_cell_angle_alpha 90.000000
_cell_angle_beta 90.000000
_cell_angle_gamma 90.000000
_cell_volume 2838.473543
_symmetry_space_group_name_H-M "P M M M"
_symmetry_group_IT_number 47
_symmetry_cell_setting 'orthorhombic'
loop_
_space_group_symop_operation_xyz
x,y,z
-x,-y,z
x,-y,-z
-x,y,-z
-x,-y,-z
x,y,-z
-x,y,z
x,-y,z
loop_
_atom_site_type_symbol
_atom_site_label
_atom_site_fract_x
_atom_site_fract_y
_atom_site_fract_z
Si Si1 0.120439 0.159507 0.171864
Si Si2 0.949823 0.658999 0.672641
Si Si3 0.549059 0.158286 0.673995
Si Si4 0.281552 0.659734 0.173108
Si Si5 0.210698 0.159478 0.327816
Si Si6 0.619156 0.342859 0.826055
O O1 0.082464 0.248480 0.238448
O O2 0.165389 0.192119 0.250993
O O3 0.111927 0.000000 0.195588
O O4 0.124544 0.181970 0.000000
O O5 0.943781 0.680257 0.500000
O O6 0.942311 0.500000 0.701391
O O7 0.000000 0.687629 0.705886
O O8 0.552172 0.171551 0.500000
O O9 0.500000 0.195764 0.715898
O O10 0.584660 0.248693 0.749781
O O11 0.555047 0.000000 0.708924
O O12 0.274728 0.500000 0.200220
O O13 0.248235 0.750552 0.259850
O O14 0.331269 0.691183 0.211447
O O15 0.276495 0.681093 0.000000
O O16 0.207286 0.181038 0.500000
O O17 0.219214 0.000000 0.302785
O O18 0.612087 0.500000 0.787931
O O19 0.615414 0.331464 0.000000
#
# Coordination Sequence:
#
# PCOD9387324 Si02
#       6
#     8   8   8   8   8   8
#     4  10  21  36  54  77 105 137 173 212 254 302
#     4   9  19  36  56  78 105 137 173 212 254 302
#     4   9  19  35  52  72 101 135 170 209 252 299
#     4   9  19  36  55  75 102 135 169 206 251 303
#     4  10  21  36  54  77 104 134 170 211 254 301
#     4   9  19  35  53  75 103 133 167 208 252 300
#
# _framework density 16.910498
#
# number of rings (size 3 to 8) (size 9 to 14) (size 15 to 20)
#    0.000    2.667    0.000    3.000    0.000    6.667 
#    0.000   10.000    0.000    0.000    0.000    0.000 
#    0.000    0.000    0.000    0.000    0.000    0.000 
#
# Total GULP energy -267784.947735 kJ/mol
# GULP energy per Si atom -5578.853078 kJ/mol
# Density = 1.687201 g / cm^3
# Si number density = 16.910498 Si / 1000 Ang^3
#
#
#
# Elastic Constant Matrix: (Units=GPa)
#
#
# Indices 1 2 3 4 5 6 
#
# 1 178.3691 116.6026 97.4424 0.0000 0.0000 0.0000
# 2 116.6026 88.6222 73.4396 0.0000 0.0000 0.0000
# 3 97.4424 73.4396 73.6384 0.0000 0.0000 0.0000
# 4 0.0000 0.0000 0.0000 35.8759 0.0000 0.0000
# 5 0.0000 0.0000 0.0000 0.0000 40.1532 0.0000
# 6 0.0000 0.0000 0.0000 0.0000 0.0000 42.5827
#
#
#
# Elastic Compliance Matrix: (Units=1/GPa)
#
#
# Indices 1 2 3 4 5 6 
#
# 1 0.040161 -0.050716 -0.002564 0.000000 0.000000 0.000000
# 2 -0.050716 0.129061 -0.061602 0.000000 0.000000 0.000000
# 3 -0.002564 -0.061602 0.078409 0.000000 0.000000 0.000000
# 4 0.000000 0.000000 0.000000 0.027874 0.000000 0.000000
# 5 0.000000 0.000000 0.000000 0.000000 0.024905 0.000000
# 6 0.000000 0.000000 0.000000 0.000000 0.000000 0.023484
#
#
# Mechanical properties :
#
#
# Convention : Reuss Voigt Hill
#
# Bulk Modulus (GPa) = 55.97254 101.73324 78.85289
# Shear Modulus (GPa) = 8.93475 27.26535 18.10005
#
# Velocity S-wave (km/s) = 2.30109 4.01974 3.27516
# Velocity P-wave (km/s) = 6.34280 9.04626 7.81236
#
# Compressibility (1/GPa) = 0.01786590
#
# Stress axis : x y z
#
# Youngs Moduli (GPa) = 24.89983 7.74828 12.75367
#
# Poissons Ratio (x) = 0.39296 0.03270
# Poissons Ratio (y) = 1.26282 0.78566
# Poissons Ratio (z) = 0.06385 0.47731
#
# Static dielectric constant tensor:
#      x y z
#    x 1.545900 0.000000 0.000000 
#    y 0.000000 1.552080 0.000000 
#    z 0.000000 0.000000 1.557550 
# 
# From -- ./inp_files/2425.got.cif
#   From: 2010.05.17/outbox.cif.g08.bks.cpg/sg47_2_cif.got.tgz:2425.got - 2010.06.03 20:15:42.
