data_PCOD9387711
_publ_section_title
;
Structure prediction by ZEFSAII (Michael W. Deem and Ramdas Pophale) SiO2 
 PCOD9387711
Probable space group: P M M M
;
_chemical_formula_sum "Si O2"
_cell_formula_units_Z 37
_cell_length_a 21.098879
_cell_length_b 10.761575
_cell_length_c 7.861141
_cell_angle_alpha 90.000000
_cell_angle_beta 90.000000
_cell_angle_gamma 90.000000
_cell_volume 1784.928419
_symmetry_space_group_name_H-M "P M M M"
_symmetry_group_IT_number 47
_symmetry_cell_setting 'orthorhombic'
loop_
_space_group_symop_operation_xyz
x,y,z
-x,-y,z
x,-y,-z
-x,y,-z
-x,-y,-z
x,y,-z
-x,y,z
x,-y,z
loop_
_atom_site_type_symbol
_atom_site_label
_atom_site_fract_x
_atom_site_fract_y
_atom_site_fract_z
Si Si1 0.768833 0.135433 0.704032
Si Si2 0.500000 0.500000 0.000000
Si Si3 0.000000 0.650056 0.693862
Si Si4 0.363934 0.773838 0.701311
Si Si5 0.500000 0.851576 0.698915
Si Si6 0.859996 0.359242 0.199171
Si Si7 0.394707 0.500000 0.303239
O O1 0.763516 0.129695 0.500000
O O2 0.697592 0.158787 0.772508
O O3 0.813074 0.252963 0.738024
O O4 0.792300 0.000000 0.764037
O O5 0.445583 0.500000 0.847225
O O6 0.932774 0.683789 0.774270
O O7 0.000000 0.500000 0.697497
O O8 0.000000 0.693367 0.500000
O O9 0.368101 0.808322 0.500000
O O10 0.433673 0.804186 0.774888
O O11 0.355160 0.626240 0.712219
O O12 0.500000 0.810346 0.500000
O O13 0.500000 0.000000 0.703665
O O14 0.852520 0.500000 0.274085
O O15 0.848975 0.370378 0.000000
O O16 0.420883 0.500000 0.500000
#
# Coordination Sequence:
#
# PCOD9387711 Si02
#       7
#     8   1   4   8   4   8   4
#     4  10  21  37  58  86 119 157 205 256 306 361
#     4  12  22  36  56  86 118 152 186 254 314 386
#     4   9  17  33  60  93 122 151 192 244 294 343
#     4   9  18  33  54  78 109 146 191 246 303 361
#     4   9  15  25  46  74 100 133 181 234 289 350
#     4  10  21  37  59  88 122 161 199 240 292 358
#     4  10  21  37  57  84 115 150 193 248 317 379
#
# _framework density 20.729120999999999
#
# number of rings (size 3 to 8) (size 9 to 14) (size 15 to 20)
#    0.000    2.378    0.000    2.432    1.514    7.351 
#    1.946    0.541    0.000    3.243    0.000    2.270 
#    0.000    0.000    0.000    0.000    0.000    0.000 
#
# Total GULP energy -205999.190301 kJ/mol
# GULP energy per Si atom -5567.545684 kJ/mol
# Density = 2.068194 g / cm^3
# Si number density = 20.729121 Si / 1000 Ang^3
#
#
#
# Elastic Constant Matrix: (Units=GPa)
#
#
# Indices 1 2 3 4 5 6 
#
# 1 136.9413 84.6140 4.8931 0.0000 0.0000 0.0000
# 2 84.6140 116.5193 17.7274 0.0000 0.0000 0.0000
# 3 4.8931 17.7274 56.6345 0.0000 0.0000 0.0000
# 4 0.0000 0.0000 0.0000 7.4094 0.0000 0.0000
# 5 0.0000 0.0000 0.0000 0.0000 -55.7236 0.0000
# 6 0.0000 0.0000 0.0000 0.0000 0.0000 17.7132
#
#
#
# Elastic Compliance Matrix: (Units=1/GPa)
#
#
# Indices 1 2 3 4 5 6 
#
# 1 0.013456 -0.010074 0.001991 0.000000 0.000000 0.000000
# 2 -0.010074 0.016554 -0.004311 0.000000 0.000000 0.000000
# 3 0.001991 -0.004311 0.018835 0.000000 0.000000 0.000000
# 4 0.000000 0.000000 0.000000 0.134964 0.000000 0.000000
# 5 0.000000 0.000000 0.000000 0.000000 -0.017946 0.000000
# 6 0.000000 0.000000 0.000000 0.000000 0.000000 0.056455
#
#
# Mechanical properties :
#
#
# Convention : Reuss Voigt Hill
#
# Bulk Modulus (GPa) = 41.57129 58.28491 49.92810
# Shear Modulus (GPa) = 19.59813 7.40383 13.50098
#
# Velocity S-wave (km/s) = 3.07814 1.89195 2.55484
# Velocity P-wave (km/s) = 5.72113 5.74030 5.73072
#
# Compressibility (1/GPa) = 0.02405506
#
# Stress axis : x y z
#
# Youngs Moduli (GPa) = 74.31565 60.40819 53.09393
#
# Poissons Ratio (x) = 0.60858 -0.10570
# Poissons Ratio (y) = 0.74869 0.22890
# Poissons Ratio (z) = -0.14795 0.26043
#
# Static dielectric constant tensor:
#      x y z
#    x 1.766750 0.000000 0.000000 
#    y 0.000000 1.768460 0.000000 
#    z 0.000000 0.000000 1.770620 
# 
# From -- ./inp_files/8744.got.cif
#   From: 2010.05.17/outbox.cif.g08.bks.cpg/sg47_5_cif.got.tgz:8744.got - 2010.06.03 20:15:42.
