data_PCOD9387757
_publ_section_title
;
Structure prediction by ZEFSAII (Michael W. Deem and Ramdas Pophale) SiO2 
 PCOD9387757
Probable space group: P M M M
;
_chemical_formula_sum "Si O2"
_cell_formula_units_Z 48
_cell_length_a 9.918846
_cell_length_b 29.561819
_cell_length_c 7.922041
_cell_angle_alpha 90.000000
_cell_angle_beta 90.000000
_cell_angle_gamma 90.000000
_cell_volume 2322.893971
_symmetry_space_group_name_H-M "P M M M"
_symmetry_group_IT_number 47
_symmetry_cell_setting 'orthorhombic'
loop_
_space_group_symop_operation_xyz
x,y,z
-x,-y,z
x,-y,-z
-x,y,-z
-x,-y,-z
x,y,-z
-x,y,z
x,-y,z
loop_
_atom_site_type_symbol
_atom_site_label
_atom_site_fract_x
_atom_site_fract_y
_atom_site_fract_z
Si Si1 0.153789 0.211383 0.700521
Si Si2 0.000000 0.552478 0.292586
Si Si3 0.345924 0.291514 0.197641
Si Si4 0.748930 0.389298 0.304451
Si Si5 0.500000 0.553477 0.799443
Si Si6 0.848524 0.052247 0.203933
Si Si7 0.346054 0.868259 0.298054
O O1 0.141861 0.203646 0.500000
O O2 0.238293 0.257255 0.724215
O O3 0.248001 0.171150 0.771070
O O4 0.000000 0.212963 0.768421
O O5 0.126499 0.582098 0.235379
O O6 0.000000 0.500000 0.237369
O O7 0.000000 0.551123 0.500000
O O8 0.500000 0.287750 0.266552
O O9 0.293372 0.342591 0.218863
O O10 0.352403 0.280965 0.000000
O O11 0.776180 0.378324 0.500000
O O12 0.626771 0.423725 0.286722
O O13 0.500000 0.500000 0.779577
O O14 0.500000 0.564059 0.000000
O O15 0.731419 0.084925 0.266000
O O16 0.000000 0.066847 0.259012
O O17 0.830050 0.000000 0.256403
O O18 0.847791 0.053103 0.000000
O O19 0.355260 0.861910 0.500000
O O20 0.500000 0.866985 0.232089
#
# Coordination Sequence:
#
# PCOD9387757 Si02
#       7
#     8   4   8   8   4   8   8
#     4  10  22  40  63  88 114 148 194 242 289 347
#     4   9  20  38  59  87 119 147 187 241 286 333
#     4  11  24  41  60  85 119 153 188 235 292 350
#     4  11  22  38  63  89 115 153 196 239 288 343
#     4  11  23  39  59  87 123 157 193 239 288 341
#     4   9  19  36  57  82 115 157 203 248 294 349
#     4  10  21  37  58  86 119 154 194 244 297 350
#
# _framework density 20.663881
#
# number of rings (size 3 to 8) (size 9 to 14) (size 15 to 20)
#    0.000    1.833    0.833    3.250    1.167    6.000 
#    0.000    3.750    0.000    3.000    0.000    0.000 
#    0.000    0.000    0.000    0.000    0.000    0.000 
#
# Total GULP energy -268010.361973 kJ/mol
# GULP energy per Si atom -5583.549208 kJ/mol
# Density = 2.061685 g / cm^3
# Si number density = 20.663881 Si / 1000 Ang^3
#
#
#
# Elastic Constant Matrix: (Units=GPa)
#
#
# Indices 1 2 3 4 5 6 
#
# 1 225.4492 90.8861 4.5710 0.0000 0.0000 0.0000
# 2 90.8861 105.2847 -0.2493 0.0000 0.0000 0.0000
# 3 4.5710 -0.2493 19.7947 0.0000 0.0000 0.0000
# 4 0.0000 0.0000 0.0000 29.9992 0.0000 0.0000
# 5 0.0000 0.0000 0.0000 0.0000 0.3962 0.0000
# 6 0.0000 0.0000 0.0000 0.0000 0.0000 -26.7595
#
#
#
# Elastic Compliance Matrix: (Units=1/GPa)
#
#
# Indices 1 2 3 4 5 6 
#
# 1 0.006857 -0.005923 -0.001658 0.000000 0.000000 0.000000
# 2 -0.005923 0.014615 0.001552 0.000000 0.000000 0.000000
# 3 -0.001658 0.001552 0.050921 0.000000 0.000000 0.000000
# 4 0.000000 0.000000 0.000000 0.033334 0.000000 0.000000
# 5 0.000000 0.000000 0.000000 0.000000 2.524051 0.000000
# 6 0.000000 0.000000 0.000000 0.000000 0.000000 -0.037370
#
#
# Mechanical properties :
#
#
# Convention : Reuss Voigt Hill
#
# Bulk Modulus (GPa) = 16.57437 60.10492 38.33964
# Shear Modulus (GPa) = 1.90507 17.74856 9.82681
#
# Velocity S-wave (km/s) = 0.96121 2.93391 2.18309
# Velocity P-wave (km/s) = 3.04471 6.37395 4.99487
#
# Compressibility (1/GPa) = 0.06033413
#
# Stress axis : x y z
#
# Youngs Moduli (GPa) = 145.83523 68.42331 19.63827
#
# Poissons Ratio (x) = 0.40529 0.03256
# Poissons Ratio (y) = 0.86381 -0.03048
# Poissons Ratio (z) = 0.24180 -0.10618
#
# Static dielectric constant tensor:
#      x y z
#    x 1.729260 0.000000 0.000000 
#    y 0.000000 1.706110 0.000000 
#    z 0.000000 0.000000 1.767860 
# 
# From -- ./inp_files/2642.got.cif
#   From: 2010.05.17/outbox.cif.g08.bks.cpg/sg47_2_cif.got.tgz:2642.got - 2010.06.03 20:15:42.
