data_PCOD9387858
_publ_section_title
;
Structure prediction by ZEFSAII (Michael W. Deem and Ramdas Pophale) SiO2 
 PCOD9387858
Probable space group: P M M M
;
_chemical_formula_sum "Si O2"
_cell_formula_units_Z 48
_cell_length_a 17.145210
_cell_length_b 8.516677
_cell_length_c 17.563454
_cell_angle_alpha 90.000000
_cell_angle_beta 90.000000
_cell_angle_gamma 90.000000
_cell_volume 2564.619341
_symmetry_space_group_name_H-M "P M M M"
_symmetry_group_IT_number 47
_symmetry_cell_setting 'orthorhombic'
loop_
_space_group_symop_operation_xyz
x,y,z
-x,-y,z
x,-y,-z
-x,y,-z
-x,-y,-z
x,y,-z
-x,y,z
x,-y,z
loop_
_atom_site_type_symbol
_atom_site_label
_atom_site_fract_x
_atom_site_fract_y
_atom_site_fract_z
Si Si1 0.820607 0.810537 0.151741
Si Si2 0.090126 0.191960 0.000000
Si Si3 0.851570 0.689406 0.315365
Si Si4 0.324763 0.688402 0.650279
Si Si5 0.409769 0.188212 0.500000
Si Si6 0.500000 0.311842 0.912246
Si Si7 0.356106 0.811690 0.814741
Si Si8 0.000000 0.692061 0.412643
O O1 0.859091 0.749370 0.229264
O O2 0.729636 0.762320 0.155100
O O3 0.822424 0.000000 0.152869
O O4 0.864774 0.756704 0.076030
O O5 0.000000 0.241522 0.000000
O O6 0.090783 0.000000 0.000000
O O7 0.852110 0.500000 0.314113
O O8 0.766330 0.738789 0.345904
O O9 0.922478 0.743006 0.368143
O O10 0.327202 0.500000 0.649909
O O11 0.366819 0.751349 0.575527
O O12 0.362959 0.749670 0.728444
O O13 0.500000 0.240583 0.500000
O O14 0.408332 0.000000 0.500000
O O15 0.500000 0.500000 0.911421
O O16 0.575996 0.251674 0.868069
O O17 0.500000 0.257865 0.000000
O O18 0.358877 0.000000 0.813464
O O19 0.000000 0.500000 0.412752
O O20 0.000000 0.743485 0.500000
#
# Coordination Sequence:
#
# PCOD9387858 Si02
#       8
#     8   4   8   8   4   4   8   4
#     4   9  19  35  57  82 110 147 188 229 277 333
#     4   9  18  32  53  82 113 148 188 229 273 327
#     4   9  19  35  57  83 111 146 186 229 279 334
#     4  10  21  38  61  86 115 150 191 234 284 340
#     4  11  25  41  59  84 115 148 190 237 284 338
#     4  11  25  41  59  86 117 148 189 237 287 339
#     4  10  21  38  61  85 114 150 190 235 286 340
#     4   9  18  32  55  82 111 146 186 229 273 329
#
# _framework density 18.716227
#
# number of rings (size 3 to 8) (size 9 to 14) (size 15 to 20)
#    0.000    2.333    0.000    1.500    4.667    2.667 
#    0.000    0.417    0.000    1.000    0.000    0.000 
#    0.000    0.000    0.000    0.000    0.000    0.000 
#
# Total GULP energy -268015.408778 kJ/mol
# GULP energy per Si atom -5583.654350 kJ/mol
# Density = 1.867363 g / cm^3
# Si number density = 18.716227 Si / 1000 Ang^3
#
#
#
# Elastic Constant Matrix: (Units=GPa)
#
#
# Indices 1 2 3 4 5 6 
#
# 1 130.9390 26.6142 139.3790 0.0000 0.0000 0.0000
# 2 26.6142 23.4995 34.3372 0.0000 0.0000 0.0000
# 3 139.3790 34.3372 224.5193 0.0000 0.0000 0.0000
# 4 0.0000 0.0000 0.0000 29.4782 0.0000 0.0000
# 5 0.0000 0.0000 0.0000 0.0000 33.5301 0.0000
# 6 0.0000 0.0000 0.0000 0.0000 0.0000 14.9214
#
#
#
# Elastic Compliance Matrix: (Units=1/GPa)
#
#
# Indices 1 2 3 4 5 6 
#
# 1 0.023323 -0.006771 -0.013443 0.000000 0.000000 0.000000
# 2 -0.006771 0.056766 -0.004478 0.000000 0.000000 0.000000
# 3 -0.013443 -0.004478 0.013484 0.000000 0.000000 0.000000
# 4 0.000000 0.000000 0.000000 0.033923 0.000000 0.000000
# 5 0.000000 0.000000 0.000000 0.000000 0.029824 0.000000
# 6 0.000000 0.000000 0.000000 0.000000 0.000000 0.067018
#
#
# Mechanical properties :
#
#
# Convention : Reuss Voigt Hill
#
# Bulk Modulus (GPa) = 22.63037 86.62429 54.62733
# Shear Modulus (GPa) = 17.33381 27.49443 22.41412
#
# Velocity S-wave (km/s) = 3.04655 3.83693 3.46436
# Velocity P-wave (km/s) = 4.94903 8.12483 6.72703
#
# Compressibility (1/GPa) = 0.04418840
#
# Stress axis : x y z
#
# Youngs Moduli (GPa) = 42.87590 17.61608 74.16121
#
# Poissons Ratio (x) = 0.11929 0.99696
# Poissons Ratio (y) = 0.29033 0.33209
# Poissons Ratio (z) = 0.57639 0.07888
#
# Static dielectric constant tensor:
#      x y z
#    x 1.642700 0.000000 0.000000 
#    y 0.000000 1.635340 0.000000 
#    z 0.000000 0.000000 1.608240 
# 
# From -- ./inp_files/24524.got.cif
#   From: 2010.05.17/outbox.cif.g08.bks.cpg/sg47_13_cif.got.tgz:24524.got - 2010.06.03 20:15:42.
