data_PCOD9387794
_publ_section_title
;
Structure prediction by ZEFSAII (Michael W. Deem and Ramdas Pophale) SiO2 
 PCOD9387794
Probable space group: P M M M
;
_chemical_formula_sum "Si O2"
_cell_formula_units_Z 38
_cell_length_a 24.061120
_cell_length_b 9.781405
_cell_length_c 7.772103
_cell_angle_alpha 90.000000
_cell_angle_beta 90.000000
_cell_angle_gamma 90.000000
_cell_volume 1829.176561
_symmetry_space_group_name_H-M "P M M M"
_symmetry_group_IT_number 47
_symmetry_cell_setting 'orthorhombic'
loop_
_space_group_symop_operation_xyz
x,y,z
-x,-y,z
x,-y,-z
-x,y,-z
-x,-y,-z
x,y,-z
-x,y,z
x,-y,z
loop_
_atom_site_type_symbol
_atom_site_label
_atom_site_fract_x
_atom_site_fract_y
_atom_site_fract_z
Si Si1 0.000000 0.500000 0.500000
Si Si2 0.000000 0.000000 0.000000
Si Si3 0.903454 0.500000 0.799962
Si Si4 0.167562 0.227888 0.199657
Si Si5 0.500000 0.841922 0.205428
Si Si6 0.292113 0.157322 0.706710
Si Si7 0.393514 0.657307 0.706589
Si Si8 0.912226 0.000000 0.684815
O O1 0.048891 0.500000 0.654569
O O2 0.047639 0.000000 0.152440
O O3 0.862440 0.372070 0.782525
O O4 0.925548 0.500000 0.000000
O O5 0.231266 0.216046 0.254011
O O6 0.128744 0.127199 0.304179
O O7 0.165065 0.186574 0.000000
O O8 0.553502 0.753087 0.258283
O O9 0.500000 0.000000 0.271950
O O10 0.500000 0.850735 0.000000
O O11 0.297900 0.150699 0.500000
O O12 0.339669 0.259826 0.772707
O O13 0.296982 0.000000 0.770807
O O14 0.388331 0.647241 0.500000
O O15 0.398560 0.500000 0.771101
O O16 0.940816 0.000000 0.500000
#
# Coordination Sequence:
#
# PCOD9387794 Si02
#       8
#     1   1   4   8   4   8   8   4
#     4  12  26  48  76  96 128 184 214 272 344 406
#     4  12  26  48  68 104 136 176 222 280 336 414
#     4  10  27  47  67  98 133 170 223 272 333 409
#     4  11  23  45  67  95 135 174 218 278 337 400
#     4  11  24  41  62  90 132 177 230 281 334 396
#     4  10  21  37  63  95 130 170 220 271 327 402
#     4  10  22  40  63  97 132 175 222 277 334 397
#     4  12  25  45  69 100 135 174 221 276 343 407
#
# _framework density 20.774374999999999
#
# number of rings (size 3 to 8) (size 9 to 14) (size 15 to 20)
#    0.000    1.368    2.105    2.211    4.421    5.053 
#    0.000    0.000    0.000    0.000    0.000    0.000 
#    0.000    0.000    0.000    0.000    0.000    0.000 
#
# Total GULP energy -211682.523672 kJ/mol
# GULP energy per Si atom -5570.592728 kJ/mol
# Density = 2.072709 g / cm^3
# Si number density = 20.774375 Si / 1000 Ang^3
#
#
#
# Elastic Constant Matrix: (Units=GPa)
#
#
# Indices 1 2 3 4 5 6 
#
# 1 207.7632 96.5309 48.0663 0.0000 0.0000 0.0000
# 2 96.5309 170.9317 50.0166 0.0000 0.0000 0.0000
# 3 48.0663 50.0166 100.2704 0.0000 0.0000 0.0000
# 4 0.0000 0.0000 0.0000 -155.3738 0.0000 0.0000
# 5 0.0000 0.0000 0.0000 0.0000 19.9180 0.0000
# 6 0.0000 0.0000 0.0000 0.0000 0.0000 -66.4753
#
#
#
# Elastic Compliance Matrix: (Units=1/GPa)
#
#
# Indices 1 2 3 4 5 6 
#
# 1 0.006727 -0.003343 -0.001557 0.000000 0.000000 0.000000
# 2 -0.003343 0.008512 -0.002643 0.000000 0.000000 0.000000
# 3 -0.001557 -0.002643 0.012038 0.000000 0.000000 0.000000
# 4 0.000000 0.000000 0.000000 -0.006436 0.000000 0.000000
# 5 0.000000 0.000000 0.000000 0.000000 0.050206 0.000000
# 6 0.000000 0.000000 0.000000 0.000000 0.000000 -0.015043
#
#
# Mechanical properties :
#
#
# Convention : Reuss Voigt Hill
#
# Bulk Modulus (GPa) = 82.03667 96.46588 89.25128
# Shear Modulus (GPa) = 66.53128 -21.42946 22.55091
#
# Velocity S-wave (km/s) = 5.66526 -3.21523 3.29829
# Velocity P-wave (km/s) = 9.07572 5.72295 7.58686
#
# Compressibility (1/GPa) = 0.01218967
#
# Stress axis : x y z
#
# Youngs Moduli (GPa) = 148.66150 117.48471 83.07150
#
# Poissons Ratio (x) = 0.39278 0.12933
# Poissons Ratio (y) = 0.49701 0.21957
# Poissons Ratio (z) = 0.23145 0.31053
#
# Static dielectric constant tensor:
#      x y z
#    x 1.698110 0.000000 0.000000 
#    y 0.000000 1.605920 0.000000 
#    z 0.000000 0.000000 1.773300 
# 
# From -- ./inp_files/12221.got.cif
#   From: 2010.05.17/outbox.cif.g08.bks.cpg/sg47_7_cif.got.tgz:12221.got - 2010.06.03 20:15:42.
