data_PCOD9387966
_publ_section_title
;
Structure prediction by ZEFSAII (Michael W. Deem and Ramdas Pophale) SiO2 
 PCOD9387966
Probable space group: P M M M
;
_chemical_formula_sum "Si O2"
_cell_formula_units_Z 37
_cell_length_a 9.850917
_cell_length_b 24.013643
_cell_length_c 7.574511
_cell_angle_alpha 90.000000
_cell_angle_beta 90.000000
_cell_angle_gamma 90.000000
_cell_volume 1791.799085
_symmetry_space_group_name_H-M "P M M M"
_symmetry_group_IT_number 47
_symmetry_cell_setting 'orthorhombic'
loop_
_space_group_symop_operation_xyz
x,y,z
-x,-y,z
x,-y,-z
-x,y,-z
-x,-y,-z
x,y,-z
-x,y,z
x,-y,z
loop_
_atom_site_type_symbol
_atom_site_label
_atom_site_fract_x
_atom_site_fract_y
_atom_site_fract_z
Si Si1 0.348942 0.117504 0.214225
Si Si2 0.000000 0.000000 0.000000
Si Si3 0.769097 0.000000 0.303513
Si Si4 0.664190 0.559854 0.709781
Si Si5 0.846644 0.785393 0.210957
Si Si6 0.344246 0.318718 0.712965
O O1 0.500000 0.136044 0.266078
O O2 0.318821 0.055734 0.279627
O O3 0.235829 0.161000 0.277948
O O4 0.344170 0.116281 0.000000
O O5 0.117703 0.000000 0.846389
O O6 0.827552 0.000000 0.500000
O O7 0.694851 0.559034 0.500000
O O8 0.500000 0.560253 0.725241
O O9 0.711916 0.500000 0.783071
O O10 0.705830 0.620482 0.779001
O O11 0.756772 0.730734 0.241856
O O12 0.000000 0.781147 0.280777
O O13 0.856475 0.792370 0.000000
O O14 0.350519 0.322296 0.500000
O O15 0.500000 0.308719 0.774433
#
# Coordination Sequence:
#
# PCOD9387966 Si02
#       6
#     8   1   4   8   8   8
#     4  10  21  40  65  90 119 155 194 246 306 356
#     4  12  26  48  66  94 144 168 200 256 286 362
#     4  12  26  42  70  99 126 169 207 246 301 353
#     4   7  10  19  39  68  99 130 167 216 278 341
#     4  10  22  37  56  79 109 152 196 231 276 339
#     4   9  17  30  50  77 107 137 175 230 287 337
#
# _framework density 20.649636000000001
#
# number of rings (size 3 to 8) (size 9 to 14) (size 15 to 20)
#    0.000    2.595    1.081    3.081    1.514    4.324 
#    0.000    0.000    0.000    1.297    0.000    7.568 
#    0.000    0.000    0.000    0.000    0.000    0.000 
#
# Total GULP energy -206106.406767 kJ/mol
# GULP energy per Si atom -5570.443426 kJ/mol
# Density = 2.060264 g / cm^3
# Si number density = 20.649636 Si / 1000 Ang^3
#
#
#
# Elastic Constant Matrix: (Units=GPa)
#
#
# Indices 1 2 3 4 5 6 
#
# 1 129.8059 88.9732 19.8232 0.0000 0.0000 0.0000
# 2 88.9732 203.0398 -0.7781 0.0000 0.0000 0.0000
# 3 19.8232 -0.7781 73.9420 0.0000 0.0000 0.0000
# 4 0.0000 0.0000 0.0000 21.2761 0.0000 0.0000
# 5 0.0000 0.0000 0.0000 0.0000 48.1088 0.0000
# 6 0.0000 0.0000 0.0000 0.0000 0.0000 -9.9933
#
#
#
# Elastic Compliance Matrix: (Units=1/GPa)
#
#
# Indices 1 2 3 4 5 6 
#
# 1 0.011721 -0.005148 -0.003196 0.000000 0.000000 0.000000
# 2 -0.005148 0.007187 0.001456 0.000000 0.000000 0.000000
# 3 -0.003196 0.001456 0.014396 0.000000 0.000000 0.000000
# 4 0.000000 0.000000 0.000000 0.047001 0.000000 0.000000
# 5 0.000000 0.000000 0.000000 0.000000 0.020786 0.000000
# 6 0.000000 0.000000 0.000000 0.000000 0.000000 -0.100067
#
#
# Mechanical properties :
#
#
# Convention : Reuss Voigt Hill
#
# Bulk Modulus (GPa) = 51.21358 69.20269 60.20814
# Shear Modulus (GPa) = 234.62248 31.79629 133.20939
#
# Velocity S-wave (km/s) = 10.67086 3.92828 8.04048
# Velocity P-wave (km/s) = 13.29203 7.35940 10.74334
#
# Compressibility (1/GPa) = 0.01952607
#
# Stress axis : x y z
#
# Youngs Moduli (GPa) = 85.31832 139.14458 69.46202
#
# Poissons Ratio (x) = 0.71637 0.22203
# Poissons Ratio (y) = 0.43925 -0.10113
# Poissons Ratio (z) = 0.27271 -0.20258
#
# Static dielectric constant tensor:
#      x y z
#    x 1.705630 0.000000 0.000000 
#    y 0.000000 1.766900 0.000000 
#    z 0.000000 0.000000 1.791540 
# 
# From -- ./inp_files/1465.got.cif
#   From: 2010.05.17/outbox.cif.g08.bks.cpg/sg47_1_cif.got.tgz:1465.got - 2010.06.03 20:15:42.
