data_PCOD9387761
_publ_section_title
;
Structure prediction by ZEFSAII (Michael W. Deem and Ramdas Pophale) SiO2 
 PCOD9387761
Probable space group: P M M M
;
_chemical_formula_sum "Si O2"
_cell_formula_units_Z 48
_cell_length_a 19.300017
_cell_length_b 7.949165
_cell_length_c 15.968865
_cell_angle_alpha 90.000000
_cell_angle_beta 90.000000
_cell_angle_gamma 90.000000
_cell_volume 2449.927613
_symmetry_space_group_name_H-M "P M M M"
_symmetry_group_IT_number 47
_symmetry_cell_setting 'orthorhombic'
loop_
_space_group_symop_operation_xyz
x,y,z
-x,-y,z
x,-y,-z
-x,y,-z
-x,-y,-z
x,y,-z
-x,y,z
x,-y,z
loop_
_atom_site_type_symbol
_atom_site_label
_atom_site_fract_x
_atom_site_fract_y
_atom_site_fract_z
Si Si1 0.157241 0.804474 0.591716
Si Si2 0.580111 0.000000 0.100280
Si Si3 0.691108 0.303204 0.634239
Si Si4 0.078114 0.700485 0.242682
Si Si5 0.672134 0.300694 0.167641
Si Si6 0.420792 0.798796 0.500000
Si Si7 0.823823 0.295532 0.905471
O O1 0.139937 0.731622 0.500000
O O2 0.239946 0.790653 0.604385
O O3 0.118890 0.725816 0.670802
O O4 0.138167 0.000000 0.591344
O O5 0.616906 0.168408 0.133746
O O6 0.500000 0.000000 0.125605
O O7 0.584688 0.000000 0.000000
O O8 0.705641 0.500000 0.621218
O O9 0.679808 0.276336 0.732689
O O10 0.623976 0.256578 0.580300
O O11 0.073439 0.500000 0.230161
O O12 0.122806 0.768239 0.164617
O O13 0.000000 0.768661 0.246386
O O14 0.656655 0.500000 0.152513
O O15 0.745740 0.260286 0.124416
O O16 0.500000 0.734655 0.500000
O O17 0.423363 0.000000 0.500000
O O18 0.828954 0.500000 0.906947
O O19 0.836202 0.234938 0.000000
#
# Coordination Sequence:
#
# PCOD9387761 Si02
#       7
#     8   4   8   8   8   4   8
#     4  11  23  38  60  86 116 156 204 255 306 363
#     4  11  26  44  64  93 126 162 205 257 318 376
#     4  11  22  38  63  90 121 161 203 254 310 367
#     4  10  21  37  58  87 121 156 199 250 304 364
#     4  10  22  40  65  94 124 162 211 260 308 371
#     4  11  25  41  59  89 128 165 204 253 307 371
#     4   9  17  33  59  89 121 157 198 247 304 366
#
# _framework density 19.592414999999999
#
# number of rings (size 3 to 8) (size 9 to 14) (size 15 to 20)
#    0.000    1.667    2.500    1.750    2.333    4.667 
#    0.000    5.833    0.000    0.000    0.000    1.167 
#    0.000    0.000    0.000    0.000    0.000    0.000 
#
# Total GULP energy -268091.993765 kJ/mol
# GULP energy per Si atom -5585.249870 kJ/mol
# Density = 1.954782 g / cm^3
# Si number density = 19.592415 Si / 1000 Ang^3
#
#
#
# Elastic Constant Matrix: (Units=GPa)
#
#
# Indices 1 2 3 4 5 6 
#
# 1 149.0515 27.7752 86.5519 0.0000 0.0000 0.0000
# 2 27.7752 42.7782 30.2227 0.0000 0.0000 0.0000
# 3 86.5519 30.2227 157.7405 0.0000 0.0000 0.0000
# 4 0.0000 0.0000 0.0000-1499.7027 0.0000 0.0000
# 5 0.0000 0.0000 0.0000 0.0000 116.8372 0.0000
# 6 0.0000 0.0000 0.0000 0.0000 0.0000 38.6061
#
#
#
# Elastic Compliance Matrix: (Units=1/GPa)
#
#
# Indices 1 2 3 4 5 6 
#
# 1 0.010186 -0.003082 -0.004998 0.000000 0.000000 0.000000
# 2 -0.003082 0.027969 -0.003668 0.000000 0.000000 0.000000
# 3 -0.004998 -0.003668 0.009785 0.000000 0.000000 0.000000
# 4 0.000000 0.000000 0.000000 -0.000667 0.000000 0.000000
# 5 0.000000 0.000000 0.000000 0.000000 0.008559 0.000000
# 6 0.000000 0.000000 0.000000 0.000000 0.000000 0.025903
#
#
# Mechanical properties :
#
#
# Convention : Reuss Voigt Hill
#
# Bulk Modulus (GPa) = 40.91125 70.96329 55.93727
# Shear Modulus (GPa) = 44.10007 -255.18385 -105.54189
#
# Velocity S-wave (km/s) = 4.74949 -11.42493 -7.34750
# Velocity P-wave (km/s) = 7.14166 11.73628 6.58547
#
# Compressibility (1/GPa) = 0.02444315
#
# Stress axis : x y z
#
# Youngs Moduli (GPa) = 98.17413 35.75423 102.19845
#
# Poissons Ratio (x) = 0.11020 0.51084
# Poissons Ratio (y) = 0.30259 0.37482
# Poissons Ratio (z) = 0.49072 0.13113
#
# Static dielectric constant tensor:
#      x y z
#    x 1.661570 0.000000 0.000000 
#    y 0.000000 1.698130 0.000000 
#    z 0.000000 0.000000 1.670970 
# 
# From -- ./inp_files/24432.got.cif
#   From: 2010.05.17/outbox.cif.g08.bks.cpg/sg47_13_cif.got.tgz:24432.got - 2010.06.03 20:15:42.
