data_PCOD9387031
_publ_section_title
;
Structure prediction by ZEFSAII (Michael W. Deem and Ramdas Pophale) SiO2 
 PCOD9387031
Probable space group: P M M M
;
_chemical_formula_sum "Si O2"
_cell_formula_units_Z 52
_cell_length_a 14.689287
_cell_length_b 8.659091
_cell_length_c 23.609974
_cell_angle_alpha 90.000000
_cell_angle_beta 90.000000
_cell_angle_gamma 90.000000
_cell_volume 3003.091251
_symmetry_space_group_name_H-M "P M M M"
_symmetry_group_IT_number 47
_symmetry_cell_setting 'orthorhombic'
loop_
_space_group_symop_operation_xyz
x,y,z
-x,-y,z
x,-y,-z
-x,y,-z
-x,-y,-z
x,y,-z
-x,y,z
x,-y,z
loop_
_atom_site_type_symbol
_atom_site_label
_atom_site_fract_x
_atom_site_fract_y
_atom_site_fract_z
Si Si1 0.105463 0.685110 0.500000
Si Si2 0.104926 0.186256 0.064806
Si Si3 0.398884 0.312191 0.221998
Si Si4 0.603237 0.686205 0.645742
Si Si5 0.788851 0.815184 0.392012
Si Si6 0.211723 0.685019 0.169966
Si Si7 0.894058 0.813679 0.722231
O O1 0.107076 0.500000 0.500000
O O2 0.156947 0.746066 0.555361
O O3 0.000000 0.736642 0.500000
O O4 0.171846 0.253496 0.111373
O O5 0.000000 0.232259 0.077050
O O6 0.107943 0.000000 0.067287
O O7 0.125731 0.232323 0.000000
O O8 0.500000 0.260164 0.204508
O O9 0.399402 0.500000 0.221039
O O10 0.385067 0.268924 0.287947
O O11 0.314205 0.259881 0.184462
O O12 0.500000 0.729276 0.628976
O O13 0.609807 0.500000 0.642805
O O14 0.684639 0.759827 0.610640
O O15 0.837675 0.765828 0.333345
O O16 0.792353 0.000000 0.395014
O O17 0.211763 0.500000 0.169074
O O18 0.148838 0.741691 0.221622
O O19 0.000000 0.771485 0.716212
O O20 0.888750 0.000000 0.726766
#
# Coordination Sequence:
#
# PCOD9387031 Si02
#       7
#     4   8   8   8   8   8   8
#     4  11  25  43  62  81 104 141 187 228 266 321
#     4   9  19  36  54  70  97 142 184 213 254 318
#     4   8  15  29  49  74 106 141 172 206 255 314
#     4   9  17  33  57  81 109 145 180 216 263 320
#     4  11  22  37  58  82 110 142 178 224 270 318
#     4  11  20  30  51  81 107 131 170 222 266 304
#     4  10  21  35  50  72 106 144 174 205 256 320
#
# _framework density 17.315491000000002
#
# number of rings (size 3 to 8) (size 9 to 14) (size 15 to 20)
#    0.000    2.231    1.538    3.462    0.000    4.923 
#    0.000    1.154    0.000    4.615    0.000    3.231 
#    0.000    0.000    0.000    0.000    0.000    0.000 
#
# Total GULP energy -290184.302749 kJ/mol
# GULP energy per Si atom -5580.467361 kJ/mol
# Density = 1.727608 g / cm^3
# Si number density = 17.315491 Si / 1000 Ang^3
#
#
#
# Elastic Constant Matrix: (Units=GPa)
#
#
# Indices 1 2 3 4 5 6 
#
# 1 170.0650 36.5743 84.9323 0.0000 0.0000 0.0000
# 2 36.5743 22.2879 29.3744 0.0000 0.0000 0.0000
# 3 84.9323 29.3744 107.8764 0.0000 0.0000 0.0000
# 4 0.0000 0.0000 0.0000 22.3930 0.0000 0.0000
# 5 0.0000 0.0000 0.0000 0.0000 31.2635 0.0000
# 6 0.0000 0.0000 0.0000 0.0000 0.0000 16.4713
#
#
#
# Elastic Compliance Matrix: (Units=1/GPa)
#
#
# Indices 1 2 3 4 5 6 
#
# 1 0.011045 -0.010394 -0.005865 0.000000 0.000000 0.000000
# 2 -0.010394 0.079764 -0.013536 0.000000 0.000000 0.000000
# 3 -0.005865 -0.013536 0.017574 0.000000 0.000000 0.000000
# 4 0.000000 0.000000 0.000000 0.044657 0.000000 0.000000
# 5 0.000000 0.000000 0.000000 0.000000 0.031986 0.000000
# 6 0.000000 0.000000 0.000000 0.000000 0.000000 0.060712
#
#
# Mechanical properties :
#
#
# Convention : Reuss Voigt Hill
#
# Bulk Modulus (GPa) = 20.49545 66.88793 43.69169
# Shear Modulus (GPa) = 15.54765 23.98211 19.76488
#
# Velocity S-wave (km/s) = 2.99976 3.72561 3.38221
# Velocity P-wave (km/s) = 4.88469 7.56437 6.36710
#
# Compressibility (1/GPa) = 0.04879132
#
# Stress axis : x y z
#
# Youngs Moduli (GPa) = 90.54143 12.53695 56.90369
#
# Poissons Ratio (x) = 0.13031 0.33376
# Poissons Ratio (y) = 0.94109 0.77026
# Poissons Ratio (z) = 0.53105 0.16970
#
# Static dielectric constant tensor:
#      x y z
#    x 1.596520 0.000000 0.000000 
#    y 0.000000 1.586080 0.000000 
#    z 0.000000 0.000000 1.558870 
# 
# From -- ./inp_files/24962.got.cif
#   From: 2010.05.17/outbox.cif.g08.bks.cpg/sg47_13_cif.got.tgz:24962.got - 2010.06.03 20:15:42.
