data_PCOD9387442
_publ_section_title
;
Structure prediction by ZEFSAII (Michael W. Deem and Ramdas Pophale) SiO2 
 PCOD9387442
Probable space group: P M M M
;
_chemical_formula_sum "Si O2"
_cell_formula_units_Z 28
_cell_length_a 9.256749
_cell_length_b 7.555625
_cell_length_c 20.256070
_cell_angle_alpha 90.000000
_cell_angle_beta 90.000000
_cell_angle_gamma 90.000000
_cell_volume 1416.720153
_symmetry_space_group_name_H-M "P M M M"
_symmetry_group_IT_number 47
_symmetry_cell_setting 'orthorhombic'
loop_
_space_group_symop_operation_xyz
x,y,z
-x,-y,z
x,-y,-z
-x,y,-z
-x,-y,-z
x,y,-z
-x,y,z
x,-y,z
loop_
_atom_site_type_symbol
_atom_site_label
_atom_site_fract_x
_atom_site_fract_y
_atom_site_fract_z
Si Si1 0.835283 0.787117 0.573481
Si Si2 0.329280 0.000000 0.921241
Si Si3 0.661977 0.289641 0.295435
Si Si4 0.828658 0.712269 0.164713
O O1 0.790959 0.725769 0.500000
O O2 0.731986 0.739652 0.633288
O O3 0.000000 0.724871 0.585655
O O4 0.839904 0.000000 0.571322
O O5 0.253592 0.171872 0.889505
O O6 0.500000 0.000000 0.905444
O O7 0.312646 0.000000 0.000000
O O8 0.500000 0.215093 0.291121
O O9 0.651585 0.500000 0.287025
O O10 0.764264 0.229677 0.235740
O O11 0.806150 0.500000 0.156276
O O12 0.000000 0.744634 0.162654
#
# Coordination Sequence:
#
# PCOD9387442 Si02
#       4
#     8   4   8   8
#     4   9  19  35  53  75 106 146 192 241 293 348
#     4  11  25  43  65  95 128 163 200 239 295 363
#     4  10  21  36  55  81 113 149 190 238 294 353
#     4  10  22  41  65  92 123 161 205 252 299 351
#
# _framework density 19.763959
#
# number of rings (size 3 to 8) (size 9 to 14) (size 15 to 20)
#    0.000    2.143    0.000    3.000    2.000    6.857 
#    0.000    7.143    0.000    0.000    0.000    0.000 
#    0.000    0.000    0.000    0.000    0.000    0.000 
#
# Total GULP energy -156343.360983 kJ/mol
# GULP energy per Si atom -5583.691464 kJ/mol
# Density = 1.971898 g / cm^3
# Si number density = 19.763959 Si / 1000 Ang^3
#
#
#
# Elastic Constant Matrix: (Units=GPa)
#
#
# Indices 1 2 3 4 5 6 
#
# 1 172.7174 57.5019 110.8651 0.0000 0.0000 0.0000
# 2 57.5019 68.3462 41.5975 0.0000 0.0000 0.0000
# 3 110.8651 41.5975 145.9106 0.0000 0.0000 0.0000
# 4 0.0000 0.0000 0.0000 38.5792 0.0000 0.0000
# 5 0.0000 0.0000 0.0000 0.0000 38.8928 0.0000
# 6 0.0000 0.0000 0.0000 0.0000 0.0000 20.5998
#
#
#
# Elastic Compliance Matrix: (Units=1/GPa)
#
#
# Indices 1 2 3 4 5 6 
#
# 1 0.013053 -0.005984 -0.008212 0.000000 0.000000 0.000000
# 2 -0.005984 0.020446 -0.001282 0.000000 0.000000 0.000000
# 3 -0.008212 -0.001282 0.013459 0.000000 0.000000 0.000000
# 4 0.000000 0.000000 0.000000 0.025921 0.000000 0.000000
# 5 0.000000 0.000000 0.000000 0.000000 0.025712 0.000000
# 6 0.000000 0.000000 0.000000 0.000000 0.000000 0.048544
#
#
# Mechanical properties :
#
#
# Convention : Reuss Voigt Hill
#
# Bulk Modulus (GPa) = 62.49378 89.65592 76.07485
# Shear Modulus (GPa) = 27.25900 31.41501 29.33700
#
# Velocity S-wave (km/s) = 3.71782 3.99119 3.85693
# Velocity P-wave (km/s) = 7.07943 8.16709 7.64263
#
# Compressibility (1/GPa) = 0.01600159
#
# Stress axis : x y z
#
# Youngs Moduli (GPa) = 76.60920 48.90840 74.30114
#
# Poissons Ratio (x) = 0.29267 0.61017
# Poissons Ratio (y) = 0.45843 0.09528
# Poissons Ratio (z) = 0.62912 0.06271
#
# Static dielectric constant tensor:
#      x y z
#    x 1.684030 0.000000 0.000000 
#    y 0.000000 1.723380 0.000000 
#    z 0.000000 0.000000 1.670390 
# 
# From -- ./inp_files/868.got.cif
#   From: 2010.05.17/outbox.cif.g08.bks.cpg/sg47_1_cif.got.tgz:868.got - 2010.06.03 20:15:42.
