data_PCOD9387993
_publ_section_title
;
Structure prediction by ZEFSAII (Michael W. Deem and Ramdas Pophale) SiO2 
 PCOD9387993
Probable space group: P M M M
;
_chemical_formula_sum "Si O2"
_cell_formula_units_Z 64
_cell_length_a 25.410299
_cell_length_b 7.733696
_cell_length_c 14.210137
_cell_angle_alpha 90.000000
_cell_angle_beta 90.000000
_cell_angle_gamma 90.000000
_cell_volume 2792.512572
_symmetry_space_group_name_H-M "P M M M"
_symmetry_group_IT_number 47
_symmetry_cell_setting 'orthorhombic'
loop_
_space_group_symop_operation_xyz
x,y,z
-x,-y,z
x,-y,-z
-x,y,-z
-x,-y,-z
x,y,-z
-x,y,z
x,-y,z
loop_
_atom_site_type_symbol
_atom_site_label
_atom_site_fract_x
_atom_site_fract_y
_atom_site_fract_z
Si Si1 0.225144 0.292589 0.109322
Si Si2 0.890938 0.709416 0.109092
Si Si3 0.836887 0.706017 0.393820
Si Si4 0.275617 0.299742 0.615379
Si Si5 0.056766 0.799301 0.291267
Si Si6 0.391186 0.290021 0.392667
Si Si7 0.557032 0.204953 0.207107
Si Si8 0.338312 0.207484 0.107900
O O1 0.222617 0.500000 0.109319
O O2 0.167696 0.233538 0.142877
O O3 0.281334 0.246716 0.153048
O O4 0.227582 0.232841 0.000000
O O5 0.892661 0.500000 0.113371
O O6 0.933909 0.779912 0.179900
O O7 0.897319 0.758572 0.000000
O O8 0.844115 0.773396 0.500000
O O9 0.828120 0.500000 0.399234
O O10 0.780940 0.775887 0.354706
O O11 0.890677 0.727632 0.338279
O O12 0.273730 0.300924 0.500000
O O13 0.277613 0.500000 0.647188
O O14 0.332871 0.223309 0.637343
O O15 0.000000 0.721533 0.317663
O O16 0.055500 0.000000 0.316147
O O17 0.401215 0.236512 0.500000
O O18 0.389447 0.500000 0.391944
O O19 0.433435 0.229698 0.317771
O O20 0.500000 0.276771 0.178888
O O21 0.609587 0.277208 0.158224
O O22 0.555976 0.000000 0.186849
O O23 0.341806 0.000000 0.105320
O O24 0.337785 0.272293 0.000000
#
# Coordination Sequence:
#
# PCOD9387993 Si02
#       8
#     8   8   8   8   8   8   8   8
#     4   8  15  30  53  81 109 133 161 203 259 317
#     4   9  19  37  60  83 106 135 173 217 263 312
#     4   9  18  35  60  85 107 135 174 219 263 310
#     4   7  12  27  52  80 105 127 157 202 257 311
#     4  11  25  40  52  73 108 147 183 218 260 311
#     4   9  18  34  56  79 103 132 165 204 253 309
#     4  10  22  37  50  69 100 137 177 218 257 297
#     4   9  18  33  53  76 102 134 172 212 254 304
#
# _framework density 22.918430000000001
#
# number of rings (size 3 to 8) (size 9 to 14) (size 15 to 20)
#    0.000    3.000    0.000    2.625    0.000    5.000 
#    0.000   10.625    0.000    2.250    0.000    2.625 
#    0.000    0.000    0.000    0.000    0.000    0.000 
#
# Total GULP energy -357020.070033 kJ/mol
# GULP energy per Si atom -5578.438594 kJ/mol
# Density = 2.286627 g / cm^3
# Si number density = 22.918430 Si / 1000 Ang^3
#
#
#
# Elastic Constant Matrix: (Units=GPa)
#
#
# Indices 1 2 3 4 5 6 
#
# 1 135.1522 1.8508 17.2040 0.0000 0.0000 0.0000
# 2 1.8508 32.2728 -8.6803 0.0000 0.0000 0.0000
# 3 17.2040 -8.6803 36.9257 0.0000 0.0000 0.0000
# 4 0.0000 0.0000 0.0000 23.4700 0.0000 0.0000
# 5 0.0000 0.0000 0.0000 0.0000 19.5975 0.0000
# 6 0.0000 0.0000 0.0000 0.0000 0.0000 19.4424
#
#
#
# Elastic Compliance Matrix: (Units=1/GPa)
#
#
# Indices 1 2 3 4 5 6 
#
# 1 0.007937 -0.001548 -0.004062 0.000000 0.000000 0.000000
# 2 -0.001548 0.033379 0.008568 0.000000 0.000000 0.000000
# 3 -0.004062 0.008568 0.030988 0.000000 0.000000 0.000000
# 4 0.000000 0.000000 0.000000 0.042608 0.000000 0.000000
# 5 0.000000 0.000000 0.000000 0.000000 0.051027 0.000000
# 6 0.000000 0.000000 0.000000 0.000000 0.000000 0.051434
#
#
# Mechanical properties :
#
#
# Convention : Reuss Voigt Hill
#
# Bulk Modulus (GPa) = 12.78438 25.01107 18.89772
# Shear Modulus (GPa) = 21.04996 25.43372 23.24184
#
# Velocity S-wave (km/s) = 3.03392 3.33490 3.18797
# Velocity P-wave (km/s) = 4.22649 5.07598 4.67059
#
# Compressibility (1/GPa) = 0.07822046
#
# Stress axis : x y z
#
# Youngs Moduli (GPa) = 125.98719 29.95889 32.27067
#
# Poissons Ratio (x) = 0.04637 0.13108
# Poissons Ratio (y) = 0.19499 -0.27649
# Poissons Ratio (z) = 0.51175 -0.25668
#
# Static dielectric constant tensor:
#      x y z
#    x 1.900210 0.000000 0.000000 
#    y 0.000000 1.854270 0.000000 
#    z 0.000000 0.000000 1.883160 
# 
# From -- ./inp_files/25556.got.cif
#   From: 2010.05.17/outbox.cif.g08.bks.cpg/sg47_13_cif.got.tgz:25556.got - 2010.06.03 20:15:42.
