data_PCOD9387170
_publ_section_title
;
Structure prediction by ZEFSAII (Michael W. Deem and Ramdas Pophale) SiO2 
 PCOD9387170
Probable space group: P M M M
;
_chemical_formula_sum "Si O2"
_cell_formula_units_Z 48
_cell_length_a 9.965384
_cell_length_b 30.478534
_cell_length_c 8.370376
_cell_angle_alpha 90.000000
_cell_angle_beta 90.000000
_cell_angle_gamma 90.000000
_cell_volume 2542.336772
_symmetry_space_group_name_H-M "P M M M"
_symmetry_group_IT_number 47
_symmetry_cell_setting 'orthorhombic'
loop_
_space_group_symop_operation_xyz
x,y,z
-x,-y,z
x,-y,-z
-x,y,-z
-x,-y,-z
x,y,-z
-x,y,z
x,-y,z
loop_
_atom_site_type_symbol
_atom_site_label
_atom_site_fract_x
_atom_site_fract_y
_atom_site_fract_z
Si Si1 0.344791 0.776503 0.192702
Si Si2 0.247049 0.395640 0.812920
Si Si3 0.000000 0.447831 0.686175
Si Si4 0.844925 0.301447 0.309700
Si Si5 0.500000 0.449423 0.690761
Si Si6 0.162569 0.047130 0.188383
Si Si7 0.843759 0.143578 0.804277
O O1 0.500000 0.775147 0.249749
O O2 0.256431 0.734487 0.240024
O O3 0.259335 0.818945 0.247549
O O4 0.349858 0.778312 0.000000
O O5 0.126271 0.428262 0.775426
O O6 0.210915 0.349512 0.731841
O O7 0.374286 0.421101 0.746146
O O8 0.263135 0.387604 0.000000
O O9 0.000000 0.500000 0.688022
O O10 0.000000 0.433335 0.500000
O O11 0.848132 0.296327 0.500000
O O12 0.000000 0.297092 0.250400
O O13 0.500000 0.500000 0.751826
O O14 0.500000 0.452049 0.500000
O O15 0.200790 0.094975 0.252594
O O16 0.000000 0.047261 0.194942
O O17 0.207863 0.000000 0.257604
O O18 0.198608 0.046714 0.000000
O O19 0.000000 0.151825 0.757246
O O20 0.844381 0.142655 0.000000
#
# Coordination Sequence:
#
# PCOD9387170 Si02
#       7
#     8   8   4   8   4   8   8
#     4  10  21  35  53  78 109 143 182 228 279 337
#     4  12  25  41  65  94 123 155 195 242 286 334
#     4  11  23  41  65  93 127 163 197 233 280 337
#     4  11  24  42  63  84 110 144 185 232 287 347
#     4  11  25  45  67  91 125 167 201 233 280 335
#     4   7   9  14  28  54  88 126 171 220 268 320
#     4   8  13  23  41  65  95 135 179 225 276 327
#
# _framework density 18.880268999999998
#
# number of rings (size 3 to 8) (size 9 to 14) (size 15 to 20)
#    0.000    2.167    0.833    5.000    1.167    5.333 
#    0.000    0.000    0.000    0.500    0.000    3.500 
#    0.000    0.667    0.000    7.667    0.000    8.833 
#
# Total GULP energy -267638.628469 kJ/mol
# GULP energy per Si atom -5575.804760 kJ/mol
# Density = 1.883730 g / cm^3
# Si number density = 18.880269 Si / 1000 Ang^3
#
#
#
# Elastic Constant Matrix: (Units=GPa)
#
#
# Indices 1 2 3 4 5 6 
#
# 1 157.2301 88.3712 11.9814 0.0000 0.0000 0.0000
# 2 88.3712 160.2482 4.2920 0.0000 0.0000 0.0000
# 3 11.9814 4.2920 15.8583 0.0000 0.0000 0.0000
# 4 0.0000 0.0000 0.0000 -230.6642 0.0000 0.0000
# 5 0.0000 0.0000 0.0000 0.0000 -4.9691 0.0000
# 6 0.0000 0.0000 0.0000 0.0000 0.0000 21.8137
#
#
#
# Elastic Compliance Matrix: (Units=1/GPa)
#
#
# Indices 1 2 3 4 5 6 
#
# 1 0.009744 -0.005214 -0.005951 0.000000 0.000000 0.000000
# 2 -0.005214 0.009076 0.001483 0.000000 0.000000 0.000000
# 3 -0.005951 0.001483 0.067153 0.000000 0.000000 0.000000
# 4 0.000000 0.000000 0.000000 -0.004335 0.000000 0.000000
# 5 0.000000 0.000000 0.000000 0.000000 -0.201246 0.000000
# 6 0.000000 0.000000 0.000000 0.000000 0.000000 0.045843
#
#
# Mechanical properties :
#
#
# Convention : Reuss Voigt Hill
#
# Bulk Modulus (GPa) = 15.01292 60.29175 37.65233
# Shear Modulus (GPa) = -155.28883 -27.51776 -91.40330
#
# Velocity S-wave (km/s) = -9.07898 -3.82185 -6.96543
# Velocity P-wave (km/s) = 10.09628 3.53945 6.68607
#
# Compressibility (1/GPa) = 0.06660930
#
# Stress axis : x y z
#
# Youngs Moduli (GPa) = 102.62497 110.18018 14.89139
#
# Poissons Ratio (x) = 0.57450 0.08862
# Poissons Ratio (y) = 0.53511 -0.02208
# Poissons Ratio (z) = 0.61070 -0.16340
#
# Static dielectric constant tensor:
#      x y z
#    x 1.625800 0.000000 0.000000 
#    y 0.000000 1.678380 0.000000 
#    z 0.000000 0.000000 1.659840 
# 
# From -- ./inp_files/2816.got.cif
#   From: 2010.05.17/outbox.cif.g08.bks.cpg/sg47_2_cif.got.tgz:2816.got - 2010.06.03 20:15:42.
