data_PCOD9387970
_publ_section_title
;
Structure prediction by ZEFSAII (Michael W. Deem and Ramdas Pophale) SiO2 
 PCOD9387970
Probable space group: P M M M
;
_chemical_formula_sum "Si O2"
_cell_formula_units_Z 25
_cell_length_a 7.793851
_cell_length_b 19.740570
_cell_length_c 7.837715
_cell_angle_alpha 90.000000
_cell_angle_beta 90.000000
_cell_angle_gamma 90.000000
_cell_volume 1205.872121
_symmetry_space_group_name_H-M "P M M M"
_symmetry_group_IT_number 47
_symmetry_cell_setting 'orthorhombic'
loop_
_space_group_symop_operation_xyz
x,y,z
-x,-y,z
x,-y,-z
-x,y,-z
-x,-y,-z
x,y,-z
-x,y,z
x,-y,z
loop_
_atom_site_type_symbol
_atom_site_label
_atom_site_fract_x
_atom_site_fract_y
_atom_site_fract_z
Si Si1 0.690643 0.111002 0.500000
Si Si2 0.000000 0.000000 0.500000
Si Si3 0.799138 0.793414 0.802276
Si Si4 0.695803 0.355692 0.795862
Si Si5 0.303986 0.500000 0.701608
O O1 0.500000 0.080529 0.500000
O O2 0.708234 0.158260 0.332204
O O3 0.847471 0.058737 0.500000
O O4 0.780510 0.714986 0.745538
O O5 0.000000 0.810661 0.802579
O O6 0.737049 0.799228 0.000000
O O7 0.500000 0.355437 0.727910
O O8 0.776745 0.428079 0.750298
O O9 0.689437 0.354298 0.000000
O O10 0.500000 0.500000 0.777065
O O11 0.317508 0.500000 0.500000
#
# Coordination Sequence:
#
# PCOD9387970 Si02
#       5
#     4   1   8   8   4
#     4  12  25  45  75 101 136 178 212 260 320 382
#     4  12  26  52  70 110 144 168 214 256 310 398
#     4  10  21  40  65  95 132 173 219 274 327 380
#     4   9  17  30  50  77 111 157 214 269 324 382
#     4   9  17  27  42  71 112 156 208 269 325 379
#
# _framework density 20.731884000000001
#
# number of rings (size 3 to 8) (size 9 to 14) (size 15 to 20)
#    0.000    2.080    1.600    1.680    2.240    3.840 
#    0.000    2.400    0.000    6.720    0.000    0.000 
#    0.000    0.000    0.000    0.000    0.000    0.000 
#
# Total GULP energy -139180.234920 kJ/mol
# GULP energy per Si atom -5567.209397 kJ/mol
# Density = 2.068470 g / cm^3
# Si number density = 20.731884 Si / 1000 Ang^3
#
#
#
# Elastic Constant Matrix: (Units=GPa)
#
#
# Indices 1 2 3 4 5 6 
#
# 1 104.0700 48.2084 26.3419 0.0000 0.0000 0.0000
# 2 48.2084 158.3342 56.1110 0.0000 0.0000 0.0000
# 3 26.3419 56.1110 75.6221 0.0000 0.0000 0.0000
# 4 0.0000 0.0000 0.0000 -10.8614 0.0000 0.0000
# 5 0.0000 0.0000 0.0000 0.0000 6.6367 0.0000
# 6 0.0000 0.0000 0.0000 0.0000 0.0000 28.9656
#
#
#
# Elastic Compliance Matrix: (Units=1/GPa)
#
#
# Indices 1 2 3 4 5 6 
#
# 1 0.011382 -0.002796 -0.001891 0.000000 0.000000 0.000000
# 2 -0.002796 0.009256 -0.005894 0.000000 0.000000 0.000000
# 3 -0.001891 -0.005894 0.018255 0.000000 0.000000 0.000000
# 4 0.000000 0.000000 0.000000 -0.092069 0.000000 0.000000
# 5 0.000000 0.000000 0.000000 0.000000 0.150678 0.000000
# 6 0.000000 0.000000 0.000000 0.000000 0.000000 0.034524
#
#
# Mechanical properties :
#
#
# Convention : Reuss Voigt Hill
#
# Bulk Modulus (GPa) = 56.39063 66.59431 61.49247
# Shear Modulus (GPa) = 31.42737 18.77250 25.09994
#
# Velocity S-wave (km/s) = 3.89767 3.01240 3.48328
# Velocity P-wave (km/s) = 6.89310 6.65514 6.77516
#
# Compressibility (1/GPa) = 0.01773344
#
# Stress axis : x y z
#
# Youngs Moduli (GPa) = 87.85422 108.04255 54.77853
#
# Poissons Ratio (x) = 0.30205 0.10356
# Poissons Ratio (y) = 0.24561 0.32285
# Poissons Ratio (z) = 0.16609 0.63678
#
# Static dielectric constant tensor:
#      x y z
#    x 1.778530 0.000000 0.000000 
#    y 0.000000 1.745840 0.000000 
#    z 0.000000 0.000000 1.729490 
# 
# From -- ./inp_files/592.got.cif
#   From: 2010.05.17/outbox.cif.g08.bks.cpg/sg47_1_cif.got.tgz:592.got - 2010.06.03 20:15:42.
