data_PCOD9387302
_publ_section_title
;
Structure prediction by ZEFSAII (Michael W. Deem and Ramdas Pophale) SiO2 
 PCOD9387302
Probable space group: P M M M
;
_chemical_formula_sum "Si O2"
_cell_formula_units_Z 44
_cell_length_a 8.204971
_cell_length_b 18.819974
_cell_length_c 13.194760
_cell_angle_alpha 90.000000
_cell_angle_beta 90.000000
_cell_angle_gamma 90.000000
_cell_volume 2037.499753
_symmetry_space_group_name_H-M "P M M M"
_symmetry_group_IT_number 47
_symmetry_cell_setting 'orthorhombic'
loop_
_space_group_symop_operation_xyz
x,y,z
-x,-y,z
x,-y,-z
-x,y,-z
-x,-y,-z
x,y,-z
-x,y,z
x,-y,z
loop_
_atom_site_type_symbol
_atom_site_label
_atom_site_fract_x
_atom_site_fract_y
_atom_site_fract_z
Si Si1 0.812368 0.413830 0.000000
Si Si2 0.197014 0.581206 0.225672
Si Si3 0.191621 0.135242 0.387734
Si Si4 0.684994 0.281153 0.682447
Si Si5 0.691044 0.080416 0.823471
Si Si6 0.188368 0.774643 0.112818
O O1 0.743155 0.397342 0.111686
O O2 0.818280 0.500000 0.000000
O O3 0.000000 0.388223 0.000000
O O4 0.249284 0.500000 0.245812
O O5 0.250849 0.638704 0.308350
O O6 0.000000 0.581351 0.220698
O O7 0.245054 0.113481 0.500000
O O8 0.215932 0.220458 0.376216
O O9 0.284959 0.097905 0.295855
O O10 0.000000 0.119640 0.376180
O O11 0.500000 0.279623 0.646836
O O12 0.698856 0.254254 0.798733
O O13 0.500000 0.087761 0.848878
O O14 0.791512 0.140503 0.881184
O O15 0.742162 0.000000 0.844252
O O16 0.000000 0.756304 0.136355
O O17 0.227538 0.749554 0.000000
#
# Coordination Sequence:
#
# PCOD9387302 Si02
#       6
#     4   8   8   8   8   8
#     4   7  12  24  43  67  93 127 170 209 246 289
#     4   9  17  31  51  74 103 140 181 221 260 306
#     4  10  21  38  60  82 103 132 174 220 263 311
#     4  11  22  34  52  78 109 141 173 216 268 321
#     4  10  21  36  55  81 112 142 171 209 260 317
#     4  10  21  36  54  75 102 142 188 226 258 299
#
# _framework density 21.595094
#
# number of rings (size 3 to 8) (size 9 to 14) (size 15 to 20)
#    0.000    2.273    0.000    6.545    1.273    5.455 
#    0.000    3.636    0.000    2.182    0.000    3.818 
#    0.000    0.000    0.000    0.000    0.000    0.000 
#
# Total GULP energy -245644.286272 kJ/mol
# GULP energy per Si atom -5582.824688 kJ/mol
# Density = 2.154594 g / cm^3
# Si number density = 21.595094 Si / 1000 Ang^3
#
#
#
# Elastic Constant Matrix: (Units=GPa)
#
#
# Indices 1 2 3 4 5 6 
#
# 1 32.6381 -4.7146 -5.7788 0.0000 0.0000 0.0000
# 2 -4.7146 87.3878 -22.8349 0.0000 0.0000 0.0000
# 3 -5.7788 -22.8349 33.4779 0.0000 0.0000 0.0000
# 4 0.0000 0.0000 0.0000 12.8326 0.0000 0.0000
# 5 0.0000 0.0000 0.0000 0.0000 58.6913 0.0000
# 6 0.0000 0.0000 0.0000 0.0000 0.0000 28.1951
#
#
#
# Elastic Compliance Matrix: (Units=1/GPa)
#
#
# Indices 1 2 3 4 5 6 
#
# 1 0.032683 0.003940 0.008329 0.000000 0.000000 0.000000
# 2 0.003940 0.014400 0.010502 0.000000 0.000000 0.000000
# 3 0.008329 0.010502 0.038472 0.000000 0.000000 0.000000
# 4 0.000000 0.000000 0.000000 0.077926 0.000000 0.000000
# 5 0.000000 0.000000 0.000000 0.000000 0.017038 0.000000
# 6 0.000000 0.000000 0.000000 0.000000 0.000000 0.035467
#
#
# Mechanical properties :
#
#
# Convention : Reuss Voigt Hill
#
# Bulk Modulus (GPa) = 7.62805 9.64970 8.63887
# Shear Modulus (GPa) = 23.34879 32.39927 27.87403
#
# Velocity S-wave (km/s) = 3.29174 3.87758 3.59661
# Velocity P-wave (km/s) = 4.24115 4.95234 4.61048
#
# Compressibility (1/GPa) = 0.13109513
#
# Stress axis : x y z
#
# Youngs Moduli (GPa) = 30.59719 69.44426 25.99325
#
# Poissons Ratio (x) = -0.27358 -0.21649
# Poissons Ratio (y) = -0.12054 -0.27298
# Poissons Ratio (z) = -0.25484 -0.72931
#
# Static dielectric constant tensor:
#      x y z
#    x 1.735200 0.000000 0.000000 
#    y 0.000000 1.844770 0.000000 
#    z 0.000000 0.000000 1.788770 
# 
# From -- ./inp_files/20932.got.cif
#   From: 2010.05.17/outbox.cif.g08.bks.cpg/sg47_11_cif.got.tgz:20932.got - 2010.06.03 20:15:42.
