data_PCOD9387445
_publ_section_title
;
Structure prediction by ZEFSAII (Michael W. Deem and Ramdas Pophale) SiO2 
 PCOD9387445
Probable space group: P M M M
;
_chemical_formula_sum "Si O2"
_cell_formula_units_Z 56
_cell_length_a 9.688183
_cell_length_b 13.753191
_cell_length_c 20.867723
_cell_angle_alpha 90.000000
_cell_angle_beta 90.000000
_cell_angle_gamma 90.000000
_cell_volume 2780.487015
_symmetry_space_group_name_H-M "P M M M"
_symmetry_group_IT_number 47
_symmetry_cell_setting 'orthorhombic'
loop_
_space_group_symop_operation_xyz
x,y,z
-x,-y,z
x,-y,-z
-x,y,-z
-x,-y,-z
x,y,-z
-x,y,z
x,-y,z
loop_
_atom_site_type_symbol
_atom_site_label
_atom_site_fract_x
_atom_site_fract_y
_atom_site_fract_z
Si Si1 0.346498 0.665486 0.264784
Si Si2 0.340563 0.606559 0.407597
Si Si3 0.163479 0.844120 0.287822
Si Si4 0.344759 0.000000 0.215980
Si Si5 0.265086 0.000000 0.074068
Si Si6 0.164060 0.798550 0.429956
Si Si7 0.151348 0.782166 0.075773
Si Si8 0.340083 0.606786 0.877950
O O1 0.500000 0.715664 0.263980
O O2 0.342564 0.606833 0.330374
O O3 0.217650 0.737639 0.269964
O O4 0.338575 0.607626 0.199193
O O5 0.500000 0.620820 0.427587
O O6 0.293346 0.500000 0.429041
O O7 0.247836 0.697587 0.427334
O O8 0.195418 0.856438 0.364153
O O9 0.000000 0.858311 0.278345
O O10 0.255739 0.911048 0.242825
O O11 0.353294 0.000000 0.138938
O O12 0.500000 0.000000 0.241779
O O13 0.185173 0.102852 0.080818
O O14 0.321147 0.000000 0.000000
O O15 0.191465 0.844801 0.500000
O O16 0.000000 0.778426 0.426567
O O17 0.258602 0.703728 0.102466
O O18 0.000000 0.765249 0.104632
O O19 0.146641 0.763257 0.000000
O O20 0.500000 0.615709 0.898694
O O21 0.288367 0.500000 0.900382
#
# Coordination Sequence:
#
# PCOD9387445 Si02
#       8
#     8   8   8   4   4   8   8   8
#     4   9  17  32  53  76 106 144 185 231 282 336
#     4   9  17  29  47  73 105 141 181 226 278 335
#     4  10  21  37  58  84 113 147 188 234 286 343
#     4  12  25  40  61  89 119 147 178 223 278 337
#     4  10  23  43  67  94 123 155 192 236 290 353
#     4   9  19  36  55  75 104 144 188 233 281 333
#     4  10  22  40  61  85 114 149 189 235 289 347
#     4  10  21  36  55  81 114 154 198 241 288 344
#
# _framework density 20.140355
#
# number of rings (size 3 to 8) (size 9 to 14) (size 15 to 20)
#    0.000    2.286    0.000    2.143    0.000    9.571 
#    0.000    4.643    0.000    4.714    0.000    0.000 
#    0.000    0.000    0.000    0.000    0.000    0.000 
#
# Total GULP energy -311950.456906 kJ/mol
# GULP energy per Si atom -5570.543873 kJ/mol
# Density = 2.009452 g / cm^3
# Si number density = 20.140355 Si / 1000 Ang^3
#
#
#
# Elastic Constant Matrix: (Units=GPa)
#
#
# Indices 1 2 3 4 5 6 
#
# 1 89.4439 44.6488 42.5952 0.0000 0.0000 0.0000
# 2 44.6488 91.5009 36.3991 0.0000 0.0000 0.0000
# 3 42.5952 36.3991 99.6172 0.0000 0.0000 0.0000
# 4 0.0000 0.0000 0.0000 -23.2863 0.0000 0.0000
# 5 0.0000 0.0000 0.0000 0.0000 9.8812 0.0000
# 6 0.0000 0.0000 0.0000 0.0000 0.0000 -6.2552
#
#
#
# Elastic Compliance Matrix: (Units=1/GPa)
#
#
# Indices 1 2 3 4 5 6 
#
# 1 0.016553 -0.006156 -0.004828 0.000000 0.000000 0.000000
# 2 -0.006156 0.015077 -0.002877 0.000000 0.000000 0.000000
# 3 -0.004828 -0.002877 0.013154 0.000000 0.000000 0.000000
# 4 0.000000 0.000000 0.000000 -0.042944 0.000000 0.000000
# 5 0.000000 0.000000 0.000000 0.000000 0.101202 0.000000
# 6 0.000000 0.000000 0.000000 0.000000 0.000000 -0.159868
#
#
# Mechanical properties :
#
#
# Convention : Reuss Voigt Hill
#
# Bulk Modulus (GPa) = 58.61197 58.64980 58.63089
# Shear Modulus (GPa) = -213.53131 6.52921 -103.50105
#
# Velocity S-wave (km/s) = -10.30785 1.80247 -7.17645
# Velocity P-wave (km/s) = 10.60680 5.78927 6.28445
#
# Compressibility (1/GPa) = 0.01706136
#
# Stress axis : x y z
#
# Youngs Moduli (GPa) = 60.41326 66.32503 76.02224
#
# Poissons Ratio (x) = 0.40832 0.36706
# Poissons Ratio (y) = 0.37193 0.21869
# Poissons Ratio (z) = 0.29169 0.19080
#
# Static dielectric constant tensor:
#      x y z
#    x 1.699690 0.000000 0.000000 
#    y 0.000000 1.804300 0.000000 
#    z 0.000000 0.000000 1.758270 
# 
# From -- ./inp_files/29736.got.cif
#   From: 2010.05.17/outbox.cif.g08.bks.cpg/sg47_15_cif.got.tgz:29736.got - 2010.06.03 20:15:42.
