data_PCOD9387132
_publ_section_title
;
Structure prediction by ZEFSAII (Michael W. Deem and Ramdas Pophale) SiO2 
 PCOD9387132
Probable space group: P M M M
;
_chemical_formula_sum "Si O2"
_cell_formula_units_Z 48
_cell_length_a 9.310953
_cell_length_b 7.566261
_cell_length_c 33.601253
_cell_angle_alpha 90.000000
_cell_angle_beta 90.000000
_cell_angle_gamma 90.000000
_cell_volume 2367.178051
_symmetry_space_group_name_H-M "P M M M"
_symmetry_group_IT_number 47
_symmetry_cell_setting 'orthorhombic'
loop_
_space_group_symop_operation_xyz
x,y,z
-x,-y,z
x,-y,-z
-x,y,-z
-x,-y,-z
x,y,-z
-x,y,z
x,-y,z
loop_
_atom_site_type_symbol
_atom_site_label
_atom_site_fract_x
_atom_site_fract_y
_atom_site_fract_z
Si Si1 0.336602 0.288774 0.655500
Si Si2 0.336938 0.790297 0.255700
Si Si3 0.164653 0.283543 0.421334
Si Si4 0.838548 0.709396 0.177259
Si Si5 0.169344 0.000000 0.047574
Si Si6 0.329404 0.712429 0.098654
Si Si7 0.664917 0.284020 0.500000
O O1 0.500000 0.218759 0.653104
O O2 0.344683 0.500000 0.650856
O O3 0.282491 0.255226 0.700141
O O4 0.239540 0.222985 0.619422
O O5 0.500000 0.716711 0.251651
O O6 0.235947 0.734637 0.219758
O O7 0.347066 0.000000 0.253687
O O8 0.165012 0.500000 0.421207
O O9 0.253364 0.227931 0.460108
O O10 0.000000 0.227127 0.423712
O O11 0.850553 0.500000 0.171419
O O12 0.737355 0.770235 0.141192
O O13 0.000000 0.784503 0.175841
O O14 0.247107 0.828267 0.066009
O O15 0.000000 0.000000 0.058137
O O16 0.181703 0.000000 0.000000
O O17 0.500000 0.745810 0.097863
O O18 0.308669 0.500000 0.093456
O O19 0.665050 0.500000 0.500000
O O20 0.500000 0.226855 0.500000
#
# Coordination Sequence:
#
# PCOD9387132 Si02
#       7
#     8   8   8   8   4   8   4
#     4   9  17  30  47  66  92 129 170 210 255 311
#     4  10  21  35  52  76 106 141 181 225 273 327
#     4   9  16  25  39  61  89 120 155 199 251 305
#     4  10  21  37  58  84 114 149 189 235 288 344
#     4  11  25  43  65  95 131 171 211 255 311 370
#     4  10  22  41  66  94 125 164 210 259 309 363
#     4   9  15  23  37  59  88 119 152 193 244 304
#
# _framework density 20.277308999999999
#
# number of rings (size 3 to 8) (size 9 to 14) (size 15 to 20)
#    0.000    2.333    0.000    2.500    1.167    7.667 
#    0.000    3.333    0.000    0.000    0.000    0.583 
#    0.000    4.667    0.000    0.000    0.000    0.000 
#
# Total GULP energy -268032.365654 kJ/mol
# GULP energy per Si atom -5584.007618 kJ/mol
# Density = 2.023116 g / cm^3
# Si number density = 20.277309 Si / 1000 Ang^3
#
#
#
# Elastic Constant Matrix: (Units=GPa)
#
#
# Indices 1 2 3 4 5 6 
#
# 1 172.3890 37.6533 120.0002 0.0000 0.0000 0.0000
# 2 37.6533 58.0846 25.8257 0.0000 0.0000 0.0000
# 3 120.0002 25.8257 174.9419 0.0000 0.0000 0.0000
# 4 0.0000 0.0000 0.0000 59.7630 0.0000 0.0000
# 5 0.0000 0.0000 0.0000 0.0000 26.6798 0.0000
# 6 0.0000 0.0000 0.0000 0.0000 0.0000 9.4143
#
#
#
# Elastic Compliance Matrix: (Units=1/GPa)
#
#
# Indices 1 2 3 4 5 6 
#
# 1 0.012084 -0.004440 -0.007634 0.000000 0.000000 0.000000
# 2 -0.004440 0.020057 0.000084 0.000000 0.000000 0.000000
# 3 -0.007634 0.000084 0.010940 0.000000 0.000000 0.000000
# 4 0.000000 0.000000 0.000000 0.016733 0.000000 0.000000
# 5 0.000000 0.000000 0.000000 0.000000 0.037482 0.000000
# 6 0.000000 0.000000 0.000000 0.000000 0.000000 0.106222
#
#
# Mechanical properties :
#
#
# Convention : Reuss Voigt Hill
#
# Bulk Modulus (GPa) = 52.34706 85.81932 69.08319
# Shear Modulus (GPa) = 21.38003 33.96716 27.67360
#
# Velocity S-wave (km/s) = 3.25065 4.09728 3.69827
# Velocity P-wave (km/s) = 6.32144 8.04974 7.23736
#
# Compressibility (1/GPa) = 0.01910327
#
# Stress axis : x y z
#
# Youngs Moduli (GPa) = 82.75075 49.85870 91.40656
#
# Poissons Ratio (x) = 0.22135 0.69779
# Poissons Ratio (y) = 0.36738 -0.00772
# Poissons Ratio (z) = 0.63171 -0.00421
#
# Static dielectric constant tensor:
#      x y z
#    x 1.701270 0.000000 0.000000 
#    y 0.000000 1.775210 0.000000 
#    z 0.000000 0.000000 1.692080 
# 
# From -- ./inp_files/34145.got.cif
#   From: 2010.05.17/outbox.cif.g08.bks.cpg/sg47_18_cif.got.tgz:34145.got - 2010.06.03 20:15:42.
