data_PCOD9387846
_publ_section_title
;
Structure prediction by ZEFSAII (Michael W. Deem and Ramdas Pophale) SiO2 
 PCOD9387846
Probable space group: P M M M
;
_chemical_formula_sum "Si O2"
_cell_formula_units_Z 52
_cell_length_a 19.256131
_cell_length_b 7.981745
_cell_length_c 17.078568
_cell_angle_alpha 90.000000
_cell_angle_beta 90.000000
_cell_angle_gamma 90.000000
_cell_volume 2624.933672
_symmetry_space_group_name_H-M "P M M M"
_symmetry_group_IT_number 47
_symmetry_cell_setting 'orthorhombic'
loop_
_space_group_symop_operation_xyz
x,y,z
-x,-y,z
x,-y,-z
-x,y,-z
-x,-y,-z
x,y,-z
-x,y,z
x,-y,z
loop_
_atom_site_type_symbol
_atom_site_label
_atom_site_fract_x
_atom_site_fract_y
_atom_site_fract_z
Si Si1 0.424977 0.701503 0.407907
Si Si2 0.000000 0.699757 0.411155
Si Si3 0.420908 0.500000 0.904614
Si Si4 0.724267 0.798973 0.589563
Si Si5 0.677704 0.804396 0.094926
Si Si6 0.139093 0.797566 0.320213
Si Si7 0.830911 0.201216 0.852128
Si Si8 0.077877 0.300759 0.000000
O O1 0.424135 0.753074 0.500000
O O2 0.500000 0.758996 0.375405
O O3 0.424953 0.500000 0.405988
O O4 0.351277 0.759235 0.374497
O O5 0.069402 0.752115 0.365743
O O6 0.000000 0.500000 0.415430
O O7 0.000000 0.768075 0.500000
O O8 0.500000 0.500000 0.876313
O O9 0.380146 0.669049 0.881578
O O10 0.422261 0.500000 0.000000
O O11 0.726423 0.733922 0.500000
O O12 0.791098 0.736613 0.636438
O O13 0.729262 0.000000 0.586062
O O14 0.751489 0.749568 0.130663
O O15 0.663341 0.000000 0.115781
O O16 0.684355 0.799698 0.000000
O O17 0.141232 0.735587 0.230936
O O18 0.142346 0.000000 0.318437
O O19 0.879782 0.249749 0.923454
O O20 0.829585 0.000000 0.849280
O O21 0.073318 0.500000 0.000000
O O22 0.000000 0.229361 0.000000
#
# Coordination Sequence:
#
# PCOD9387846 Si02
#       8
#     8   4   4   8   8   8   8   4
#     4   8  14  25  43  69 101 137 176 218 267 326
#     4  11  25  43  61  84 117 154 193 237 288 341
#     4   9  18  30  50  82 114 150 194 245 301 351
#     4   9  17  30  50  77 107 138 178 228 277 327
#     4   9  17  31  53  81 112 150 195 242 294 356
#     4  10  22  39  60  85 112 147 192 238 285 339
#     4  10  21  38  60  85 113 150 194 237 287 347
#     4  11  25  39  57  87 119 152 185 230 292 350
#
# _framework density 19.810023999999999
#
# number of rings (size 3 to 8) (size 9 to 14) (size 15 to 20)
#    0.000    2.538    0.769    1.385    2.154    3.692 
#    0.000    4.615    0.000    0.923    0.000    4.308 
#    0.000    0.000    0.000    0.000    0.000    0.000 
#
# Total GULP energy -290037.432133 kJ/mol
# GULP energy per Si atom -5577.642926 kJ/mol
# Density = 1.976494 g / cm^3
# Si number density = 19.810024 Si / 1000 Ang^3
#
#
#
# Elastic Constant Matrix: (Units=GPa)
#
#
# Indices 1 2 3 4 5 6 
#
# 1 226.3552 44.0014 88.2099 0.0000 0.0000 0.0000
# 2 44.0014 42.2494 20.9789 0.0000 0.0000 0.0000
# 3 88.2099 20.9789 98.8662 0.0000 0.0000 0.0000
# 4 0.0000 0.0000 0.0000 6.2306 0.0000 0.0000
# 5 0.0000 0.0000 0.0000 0.0000 10.8927 0.0000
# 6 0.0000 0.0000 0.0000 0.0000 0.0000 27.6439
#
#
#
# Elastic Compliance Matrix: (Units=1/GPa)
#
#
# Indices 1 2 3 4 5 6 
#
# 1 0.007649 -0.005116 -0.005739 0.000000 0.000000 0.000000
# 2 -0.005116 0.029879 -0.001775 0.000000 0.000000 0.000000
# 3 -0.005739 -0.001775 0.015611 0.000000 0.000000 0.000000
# 4 0.000000 0.000000 0.000000 0.160498 0.000000 0.000000
# 5 0.000000 0.000000 0.000000 0.000000 0.091804 0.000000
# 6 0.000000 0.000000 0.000000 0.000000 0.000000 0.036174
#
#
# Mechanical properties :
#
#
# Convention : Reuss Voigt Hill
#
# Bulk Modulus (GPa) = 35.86975 74.87237 55.37106
# Shear Modulus (GPa) = 13.29188 23.23882 18.26535
#
# Velocity S-wave (km/s) = 2.59311 3.42875 3.03978
# Velocity P-wave (km/s) = 5.20690 7.31794 6.35075
#
# Compressibility (1/GPa) = 0.02787865
#
# Stress axis : x y z
#
# Youngs Moduli (GPa) = 130.74028 33.46829 64.05536
#
# Poissons Ratio (x) = 0.17124 0.36759
# Poissons Ratio (y) = 0.66892 0.11371
# Poissons Ratio (z) = 0.75027 0.05941
#
# Static dielectric constant tensor:
#      x y z
#    x 1.702640 0.000000 0.000000 
#    y 0.000000 1.700820 0.000000 
#    z 0.000000 0.000000 1.744550 
# 
# From -- ./inp_files/28537.got.cif
#   From: 2010.05.17/outbox.cif.g08.bks.cpg/sg47_15_cif.got.tgz:28537.got - 2010.06.03 20:15:42.
