data_PCOD9387328
_publ_section_title
;
Structure prediction by ZEFSAII (Michael W. Deem and Ramdas Pophale) SiO2 
 PCOD9387328
Probable space group: P M M M
;
_chemical_formula_sum "Si O2"
_cell_formula_units_Z 64
_cell_length_a 9.444442
_cell_length_b 14.084853
_cell_length_c 24.805893
_cell_angle_alpha 90.000000
_cell_angle_beta 90.000000
_cell_angle_gamma 90.000000
_cell_volume 3299.768623
_symmetry_space_group_name_H-M "P M M M"
_symmetry_group_IT_number 47
_symmetry_cell_setting 'orthorhombic'
loop_
_space_group_symop_operation_xyz
x,y,z
-x,-y,z
x,-y,-z
-x,y,-z
-x,-y,-z
x,y,-z
-x,y,z
x,-y,z
loop_
_atom_site_type_symbol
_atom_site_label
_atom_site_fract_x
_atom_site_fract_y
_atom_site_fract_z
Si Si1 0.662507 0.884113 0.236569
Si Si2 0.672012 0.892843 0.884540
Si Si3 0.666407 0.390926 0.380917
Si Si4 0.663198 0.614229 0.829858
Si Si5 0.838225 0.615841 0.273930
Si Si6 0.668068 0.797690 0.439256
Si Si7 0.672445 0.294351 0.940818
Si Si8 0.837575 0.885314 0.659378
O O1 0.500000 0.852651 0.244951
O O2 0.711308 0.860034 0.175984
O O3 0.760950 0.853096 0.285582
O O4 0.659945 0.000000 0.236750
O O5 0.500000 0.896317 0.883850
O O6 0.712553 0.814438 0.927980
O O7 0.722758 0.000000 0.894403
O O8 0.500000 0.388105 0.365776
O O9 0.700262 0.500000 0.395453
O O10 0.757858 0.361252 0.329208
O O11 0.687558 0.314558 0.427753
O O12 0.500000 0.646880 0.824031
O O13 0.662036 0.500000 0.829037
O O14 0.753814 0.647817 0.779008
O O15 0.717257 0.646967 0.888303
O O16 0.839118 0.500000 0.272035
O O17 0.000000 0.648184 0.273830
O O18 0.711972 0.822150 0.500000
O O19 0.500000 0.817611 0.433935
O O20 0.752685 0.851020 0.392796
O O21 0.500000 0.299727 0.941661
O O22 0.722297 0.324727 0.000000
O O23 0.000000 0.853506 0.657418
O O24 0.836254 0.000000 0.659991
#
# Coordination Sequence:
#
# PCOD9387328 Si02
#       8
#     8   8   8   8   8   8   8   8
#     4   8  14  27  48  72  97 125 158 196 242 300
#     4   8  14  25  42  65  92 120 150 190 242 293
#     4   9  18  34  56  80 106 134 163 201 250 299
#     4   9  17  29  45  66  95 129 161 196 239 285
#     4   9  17  30  50  76 103 129 160 199 244 296
#     4  10  22  38  55  77 103 134 174 211 243 289
#     4   9  17  27  40  62  90 121 161 202 237 281
#     4  10  21  36  54  77 105 135 167 208 257 302
#
# _framework density 19.395299000000001
#
# number of rings (size 3 to 8) (size 9 to 14) (size 15 to 20)
#    0.000    3.000    0.000    1.500    0.000    5.000 
#    0.000    7.500    0.000    0.375    0.000    4.375 
#    0.000    0.000    0.000    6.000    0.000    6.250 
#
# Total GULP energy -357032.808639 kJ/mol
# GULP energy per Si atom -5578.637635 kJ/mol
# Density = 1.935115 g / cm^3
# Si number density = 19.395299 Si / 1000 Ang^3
#
#
#
# Elastic Constant Matrix: (Units=GPa)
#
#
# Indices 1 2 3 4 5 6 
#
# 1 36.1620 5.4697 28.7946 0.0000 0.0000 0.0000
# 2 5.4697 34.2350 -0.5821 0.0000 0.0000 0.0000
# 3 28.7946 -0.5821 94.1293 0.0000 0.0000 0.0000
# 4 0.0000 0.0000 0.0000 23.9708 0.0000 0.0000
# 5 0.0000 0.0000 0.0000 0.0000 -5.6864 0.0000
# 6 0.0000 0.0000 0.0000 0.0000 0.0000 11.9280
#
#
#
# Elastic Compliance Matrix: (Units=1/GPa)
#
#
# Indices 1 2 3 4 5 6 
#
# 1 0.037847 -0.006244 -0.011616 0.000000 0.000000 0.000000
# 2 -0.006244 0.030243 0.002097 0.000000 0.000000 0.000000
# 3 -0.011616 0.002097 0.014190 0.000000 0.000000 0.000000
# 4 0.000000 0.000000 0.000000 0.041717 0.000000 0.000000
# 5 0.000000 0.000000 0.000000 0.000000 -0.175858 0.000000
# 6 0.000000 0.000000 0.000000 0.000000 0.000000 0.083836
#
#
# Mechanical properties :
#
#
# Convention : Reuss Voigt Hill
#
# Bulk Modulus (GPa) = 19.70296 25.76563 22.73429
# Shear Modulus (GPa) = 62.17211 14.76543 38.46877
#
# Velocity S-wave (km/s) = 5.66788 2.76214 4.45838
# Velocity P-wave (km/s) = 7.28106 4.84622 6.18464
#
# Compressibility (1/GPa) = 0.05075380
#
# Stress axis : x y z
#
# Youngs Moduli (GPa) = 26.42183 33.06533 70.47145
#
# Poissons Ratio (x) = 0.20647 0.81862
# Poissons Ratio (y) = 0.16499 -0.14779
# Poissons Ratio (z) = 0.30692 -0.06935
#
# Static dielectric constant tensor:
#      x y z
#    x 1.649110 0.000000 0.000000 
#    y 0.000000 1.736840 0.000000 
#    z 0.000000 0.000000 1.650150 
# 
# From -- ./inp_files/12745.got.cif
#   From: 2010.05.17/outbox.cif.g08.bks.cpg/sg47_7_cif.got.tgz:12745.got - 2010.06.03 20:15:42.
