data_PCOD9387465
_publ_section_title
;
Structure prediction by ZEFSAII (Michael W. Deem and Ramdas Pophale) SiO2 
 PCOD9387465
Probable space group: P M M M
;
_chemical_formula_sum "Si O2"
_cell_formula_units_Z 48
_cell_length_a 30.024437
_cell_length_b 9.886854
_cell_length_c 7.742275
_cell_angle_alpha 90.000000
_cell_angle_beta 90.000000
_cell_angle_gamma 90.000000
_cell_volume 2298.272849
_symmetry_space_group_name_H-M "P M M M"
_symmetry_group_IT_number 47
_symmetry_cell_setting 'orthorhombic'
loop_
_space_group_symop_operation_xyz
x,y,z
-x,-y,z
x,-y,-z
-x,y,-z
-x,-y,-z
x,y,-z
-x,y,z
x,-y,z
loop_
_atom_site_type_symbol
_atom_site_label
_atom_site_fract_x
_atom_site_fract_y
_atom_site_fract_z
Si Si1 0.448986 0.846659 0.289501
Si Si2 0.948340 0.000000 0.793205
Si Si3 0.288592 0.154485 0.703617
Si Si4 0.792255 0.655993 0.798915
Si Si5 0.369063 0.343603 0.711891
Si Si6 0.889607 0.257389 0.295903
Si Si7 0.949747 0.500000 0.288202
O O1 0.448876 0.846329 0.500000
O O2 0.500000 0.823100 0.234580
O O3 0.414342 0.732441 0.234486
O O4 0.435883 0.000000 0.237295
O O5 0.918303 0.875271 0.734353
O O6 0.000000 0.000000 0.728926
O O7 0.950689 0.000000 0.000000
O O8 0.297691 0.140394 0.500000
O O9 0.243618 0.241787 0.720154
O O10 0.328375 0.248929 0.773039
O O11 0.285737 0.000000 0.773560
O O12 0.792458 0.500000 0.729238
O O13 0.840990 0.722534 0.782403
O O14 0.781100 0.646241 0.000000
O O15 0.368210 0.346075 0.500000
O O16 0.365800 0.500000 0.767817
O O17 0.882900 0.275311 0.500000
O O18 0.922017 0.373019 0.228547
O O19 0.950815 0.500000 0.500000
O O20 0.000000 0.500000 0.227753
#
# Coordination Sequence:
#
# PCOD9387465 Si02
#       7
#     8   4   8   8   8   8   4
#     4   8  13  21  34  55  89 134 179 222 273 333
#     4  11  25  43  61  87 125 163 195 231 278 329
#     4  10  21  36  56  80 106 140 185 232 279 335
#     4  11  24  41  60  83 114 147 181 226 286 348
#     4   9  16  26  42  66  97 134 177 228 280 331
#     4  11  22  39  64  90 118 152 192 236 279 329
#     4   9  18  34  59  91 119 143 181 231 276 319
#
# _framework density 20.885249999999999
#
# number of rings (size 3 to 8) (size 9 to 14) (size 15 to 20)
#    0.000    2.167    0.833    3.250    1.167    5.667 
#    0.000    1.667    0.000    2.000    0.000    0.000 
#    0.000    0.667    0.000    7.000    0.000    9.667 
#
# Total GULP energy -267843.882320 kJ/mol
# GULP energy per Si atom -5580.080882 kJ/mol
# Density = 2.083771 g / cm^3
# Si number density = 20.885250 Si / 1000 Ang^3
#
#
#
# Elastic Constant Matrix: (Units=GPa)
#
#
# Indices 1 2 3 4 5 6 
#
# 1 161.7229 111.6516 -8.4202 0.0000 0.0000 0.0000
# 2 111.6516 215.4839 -3.2876 0.0000 0.0000 0.0000
# 3 -8.4202 -3.2876 32.2329 0.0000 0.0000 0.0000
# 4 0.0000 0.0000 0.0000 0.5497 0.0000 0.0000
# 5 0.0000 0.0000 0.0000 0.0000 25.8278 0.0000
# 6 0.0000 0.0000 0.0000 0.0000 0.0000 37.0671
#
#
#
# Elastic Compliance Matrix: (Units=1/GPa)
#
#
# Indices 1 2 3 4 5 6 
#
# 1 0.009759 -0.005025 0.002037 0.000000 0.000000 0.000000
# 2 -0.005025 0.007236 -0.000575 0.000000 0.000000 0.000000
# 3 0.002037 -0.000575 0.031498 0.000000 0.000000 0.000000
# 4 0.000000 0.000000 0.000000 1.819170 0.000000 0.000000
# 5 0.000000 0.000000 0.000000 0.000000 0.038718 0.000000
# 6 0.000000 0.000000 0.000000 0.000000 0.000000 0.026978
#
#
# Mechanical properties :
#
#
# Convention : Reuss Voigt Hill
#
# Bulk Modulus (GPa) = 24.17476 67.70305 45.93891
# Shear Modulus (GPa) = 2.55850 33.32198 17.94024
#
# Velocity S-wave (km/s) = 1.10801 3.99868 2.93403
# Velocity P-wave (km/s) = 3.63828 7.33528 5.78979
#
# Compressibility (1/GPa) = 0.04136545
#
# Stress axis : x y z
#
# Youngs Moduli (GPa) = 102.46949 138.20022 31.74845
#
# Poissons Ratio (x) = 0.69452 -0.06466
# Poissons Ratio (y) = 0.51496 0.01825
# Poissons Ratio (z) = -0.20871 0.07944
#
# Static dielectric constant tensor:
#      x y z
#    x 1.735480 0.000000 0.000000 
#    y 0.000000 2.280890 0.000000 
#    z 0.000000 0.000000 1.784320 
# 
# From -- ./inp_files/13952.got.cif
#   From: 2010.05.17/outbox.cif.g08.bks.cpg/sg47_7_cif.got.tgz:13952.got - 2010.06.03 20:15:42.
