data_PCOD9387797
_publ_section_title
;
Structure prediction by ZEFSAII (Michael W. Deem and Ramdas Pophale) SiO2 
 PCOD9387797
Probable space group: P M M M
;
_chemical_formula_sum "Si O2"
_cell_formula_units_Z 56
_cell_length_a 23.546500
_cell_length_b 8.580037
_cell_length_c 15.348525
_cell_angle_alpha 90.000000
_cell_angle_beta 90.000000
_cell_angle_gamma 90.000000
_cell_volume 3100.860069
_symmetry_space_group_name_H-M "P M M M"
_symmetry_group_IT_number 47
_symmetry_cell_setting 'orthorhombic'
loop_
_space_group_symop_operation_xyz
x,y,z
-x,-y,z
x,-y,-z
-x,y,-z
-x,-y,-z
x,y,-z
-x,y,z
x,-y,z
loop_
_atom_site_type_symbol
_atom_site_label
_atom_site_fract_x
_atom_site_fract_y
_atom_site_fract_z
Si Si1 0.240134 0.812264 0.601123
Si Si2 0.182177 0.185936 0.904623
Si Si3 0.114562 0.816203 0.669426
Si Si4 0.065440 0.685016 0.845512
Si Si5 0.276308 0.686643 0.776224
Si Si6 0.066022 0.675010 0.500000
Si Si7 0.500000 0.820507 0.894410
Si Si8 0.621018 0.312326 0.899725
O O1 0.246292 0.759042 0.500000
O O2 0.178229 0.770979 0.640389
O O3 0.280410 0.748071 0.677304
O O4 0.243570 0.000000 0.599404
O O5 0.116228 0.234585 0.898470
O O6 0.219639 0.257244 0.827174
O O7 0.185943 0.000000 0.897908
O O8 0.204280 0.235982 0.000000
O O9 0.085370 0.721989 0.747067
O O10 0.080825 0.776282 0.583231
O O11 0.114348 0.000000 0.691682
O O12 0.066991 0.500000 0.861296
O O13 0.000000 0.737484 0.859875
O O14 0.275303 0.500000 0.774028
O O15 0.328988 0.740924 0.835942
O O16 0.093177 0.500000 0.500000
O O17 0.000000 0.651526 0.500000
O O18 0.441093 0.740635 0.868222
O O19 0.500000 0.000000 0.867613
O O20 0.500000 0.813463 0.000000
O O21 0.622094 0.500000 0.901687
O O22 0.629535 0.257317 0.000000
#
# Coordination Sequence:
#
# PCOD9387797 Si02
#       8
#     8   8   8   8   8   4   4   8
#     4  10  21  38  57  78 107 141 178 222 275 333
#     4  11  24  40  58  80 107 141 181 225 274 330
#     4  11  21  36  56  76 100 132 170 214 270 336
#     4  11  24  40  57  77 101 131 171 221 277 335
#     4  11  22  36  58  86 114 146 186 230 275 326
#     4  11  23  35  49  73 103 131 165 212 267 330
#     4   9  17  29  49  81 118 155 196 235 265 302
#     4   9  18  33  53  80 118 160 193 223 266 318
#
# _framework density 18.059505999999999
#
# number of rings (size 3 to 8) (size 9 to 14) (size 15 to 20)
#    0.000    1.571    2.143    3.000    0.000    8.286 
#    0.000    2.857    0.000    0.000    0.000    0.500 
#    0.000    4.000    0.000    0.000    0.000    0.000 
#
# Total GULP energy -312388.242020 kJ/mol
# GULP energy per Si atom -5578.361465 kJ/mol
# Density = 1.801840 g / cm^3
# Si number density = 18.059506 Si / 1000 Ang^3
#
#
#
# Elastic Constant Matrix: (Units=GPa)
#
#
# Indices 1 2 3 4 5 6 
#
# 1 106.7521 15.0166 45.2580 0.0000 0.0000 0.0000
# 2 15.0166 10.7282 12.4936 0.0000 0.0000 0.0000
# 3 45.2580 12.4936 112.9716 0.0000 0.0000 0.0000
# 4 0.0000 0.0000 0.0000 -22.3123 0.0000 0.0000
# 5 0.0000 0.0000 0.0000 0.0000 19.1459 0.0000
# 6 0.0000 0.0000 0.0000 0.0000 0.0000 -190.7791
#
#
#
# Elastic Compliance Matrix: (Units=1/GPa)
#
#
# Indices 1 2 3 4 5 6 
#
# 1 0.012837 -0.013751 -0.003622 0.000000 0.000000 0.000000
# 2 -0.013751 0.121721 -0.007952 0.000000 0.000000 0.000000
# 3 -0.003622 -0.007952 0.011182 0.000000 0.000000 0.000000
# 4 0.000000 0.000000 0.000000 -0.044818 0.000000 0.000000
# 5 0.000000 0.000000 0.000000 0.000000 0.052231 0.000000
# 6 0.000000 0.000000 0.000000 0.000000 0.000000 -0.005242
#
#
# Mechanical properties :
#
#
# Convention : Reuss Voigt Hill
#
# Bulk Modulus (GPa) = 10.51633 41.77646 26.14640
# Shear Modulus (GPa) = 21.71468 -28.27686 -3.28109
#
# Velocity S-wave (km/s) = 3.47132 -3.96126 -1.34936
# Velocity P-wave (km/s) = 4.68002 1.50358 3.47587
#
# Compressibility (1/GPa) = 0.09509016
#
# Stress axis : x y z
#
# Youngs Moduli (GPa) = 77.89733 8.21550 89.42690
#
# Poissons Ratio (x) = 0.11297 0.32392
# Poissons Ratio (y) = 1.07115 0.71116
# Poissons Ratio (z) = 0.28215 0.06533
#
# Static dielectric constant tensor:
#      x y z
#    x 1.626170 0.000000 0.000000 
#    y 0.000000 1.624040 0.000000 
#    z 0.000000 0.000000 1.678750 
# 
# From -- ./inp_files/25237.got.cif
#   From: 2010.05.17/outbox.cif.g08.bks.cpg/sg47_13_cif.got.tgz:25237.got - 2010.06.03 20:15:42.
