data_PCOD9387728
_publ_section_title
;
Structure prediction by ZEFSAII (Michael W. Deem and Ramdas Pophale) SiO2 
 PCOD9387728
Probable space group: P M M M
;
_chemical_formula_sum "Si O2"
_cell_formula_units_Z 52
_cell_length_a 20.124808
_cell_length_b 9.738338
_cell_length_c 13.433606
_cell_angle_alpha 90.000000
_cell_angle_beta 90.000000
_cell_angle_gamma 90.000000
_cell_volume 2632.747423
_symmetry_space_group_name_H-M "P M M M"
_symmetry_group_IT_number 47
_symmetry_cell_setting 'orthorhombic'
loop_
_space_group_symop_operation_xyz
x,y,z
-x,-y,z
x,-y,-z
-x,y,-z
-x,-y,-z
x,y,-z
-x,y,z
x,-y,z
loop_
_atom_site_type_symbol
_atom_site_label
_atom_site_fract_x
_atom_site_fract_y
_atom_site_fract_z
Si Si1 0.621070 0.347983 0.679039
Si Si2 0.332717 0.732711 0.886444
Si Si3 0.500000 0.163838 0.381708
Si Si4 0.078724 0.835449 0.696452
Si Si5 0.802762 0.844193 0.817322
Si Si6 0.423214 0.000000 0.881857
Si Si7 0.080567 0.340971 0.500000
Si Si8 0.270503 0.849504 0.607782
O O1 0.603036 0.500000 0.643634
O O2 0.644710 0.357273 0.793549
O O3 0.562277 0.239963 0.666447
O O4 0.680603 0.277643 0.618717
O O5 0.253774 0.762262 0.876350
O O6 0.375798 0.869987 0.862956
O O7 0.347403 0.689256 0.000000
O O8 0.500000 0.191310 0.500000
O O9 0.500000 0.000000 0.370277
O O10 0.122364 0.796996 0.793985
O O11 0.097757 0.743600 0.600327
O O12 0.000000 0.817420 0.712959
O O13 0.089463 0.000000 0.677444
O O14 0.775022 0.847859 0.704041
O O15 0.803668 0.000000 0.856948
O O16 0.500000 0.000000 0.842210
O O17 0.431785 0.000000 0.000000
O O18 0.104955 0.500000 0.500000
O O19 0.000000 0.346769 0.500000
O O20 0.236952 0.843536 0.500000
O O21 0.305965 0.000000 0.611439
#
# Coordination Sequence:
#
# PCOD9387728 Si02
#       8
#     8   8   4   8   8   4   4   8
#     4  11  24  38  56  83 114 148 183 227 286 341
#     4  10  21  37  58  82 111 145 184 232 289 344
#     4  11  25  43  64  87 114 152 194 232 270 323
#     4   9  17  29  48  74 106 145 187 230 276 333
#     4   9  17  30  51  78 107 141 185 230 275 335
#     4   9  18  32  56  88 107 127 170 229 284 324
#     4   9  17  29  45  69 105 145 183 228 282 334
#     4   9  18  33  53  75 102 140 186 231 273 324
#
# _framework density 19.751231000000001
#
# number of rings (size 3 to 8) (size 9 to 14) (size 15 to 20)
#    0.000    2.385    0.769    1.385    4.308    4.000 
#    0.000    3.077    0.000    1.385    0.000    2.154 
#    0.000    0.000    0.000    9.385    0.000    4.154 
#
# Total GULP energy -289598.494720 kJ/mol
# GULP energy per Si atom -5569.201822 kJ/mol
# Density = 1.970628 g / cm^3
# Si number density = 19.751231 Si / 1000 Ang^3
#
#
#
# Elastic Constant Matrix: (Units=GPa)
#
#
# Indices 1 2 3 4 5 6 
#
# 1 87.4181 33.4148 13.1390 0.0000 0.0000 0.0000
# 2 33.4148 95.5755 15.7625 0.0000 0.0000 0.0000
# 3 13.1390 15.7625 89.5322 0.0000 0.0000 0.0000
# 4 0.0000 0.0000 0.0000 0.7182 0.0000 0.0000
# 5 0.0000 0.0000 0.0000 0.0000 23.3099 0.0000
# 6 0.0000 0.0000 0.0000 0.0000 0.0000 -5.2694
#
#
#
# Elastic Compliance Matrix: (Units=1/GPa)
#
#
# Indices 1 2 3 4 5 6 
#
# 1 0.013322 -0.004465 -0.001169 0.000000 0.000000 0.000000
# 2 -0.004465 0.012272 -0.001505 0.000000 0.000000 0.000000
# 3 -0.001169 -0.001505 0.011606 0.000000 0.000000 0.000000
# 4 0.000000 0.000000 0.000000 1.392394 0.000000 0.000000
# 5 0.000000 0.000000 0.000000 0.000000 0.042900 0.000000
# 6 0.000000 0.000000 0.000000 0.000000 0.000000 -0.189774
#
#
# Mechanical properties :
#
#
# Convention : Reuss Voigt Hill
#
# Bulk Modulus (GPa) = 43.62718 44.12873 43.87795
# Shear Modulus (GPa) = 3.83248 17.76571 10.79909
#
# Velocity S-wave (km/s) = 1.39449 3.00238 2.34082
# Velocity P-wave (km/s) = 4.97283 5.86599 5.43778
#
# Compressibility (1/GPa) = 0.02292149
#
# Stress axis : x y z
#
# Youngs Moduli (GPa) = 75.06637 81.48556 86.16429
#
# Poissons Ratio (x) = 0.36380 0.10072
# Poissons Ratio (y) = 0.33515 0.12971
# Poissons Ratio (z) = 0.08775 0.12267
#
# Static dielectric constant tensor:
#      x y z
#    x 1.829570 0.000000 0.000000 
#    y 0.000000 1.674170 0.000000 
#    z 0.000000 0.000000 1.696830 
# 
# From -- ./inp_files/25076.got.cif
#   From: 2010.05.17/outbox.cif.g08.bks.cpg/sg47_13_cif.got.tgz:25076.got - 2010.06.03 20:15:42.
