data_PCOD9387250
_publ_section_title
;
Structure prediction by ZEFSAII (Michael W. Deem and Ramdas Pophale) SiO2 
 PCOD9387250
Probable space group: P M M M
;
_chemical_formula_sum "Si O2"
_cell_formula_units_Z 40
_cell_length_a 27.266896
_cell_length_b 9.339653
_cell_length_c 7.642989
_cell_angle_alpha 90.000000
_cell_angle_beta 90.000000
_cell_angle_gamma 90.000000
_cell_volume 1946.389160
_symmetry_space_group_name_H-M "P M M M"
_symmetry_group_IT_number 47
_symmetry_cell_setting 'orthorhombic'
loop_
_space_group_symop_operation_xyz
x,y,z
-x,-y,z
x,-y,-z
-x,y,-z
-x,-y,-z
x,y,-z
-x,y,z
x,-y,z
loop_
_atom_site_type_symbol
_atom_site_label
_atom_site_fract_x
_atom_site_fract_y
_atom_site_fract_z
Si Si1 0.309419 0.338307 0.790542
Si Si2 0.894514 0.826163 0.292482
Si Si3 0.402440 0.838294 0.209278
Si Si4 0.212061 0.835546 0.711293
Si Si5 0.500000 0.337801 0.708510
Si Si6 0.000000 0.170195 0.713358
O O1 0.310213 0.500000 0.720942
O O2 0.354658 0.244218 0.720989
O O3 0.257818 0.261672 0.758280
O O4 0.315611 0.346860 0.000000
O O5 0.894974 0.793516 0.500000
O O6 0.841238 0.781351 0.223071
O O7 0.947194 0.773546 0.222439
O O8 0.894436 0.000000 0.277552
O O9 0.451432 0.747986 0.239498
O O10 0.406550 0.000000 0.278786
O O11 0.396486 0.849183 0.000000
O O12 0.208995 0.840306 0.500000
O O13 0.219642 0.000000 0.771475
O O14 0.500000 0.500000 0.779831
O O15 0.500000 0.346585 0.500000
O O16 0.000000 0.181793 0.500000
O O17 0.000000 0.000000 0.751664
#
# Coordination Sequence:
#
# PCOD9387250 Si02
#       6
#     8   8   8   8   4   4
#     4  10  21  36  53  73  97 128 167 207 245 287
#     4   7  10  17  31  55  87 119 150 186 232 286
#     4  10  21  38  60  82 102 129 167 207 246 288
#     4   9  17  29  46  70  99 128 158 196 245 298
#     4  11  24  39  56  82 114 143 168 195 232 280
#     4   7   8  12  26  50  82 117 148 182 228 281
#
# _framework density 20.550874
#
# number of rings (size 3 to 8) (size 9 to 14) (size 15 to 20)
#    0.000    3.000    0.000    4.200    0.000    5.600 
#    0.000    0.000    0.000    0.000    0.000    1.400 
#    0.000    9.600    0.000    0.000    0.000    0.000 
#
# Total GULP energy -222936.149600 kJ/mol
# GULP energy per Si atom -5573.403740 kJ/mol
# Density = 2.050410 g / cm^3
# Si number density = 20.550874 Si / 1000 Ang^3
#
#
#
# Elastic Constant Matrix: (Units=GPa)
#
#
# Indices 1 2 3 4 5 6 
#
# 1 248.5519 109.1865 0.7395 0.0000 0.0000 0.0000
# 2 109.1865 131.7172 7.9890 0.0000 0.0000 0.0000
# 3 0.7395 7.9890 38.9366 0.0000 0.0000 0.0000
# 4 0.0000 0.0000 0.0000 13.6883 0.0000 0.0000
# 5 0.0000 0.0000 0.0000 0.0000 23.5308 0.0000
# 6 0.0000 0.0000 0.0000 0.0000 0.0000 -13.0645
#
#
#
# Elastic Compliance Matrix: (Units=1/GPa)
#
#
# Indices 1 2 3 4 5 6 
#
# 1 0.006364 -0.005334 0.000974 0.000000 0.000000 0.000000
# 2 -0.005334 0.012159 -0.002393 0.000000 0.000000 0.000000
# 3 0.000974 -0.002393 0.026155 0.000000 0.000000 0.000000
# 4 0.000000 0.000000 0.000000 0.073055 0.000000 0.000000
# 5 0.000000 0.000000 0.000000 0.000000 0.042498 0.000000
# 6 0.000000 0.000000 0.000000 0.000000 0.000000 -0.076543
#
#
# Mechanical properties :
#
#
# Convention : Reuss Voigt Hill
#
# Bulk Modulus (GPa) = 32.08222 72.78176 52.43199
# Shear Modulus (GPa) = 46.47465 24.91696 35.69581
#
# Velocity S-wave (km/s) = 4.76062 3.48581 4.17219
# Velocity P-wave (km/s) = 6.77223 7.18981 6.98414
#
# Compressibility (1/GPa) = 0.03116991
#
# Stress axis : x y z
#
# Youngs Moduli (GPa) = 157.14214 82.24398 38.23305
#
# Poissons Ratio (x) = 0.43870 -0.03722
# Poissons Ratio (y) = 0.83823 0.09151
# Poissons Ratio (z) = -0.15299 0.19685
#
# Static dielectric constant tensor:
#      x y z
#    x 1.763090 0.000000 0.000000 
#    y 0.000000 1.706210 0.000000 
#    z 0.000000 0.000000 1.785340 
# 
# From -- ./inp_files/1848.got.cif
#   From: 2010.05.17/outbox.cif.g08.bks.cpg/sg47_1_cif.got.tgz:1848.got - 2010.06.03 20:15:42.
