data_PCOD9387798
_publ_section_title
;
Structure prediction by ZEFSAII (Michael W. Deem and Ramdas Pophale) SiO2 
 PCOD9387798
Probable space group: P M M M
;
_chemical_formula_sum "Si O2"
_cell_formula_units_Z 52
_cell_length_a 15.409067
_cell_length_b 8.093061
_cell_length_c 20.789352
_cell_angle_alpha 90.000000
_cell_angle_beta 90.000000
_cell_angle_gamma 90.000000
_cell_volume 2592.567724
_symmetry_space_group_name_H-M "P M M M"
_symmetry_group_IT_number 47
_symmetry_cell_setting 'orthorhombic'
loop_
_space_group_symop_operation_xyz
x,y,z
-x,-y,z
x,-y,-z
-x,y,-z
-x,-y,-z
x,y,-z
-x,y,z
x,-y,z
loop_
_atom_site_type_symbol
_atom_site_label
_atom_site_fract_x
_atom_site_fract_y
_atom_site_fract_z
Si Si1 0.401690 0.298291 0.573771
Si Si2 0.099465 0.802233 0.264995
Si Si3 0.650127 0.693408 0.072860
Si Si4 0.000000 0.313386 0.925025
Si Si5 0.826466 0.807731 0.130016
Si Si6 0.405684 0.195163 0.789337
Si Si7 0.728388 0.695957 0.683135
O O1 0.383893 0.249714 0.500000
O O2 0.500000 0.245873 0.590356
O O3 0.401364 0.500000 0.575375
O O4 0.331286 0.239255 0.624900
O O5 0.145256 0.738649 0.199633
O O6 0.174029 0.765641 0.316617
O O7 0.000000 0.741273 0.273488
O O8 0.092986 0.000000 0.257663
O O9 0.627757 0.500000 0.072796
O O10 0.751262 0.715151 0.091729
O O11 0.604018 0.774494 0.134288
O O12 0.634345 0.757469 0.000000
O O13 0.084246 0.210890 0.907055
O O14 0.000000 0.500000 0.895571
O O15 0.000000 0.335077 0.000000
O O16 0.799445 0.000000 0.136614
O O17 0.500000 0.262570 0.768540
O O18 0.326639 0.267557 0.748151
O O19 0.404137 0.000000 0.778254
O O20 0.735917 0.500000 0.677357
#
# Coordination Sequence:
#
# PCOD9387798 Si02
#       7
#     8   8   8   4   8   8   8
#     4   8  15  30  54  87 126 161 189 221 269 330
#     4  10  21  38  57  78 109 148 189 232 280 337
#     4  11  24  40  57  78 105 138 180 234 293 346
#     4  11  23  35  49  73 105 137 174 229 292 347
#     4  11  21  36  56  76 101 138 183 229 283 348
#     4  11  24  40  58  81 111 149 191 232 279 341
#     4  11  21  34  59  91 119 148 187 236 285 332
#
# _framework density 20.057335999999999
#
# number of rings (size 3 to 8) (size 9 to 14) (size 15 to 20)
#    0.000    1.615    2.308    3.462    0.000    6.769 
#    0.000    1.538    0.000    2.308    0.000    8.615 
#    0.000    0.000    0.000    0.000    0.000    0.000 
#
# Total GULP energy -290141.243164 kJ/mol
# GULP energy per Si atom -5579.639292 kJ/mol
# Density = 2.001168 g / cm^3
# Si number density = 20.057336 Si / 1000 Ang^3
#
#
#
# Elastic Constant Matrix: (Units=GPa)
#
#
# Indices 1 2 3 4 5 6 
#
# 1 124.3447 -1.6317 47.9189 0.0000 0.0000 0.0000
# 2 -1.6317 19.7968 -2.9065 0.0000 0.0000 0.0000
# 3 47.9189 -2.9065 94.8943 0.0000 0.0000 0.0000
# 4 0.0000 0.0000 0.0000 -125.7488 0.0000 0.0000
# 5 0.0000 0.0000 0.0000 0.0000 27.0292 0.0000
# 6 0.0000 0.0000 0.0000 0.0000 0.0000 -3.6239
#
#
#
# Elastic Compliance Matrix: (Units=1/GPa)
#
#
# Indices 1 2 3 4 5 6 
#
# 1 0.009985 0.000083 -0.005040 0.000000 0.000000 0.000000
# 2 0.000083 0.050742 0.001512 0.000000 0.000000 0.000000
# 3 -0.005040 0.001512 0.013129 0.000000 0.000000 0.000000
# 4 0.000000 0.000000 0.000000 -0.007952 0.000000 0.000000
# 5 0.000000 0.000000 0.000000 0.000000 0.036997 0.000000
# 6 0.000000 0.000000 0.000000 0.000000 0.000000 -0.275949
#
#
# Mechanical properties :
#
#
# Convention : Reuss Voigt Hill
#
# Bulk Modulus (GPa) = 14.93251 36.19966 25.56609
# Shear Modulus (GPa) = -34.76194 -7.42502 -21.09348
#
# Velocity S-wave (km/s) = -4.16760 -1.92612 -3.24645
# Velocity P-wave (km/s) = 3.96200 3.62501 1.13066
#
# Compressibility (1/GPa) = 0.06696796
#
# Stress axis : x y z
#
# Youngs Moduli (GPa) = 100.14571 19.70747 76.16537
#
# Poissons Ratio (x) = -0.00164 0.38386
# Poissons Ratio (y) = -0.00832 -0.11518
# Poissons Ratio (z) = 0.50472 -0.02980
#
# Static dielectric constant tensor:
#      x y z
#    x 1.735310 0.000000 0.000000 
#    y 0.000000 1.730370 0.000000 
#    z 0.000000 0.000000 1.731960 
# 
# From -- ./inp_files/25019.got.cif
#   From: 2010.05.17/outbox.cif.g08.bks.cpg/sg47_13_cif.got.tgz:25019.got - 2010.06.03 20:15:42.
