data_PCOD9387766
_publ_section_title
;
Structure prediction by ZEFSAII (Michael W. Deem and Ramdas Pophale) SiO2 
 PCOD9387766
Probable space group: P M M M
;
_chemical_formula_sum "Si O2"
_cell_formula_units_Z 64
_cell_length_a 21.026354
_cell_length_b 18.799170
_cell_length_c 8.069827
_cell_angle_alpha 90.000000
_cell_angle_beta 90.000000
_cell_angle_gamma 90.000000
_cell_volume 3189.825104
_symmetry_space_group_name_H-M "P M M M"
_symmetry_group_IT_number 47
_symmetry_cell_setting 'orthorhombic'
loop_
_space_group_symop_operation_xyz
x,y,z
-x,-y,z
x,-y,-z
-x,y,-z
-x,-y,-z
x,y,-z
-x,y,z
x,-y,z
loop_
_atom_site_type_symbol
_atom_site_label
_atom_site_fract_x
_atom_site_fract_y
_atom_site_fract_z
Si Si1 0.073196 0.782142 0.297050
Si Si2 0.246135 0.189418 0.813469
Si Si3 0.177491 0.681950 0.313251
Si Si4 0.424227 0.077115 0.810822
Si Si5 0.842797 0.919082 0.700065
Si Si6 0.381249 0.220248 0.687535
Si Si7 0.709560 0.418897 0.699728
Si Si8 0.430456 0.635100 0.803567
O O1 0.075133 0.780459 0.500000
O O2 0.110978 0.710814 0.238634
O O3 0.107696 0.856606 0.247295
O O4 0.000000 0.782271 0.245622
O O5 0.212547 0.241899 0.685096
O O6 0.224948 0.110173 0.765849
O O7 0.318855 0.210107 0.796853
O O8 0.224317 0.204431 0.000000
O O9 0.164752 0.655825 0.500000
O O10 0.231466 0.629987 0.237253
O O11 0.500000 0.072357 0.821275
O O12 0.410554 0.142471 0.693617
O O13 0.399308 0.000000 0.756643
O O14 0.401175 0.090670 0.000000
O O15 0.841971 0.919523 0.500000
O O16 0.856472 0.000000 0.754896
O O17 0.364318 0.240829 0.500000
O O18 0.425294 0.281387 0.760940
O O19 0.712850 0.415653 0.500000
O O20 0.718627 0.500000 0.754594
O O21 0.637322 0.395747 0.742930
O O22 0.500000 0.608748 0.739240
O O23 0.431005 0.624629 0.000000
#
# Coordination Sequence:
#
# PCOD9387766 Si02
#       8
#     8   8   8   8   8   8   8   8
#     4   8  14  26  49  81 112 146 189 232 275 322
#     4  11  21  33  52  74  99 135 179 226 274 321
#     4   9  17  33  55  79 109 142 180 226 268 315
#     4   9  19  36  54  71  95 128 167 214 267 320
#     4   9  18  32  49  72 106 146 188 234 281 327
#     4  12  23  35  54  78 104 136 177 224 274 328
#     4  10  21  37  59  85 112 146 185 225 273 328
#     4  11  24  40  58  82 112 145 182 226 276 331
#
# _framework density 20.063797999999998
#
# number of rings (size 3 to 8) (size 9 to 14) (size 15 to 20)
#    0.000    2.125    1.250    4.125    0.000    4.500 
#    0.000    3.125    0.000    6.375    0.000    6.125 
#    0.000    0.000    0.000    5.625    0.000    6.250 
#
# Total GULP energy -356275.379454 kJ/mol
# GULP energy per Si atom -5566.802804 kJ/mol
# Density = 2.001813 g / cm^3
# Si number density = 20.063798 Si / 1000 Ang^3
#
#
#
# Elastic Constant Matrix: (Units=GPa)
#
#
# Indices 1 2 3 4 5 6 
#
# 1 99.0043 45.9275 8.7809 0.0000 0.0000 0.0000
# 2 45.9275 104.8124 3.3919 0.0000 0.0000 0.0000
# 3 8.7809 3.3919 33.8173 0.0000 0.0000 0.0000
# 4 0.0000 0.0000 0.0000 0.6493 0.0000 0.0000
# 5 0.0000 0.0000 0.0000 0.0000 -17.7297 0.0000
# 6 0.0000 0.0000 0.0000 0.0000 0.0000 23.4692
#
#
#
# Elastic Compliance Matrix: (Units=1/GPa)
#
#
# Indices 1 2 3 4 5 6 
#
# 1 0.012936 -0.005578 -0.002800 0.000000 0.000000 0.000000
# 2 -0.005578 0.011977 0.000247 0.000000 0.000000 0.000000
# 3 -0.002800 0.000247 0.030273 0.000000 0.000000 0.000000
# 4 0.000000 0.000000 0.000000 1.540102 0.000000 0.000000
# 5 0.000000 0.000000 0.000000 0.000000 -0.056403 0.000000
# 6 0.000000 0.000000 0.000000 0.000000 0.000000 0.042609
#
#
# Mechanical properties :
#
#
# Convention : Reuss Voigt Hill
#
# Bulk Modulus (GPa) = 25.69025 39.31498 32.50261
# Shear Modulus (GPa) = 3.10418 13.24667 8.17542
#
# Velocity S-wave (km/s) = 1.24520 2.57228 2.02078
# Velocity P-wave (km/s) = 3.85998 5.33476 4.65613
#
# Compressibility (1/GPa) = 0.03892528
#
# Stress axis : x y z
#
# Youngs Moduli (GPa) = 77.30077 83.49282 33.03298
#
# Poissons Ratio (x) = 0.46572 0.09248
# Poissons Ratio (y) = 0.43118 -0.00816
# Poissons Ratio (z) = 0.21641 -0.02063
#
# Static dielectric constant tensor:
#      x y z
#    x 1.769310 0.000000 0.000000 
#    y 0.000000 1.728300 0.000000 
#    z 0.000000 0.000000 1.740330 
# 
# From -- ./inp_files/11625.got.cif
#   From: 2010.05.17/outbox.cif.g08.bks.cpg/sg47_6_cif.got.tgz:11625.got - 2010.06.03 20:15:42.
