data_PCOD9387749
_publ_section_title
;
Structure prediction by ZEFSAII (Michael W. Deem and Ramdas Pophale) SiO2 
 PCOD9387749
Probable space group: P M M M
;
_chemical_formula_sum "Si O2"
_cell_formula_units_Z 36
_cell_length_a 9.140434
_cell_length_b 13.483113
_cell_length_c 13.705100
_cell_angle_alpha 90.000000
_cell_angle_beta 90.000000
_cell_angle_gamma 90.000000
_cell_volume 1689.037143
_symmetry_space_group_name_H-M "P M M M"
_symmetry_group_IT_number 47
_symmetry_cell_setting 'orthorhombic'
loop_
_space_group_symop_operation_xyz
x,y,z
-x,-y,z
x,-y,-z
-x,y,-z
-x,-y,-z
x,y,-z
-x,y,z
x,-y,z
loop_
_atom_site_type_symbol
_atom_site_label
_atom_site_fract_x
_atom_site_fract_y
_atom_site_fract_z
Si Si1 0.167859 0.799630 0.617598
Si Si2 0.332973 0.888015 0.118484
Si Si3 0.668698 0.000000 0.619123
Si Si4 0.674163 0.390022 0.705514
Si Si5 0.172432 0.311717 0.114988
O O1 0.166516 0.802302 0.500000
O O2 0.251934 0.898921 0.650335
O O3 0.248027 0.699606 0.649789
O O4 0.000000 0.800414 0.651537
O O5 0.500000 0.864241 0.149803
O O6 0.222388 0.800136 0.142746
O O7 0.296197 0.000000 0.150109
O O8 0.335632 0.890732 0.000000
O O9 0.500000 0.000000 0.649119
O O10 0.671371 0.000000 0.500000
O O11 0.500000 0.377037 0.702758
O O12 0.709305 0.500000 0.666707
O O13 0.733248 0.381510 0.815868
O O14 0.000000 0.325349 0.131190
O O15 0.201676 0.325958 0.000000
#
# Coordination Sequence:
#
# PCOD9387749 Si02
#       5
#     8   8   4   8   8
#     4  10  21  39  65  96 129 163 199 244 301 362
#     4   8  14  27  49  76 107 144 185 231 285 347
#     4   9  17  33  61  95 130 165 200 241 291 353
#     4  11  25  43  62  86 118 158 207 260 308 361
#     4  10  21  37  58  84 115 153 198 251 309 365
#
# _framework density 21.313918000000001
#
# number of rings (size 3 to 8) (size 9 to 14) (size 15 to 20)
#    0.000    2.333    0.000    3.000    0.000    7.111 
#    2.000    6.667    0.000    0.000    0.000    0.000 
#    0.000    0.000    0.000    0.000    0.000    0.000 
#
# Total GULP energy -201284.346611 kJ/mol
# GULP energy per Si atom -5591.231850 kJ/mol
# Density = 2.126541 g / cm^3
# Si number density = 21.313918 Si / 1000 Ang^3
#
#
#
# Elastic Constant Matrix: (Units=GPa)
#
#
# Indices 1 2 3 4 5 6 
#
# 1 138.5548 98.9198 23.1425 0.0000 0.0000 0.0000
# 2 98.9198 178.3883 27.5607 0.0000 0.0000 0.0000
# 3 23.1425 27.5607 55.6848 0.0000 0.0000 0.0000
# 4 0.0000 0.0000 0.0000 23.6976 0.0000 0.0000
# 5 0.0000 0.0000 0.0000 0.0000 29.5357 0.0000
# 6 0.0000 0.0000 0.0000 0.0000 0.0000 1403.3975
#
#
#
# Elastic Compliance Matrix: (Units=1/GPa)
#
#
# Indices 1 2 3 4 5 6 
#
# 1 0.012121 -0.006435 -0.001852 0.000000 0.000000 0.000000
# 2 -0.006435 0.009486 -0.002021 0.000000 0.000000 0.000000
# 3 -0.001852 -0.002021 0.019728 0.000000 0.000000 0.000000
# 4 0.000000 0.000000 0.000000 0.042198 0.000000 0.000000
# 5 0.000000 0.000000 0.000000 0.000000 0.033857 0.000000
# 6 0.000000 0.000000 0.000000 0.000000 0.000000 0.000713
#
#
# Mechanical properties :
#
#
# Convention : Reuss Voigt Hill
#
# Bulk Modulus (GPa) = 48.26503 74.65266 61.45885
# Shear Modulus (GPa) = 34.33425 306.19315 170.26370
#
# Velocity S-wave (km/s) = 4.01794 11.99878 8.94747
# Velocity P-wave (km/s) = 6.64974 15.06858 11.64649
#
# Compressibility (1/GPa) = 0.02071894
#
# Stress axis : x y z
#
# Youngs Moduli (GPa) = 82.50063 105.41413 50.68868
#
# Poissons Ratio (x) = 0.67836 0.09390
# Poissons Ratio (y) = 0.53091 0.10243
# Poissons Ratio (z) = 0.15283 0.21302
#
# Static dielectric constant tensor:
#      x y z
#    x 1.711910 0.000000 0.000000 
#    y 0.000000 1.751570 0.000000 
#    z 0.000000 0.000000 1.845420 
# 
# From -- ./inp_files/26151.got.cif
#   From: 2010.05.17/outbox.cif.g08.bks.cpg/sg47_14_cif.got.tgz:26151.got - 2010.06.03 20:15:42.
