data_PCOD9387107
_publ_section_title
;
Structure prediction by ZEFSAII (Michael W. Deem and Ramdas Pophale) SiO2 
 PCOD9387107
Probable space group: P M M M
;
_chemical_formula_sum "Si O2"
_cell_formula_units_Z 40
_cell_length_a 9.350329
_cell_length_b 9.495343
_cell_length_c 26.103484
_cell_angle_alpha 90.000000
_cell_angle_beta 90.000000
_cell_angle_gamma 90.000000
_cell_volume 2317.586890
_symmetry_space_group_name_H-M "P M M M"
_symmetry_group_IT_number 47
_symmetry_cell_setting 'orthorhombic'
loop_
_space_group_symop_operation_xyz
x,y,z
-x,-y,z
x,-y,-z
-x,y,-z
-x,-y,-z
x,y,-z
-x,y,z
x,-y,z
loop_
_atom_site_type_symbol
_atom_site_label
_atom_site_fract_x
_atom_site_fract_y
_atom_site_fract_z
Si Si1 0.670356 0.833433 0.411709
Si Si2 0.668161 0.167806 0.292774
Si Si3 0.168212 0.668235 0.204999
Si Si4 0.325832 0.837972 0.000000
Si Si5 0.670695 0.333281 0.899436
Si Si6 0.829602 0.333257 0.500000
O O1 0.500000 0.812560 0.419621
O O2 0.702182 0.800642 0.352216
O O3 0.759471 0.740039 0.450616
O O4 0.698586 0.000000 0.420054
O O5 0.500000 0.199618 0.284819
O O6 0.762075 0.252151 0.252629
O O7 0.686523 0.000000 0.285855
O O8 0.186894 0.500000 0.211491
O O9 0.247386 0.707655 0.152203
O O10 0.000000 0.698037 0.201370
O O11 0.282220 0.755751 0.948704
O O12 0.500000 0.836774 0.000000
O O13 0.279012 0.000000 0.000000
O O14 0.500000 0.313408 0.892169
O O15 0.694236 0.500000 0.908877
O O16 0.800512 0.500000 0.500000
O O17 0.000000 0.312216 0.500000
#
# Coordination Sequence:
#
# PCOD9387107 Si02
#       6
#     8   8   8   4   8   4
#     4   9  19  37  59  80 102 132 173 217 258 304
#     4   9  19  36  57  80 104 132 170 215 260 305
#     4  10  21  35  51  75 107 140 173 210 254 304
#     4   9  17  29  48  75 100 122 158 211 262 301
#     4   9  17  31  51  72  96 130 170 208 249 301
#     4  11  24  37  50  76 112 143 172 209 254 304
#
# _framework density 17.259333000000002
#
# number of rings (size 3 to 8) (size 9 to 14) (size 15 to 20)
#    0.000    2.600    0.000    2.700    0.000    7.600 
#    0.000    8.500    0.000    3.000    0.000    0.000 
#    0.000    0.000    0.000    0.000    0.000    0.000 
#
# Total GULP energy -223190.980071 kJ/mol
# GULP energy per Si atom -5579.774502 kJ/mol
# Density = 1.722005 g / cm^3
# Si number density = 17.259333 Si / 1000 Ang^3
#
#
#
# Elastic Constant Matrix: (Units=GPa)
#
#
# Indices 1 2 3 4 5 6 
#
# 1 73.1538 69.8530 99.2552 0.0000 0.0000 0.0000
# 2 69.8530 81.6911 103.6185 0.0000 0.0000 0.0000
# 3 99.2552 103.6185 177.1439 0.0000 0.0000 0.0000
# 4 0.0000 0.0000 0.0000 37.8930 0.0000 0.0000
# 5 0.0000 0.0000 0.0000 0.0000 -12.1571 0.0000
# 6 0.0000 0.0000 0.0000 0.0000 0.0000 25.6558
#
#
#
# Elastic Compliance Matrix: (Units=1/GPa)
#
#
# Indices 1 2 3 4 5 6 
#
# 1 0.091399 -0.051139 -0.021299 0.000000 0.000000 0.000000
# 2 -0.051139 0.076050 -0.015831 0.000000 0.000000 0.000000
# 3 -0.021299 -0.015831 0.026839 0.000000 0.000000 0.000000
# 4 0.000000 0.000000 0.000000 0.026390 0.000000 0.000000
# 5 0.000000 0.000000 0.000000 0.000000 -0.082256 0.000000
# 6 0.000000 0.000000 0.000000 0.000000 0.000000 0.038978
#
#
# Mechanical properties :
#
#
# Convention : Reuss Voigt Hill
#
# Bulk Modulus (GPa) = 56.33404 97.49358 76.91381
# Shear Modulus (GPa) = 13.89454 14.22913 14.06184
#
# Velocity S-wave (km/s) = 2.84041 2.87441 2.85746
# Velocity P-wave (km/s) = 6.59302 8.22353 7.45299
#
# Compressibility (1/GPa) = 0.01775126
#
# Stress axis : x y z
#
# Youngs Moduli (GPa) = 10.94101 13.14930 37.25884
#
# Poissons Ratio (x) = 0.67244 0.79357
# Poissons Ratio (y) = 0.55951 0.58985
# Poissons Ratio (z) = 0.23303 0.20817
#
# Static dielectric constant tensor:
#      x y z
#    x 1.565030 0.000000 0.000000 
#    y 0.000000 1.570580 0.000000 
#    z 0.000000 0.000000 1.563060 
# 
# From -- ./inp_files/13017.got.cif
#   From: 2010.05.17/outbox.cif.g08.bks.cpg/sg47_7_cif.got.tgz:13017.got - 2010.06.03 20:15:42.
