data_PCOD9387515
_publ_section_title
;
Structure prediction by ZEFSAII (Michael W. Deem and Ramdas Pophale) SiO2 
 PCOD9387515
Probable space group: P M M M
;
_chemical_formula_sum "Si O2"
_cell_formula_units_Z 40
_cell_length_a 7.866660
_cell_length_b 32.582856
_cell_length_c 7.747231
_cell_angle_alpha 90.000000
_cell_angle_beta 90.000000
_cell_angle_gamma 90.000000
_cell_volume 1985.756692
_symmetry_space_group_name_H-M "P M M M"
_symmetry_group_IT_number 47
_symmetry_cell_setting 'orthorhombic'
loop_
_space_group_symop_operation_xyz
x,y,z
-x,-y,z
x,-y,-z
-x,y,-z
-x,-y,-z
x,y,-z
-x,y,z
x,-y,z
loop_
_atom_site_type_symbol
_atom_site_label
_atom_site_fract_x
_atom_site_fract_y
_atom_site_fract_z
Si Si1 0.204644 0.801198 0.804692
Si Si2 0.299690 0.350003 0.500000
Si Si3 0.195620 0.500000 0.789575
Si Si4 0.708431 0.047121 0.500000
Si Si5 0.205066 0.410886 0.803110
Si Si6 0.796999 0.255575 0.500000
Si Si7 0.704971 0.893571 0.803578
O O1 0.269978 0.767730 0.669696
O O2 0.246521 0.847538 0.748189
O O3 0.000000 0.797918 0.812279
O O4 0.270633 0.795777 0.000000
O O5 0.500000 0.347322 0.500000
O O6 0.245607 0.375591 0.668499
O O7 0.231746 0.303875 0.500000
O O8 0.271548 0.455799 0.742767
O O9 0.000000 0.500000 0.726771
O O10 0.191280 0.500000 0.000000
O O11 0.500000 0.047061 0.500000
O O12 0.764280 0.072434 0.331506
O O13 0.763712 0.000000 0.500000
O O14 0.000000 0.414625 0.810506
O O15 0.263740 0.402949 0.000000
O O16 0.000000 0.249218 0.500000
O O17 0.500000 0.895443 0.807615
O O18 0.767475 0.899617 0.000000
#
# Coordination Sequence:
#
# PCOD9387515 Si02
#       7
#     8   4   4   4   8   4   8
#     4   9  18  33  54  77  97 120 155 204 259 305
#     4  12  26  38  50  76 114 149 177 209 259 321
#     4   7  12  27  55  86 105 125 170 226 267 297
#     4   9  17  28  43  66  97 132 167 200 233 272
#     4   9  18  36  61  83 105 137 179 224 263 304
#     4  10  21  37  54  72  96 128 171 213 247 298
#     4   9  17  29  47  71  96 123 158 199 242 290
#
# _framework density 20.143454999999999
#
# number of rings (size 3 to 8) (size 9 to 14) (size 15 to 20)
#    0.000    2.800    0.000    2.700    0.000    2.800 
#    0.000    6.500    0.000    3.000    0.000    2.800 
#    0.000    0.000    0.000    0.000    0.000    0.000 
#
# Total GULP energy -223135.375219 kJ/mol
# GULP energy per Si atom -5578.384380 kJ/mol
# Density = 2.009761 g / cm^3
# Si number density = 20.143455 Si / 1000 Ang^3
#
#
#
# Elastic Constant Matrix: (Units=GPa)
#
#
# Indices 1 2 3 4 5 6 
#
# 1 15.8203 -11.1668 2.6376 0.0000 0.0000 0.0000
# 2 -11.1668 193.0087 113.9332 0.0000 0.0000 0.0000
# 3 2.6376 113.9332 122.5325 0.0000 0.0000 0.0000
# 4 0.0000 0.0000 0.0000 -11.4324 0.0000 0.0000
# 5 0.0000 0.0000 0.0000 0.0000 15.0621 0.0000
# 6 0.0000 0.0000 0.0000 0.0000 0.0000 22.2465
#
#
#
# Elastic Compliance Matrix: (Units=1/GPa)
#
#
# Indices 1 2 3 4 5 6 
#
# 1 0.073350 0.011473 -0.012247 0.000000 0.000000 0.000000
# 2 0.011473 0.013279 -0.012594 0.000000 0.000000 0.000000
# 3 -0.012247 -0.012594 0.020135 0.000000 0.000000 0.000000
# 4 0.000000 0.000000 0.000000 -0.087471 0.000000 0.000000
# 5 0.000000 0.000000 0.000000 0.000000 0.066392 0.000000
# 6 0.000000 0.000000 0.000000 0.000000 0.000000 0.044951
#
#
# Mechanical properties :
#
#
# Convention : Reuss Voigt Hill
#
# Bulk Modulus (GPa) = 12.49556 60.24105 36.36830
# Shear Modulus (GPa) = 27.16662 20.23908 23.70285
#
# Velocity S-wave (km/s) = 3.67639 3.17321 3.43403
# Velocity P-wave (km/s) = 4.92320 6.58761 5.81526
#
# Compressibility (1/GPa) = 0.08002844
#
# Stress axis : x y z
#
# Youngs Moduli (GPa) = 13.63325 75.30452 49.66406
#
# Poissons Ratio (x) = -0.86398 0.60823
# Poissons Ratio (y) = -0.15642 0.62549
# Poissons Ratio (z) = 0.16696 0.94842
#
# Static dielectric constant tensor:
#      x y z
#    x 1.732750 0.000000 0.000000 
#    y 0.000000 1.736040 0.000000 
#    z 0.000000 0.000000 1.758690 
# 
# From -- ./inp_files/1920.got.cif
#   From: 2010.05.17/outbox.cif.g08.bks.cpg/sg47_1_cif.got.tgz:1920.got - 2010.06.03 20:15:42.
