data_PCOD9387460
_publ_section_title
;
Structure prediction by ZEFSAII (Michael W. Deem and Ramdas Pophale) SiO2 
 PCOD9387460
Probable space group: P M M M
;
_chemical_formula_sum "Si O2"
_cell_formula_units_Z 40
_cell_length_a 9.286787
_cell_length_b 15.278692
_cell_length_c 14.860664
_cell_angle_alpha 90.000000
_cell_angle_beta 90.000000
_cell_angle_gamma 90.000000
_cell_volume 2108.578994
_symmetry_space_group_name_H-M "P M M M"
_symmetry_group_IT_number 47
_symmetry_cell_setting 'orthorhombic'
loop_
_space_group_symop_operation_xyz
x,y,z
-x,-y,z
x,-y,-z
-x,y,-z
-x,-y,-z
x,y,-z
-x,y,z
x,-y,z
loop_
_atom_site_type_symbol
_atom_site_label
_atom_site_fract_x
_atom_site_fract_y
_atom_site_fract_z
Si Si1 0.157225 0.175288 0.146872
Si Si2 0.327743 0.599017 0.711180
Si Si3 0.350165 0.101873 0.000000
Si Si4 0.674480 0.894249 0.500000
Si Si5 0.171422 0.226702 0.352181
Si Si6 0.833611 0.622662 0.101592
O O1 0.180353 0.186522 0.252247
O O2 0.160765 0.272540 0.106024
O O3 0.000000 0.136561 0.131231
O O4 0.271398 0.123433 0.091583
O O5 0.500000 0.615787 0.712222
O O6 0.304252 0.500000 0.675025
O O7 0.245721 0.677020 0.657660
O O8 0.265454 0.598047 0.813700
O O9 0.500000 0.152152 0.000000
O O10 0.366629 0.000000 0.000000
O O11 0.500000 0.886045 0.500000
O O12 0.745044 0.840295 0.417045
O O13 0.706892 0.000000 0.500000
O O14 0.000000 0.234981 0.374820
O O15 0.000000 0.594300 0.116143
O O16 0.789326 0.597161 0.000000
#
# Coordination Sequence:
#
# PCOD9387460 Si02
#       6
#     8   8   4   4   8   8
#     4   9  18  35  55  76 106 147 194 239 288 344
#     4  10  21  36  55  84 123 163 203 249 303 363
#     4  11  23  33  45  73 110 147 190 239 291 352
#     4  11  25  45  70  99 128 155 187 238 306 373
#     4  10  22  41  66  92 120 157 201 250 301 357
#     4   9  17  31  51  75 107 150 203 254 297 346
#
# _framework density 18.970120999999999
#
# number of rings (size 3 to 8) (size 9 to 14) (size 15 to 20)
#    0.000    2.200    1.000    3.000    0.000    8.800 
#    0.000    6.500    0.000    3.000    0.000    0.000 
#    0.000    0.000    0.000    0.000    0.000    0.000 
#
# Total GULP energy -222821.220441 kJ/mol
# GULP energy per Si atom -5570.530511 kJ/mol
# Density = 1.892694 g / cm^3
# Si number density = 18.970121 Si / 1000 Ang^3
#
#
#
# Elastic Constant Matrix: (Units=GPa)
#
#
# Indices 1 2 3 4 5 6 
#
# 1 139.5843 79.7542 58.1983 0.0000 0.0000 0.0000
# 2 79.7542 127.4094 56.9230 0.0000 0.0000 0.0000
# 3 58.1983 56.9230 86.8815 0.0000 0.0000 0.0000
# 4 0.0000 0.0000 0.0000 12.7218 0.0000 0.0000
# 5 0.0000 0.0000 0.0000 0.0000 45.5062 0.0000
# 6 0.0000 0.0000 0.0000 0.0000 0.0000 26.6986
#
#
#
# Elastic Compliance Matrix: (Units=1/GPa)
#
#
# Indices 1 2 3 4 5 6 
#
# 1 0.012289 -0.005676 -0.004513 0.000000 0.000000 0.000000
# 2 -0.005676 0.013719 -0.005186 0.000000 0.000000 0.000000
# 3 -0.004513 -0.005186 0.017931 0.000000 0.000000 0.000000
# 4 0.000000 0.000000 0.000000 0.078605 0.000000 0.000000
# 5 0.000000 0.000000 0.000000 0.000000 0.021975 0.000000
# 6 0.000000 0.000000 0.000000 0.000000 0.000000 0.037455
#
#
# Mechanical properties :
#
#
# Convention : Reuss Voigt Hill
#
# Bulk Modulus (GPa) = 75.82557 82.62513 79.22535
# Shear Modulus (GPa) = 23.02870 27.58530 25.30700
#
# Velocity S-wave (km/s) = 3.48795 3.81746 3.65642
# Velocity P-wave (km/s) = 7.50193 7.94233 7.72527
#
# Compressibility (1/GPa) = 0.01318816
#
# Stress axis : x y z
#
# Youngs Moduli (GPa) = 81.37362 72.89234 55.77030
#
# Poissons Ratio (x) = 0.41376 0.25169
# Poissons Ratio (y) = 0.46190 0.28923
# Poissons Ratio (z) = 0.36723 0.37802
#
# Static dielectric constant tensor:
#      x y z
#    x 1.945760 0.000000 0.000000 
#    y 0.000000 1.669260 0.000000 
#    z 0.000000 0.000000 1.566650 
# 
# From -- ./inp_files/20672.got.cif
#   From: 2010.05.17/outbox.cif.g08.bks.cpg/sg47_11_cif.got.tgz:20672.got - 2010.06.03 20:15:42.
