data_PCOD9387866
_publ_section_title
;
Structure prediction by ZEFSAII (Michael W. Deem and Ramdas Pophale) SiO2 
 PCOD9387866
Probable space group: P M M M
;
_chemical_formula_sum "Si O2"
_cell_formula_units_Z 48
_cell_length_a 9.067306
_cell_length_b 8.895033
_cell_length_c 31.568902
_cell_angle_alpha 90.000000
_cell_angle_beta 90.000000
_cell_angle_gamma 90.000000
_cell_volume 2546.157783
_symmetry_space_group_name_H-M "P M M M"
_symmetry_group_IT_number 47
_symmetry_cell_setting 'orthorhombic'
loop_
_space_group_symop_operation_xyz
x,y,z
-x,-y,z
x,-y,-z
-x,y,-z
-x,-y,-z
x,y,-z
-x,y,z
x,-y,z
loop_
_atom_site_type_symbol
_atom_site_label
_atom_site_fract_x
_atom_site_fract_y
_atom_site_fract_z
Si Si1 0.325399 0.320146 0.082679
Si Si2 0.827872 0.320020 0.500000
Si Si3 0.826175 0.819265 0.329720
Si Si4 0.327182 0.819056 0.581841
Si Si5 0.674056 0.320368 0.752308
Si Si6 0.174496 0.820198 0.165284
Si Si7 0.174636 0.179871 0.000000
O O1 0.500000 0.287344 0.082423
O O2 0.306806 0.500000 0.082016
O O3 0.251875 0.253205 0.124715
O O4 0.249375 0.248992 0.041575
O O5 0.818541 0.500000 0.500000
O O6 0.749371 0.255963 0.541665
O O7 0.000000 0.276050 0.500000
O O8 0.752656 0.776401 0.374391
O O9 0.746492 0.739419 0.290772
O O10 0.000000 0.784687 0.330006
O O11 0.810020 0.000000 0.324895
O O12 0.500000 0.780188 0.583628
O O13 0.315604 0.000000 0.577540
O O14 0.500000 0.284923 0.752775
O O15 0.690826 0.500000 0.755212
O O16 0.753084 0.243887 0.792172
O O17 0.000000 0.786923 0.164828
O O18 0.192704 0.000000 0.163809
O O19 0.000000 0.212537 0.000000
O O20 0.193325 0.000000 0.000000
#
# Coordination Sequence:
#
# PCOD9387866 Si02
#       7
#     8   4   8   8   8   8   4
#     4  11  24  41  62  90 122 156 197 243 292 348
#     4  11  24  39  56  82 116 153 192 235 286 342
#     4  10  21  38  61  88 116 149 191 237 286 342
#     4  10  21  38  61  87 114 148 191 237 287 343
#     4  11  24  40  59  86 119 155 195 238 287 344
#     4  11  24  41  62  89 119 153 196 243 291 346
#     4  11  24  41  62  90 122 157 200 245 290 346
#
# _framework density 18.851935000000001
#
# number of rings (size 3 to 8) (size 9 to 14) (size 15 to 20)
#    0.000    1.333    0.000    5.000    0.000   16.000 
#    0.000    0.000    0.000    0.000    0.000    0.000 
#    0.000    0.000    0.000    0.000    0.000    0.000 
#
# Total GULP energy -268557.659138 kJ/mol
# GULP energy per Si atom -5594.951232 kJ/mol
# Density = 1.880903 g / cm^3
# Si number density = 18.851935 Si / 1000 Ang^3
#
#
#
# Elastic Constant Matrix: (Units=GPa)
#
#
# Indices 1 2 3 4 5 6 
#
# 1 200.6015 102.6290 133.5432 0.0000 0.0000 0.0000
# 2 102.6290 66.8702 83.6841 0.0000 0.0000 0.0000
# 3 133.5432 83.6841 223.1263 0.0000 0.0000 0.0000
# 4 0.0000 0.0000 0.0000 73.5401 0.0000 0.0000
# 5 0.0000 0.0000 0.0000 0.0000 46.6318 0.0000
# 6 0.0000 0.0000 0.0000 0.0000 0.0000 33.4422
#
#
#
# Elastic Compliance Matrix: (Units=1/GPa)
#
#
# Indices 1 2 3 4 5 6 
#
# 1 0.023326 -0.034539 -0.001007 0.000000 0.000000 0.000000
# 2 -0.034539 0.079326 -0.009079 0.000000 0.000000 0.000000
# 3 -0.001007 -0.009079 0.008489 0.000000 0.000000 0.000000
# 4 0.000000 0.000000 0.000000 0.013598 0.000000 0.000000
# 5 0.000000 0.000000 0.000000 0.000000 0.021445 0.000000
# 6 0.000000 0.000000 0.000000 0.000000 0.000000 0.029902
#
#
# Mechanical properties :
#
#
# Convention : Reuss Voigt Hill
#
# Bulk Modulus (GPa) = 45.68191 125.59006 85.63598
# Shear Modulus (GPa) = 18.33972 42.10561 30.22266
#
# Velocity S-wave (km/s) = 3.12241 4.73111 4.00829
# Velocity P-wave (km/s) = 6.10604 9.82895 8.18206
#
# Compressibility (1/GPa) = 0.02189050
#
# Stress axis : x y z
#
# Youngs Moduli (GPa) = 42.87132 12.60628 117.79494
#
# Poissons Ratio (x) = 0.43541 0.11856
# Poissons Ratio (y) = 1.48075 1.06947
# Poissons Ratio (z) = 0.04315 0.11445
#
# Static dielectric constant tensor:
#      x y z
#    x 1.629840 0.000000 0.000000 
#    y 0.000000 1.631720 0.000000 
#    z 0.000000 0.000000 1.601370 
# 
# From -- ./inp_files/34209.got.cif
#   From: 2010.05.17/outbox.cif.g08.bks.cpg/sg47_18_cif.got.tgz:34209.got - 2010.06.03 20:15:42.
