data_PCOD9387894
_publ_section_title
;
Structure prediction by ZEFSAII (Michael W. Deem and Ramdas Pophale) SiO2 
 PCOD9387894
Probable space group: P M M M
;
_chemical_formula_sum "Si O2"
_cell_formula_units_Z 44
_cell_length_a 35.426835
_cell_length_b 7.734168
_cell_length_c 7.782183
_cell_angle_alpha 90.000000
_cell_angle_beta 90.000000
_cell_angle_gamma 90.000000
_cell_volume 2132.295524
_symmetry_space_group_name_H-M "P M M M"
_symmetry_group_IT_number 47
_symmetry_cell_setting 'orthorhombic'
loop_
_space_group_symop_operation_xyz
x,y,z
-x,-y,z
x,-y,-z
-x,y,-z
-x,-y,-z
x,y,-z
-x,y,z
x,-y,z
loop_
_atom_site_type_symbol
_atom_site_label
_atom_site_fract_x
_atom_site_fract_y
_atom_site_fract_z
Si Si1 0.096781 0.792508 0.811292
Si Si2 0.540582 0.205370 0.793666
Si Si3 0.819563 0.199282 0.292029
Si Si4 0.677065 0.500000 0.711406
Si Si5 0.042227 0.295477 0.500000
Si Si6 0.623200 0.803267 0.704070
Si Si7 0.763809 0.500000 0.289918
O O1 0.139277 0.735202 0.766249
O O2 0.066668 0.750710 0.666378
O O3 0.099203 0.000000 0.815760
O O4 0.085887 0.728355 0.000000
O O5 0.500000 0.276230 0.732086
O O6 0.580853 0.269887 0.730149
O O7 0.540470 0.000000 0.751220
O O8 0.540823 0.220933 0.000000
O O9 0.820139 0.197385 0.500000
O O10 0.786997 0.330069 0.235500
O O11 0.814080 0.000000 0.234838
O O12 0.676525 0.500000 0.500000
O O13 0.654221 0.669631 0.770160
O O14 0.720488 0.500000 0.765809
O O15 0.038653 0.500000 0.500000
O O16 0.000000 0.218960 0.500000
O O17 0.628876 0.816675 0.500000
O O18 0.625233 0.000000 0.775342
O O19 0.763712 0.500000 0.500000
#
# Coordination Sequence:
#
# PCOD9387894 Si02
#       7
#     8   8   8   4   4   8   4
#     4  10  21  38  62  89 117 155 200 246 297 350
#     4   8  14  26  45  68  92 119 156 202 250 301
#     4   9  17  31  53  82 111 139 181 232 280 336
#     4   9  18  32  46  70 103 130 168 214 253 311
#     4  11  25  41  59  87 125 165 203 247 293 347
#     4   9  17  29  47  68  93 129 166 204 252 304
#     4   9  18  30  51  78 104 139 175 216 274 326
#
# _framework density 20.635038000000002
#
# number of rings (size 3 to 8) (size 9 to 14) (size 15 to 20)
#    0.000    2.818    0.909    0.818    1.273    2.545 
#    0.000    8.182    0.000    4.909    0.000    5.091 
#    0.000    0.000    0.000    0.000    0.000    0.000 
#
# Total GULP energy -245425.482837 kJ/mol
# GULP energy per Si atom -5577.851883 kJ/mol
# Density = 2.058807 g / cm^3
# Si number density = 20.635038 Si / 1000 Ang^3
#
#
#
# Elastic Constant Matrix: (Units=GPa)
#
#
# Indices 1 2 3 4 5 6 
#
# 1 226.0745 79.4922 47.4387 0.0000 0.0000 0.0000
# 2 79.4922 86.0090 22.5857 0.0000 0.0000 0.0000
# 3 47.4387 22.5857 56.8776 0.0000 0.0000 0.0000
# 4 0.0000 0.0000 0.0000 -14.6233 0.0000 0.0000
# 5 0.0000 0.0000 0.0000 0.0000 -68.1526 0.0000
# 6 0.0000 0.0000 0.0000 0.0000 0.0000 50.0612
#
#
#
# Elastic Compliance Matrix: (Units=1/GPa)
#
#
# Indices 1 2 3 4 5 6 
#
# 1 0.007207 -0.005674 -0.003758 0.000000 0.000000 0.000000
# 2 -0.005674 0.017447 -0.002196 0.000000 0.000000 0.000000
# 3 -0.003758 -0.002196 0.021588 0.000000 0.000000 0.000000
# 4 0.000000 0.000000 0.000000 -0.068384 0.000000 0.000000
# 5 0.000000 0.000000 0.000000 0.000000 -0.014673 0.000000
# 6 0.000000 0.000000 0.000000 0.000000 0.000000 0.019976
#
#
# Mechanical properties :
#
#
# Convention : Reuss Voigt Hill
#
# Bulk Modulus (GPa) = 43.50326 74.22157 58.86242
# Shear Modulus (GPa) = 355.14543 8.08668 181.61606
#
# Velocity S-wave (km/s) = 13.13322 1.98177 9.39173
# Velocity P-wave (km/s) = 15.84624 6.42521 12.09105
#
# Compressibility (1/GPa) = 0.02298678
#
# Stress axis : x y z
#
# Youngs Moduli (GPa) = 138.75432 57.31480 46.32255
#
# Poissons Ratio (x) = 0.32521 0.17407
# Poissons Ratio (y) = 0.78731 0.10171
# Poissons Ratio (z) = 0.52141 0.12585
#
# Static dielectric constant tensor:
#      x y z
#    x 1.727130 0.000000 0.000000 
#    y 0.000000 1.758460 0.000000 
#    z 0.000000 0.000000 1.730090 
# 
# From -- ./inp_files/13735.got.cif
#   From: 2010.05.17/outbox.cif.g08.bks.cpg/sg47_7_cif.got.tgz:13735.got - 2010.06.03 20:15:42.
