data_PCOD9387111
_publ_section_title
;
Structure prediction by ZEFSAII (Michael W. Deem and Ramdas Pophale) SiO2 
 PCOD9387111
Probable space group: P M M M
;
_chemical_formula_sum "Si O2"
_cell_formula_units_Z 48
_cell_length_a 8.056200
_cell_length_b 9.459180
_cell_length_c 33.479679
_cell_angle_alpha 90.000000
_cell_angle_beta 90.000000
_cell_angle_gamma 90.000000
_cell_volume 2551.320475
_symmetry_space_group_name_H-M "P M M M"
_symmetry_group_IT_number 47
_symmetry_cell_setting 'orthorhombic'
loop_
_space_group_symop_operation_xyz
x,y,z
-x,-y,z
x,-y,-z
-x,y,-z
-x,-y,-z
x,y,-z
-x,y,z
x,-y,z
loop_
_atom_site_type_symbol
_atom_site_label
_atom_site_fract_x
_atom_site_fract_y
_atom_site_fract_z
Si Si1 0.302765 0.659355 0.500000
Si Si2 0.299548 0.337584 0.652294
Si Si3 0.802647 0.840511 0.576287
Si Si4 0.800893 0.159824 0.818173
Si Si5 0.804713 0.329945 0.102371
Si Si6 0.299941 0.661211 0.257815
Si Si7 0.500000 0.328300 0.045627
O O1 0.231874 0.500000 0.500000
O O2 0.500000 0.647936 0.500000
O O3 0.254423 0.744945 0.460547
O O4 0.500000 0.337433 0.652109
O O5 0.246304 0.500000 0.644382
O O6 0.241653 0.233568 0.617934
O O7 0.244331 0.299293 0.697305
O O8 0.000000 0.849368 0.573702
O O9 0.733505 0.000000 0.573868
O O10 0.754029 0.253525 0.856499
O O11 0.752856 0.235073 0.777084
O O12 0.000000 0.152890 0.819129
O O13 0.734712 0.000000 0.820600
O O14 0.796308 0.500000 0.107477
O O15 0.668870 0.288395 0.069077
O O16 0.000000 0.296293 0.093255
O O17 0.500000 0.658504 0.258556
O O18 0.242835 0.500000 0.249771
O O19 0.500000 0.500000 0.044679
O O20 0.500000 0.277395 0.000000
#
# Coordination Sequence:
#
# PCOD9387111 Si02
#       7
#     4   8   8   8   8   8   4
#     4  11  24  41  62  86 108 135 176 223 268 318
#     4   9  19  37  58  80 107 141 182 223 265 318
#     4  11  24  39  56  82 114 144 176 217 265 318
#     4  10  21  35  51  75 108 143 180 225 274 324
#     4   9  18  33  53  77 107 144 183 226 279 335
#     4   9  19  35  55  79 107 140 180 226 271 318
#     4   9  18  32  53  83 111 137 179 233 283 334
#
# _framework density 18.813787999999999
#
# number of rings (size 3 to 8) (size 9 to 14) (size 15 to 20)
#    0.000    2.333    0.000    3.000    1.167    8.333 
#    0.000    6.667    0.000    1.000    0.000    2.333 
#    0.000    0.000    0.000    0.000    0.000    0.000 
#
# Total GULP energy -267811.498805 kJ/mol
# GULP energy per Si atom -5579.406225 kJ/mol
# Density = 1.877097 g / cm^3
# Si number density = 18.813788 Si / 1000 Ang^3
#
#
#
# Elastic Constant Matrix: (Units=GPa)
#
#
# Indices 1 2 3 4 5 6 
#
# 1 49.4948 36.4792 48.8825 0.0000 0.0000 0.0000
# 2 36.4792 110.1667 98.2071 0.0000 0.0000 0.0000
# 3 48.8825 98.2071 176.2551 0.0000 0.0000 0.0000
# 4 0.0000 0.0000 0.0000 -11.7346 0.0000 0.0000
# 5 0.0000 0.0000 0.0000 0.0000 52.4470 0.0000
# 6 0.0000 0.0000 0.0000 0.0000 0.0000 21.4843
#
#
#
# Elastic Compliance Matrix: (Units=1/GPa)
#
#
# Indices 1 2 3 4 5 6 
#
# 1 0.029072 -0.004846 -0.005363 0.000000 0.000000 0.000000
# 2 -0.004846 0.018843 -0.009155 0.000000 0.000000 0.000000
# 3 -0.005363 -0.009155 0.012262 0.000000 0.000000 0.000000
# 4 0.000000 0.000000 0.000000 -0.085218 0.000000 0.000000
# 5 0.000000 0.000000 0.000000 0.000000 0.019067 0.000000
# 6 0.000000 0.000000 0.000000 0.000000 0.000000 0.046546
#
#
# Mechanical properties :
#
#
# Convention : Reuss Voigt Hill
#
# Bulk Modulus (GPa) = 46.62112 78.11714 62.36913
# Shear Modulus (GPa) = 57.83722 22.59585 40.21654
#
# Velocity S-wave (km/s) = 5.55056 3.46934 4.62845
# Velocity P-wave (km/s) = 8.11864 7.59341 7.86041
#
# Compressibility (1/GPa) = 0.02144950
#
# Stress axis : x y z
#
# Youngs Moduli (GPa) = 34.39711 53.06997 81.55277
#
# Poissons Ratio (x) = 0.25718 0.43734
# Poissons Ratio (y) = 0.16669 0.74662
# Poissons Ratio (z) = 0.18446 0.48586
#
# Static dielectric constant tensor:
#      x y z
#    x 1.670480 0.000000 0.000000 
#    y 0.000000 1.657330 0.000000 
#    z 0.000000 0.000000 1.642720 
# 
# From -- ./inp_files/34074.got.cif
#   From: 2010.05.17/outbox.cif.g08.bks.cpg/sg47_18_cif.got.tgz:34074.got - 2010.06.03 20:15:42.
