data_PCOD9387403
_publ_section_title
;
Structure prediction by ZEFSAII (Michael W. Deem and Ramdas Pophale) SiO2 
 PCOD9387403
Probable space group: P M M M
;
_chemical_formula_sum "Si O2"
_cell_formula_units_Z 52
_cell_length_a 9.061233
_cell_length_b 21.061165
_cell_length_c 14.412334
_cell_angle_alpha 90.000000
_cell_angle_beta 90.000000
_cell_angle_gamma 90.000000
_cell_volume 2750.451598
_symmetry_space_group_name_H-M "P M M M"
_symmetry_group_IT_number 47
_symmetry_cell_setting 'orthorhombic'
loop_
_space_group_symop_operation_xyz
x,y,z
-x,-y,z
x,-y,-z
-x,y,-z
-x,-y,-z
x,y,-z
-x,y,z
x,-y,z
loop_
_atom_site_type_symbol
_atom_site_label
_atom_site_fract_x
_atom_site_fract_y
_atom_site_fract_z
Si Si1 0.822825 0.000000 0.890233
Si Si2 0.171309 0.316379 0.611251
Si Si3 0.323921 0.883405 0.782607
Si Si4 0.329295 0.752946 0.889956
Si Si5 0.824800 0.621712 0.107601
Si Si6 0.822088 0.828972 0.391496
Si Si7 0.324237 0.430232 0.717772
O O1 0.754433 0.938803 0.839867
O O2 0.000000 0.000000 0.881108
O O3 0.786723 0.000000 0.000000
O O4 0.177112 0.322940 0.500000
O O5 0.221045 0.244198 0.631421
O O6 0.262006 0.371873 0.658776
O O7 0.000000 0.321888 0.640145
O O8 0.500000 0.893607 0.780274
O O9 0.295151 0.816542 0.834433
O O10 0.257995 0.875273 0.679774
O O11 0.500000 0.734545 0.870484
O O12 0.224328 0.693783 0.868992
O O13 0.318169 0.766149 0.000000
O O14 0.741642 0.577366 0.179500
O O15 0.000000 0.614927 0.116799
O O16 0.784324 0.610464 0.000000
O O17 0.787756 0.840384 0.500000
O O18 0.000000 0.833039 0.381583
O O19 0.500000 0.426254 0.721159
O O20 0.282590 0.500000 0.680164
#
# Coordination Sequence:
#
# PCOD9387403 Si02
#       7
#     4   8   8   8   8   8   8
#     4  11  25  43  62  85 116 157 199 232 268 321
#     4   9  19  37  61  87 113 143 181 227 278 329
#     4  11  22  36  58  87 118 151 187 230 277 324
#     4   9  18  33  54  81 112 144 177 218 275 338
#     4  10  21  36  55  79 105 136 179 232 284 332
#     4   9  19  37  60  86 116 148 184 228 277 329
#     4  11  24  38  52  74 106 145 186 227 276 336
#
# _framework density 18.905985999999999
#
# number of rings (size 3 to 8) (size 9 to 14) (size 15 to 20)
#    0.000    2.077    0.000    3.923    0.000    8.923 
#    0.000    6.538    0.000    2.308    0.000    0.000 
#    0.000    0.000    0.000    0.000    0.000    0.000 
#
# Total GULP energy -290471.791291 kJ/mol
# GULP energy per Si atom -5585.995986 kJ/mol
# Density = 1.886295 g / cm^3
# Si number density = 18.905986 Si / 1000 Ang^3
#
#
#
# Elastic Constant Matrix: (Units=GPa)
#
#
# Indices 1 2 3 4 5 6 
#
# 1 55.1131 48.1475 45.8327 0.0000 0.0000 0.0000
# 2 48.1475 81.9107 67.1197 0.0000 0.0000 0.0000
# 3 45.8327 67.1197 90.3133 0.0000 0.0000 0.0000
# 4 0.0000 0.0000 0.0000 21.4540 0.0000 0.0000
# 5 0.0000 0.0000 0.0000 0.0000 23.8520 0.0000
# 6 0.0000 0.0000 0.0000 0.0000 0.0000 40.5266
#
#
#
# Elastic Compliance Matrix: (Units=1/GPa)
#
#
# Indices 1 2 3 4 5 6 
#
# 1 0.038972 -0.017139 -0.007040 0.000000 0.000000 0.000000
# 2 -0.017139 0.038760 -0.020108 0.000000 0.000000 0.000000
# 3 -0.007040 -0.020108 0.029590 0.000000 0.000000 0.000000
# 4 0.000000 0.000000 0.000000 0.046611 0.000000 0.000000
# 5 0.000000 0.000000 0.000000 0.000000 0.041925 0.000000
# 6 0.000000 0.000000 0.000000 0.000000 0.000000 0.024675
#
#
# Mechanical properties :
#
#
# Convention : Reuss Voigt Hill
#
# Bulk Modulus (GPa) = 53.34257 61.05966 57.20112
# Shear Modulus (GPa) = 15.85504 21.58232 18.71868
#
# Velocity S-wave (km/s) = 2.89904 3.38236 3.14999
# Velocity P-wave (km/s) = 6.28346 6.90076 6.59933
#
# Compressibility (1/GPa) = 0.01874675
#
# Stress axis : x y z
#
# Youngs Moduli (GPa) = 25.65936 25.79986 33.79572
#
# Poissons Ratio (x) = 0.44218 0.23793
# Poissons Ratio (y) = 0.43977 0.67957
# Poissons Ratio (z) = 0.18065 0.51879
#
# Static dielectric constant tensor:
#      x y z
#    x 1.630900 0.000000 0.000000 
#    y 0.000000 1.644690 0.000000 
#    z 0.000000 0.000000 1.661810 
# 
# From -- ./inp_files/21470.got.cif
#   From: 2010.05.17/outbox.cif.g08.bks.cpg/sg47_11_cif.got.tgz:21470.got - 2010.06.03 20:15:42.
