data_PCOD9387178
_publ_section_title
;
Structure prediction by ZEFSAII (Michael W. Deem and Ramdas Pophale) SiO2 
 PCOD9387178
Probable space group: P M M M
;
_chemical_formula_sum "Si O2"
_cell_formula_units_Z 48
_cell_length_a 7.914652
_cell_length_b 33.720813
_cell_length_c 9.401666
_cell_angle_alpha 90.000000
_cell_angle_beta 90.000000
_cell_angle_gamma 90.000000
_cell_volume 2509.196537
_symmetry_space_group_name_H-M "P M M M"
_symmetry_group_IT_number 47
_symmetry_cell_setting 'orthorhombic'
loop_
_space_group_symop_operation_xyz
x,y,z
-x,-y,z
x,-y,-z
-x,y,-z
-x,-y,-z
x,y,-z
-x,y,z
x,-y,z
loop_
_atom_site_type_symbol
_atom_site_label
_atom_site_fract_x
_atom_site_fract_y
_atom_site_fract_z
Si Si1 0.798700 0.259456 0.661882
Si Si2 0.201836 0.500000 0.661755
Si Si3 0.702620 0.182535 0.839105
Si Si4 0.703551 0.577657 0.161315
Si Si5 0.297090 0.347125 0.662533
Si Si6 0.698863 0.896412 0.329085
Si Si7 0.000000 0.954767 0.672785
O O1 0.731084 0.254479 0.500000
O O2 0.746059 0.223148 0.759856
O O3 0.743123 0.302838 0.714129
O O4 0.000000 0.259593 0.654528
O O5 0.268820 0.500000 0.500000
O O6 0.256302 0.539128 0.746095
O O7 0.000000 0.500000 0.655275
O O8 0.500000 0.180572 0.846475
O O9 0.753790 0.144118 0.748141
O O10 0.770182 0.181563 0.000000
O O11 0.500000 0.580586 0.154007
O O12 0.767351 0.617395 0.239096
O O13 0.767645 0.573952 0.000000
O O14 0.232343 0.350775 0.500000
O O15 0.500000 0.350605 0.656668
O O16 0.709524 0.891069 0.500000
O O17 0.500000 0.904734 0.296269
O O18 0.830356 0.930784 0.287019
O O19 0.000000 0.955970 0.500000
O O20 0.000000 0.000000 0.724552
#
# Coordination Sequence:
#
# PCOD9387178 Si02
#       7
#     8   4   8   8   8   8   4
#     4  10  21  35  53  79 110 143 179 221 268 320
#     4  11  24  39  56  80 108 139 176 219 266 316
#     4  10  21  36  54  77 106 141 182 229 276 322
#     4  10  21  37  58  83 109 138 174 217 265 318
#     4   9  18  34  55  77 104 141 181 218 258 309
#     4   9  18  33  54  79 108 144 184 228 280 335
#     4   9  18  32  53  83 113 141 181 233 283 334
#
# _framework density 19.129629999999999
#
# number of rings (size 3 to 8) (size 9 to 14) (size 15 to 20)
#    0.000    2.333    0.000    2.000    1.167    6.333 
#    0.000    5.000    0.000    1.000    0.000    2.333 
#    0.000    0.000    0.000    0.000    0.000    0.000 
#
# Total GULP energy -267867.140779 kJ/mol
# GULP energy per Si atom -5580.565433 kJ/mol
# Density = 1.908609 g / cm^3
# Si number density = 19.129630 Si / 1000 Ang^3
#
#
#
# Elastic Constant Matrix: (Units=GPa)
#
#
# Indices 1 2 3 4 5 6 
#
# 1 41.6490 41.7402 29.7179 0.0000 0.0000 0.0000
# 2 41.7402 209.3391 98.2244 0.0000 0.0000 0.0000
# 3 29.7179 98.2244 100.4154 0.0000 0.0000 0.0000
# 4 0.0000 0.0000 0.0000 148.5853 0.0000 0.0000
# 5 0.0000 0.0000 0.0000 0.0000 12.7016 0.0000
# 6 0.0000 0.0000 0.0000 0.0000 0.0000 49.9180
#
#
#
# Elastic Compliance Matrix: (Units=1/GPa)
#
#
# Indices 1 2 3 4 5 6 
#
# 1 0.031810 -0.003559 -0.005933 0.000000 0.000000 0.000000
# 2 -0.003559 0.009228 -0.007973 0.000000 0.000000 0.000000
# 3 -0.005933 -0.007973 0.019514 0.000000 0.000000 0.000000
# 4 0.000000 0.000000 0.000000 0.006730 0.000000 0.000000
# 5 0.000000 0.000000 0.000000 0.000000 0.078730 0.000000
# 6 0.000000 0.000000 0.000000 0.000000 0.000000 0.020033
#
#
# Mechanical properties :
#
#
# Convention : Reuss Voigt Hill
#
# Bulk Modulus (GPa) = 39.02960 76.75206 57.89083
# Shear Modulus (GPa) = 23.86467 54.35572 39.11019
#
# Velocity S-wave (km/s) = 3.53586 5.33630 4.52650
# Velocity P-wave (km/s) = 6.09235 8.84179 7.59256
#
# Compressibility (1/GPa) = 0.02562158
#
# Stress axis : x y z
#
# Youngs Moduli (GPa) = 31.43644 108.37123 51.24642
#
# Poissons Ratio (x) = 0.38567 0.30405
# Poissons Ratio (y) = 0.11188 0.40859
# Poissons Ratio (z) = 0.18652 0.86404
#
# Static dielectric constant tensor:
#      x y z
#    x 1.678880 0.000000 0.000000 
#    y 0.000000 1.635840 0.000000 
#    z 0.000000 0.000000 1.701710 
# 
# From -- ./inp_files/2632.got.cif
#   From: 2010.05.17/outbox.cif.g08.bks.cpg/sg47_2_cif.got.tgz:2632.got - 2010.06.03 20:15:42.
