data_PCOD9387173
_publ_section_title
;
Structure prediction by ZEFSAII (Michael W. Deem and Ramdas Pophale) SiO2 
 PCOD9387173
Probable space group: P M M M
;
_chemical_formula_sum "Si O2"
_cell_formula_units_Z 64
_cell_length_a 8.982377
_cell_length_b 26.922995
_cell_length_c 14.383917
_cell_angle_alpha 90.000000
_cell_angle_beta 90.000000
_cell_angle_gamma 90.000000
_cell_volume 3478.498479
_symmetry_space_group_name_H-M "P M M M"
_symmetry_group_IT_number 47
_symmetry_cell_setting 'orthorhombic'
loop_
_space_group_symop_operation_xyz
x,y,z
-x,-y,z
x,-y,-z
-x,y,-z
-x,-y,-z
x,y,-z
-x,y,z
x,-y,z
loop_
_atom_site_type_symbol
_atom_site_label
_atom_site_fract_x
_atom_site_fract_y
_atom_site_fract_z
Si Si1 0.821551 0.943784 0.109903
Si Si2 0.673212 0.348351 0.112350
Si Si3 0.820320 0.554538 0.800167
Si Si4 0.321521 0.804605 0.394771
Si Si5 0.175011 0.245132 0.112094
Si Si6 0.678373 0.850282 0.791690
Si Si7 0.818837 0.407087 0.605119
Si Si8 0.168973 0.297134 0.387227
O O1 0.741980 0.900433 0.165328
O O2 0.000000 0.939418 0.120731
O O3 0.778441 0.000000 0.137315
O O4 0.789646 0.938246 0.000000
O O5 0.500000 0.345698 0.139156
O O6 0.747007 0.398519 0.150343
O O7 0.756993 0.298011 0.143265
O O8 0.681666 0.349562 0.000000
O O9 0.777052 0.500000 0.836605
O O10 0.781323 0.557694 0.690376
O O11 0.000000 0.558888 0.807595
O O12 0.267093 0.814181 0.500000
O O13 0.500000 0.802482 0.397909
O O14 0.278422 0.843956 0.316630
O O15 0.262588 0.750901 0.362346
O O16 0.256572 0.197812 0.155688
O O17 0.000000 0.243254 0.133835
O O18 0.191171 0.242584 0.000000
O O19 0.500000 0.849578 0.799165
O O20 0.767942 0.419057 0.500000
O O21 0.768928 0.351571 0.634478
O O22 0.000000 0.404803 0.600502
O O23 0.161548 0.297358 0.500000
O O24 0.000000 0.292714 0.351717
#
# Coordination Sequence:
#
# PCOD9387173 Si02
#       8
#     8   8   8   8   8   8   8   8
#     4   9  19  37  59  82 111 148 188 228 271 321
#     4  10  22  40  59  77 101 134 172 218 271 323
#     4  10  21  35  53  79 106 134 173 218 262 315
#     4   9  19  34  48  68 105 147 183 219 260 308
#     4  10  21  37  57  81 110 142 173 209 262 327
#     4  11  22  33  52  84 116 147 184 225 268 314
#     4   8  15  29  49  74 103 133 167 210 259 311
#     4   8  14  26  45  68  93 125 169 216 258 304
#
# _framework density 18.398743
#
# number of rings (size 3 to 8) (size 9 to 14) (size 15 to 20)
#    0.000    2.625    0.000    2.625    1.750    5.250 
#    0.000    3.125    0.000    0.750    0.000    3.500 
#    0.000    0.000    0.000    0.000    0.000    0.000 
#
# Total GULP energy -357020.597779 kJ/mol
# GULP energy per Si atom -5578.446840 kJ/mol
# Density = 1.835687 g / cm^3
# Si number density = 18.398743 Si / 1000 Ang^3
#
#
#
# Elastic Constant Matrix: (Units=GPa)
#
#
# Indices 1 2 3 4 5 6 
#
# 1 44.7569 58.2754 35.3189 0.0000 0.0000 0.0000
# 2 58.2754 164.0132 62.6382 0.0000 0.0000 0.0000
# 3 35.3189 62.6382 55.7341 0.0000 0.0000 0.0000
# 4 0.0000 0.0000 0.0000 29.8685 0.0000 0.0000
# 5 0.0000 0.0000 0.0000 0.0000 15.8504 0.0000
# 6 0.0000 0.0000 0.0000 0.0000 0.0000 654.4268
#
#
#
# Elastic Compliance Matrix: (Units=1/GPa)
#
#
# Indices 1 2 3 4 5 6 
#
# 1 0.053513 -0.010622 -0.021974 0.000000 0.000000 0.000000
# 2 -0.010622 0.012790 -0.007644 0.000000 0.000000 0.000000
# 3 -0.021974 -0.007644 0.040458 0.000000 0.000000 0.000000
# 4 0.000000 0.000000 0.000000 0.033480 0.000000 0.000000
# 5 0.000000 0.000000 0.000000 0.000000 0.063090 0.000000
# 6 0.000000 0.000000 0.000000 0.000000 0.000000 0.001528
#
#
# Mechanical properties :
#
#
# Convention : Reuss Voigt Hill
#
# Bulk Modulus (GPa) = 38.04810 64.10768 51.07789
# Shear Modulus (GPa) = 17.00110 147.24725 82.12418
#
# Velocity S-wave (km/s) = 3.04309 8.95572 6.68825
# Velocity P-wave (km/s) = 5.75081 11.91046 9.35230
#
# Compressibility (1/GPa) = 0.02628252
#
# Stress axis : x y z
#
# Youngs Moduli (GPa) = 18.68705 78.18490 24.71705
#
# Poissons Ratio (x) = 0.83044 0.54313
# Poissons Ratio (y) = 0.19849 0.18893
# Poissons Ratio (z) = 0.41063 0.59762
#
# Static dielectric constant tensor:
#      x y z
#    x 1.622480 0.000000 0.000000 
#    y 0.000000 1.614390 0.000000 
#    z 0.000000 0.000000 1.673430 
# 
# From -- ./inp_files/7781.got.cif
#   From: 2010.05.17/outbox.cif.g08.bks.cpg/sg47_4_cif.got.tgz:7781.got - 2010.06.03 20:15:42.
