data_PCOD9387011
_publ_section_title
;
Structure prediction by ZEFSAII (Michael W. Deem and Ramdas Pophale) SiO2 
 PCOD9387011
Probable space group: P M M M
;
_chemical_formula_sum "Si O2"
_cell_formula_units_Z 44
_cell_length_a 8.535291
_cell_length_b 31.472414
_cell_length_c 7.610484
_cell_angle_alpha 90.000000
_cell_angle_beta 90.000000
_cell_angle_gamma 90.000000
_cell_volume 2044.375488
_symmetry_space_group_name_H-M "P M M M"
_symmetry_group_IT_number 47
_symmetry_cell_setting 'orthorhombic'
loop_
_space_group_symop_operation_xyz
x,y,z
-x,-y,z
x,-y,-z
-x,y,-z
-x,-y,-z
x,y,-z
-x,y,z
x,-y,z
loop_
_atom_site_type_symbol
_atom_site_label
_atom_site_fract_x
_atom_site_fract_y
_atom_site_fract_z
Si Si1 0.676778 0.777165 0.288665
Si Si2 0.500000 0.450688 0.213961
Si Si3 0.319054 0.045464 0.788583
Si Si4 0.177758 0.403265 0.214757
Si Si5 0.172644 0.135964 0.709688
Si Si6 0.319070 0.315201 0.790132
O O1 0.671641 0.779898 0.500000
O O2 0.500000 0.774476 0.220158
O O3 0.747199 0.821235 0.221353
O O4 0.750022 0.731435 0.247484
O O5 0.500000 0.500000 0.263532
O O6 0.334414 0.429301 0.270277
O O7 0.500000 0.447734 0.000000
O O8 0.500000 0.045484 0.733142
O O9 0.249726 0.090306 0.735334
O O10 0.248273 0.000000 0.727993
O O11 0.314461 0.044762 0.000000
O O12 0.215658 0.354798 0.270187
O O13 0.000000 0.415826 0.270786
O O14 0.175780 0.405207 0.000000
O O15 0.164474 0.141755 0.500000
O O16 0.000000 0.133555 0.784859
O O17 0.500000 0.317823 0.721662
O O18 0.329835 0.319258 0.000000
#
# Coordination Sequence:
#
# PCOD9387011 Si02
#       6
#     8   4   8   8   8   8
#     4   9  18  32  49  69  95 128 164 202 243 286
#     4   9  16  26  40  60  91 129 165 203 246 293
#     4   9  19  36  56  76  97 123 159 203 247 292
#     4   9  16  26  41  62  90 124 161 202 247 294
#     4  10  21  35  50  71 101 133 162 197 243 293
#     4   9  16  28  46  66  91 124 160 199 244 292
#
# _framework density 21.522466000000001
#
# number of rings (size 3 to 8) (size 9 to 14) (size 15 to 20)
#    0.000    2.818    0.909    1.091    0.000    4.000 
#    0.000    6.364    0.000    0.000    0.000    0.000 
#    0.000    1.455    0.000    1.636    0.000    1.818 
#
# Total GULP energy -245137.654144 kJ/mol
# GULP energy per Si atom -5571.310321 kJ/mol
# Density = 2.147348 g / cm^3
# Si number density = 21.522466 Si / 1000 Ang^3
#
#
#
# Elastic Constant Matrix: (Units=GPa)
#
#
# Indices 1 2 3 4 5 6 
#
# 1 126.6075 99.8450 3.7299 0.0000 0.0000 0.0000
# 2 99.8450 206.6726 1.4214 0.0000 0.0000 0.0000
# 3 3.7299 1.4214 39.9038 0.0000 0.0000 0.0000
# 4 0.0000 0.0000 0.0000 24.5763 0.0000 0.0000
# 5 0.0000 0.0000 0.0000 0.0000 10.0118 0.0000
# 6 0.0000 0.0000 0.0000 0.0000 0.0000 -18.4804
#
#
#
# Elastic Compliance Matrix: (Units=1/GPa)
#
#
# Indices 1 2 3 4 5 6 
#
# 1 0.012798 -0.006176 -0.000976 0.000000 0.000000 0.000000
# 2 -0.006176 0.007820 0.000299 0.000000 0.000000 0.000000
# 3 -0.000976 0.000299 0.025141 0.000000 0.000000 0.000000
# 4 0.000000 0.000000 0.000000 0.040690 0.000000 0.000000
# 5 0.000000 0.000000 0.000000 0.000000 0.099882 0.000000
# 6 0.000000 0.000000 0.000000 0.000000 0.000000 -0.054112
#
#
# Mechanical properties :
#
#
# Convention : Reuss Voigt Hill
#
# Bulk Modulus (GPa) = 31.19948 64.79737 47.99842
# Shear Modulus (GPa) = 31.92648 21.10073 26.51361
#
# Velocity S-wave (km/s) = 3.85567 3.13454 3.51366
# Velocity P-wave (km/s) = 5.86083 6.57820 6.22985
#
# Compressibility (1/GPa) = 0.03205181
#
# Stress axis : x y z
#
# Youngs Moduli (GPa) = 78.13961 127.87503 39.77585
#
# Poissons Ratio (x) = 0.78974 0.03883
# Poissons Ratio (y) = 0.48258 -0.01188
# Poissons Ratio (z) = 0.07628 -0.03820
#
# Static dielectric constant tensor:
#      x y z
#    x 1.791350 0.000000 0.000000 
#    y 0.000000 1.828880 0.000000 
#    z 0.000000 0.000000 1.806630 
# 
# From -- ./inp_files/1968.got.cif
#   From: 2010.05.17/outbox.cif.g08.bks.cpg/sg47_1_cif.got.tgz:1968.got - 2010.06.03 20:15:42.
