data_PCOD9387531
_publ_section_title
;
Structure prediction by ZEFSAII (Michael W. Deem and Ramdas Pophale) SiO2 
 PCOD9387531
Probable space group: P M M M
;
_chemical_formula_sum "Si O2"
_cell_formula_units_Z 40
_cell_length_a 7.845577
_cell_length_b 29.093044
_cell_length_c 9.218412
_cell_angle_alpha 90.000000
_cell_angle_beta 90.000000
_cell_angle_gamma 90.000000
_cell_volume 2104.118366
_symmetry_space_group_name_H-M "P M M M"
_symmetry_group_IT_number 47
_symmetry_cell_setting 'orthorhombic'
loop_
_space_group_symop_operation_xyz
x,y,z
-x,-y,z
x,-y,-z
-x,y,-z
-x,-y,-z
x,y,-z
-x,y,z
x,-y,z
loop_
_atom_site_type_symbol
_atom_site_label
_atom_site_fract_x
_atom_site_fract_y
_atom_site_fract_z
Si Si1 0.204630 0.819038 0.833797
Si Si2 0.000000 0.552736 0.176999
Si Si3 0.296553 0.000000 0.836079
Si Si4 0.295115 0.279935 0.834070
Si Si5 0.303014 0.380593 0.177466
Si Si6 0.205034 0.908255 0.336158
O O1 0.245191 0.768934 0.767978
O O2 0.269861 0.862465 0.743906
O O3 0.000000 0.822524 0.840850
O O4 0.270715 0.820805 0.000000
O O5 0.831298 0.580774 0.221751
O O6 0.000000 0.500000 0.225738
O O7 0.000000 0.552357 0.000000
O O8 0.242836 0.954153 0.752633
O O9 0.500000 0.000000 0.842890
O O10 0.227420 0.000000 0.000000
O O11 0.500000 0.281428 0.840587
O O12 0.245395 0.329582 0.771921
O O13 0.227487 0.278321 0.000000
O O14 0.500000 0.389030 0.220544
O O15 0.303049 0.378714 0.000000
O O16 0.270915 0.911797 0.500000
O O17 0.000000 0.904185 0.343440
#
# Coordination Sequence:
#
# PCOD9387531 Si02
#       6
#     8   4   4   8   8   8
#     4   9  17  28  45  69  92 116 151 194 236 279
#     4   9  16  22  30  46  68 102 147 190 235 284
#     4  11  24  39  56  78 100 125 162 207 248 284
#     4   8  14  24  38  57  80 107 140 183 235 281
#     4   8  14  23  33  47  70 101 140 187 236 284
#     4  10  21  37  55  75 101 132 163 195 238 294
#
# _framework density 19.010337
#
# number of rings (size 3 to 8) (size 9 to 14) (size 15 to 20)
#    0.000    3.000    0.000    2.400    1.400    4.400 
#    0.000    4.000    0.000    0.000    0.000    0.000 
#    0.000    0.000    0.000    0.000    0.000    2.000 
#
# Total GULP energy -222839.231718 kJ/mol
# GULP energy per Si atom -5570.980793 kJ/mol
# Density = 1.896707 g / cm^3
# Si number density = 19.010337 Si / 1000 Ang^3
#
#
#
# Elastic Constant Matrix: (Units=GPa)
#
#
# Indices 1 2 3 4 5 6 
#
# 1 50.0320 52.4067 16.7895 0.0000 0.0000 0.0000
# 2 52.4067 228.7321 57.6378 0.0000 0.0000 0.0000
# 3 16.7895 57.6378 55.4879 0.0000 0.0000 0.0000
# 4 0.0000 0.0000 0.0000 -4.7228 0.0000 0.0000
# 5 0.0000 0.0000 0.0000 0.0000 4.9513 0.0000
# 6 0.0000 0.0000 0.0000 0.0000 0.0000 68.7993
#
#
#
# Elastic Compliance Matrix: (Units=1/GPa)
#
#
# Indices 1 2 3 4 5 6 
#
# 1 0.026517 -0.005491 -0.002320 0.000000 0.000000 0.000000
# 2 -0.005491 0.007059 -0.005671 0.000000 0.000000 0.000000
# 3 -0.002320 -0.005671 0.024615 0.000000 0.000000 0.000000
# 4 0.000000 0.000000 0.000000 -0.211740 0.000000 0.000000
# 5 0.000000 0.000000 0.000000 0.000000 0.201966 0.000000
# 6 0.000000 0.000000 0.000000 0.000000 0.000000 0.014535
#
#
# Mechanical properties :
#
#
# Convention : Reuss Voigt Hill
#
# Bulk Modulus (GPa) = 32.02336 65.32445 48.67391
# Shear Modulus (GPa) = 49.83792 27.63345 38.73568
#
# Velocity S-wave (km/s) = 5.12573 3.81675 4.51889
# Velocity P-wave (km/s) = 7.20504 7.33898 7.27232
#
# Compressibility (1/GPa) = 0.03122720
#
# Stress axis : x y z
#
# Youngs Moduli (GPa) = 37.71121 141.66161 40.62608
#
# Poissons Ratio (x) = 0.77787 0.09424
# Poissons Ratio (y) = 0.20707 0.23040
# Poissons Ratio (z) = 0.08748 0.80338
#
# Static dielectric constant tensor:
#      x y z
#    x 1.676500 0.000000 0.000000 
#    y 0.000000 1.679980 0.000000 
#    z 0.000000 0.000000 1.644940 
# 
# From -- ./inp_files/1684.got.cif
#   From: 2010.05.17/outbox.cif.g08.bks.cpg/sg47_1_cif.got.tgz:1684.got - 2010.06.03 20:15:42.
