data_PCOD9387386
_publ_section_title
;
Structure prediction by ZEFSAII (Michael W. Deem and Ramdas Pophale) SiO2 
 PCOD9387386
Probable space group: P M M M
;
_chemical_formula_sum "Si O2"
_cell_formula_units_Z 48
_cell_length_a 17.174085
_cell_length_b 8.976884
_cell_length_c 17.365946
_cell_angle_alpha 90.000000
_cell_angle_beta 90.000000
_cell_angle_gamma 90.000000
_cell_volume 2677.303881
_symmetry_space_group_name_H-M "P M M M"
_symmetry_group_IT_number 47
_symmetry_cell_setting 'orthorhombic'
loop_
_space_group_symop_operation_xyz
x,y,z
-x,-y,z
x,-y,-z
-x,y,-z
-x,-y,-z
x,y,-z
-x,y,z
x,-y,z
loop_
_atom_site_type_symbol
_atom_site_label
_atom_site_fract_x
_atom_site_fract_y
_atom_site_fract_z
Si Si1 0.619330 0.676935 0.911820
Si Si2 0.798082 0.177595 0.500000
Si Si3 0.804631 0.675154 0.088789
Si Si4 0.910290 0.826796 0.787021
Si Si5 0.500000 0.320713 0.627804
Si Si6 0.627578 0.679416 0.500000
Si Si7 0.500000 0.177271 0.796814
Si Si8 0.089829 0.677273 0.623332
O O1 0.602710 0.500000 0.904670
O O2 0.711916 0.696668 0.903064
O O3 0.572961 0.764659 0.847038
O O4 0.598508 0.720424 0.000000
O O5 0.710984 0.243051 0.500000
O O6 0.847408 0.238091 0.572249
O O7 0.795452 0.000000 0.500000
O O8 0.820633 0.500000 0.103263
O O9 0.852488 0.774789 0.147002
O O10 0.824839 0.706843 0.000000
O O11 0.900004 0.726357 0.711465
O O12 0.000000 0.809827 0.812745
O O13 0.898329 0.000000 0.766660
O O14 0.500000 0.500000 0.637561
O O15 0.424838 0.282532 0.575013
O O16 0.500000 0.245164 0.711010
O O17 0.637598 0.500000 0.500000
O O18 0.500000 0.000000 0.792191
O O19 0.099153 0.500000 0.614321
O O20 0.000000 0.714735 0.601529
#
# Coordination Sequence:
#
# PCOD9387386 Si02
#       8
#     8   4   8   8   4   4   4   8
#     4   9  19  37  58  78 105 143 184 226 271 317
#     4  12  24  36  57  88 118 147 176 213 270 333
#     4   9  19  36  57  80 106 142 189 234 274 320
#     4  10  21  36  54  79 112 147 182 225 280 333
#     4   9  20  41  65  83 104 140 183 226 269 312
#     4   9  20  41  65  85 106 138 183 228 267 312
#     4  12  24  34  53  86 116 143 176 215 266 329
#     4  10  21  38  59  81 108 145 188 231 271 314
#
# _framework density 17.928484000000001
#
# number of rings (size 3 to 8) (size 9 to 14) (size 15 to 20)
#    0.000    2.167    0.000    4.500    0.000    7.667 
#    0.000    5.833    0.000    0.000    0.000    0.000 
#    0.000    0.000    0.000    0.000    0.000    0.000 
#
# Total GULP energy -268005.122841 kJ/mol
# GULP energy per Si atom -5583.440059 kJ/mol
# Density = 1.788768 g / cm^3
# Si number density = 17.928484 Si / 1000 Ang^3
#
#
#
# Elastic Constant Matrix: (Units=GPa)
#
#
# Indices 1 2 3 4 5 6 
#
# 1 109.5386 65.3297 69.0702 0.0000 0.0000 0.0000
# 2 65.3297 80.2075 63.4175 0.0000 0.0000 0.0000
# 3 69.0702 63.4175 120.5140 0.0000 0.0000 0.0000
# 4 0.0000 0.0000 0.0000 319.7935 0.0000 0.0000
# 5 0.0000 0.0000 0.0000 0.0000 29.2007 0.0000
# 6 0.0000 0.0000 0.0000 0.0000 0.0000 19.5286
#
#
#
# Elastic Compliance Matrix: (Units=1/GPa)
#
#
# Indices 1 2 3 4 5 6 
#
# 1 0.019225 -0.011897 -0.004758 0.000000 0.000000 0.000000
# 2 -0.011897 0.028713 -0.008291 0.000000 0.000000 0.000000
# 3 -0.004758 -0.008291 0.015388 0.000000 0.000000 0.000000
# 4 0.000000 0.000000 0.000000 0.003127 0.000000 0.000000
# 5 0.000000 0.000000 0.000000 0.000000 0.034246 0.000000
# 6 0.000000 0.000000 0.000000 0.000000 0.000000 0.051207
#
#
# Mechanical properties :
#
#
# Convention : Reuss Voigt Hill
#
# Bulk Modulus (GPa) = 74.43842 78.43276 76.43559
# Shear Modulus (GPa) = 24.23948 81.20073 52.72011
#
# Velocity S-wave (km/s) = 3.68096 6.73719 5.42859
# Velocity P-wave (km/s) = 7.72500 10.21579 9.05643
#
# Compressibility (1/GPa) = 0.01343392
#
# Stress axis : x y z
#
# Youngs Moduli (GPa) = 52.01670 34.82706 64.98687
#
# Poissons Ratio (x) = 0.41433 0.30920
# Poissons Ratio (y) = 0.61883 0.53882
# Poissons Ratio (z) = 0.24749 0.28876
#
# Static dielectric constant tensor:
#      x y z
#    x 1.600650 0.000000 0.000000 
#    y 0.000000 1.594290 0.000000 
#    z 0.000000 0.000000 1.593060 
# 
# From -- ./inp_files/28091.got.cif
#   From: 2010.05.17/outbox.cif.g08.bks.cpg/sg47_15_cif.got.tgz:28091.got - 2010.06.03 20:15:42.
