data_PCOD9387027
_publ_section_title
;
Structure prediction by ZEFSAII (Michael W. Deem and Ramdas Pophale) SiO2 
 PCOD9387027
Probable space group: P M M M
;
_chemical_formula_sum "Si O2"
_cell_formula_units_Z 64
_cell_length_a 26.206714
_cell_length_b 15.087797
_cell_length_c 7.578142
_cell_angle_alpha 90.000000
_cell_angle_beta 90.000000
_cell_angle_gamma 90.000000
_cell_volume 2996.409327
_symmetry_space_group_name_H-M "P M M M"
_symmetry_group_IT_number 47
_symmetry_cell_setting 'orthorhombic'
loop_
_space_group_symop_operation_xyz
x,y,z
-x,-y,z
x,-y,-z
-x,y,-z
-x,-y,-z
x,y,-z
-x,y,z
x,-y,z
loop_
_atom_site_type_symbol
_atom_site_label
_atom_site_fract_x
_atom_site_fract_y
_atom_site_fract_z
Si Si1 0.754071 0.282834 0.207755
Si Si2 0.595688 0.098005 0.212969
Si Si3 0.346250 0.397875 0.286528
Si Si4 0.150302 0.597582 0.708672
Si Si5 0.938426 0.905782 0.289312
Si Si6 0.715024 0.097807 0.215360
Si Si7 0.444185 0.710073 0.291640
Si Si8 0.941202 0.287347 0.283242
O O1 0.703690 0.341749 0.238821
O O2 0.803013 0.335391 0.272793
O O3 0.744933 0.183895 0.280871
O O4 0.760672 0.273043 0.000000
O O5 0.655284 0.106815 0.264876
O O6 0.566436 0.185069 0.273616
O O7 0.577718 0.000000 0.271590
O O8 0.593848 0.098276 0.000000
O O9 0.348047 0.399775 0.500000
O O10 0.343861 0.500000 0.225843
O O11 0.396485 0.345994 0.220065
O O12 0.142101 0.588749 0.500000
O O13 0.162252 0.500000 0.780900
O O14 0.098158 0.639291 0.780073
O O15 0.929030 0.906889 0.500000
O O16 0.921792 0.809914 0.223240
O O17 0.000000 0.905383 0.267673
O O18 0.919194 0.000000 0.216700
O O19 0.732886 0.000000 0.272003
O O20 0.715948 0.098395 0.000000
O O21 0.445869 0.690461 0.500000
O O22 0.500000 0.689011 0.216380
O O23 0.941514 0.285878 0.500000
O O24 0.000000 0.300395 0.229757
#
# Coordination Sequence:
#
# PCOD9387027 Si02
#       8
#     8   8   8   8   8   8   8   8
#     4  11  21  35  58  81 101 129 168 212 253 303
#     4   9  17  32  54  77 102 135 174 211 250 302
#     4  10  21  37  56  76 100 133 172 214 260 306
#     4  10  21  35  50  72 105 139 169 211 264 306
#     4   7   9  15  31  57  88 120 153 192 240 288
#     4   8  15  30  53  78 101 127 162 204 250 299
#     4  10  21  35  51  75 107 139 171 211 258 307
#     4   8  14  26  45  68  94 129 173 211 243 292
#
# _framework density 21.358898
#
# number of rings (size 3 to 8) (size 9 to 14) (size 15 to 20)
#    0.000    2.875    1.250    2.625    0.000    3.250 
#    0.000    4.375    0.000    2.625    0.000    2.625 
#    0.000    0.000    0.000    6.250    0.000    2.500 
#
# Total GULP energy -356929.731405 kJ/mol
# GULP energy per Si atom -5577.027053 kJ/mol
# Density = 2.131028 g / cm^3
# Si number density = 21.358898 Si / 1000 Ang^3
#
#
#
# Elastic Constant Matrix: (Units=GPa)
#
#
# Indices 1 2 3 4 5 6 
#
# 1 104.5245 71.7063 -3.5722 0.0000 0.0000 0.0000
# 2 71.7063 143.6589 -2.2634 0.0000 0.0000 0.0000
# 3 -3.5722 -2.2634 44.4067 0.0000 0.0000 0.0000
# 4 0.0000 0.0000 0.0000 16.9647 0.0000 0.0000
# 5 0.0000 0.0000 0.0000 0.0000 215.9919 0.0000
# 6 0.0000 0.0000 0.0000 0.0000 0.0000 305.9237
#
#
#
# Elastic Compliance Matrix: (Units=1/GPa)
#
#
# Indices 1 2 3 4 5 6 
#
# 1 0.014578 -0.007264 0.000802 0.000000 0.000000 0.000000
# 2 -0.007264 0.010586 -0.000045 0.000000 0.000000 0.000000
# 3 0.000802 -0.000045 0.022581 0.000000 0.000000 0.000000
# 4 0.000000 0.000000 0.000000 0.058946 0.000000 0.000000
# 5 0.000000 0.000000 0.000000 0.000000 0.004630 0.000000
# 6 0.000000 0.000000 0.000000 0.000000 0.000000 0.003269
#
#
# Mechanical properties :
#
#
# Convention : Reuss Voigt Hill
#
# Bulk Modulus (GPa) = 28.79116 47.14794 37.96955
# Shear Modulus (GPa) = 35.92500 122.89070 79.40785
#
# Velocity S-wave (km/s) = 4.10563 7.59348 6.10398
# Velocity P-wave (km/s) = 5.99866 9.95004 8.21545
#
# Compressibility (1/GPa) = 0.03473288
#
# Stress axis : x y z
#
# Youngs Moduli (GPa) = 68.59838 94.46589 44.28426
#
# Poissons Ratio (x) = 0.68617 -0.03554
# Poissons Ratio (y) = 0.49828 0.00198
# Poissons Ratio (z) = -0.05505 0.00423
#
# Static dielectric constant tensor:
#      x y z
#    x 1.744940 0.000000 0.000000 
#    y 0.000000 1.853870 0.000000 
#    z 0.000000 0.000000 1.839930 
# 
# From -- ./inp_files/12783.got.cif
#   From: 2010.05.17/outbox.cif.g08.bks.cpg/sg47_7_cif.got.tgz:12783.got - 2010.06.03 20:15:42.
