data_PCOD9387197
_publ_section_title
;
Structure prediction by ZEFSAII (Michael W. Deem and Ramdas Pophale) SiO2 
 PCOD9387197
Probable space group: P M M M
;
_chemical_formula_sum "Si O2"
_cell_formula_units_Z 64
_cell_length_a 24.516417
_cell_length_b 14.788920
_cell_length_c 9.530573
_cell_angle_alpha 90.000000
_cell_angle_beta 90.000000
_cell_angle_gamma 90.000000
_cell_volume 3455.512525
_symmetry_space_group_name_H-M "P M M M"
_symmetry_group_IT_number 47
_symmetry_cell_setting 'orthorhombic'
loop_
_space_group_symop_operation_xyz
x,y,z
-x,-y,z
x,-y,-z
-x,y,-z
-x,-y,-z
x,y,-z
-x,y,z
x,-y,z
loop_
_atom_site_type_symbol
_atom_site_label
_atom_site_fract_x
_atom_site_fract_y
_atom_site_fract_z
Si Si1 0.844266 0.892097 0.665800
Si Si2 0.438335 0.602740 0.170529
Si Si3 0.438524 0.108229 0.664649
Si Si4 0.939335 0.600509 0.750447
Si Si5 0.232618 0.763529 0.832437
Si Si6 0.361271 0.235801 0.832051
Si Si7 0.936984 0.801519 0.155724
Si Si8 0.181238 0.603778 0.342894
O O1 0.838992 0.872915 0.500000
O O2 0.795135 0.847339 0.752792
O O3 0.898065 0.844265 0.728501
O O4 0.846882 0.000000 0.684762
O O5 0.500000 0.628404 0.213953
O O6 0.427841 0.500000 0.216853
O O7 0.392714 0.673360 0.214790
O O8 0.438281 0.601851 0.000000
O O9 0.432714 0.131119 0.500000
O O10 0.500000 0.135400 0.709623
O O11 0.392389 0.155316 0.755072
O O12 0.435274 0.000000 0.676299
O O13 0.936972 0.500000 0.819317
O O14 0.935537 0.692048 0.839992
O O15 0.884793 0.605484 0.658812
O O16 0.000000 0.604614 0.682761
O O17 0.297100 0.760695 0.803808
O O18 0.204321 0.674092 0.768761
O O19 0.223909 0.768514 0.000000
O O20 0.367999 0.226827 0.000000
O O21 0.000000 0.827632 0.177654
O O22 0.919637 0.831285 0.000000
O O23 0.199871 0.627555 0.500000
O O24 0.197197 0.500000 0.311947
#
# Coordination Sequence:
#
# PCOD9387197 Si02
#       8
#     8   8   8   8   8   8   8   8
#     4  11  25  44  64  83 106 144 194 244 296 354
#     4   8  14  27  50  80 113 147 181 220 268 320
#     4   9  19  36  57  83 116 151 184 221 275 343
#     4   9  18  32  54  88 125 155 185 224 275 338
#     4  11  24  40  58  83 114 151 195 242 294 346
#     4  10  21  35  55  84 114 146 190 239 282 330
#     4  10  21  37  60  91 123 152 183 227 287 350
#     4  10  21  37  58  84 116 154 194 236 283 340
#
# _framework density 18.521131
#
# number of rings (size 3 to 8) (size 9 to 14) (size 15 to 20)
#    0.000    2.250    1.250    1.875    0.000    5.250 
#    0.000   10.625    0.000    0.375    0.000    1.750 
#    0.000    0.000    0.000    0.000    0.000    0.000 
#
# Total GULP energy -356792.273786 kJ/mol
# GULP energy per Si atom -5574.879278 kJ/mol
# Density = 1.847898 g / cm^3
# Si number density = 18.521131 Si / 1000 Ang^3
#
#
#
# Elastic Constant Matrix: (Units=GPa)
#
#
# Indices 1 2 3 4 5 6 
#
# 1 133.0774 62.0199 63.4169 0.0000 0.0000 0.0000
# 2 62.0199 98.4796 55.4473 0.0000 0.0000 0.0000
# 3 63.4169 55.4473 81.6021 0.0000 0.0000 0.0000
# 4 0.0000 0.0000 0.0000 11.2975 0.0000 0.0000
# 5 0.0000 0.0000 0.0000 0.0000 28.1108 0.0000
# 6 0.0000 0.0000 0.0000 0.0000 0.0000 45.4670
#
#
#
# Elastic Compliance Matrix: (Units=1/GPa)
#
#
# Indices 1 2 3 4 5 6 
#
# 1 0.012837 -0.003996 -0.007261 0.000000 0.000000 0.000000
# 2 -0.003996 0.017690 -0.008915 0.000000 0.000000 0.000000
# 3 -0.007261 -0.008915 0.023955 0.000000 0.000000 0.000000
# 4 0.000000 0.000000 0.000000 0.088515 0.000000 0.000000
# 5 0.000000 0.000000 0.000000 0.000000 0.035574 0.000000
# 6 0.000000 0.000000 0.000000 0.000000 0.000000 0.021994
#
#
# Mechanical properties :
#
#
# Convention : Reuss Voigt Hill
#
# Bulk Modulus (GPa) = 70.72858 74.99192 72.86025
# Shear Modulus (GPa) = 20.35657 25.79339 23.07498
#
# Velocity S-wave (km/s) = 3.31886 3.73587 3.53352
# Velocity P-wave (km/s) = 7.27719 7.69329 7.48813
#
# Compressibility (1/GPa) = 0.01413856
#
# Stress axis : x y z
#
# Youngs Moduli (GPa) = 77.90014 56.52789 41.74552
#
# Poissons Ratio (x) = 0.22590 0.30311
# Poissons Ratio (y) = 0.31131 0.37215
# Poissons Ratio (z) = 0.56562 0.50392
#
# Static dielectric constant tensor:
#      x y z
#    x 1.631970 0.000000 0.000000 
#    y 0.000000 1.641840 0.000000 
#    z 0.000000 0.000000 1.628110 
# 
# From -- ./inp_files/12769.got.cif
#   From: 2010.05.17/outbox.cif.g08.bks.cpg/sg47_7_cif.got.tgz:12769.got - 2010.06.03 20:15:42.
