data_PCOD9387476
_publ_section_title
;
Structure prediction by ZEFSAII (Michael W. Deem and Ramdas Pophale) SiO2 
 PCOD9387476
Probable space group: P M M M
;
_chemical_formula_sum "Si O2"
_cell_formula_units_Z 40
_cell_length_a 9.173452
_cell_length_b 28.140146
_cell_length_c 7.652455
_cell_angle_alpha 90.000000
_cell_angle_beta 90.000000
_cell_angle_gamma 90.000000
_cell_volume 1975.422171
_symmetry_space_group_name_H-M "P M M M"
_symmetry_group_IT_number 47
_symmetry_cell_setting 'orthorhombic'
loop_
_space_group_symop_operation_xyz
x,y,z
-x,-y,z
x,-y,-z
-x,y,-z
-x,-y,-z
x,y,-z
-x,y,z
x,-y,z
loop_
_atom_site_type_symbol
_atom_site_label
_atom_site_fract_x
_atom_site_fract_y
_atom_site_fract_z
Si Si1 0.325990 0.381863 0.208502
Si Si2 0.335105 0.000000 0.791702
Si Si3 0.835183 0.903822 0.290932
Si Si4 0.834180 0.715157 0.209904
Si Si5 0.827543 0.443283 0.500000
Si Si6 0.664839 0.811588 0.709359
O O1 0.500000 0.382086 0.234908
O O2 0.258956 0.330848 0.262491
O O3 0.248590 0.420662 0.329588
O O4 0.298822 0.388913 0.000000
O O5 0.249585 0.047354 0.739528
O O6 0.500000 0.000000 0.720348
O O7 0.343565 0.000000 0.000000
O O8 0.845338 0.897884 0.500000
O O9 0.747269 0.858278 0.221669
O O10 0.000000 0.905920 0.221405
O O11 0.755435 0.764012 0.257396
O O12 0.000000 0.713310 0.277605
O O13 0.841095 0.713600 0.000000
O O14 0.811097 0.500000 0.500000
O O15 0.000000 0.431865 0.500000
O O16 0.654943 0.816881 0.500000
O O17 0.500000 0.807810 0.778186
#
# Coordination Sequence:
#
# PCOD9387476 Si02
#       6
#     8   4   8   8   4   8
#     4  10  22  41  65  93 127 167 212 263 317 374
#     4  11  24  39  56  80 108 141 182 227 280 342
#     4  10  21  38  59  82 108 141 184 232 284 343
#     4  10  21  37  58  85 118 157 198 240 293 355
#     4  11  25  43  65  95 129 169 215 262 315 374
#     4  10  21  36  56  83 114 149 189 234 286 344
#
# _framework density 20.248836000000001
#
# number of rings (size 3 to 8) (size 9 to 14) (size 15 to 20)
#    0.000    1.800    0.000    3.300    1.400    8.800 
#    0.000    2.000    0.000    0.000    0.000    0.000 
#    0.000    0.000    0.000    0.000    0.000    0.000 
#
# Total GULP energy -223566.400666 kJ/mol
# GULP energy per Si atom -5589.160017 kJ/mol
# Density = 2.020275 g / cm^3
# Si number density = 20.248836 Si / 1000 Ang^3
#
#
#
# Elastic Constant Matrix: (Units=GPa)
#
#
# Indices 1 2 3 4 5 6 
#
# 1 213.8072 116.3820 48.7702 0.0000 0.0000 0.0000
# 2 116.3820 175.5038 38.4743 0.0000 0.0000 0.0000
# 3 48.7702 38.4743 59.1600 0.0000 0.0000 0.0000
# 4 0.0000 0.0000 0.0000 54.4104 0.0000 0.0000
# 5 0.0000 0.0000 0.0000 0.0000 24.8770 0.0000
# 6 0.0000 0.0000 0.0000 0.0000 0.0000 53.6775
#
#
#
# Elastic Compliance Matrix: (Units=1/GPa)
#
#
# Indices 1 2 3 4 5 6 
#
# 1 0.007939 -0.004466 -0.003640 0.000000 0.000000 0.000000
# 2 -0.004466 0.009158 -0.002274 0.000000 0.000000 0.000000
# 3 -0.003640 -0.002274 0.021383 0.000000 0.000000 0.000000
# 4 0.000000 0.000000 0.000000 0.018379 0.000000 0.000000
# 5 0.000000 0.000000 0.000000 0.000000 0.040198 0.000000
# 6 0.000000 0.000000 0.000000 0.000000 0.000000 0.018630
#
#
# Mechanical properties :
#
#
# Convention : Reuss Voigt Hill
#
# Bulk Modulus (GPa) = 56.43566 95.08046 75.75806
# Shear Modulus (GPa) = 35.12415 42.91595 39.02005
#
# Velocity S-wave (km/s) = 4.16940 4.60872 4.39455
# Velocity P-wave (km/s) = 7.14913 8.68207 7.95262
#
# Compressibility (1/GPa) = 0.01771929
#
# Stress axis : x y z
#
# Youngs Moduli (GPa) = 125.96796 109.19195 46.76697
#
# Poissons Ratio (x) = 0.48769 0.17022
# Poissons Ratio (y) = 0.56262 0.10635
# Poissons Ratio (z) = 0.45848 0.24830
#
# Static dielectric constant tensor:
#      x y z
#    x 1.715480 0.000000 0.000000 
#    y 0.000000 1.670000 0.000000 
#    z 0.000000 0.000000 1.744440 
# 
# From -- ./inp_files/1793.got.cif
#   From: 2010.05.17/outbox.cif.g08.bks.cpg/sg47_1_cif.got.tgz:1793.got - 2010.06.03 20:15:42.
