data_PCOD9387502
_publ_section_title
;
Structure prediction by ZEFSAII (Michael W. Deem and Ramdas Pophale) SiO2 
 PCOD9387502
Probable space group: P M M M
;
_chemical_formula_sum "Si O2"
_cell_formula_units_Z 40
_cell_length_a 10.975990
_cell_length_b 8.604060
_cell_length_c 23.310527
_cell_angle_alpha 90.000000
_cell_angle_beta 90.000000
_cell_angle_gamma 90.000000
_cell_volume 2201.401333
_symmetry_space_group_name_H-M "P M M M"
_symmetry_group_IT_number 47
_symmetry_cell_setting 'orthorhombic'
loop_
_space_group_symop_operation_xyz
x,y,z
-x,-y,z
x,-y,-z
-x,y,-z
-x,-y,-z
x,y,-z
-x,y,z
x,-y,z
loop_
_atom_site_type_symbol
_atom_site_label
_atom_site_fract_x
_atom_site_fract_y
_atom_site_fract_z
Si Si1 0.640936 0.813672 0.734476
Si Si2 0.754507 0.687096 0.618249
Si Si3 0.633630 0.311161 0.500000
Si Si4 0.000000 0.813772 0.568708
Si Si5 0.857536 0.684323 0.814523
Si Si6 0.147158 0.820150 0.936949
O O1 0.500000 0.762380 0.747170
O O2 0.682052 0.754181 0.671965
O O3 0.750057 0.756415 0.776115
O O4 0.640691 0.000000 0.735545
O O5 0.757052 0.500000 0.623165
O O6 0.692900 0.735764 0.558842
O O7 0.887956 0.751785 0.606251
O O8 0.633282 0.500000 0.500000
O O9 0.500000 0.248681 0.500000
O O10 0.000000 0.760870 0.500000
O O11 0.000000 0.000000 0.566701
O O12 0.858512 0.500000 0.805095
O O13 0.824343 0.722365 0.880646
O O14 0.000000 0.739062 0.804467
O O15 0.000000 0.821224 0.939476
O O16 0.186018 0.000000 0.929298
O O17 0.190274 0.765763 0.000000
#
# Coordination Sequence:
#
# PCOD9387502 Si02
#       6
#     8   8   4   4   8   8
#     4  11  25  43  61  83 114 154 197 241 294 352
#     4  11  22  38  61  85 113 146 187 235 285 342
#     4   9  18  33  55  82 108 137 176 225 282 339
#     4  11  23  39  59  85 119 151 182 225 284 345
#     4  10  21  36  57  87 119 153 195 241 289 342
#     4   8  14  27  50  81 117 155 192 232 282 339
#
# _framework density 18.170244
#
# number of rings (size 3 to 8) (size 9 to 14) (size 15 to 20)
#    0.000    2.000    1.000    3.300    1.400    4.400 
#    0.000    2.000    0.000    3.000    0.000    4.200 
#    0.000    0.000    0.000    0.000    0.000    0.000 
#
# Total GULP energy -222781.415131 kJ/mol
# GULP energy per Si atom -5569.535378 kJ/mol
# Density = 1.812889 g / cm^3
# Si number density = 18.170244 Si / 1000 Ang^3
#
#
#
# Elastic Constant Matrix: (Units=GPa)
#
#
# Indices 1 2 3 4 5 6 
#
# 1 145.9804 40.1718 71.7101 0.0000 0.0000 0.0000
# 2 40.1718 47.2941 36.8009 0.0000 0.0000 0.0000
# 3 71.7101 36.8009 126.7722 0.0000 0.0000 0.0000
# 4 0.0000 0.0000 0.0000 33.9679 0.0000 0.0000
# 5 0.0000 0.0000 0.0000 0.0000 -27.4295 0.0000
# 6 0.0000 0.0000 0.0000 0.0000 0.0000 11.0411
#
#
#
# Elastic Compliance Matrix: (Units=1/GPa)
#
#
# Indices 1 2 3 4 5 6 
#
# 1 0.010506 -0.005554 -0.004330 0.000000 0.000000 0.000000
# 2 -0.005554 0.030250 -0.005640 0.000000 0.000000 0.000000
# 3 -0.004330 -0.005640 0.011975 0.000000 0.000000 0.000000
# 4 0.000000 0.000000 0.000000 0.029440 0.000000 0.000000
# 5 0.000000 0.000000 0.000000 0.000000 -0.036457 0.000000
# 6 0.000000 0.000000 0.000000 0.000000 0.000000 0.090571
#
#
# Mechanical properties :
#
#
# Convention : Reuss Voigt Hill
#
# Bulk Modulus (GPa) = 46.11982 68.60139 57.36061
# Shear Modulus (GPa) = 28.64335 14.94016 21.79175
#
# Velocity S-wave (km/s) = 3.97468 2.87057 3.46686
# Velocity P-wave (km/s) = 6.81919 6.98739 6.90380
#
# Compressibility (1/GPa) = 0.02168265
#
# Stress axis : x y z
#
# Youngs Moduli (GPa) = 95.18446 33.05742 83.50789
#
# Poissons Ratio (x) = 0.18360 0.36163
# Poissons Ratio (y) = 0.52866 0.47096
# Poissons Ratio (z) = 0.41219 0.18643
#
# Static dielectric constant tensor:
#      x y z
#    x 1.488170 0.000000 0.000000 
#    y 0.000000 1.623290 0.000000 
#    z 0.000000 0.000000 1.621760 
# 
# From -- ./inp_files/30342.got.cif
#   From: 2010.05.17/outbox.cif.g08.bks.cpg/sg47_16_cif.got.tgz:30342.got - 2010.06.03 20:15:42.
