data_PCOD9387364
_publ_section_title
;
Structure prediction by ZEFSAII (Michael W. Deem and Ramdas Pophale) SiO2 
 PCOD9387364
Probable space group: P M M M
;
_chemical_formula_sum "Si O2"
_cell_formula_units_Z 64
_cell_length_a 20.952504
_cell_length_b 19.153360
_cell_length_c 8.403056
_cell_angle_alpha 90.000000
_cell_angle_beta 90.000000
_cell_angle_gamma 90.000000
_cell_volume 3372.237563
_symmetry_space_group_name_H-M "P M M M"
_symmetry_group_IT_number 47
_symmetry_cell_setting 'orthorhombic'
loop_
_space_group_symop_operation_xyz
x,y,z
-x,-y,z
x,-y,-z
-x,y,-z
-x,-y,-z
x,y,-z
-x,y,z
x,-y,z
loop_
_atom_site_type_symbol
_atom_site_label
_atom_site_fract_x
_atom_site_fract_y
_atom_site_fract_z
Si Si1 0.190319 0.829100 0.690246
Si Si2 0.688899 0.079837 0.307840
Si Si3 0.309615 0.420148 0.307460
Si Si4 0.926917 0.919590 0.192216
Si Si5 0.072224 0.419934 0.193934
Si Si6 0.191059 0.328845 0.190719
Si Si7 0.573111 0.171689 0.809435
Si Si8 0.572622 0.672827 0.307634
O O1 0.193408 0.826342 0.500000
O O2 0.250523 0.874973 0.748489
O O3 0.125345 0.867424 0.740528
O O4 0.193978 0.750812 0.754521
O O5 0.690785 0.078925 0.500000
O O6 0.623923 0.117118 0.255883
O O7 0.692536 0.000000 0.251173
O O8 0.309702 0.420937 0.500000
O O9 0.304201 0.500000 0.251504
O O10 0.250906 0.373230 0.251404
O O11 0.375395 0.383443 0.254806
O O12 0.000000 0.903346 0.239984
O O13 0.913270 0.000000 0.240136
O O14 0.924709 0.917021 0.000000
O O15 0.086522 0.500000 0.241555
O O16 0.126262 0.366781 0.248550
O O17 0.000000 0.402765 0.245091
O O18 0.072165 0.419120 0.000000
O O19 0.191088 0.330508 0.000000
O O20 0.500000 0.157608 0.756722
O O21 0.589801 0.249794 0.751902
O O22 0.574448 0.170362 0.000000
O O23 0.572969 0.674244 0.500000
O O24 0.500000 0.657571 0.255359
#
# Coordination Sequence:
#
# PCOD9387364 Si02
#       8
#     8   8   8   8   8   8   8   8
#     4  11  23  38  56  80 111 145 183 227 274 324
#     4  10  22  39  57  77 103 138 180 223 266 317
#     4  10  21  36  54  78 109 142 176 221 275 324
#     4   9  19  37  60  85 113 145 182 224 270 323
#     4   8  15  30  52  76 101 131 170 215 259 303
#     4  11  22  35  54  80 108 140 180 224 270 323
#     4  10  21  36  55  81 111 140 172 215 267 321
#     4   9  18  34  56  79 104 139 181 219 258 312
#
# _framework density 18.978497999999998
#
# number of rings (size 3 to 8) (size 9 to 14) (size 15 to 20)
#    0.000    2.250    0.000    3.375    0.000    8.250 
#    0.000    4.375    0.000    1.125    0.000    7.000 
#    0.000    0.000    0.000    0.000    0.000    0.000 
#
# Total GULP energy -357369.986379 kJ/mol
# GULP energy per Si atom -5583.906037 kJ/mol
# Density = 1.893530 g / cm^3
# Si number density = 18.978498 Si / 1000 Ang^3
#
#
#
# Elastic Constant Matrix: (Units=GPa)
#
#
# Indices 1 2 3 4 5 6 
#
# 1 143.9531 130.8809 20.1600 0.0000 0.0000 0.0000
# 2 130.8809 192.0263 23.7421 0.0000 0.0000 0.0000
# 3 20.1600 23.7421 11.2549 0.0000 0.0000 0.0000
# 4 0.0000 0.0000 0.0000 20.7045 0.0000 0.0000
# 5 0.0000 0.0000 0.0000 0.0000 37.2234 0.0000
# 6 0.0000 0.0000 0.0000 0.0000 0.0000 42.2989
#
#
#
# Elastic Compliance Matrix: (Units=1/GPa)
#
#
# Indices 1 2 3 4 5 6 
#
# 1 0.018923 -0.011779 -0.009048 0.000000 0.000000 0.000000
# 2 -0.011779 0.014377 -0.009229 0.000000 0.000000 0.000000
# 3 -0.009048 -0.009229 0.124526 0.000000 0.000000 0.000000
# 4 0.000000 0.000000 0.000000 0.048299 0.000000 0.000000
# 5 0.000000 0.000000 0.000000 0.000000 0.026865 0.000000
# 6 0.000000 0.000000 0.000000 0.000000 0.000000 0.023641
#
#
# Mechanical properties :
#
#
# Convention : Reuss Voigt Hill
#
# Bulk Modulus (GPa) = 10.23401 77.42227 43.82814
# Shear Modulus (GPa) = 14.31374 31.54213 22.92794
#
# Velocity S-wave (km/s) = 2.74926 4.08118 3.47954
# Velocity P-wave (km/s) = 3.93473 7.94300 6.26791
#
# Compressibility (1/GPa) = 0.09771345
#
# Stress axis : x y z
#
# Youngs Moduli (GPa) = 52.84553 69.55584 8.03045
#
# Poissons Ratio (x) = 0.81929 0.07266
# Poissons Ratio (y) = 0.62246 0.07412
# Poissons Ratio (z) = 0.47815 0.64196
#
# Static dielectric constant tensor:
#      x y z
#    x 1.653600 0.000000 0.000000 
#    y 0.000000 1.628690 0.000000 
#    z 0.000000 0.000000 1.661110 
# 
# From -- ./inp_files/11569.got.cif
#   From: 2010.05.17/outbox.cif.g08.bks.cpg/sg47_6_cif.got.tgz:11569.got - 2010.06.03 20:15:42.
