data_PCOD9387429
_publ_section_title
;
Structure prediction by ZEFSAII (Michael W. Deem and Ramdas Pophale) SiO2 
 PCOD9387429
Probable space group: P M M M
;
_chemical_formula_sum "Si O2"
_cell_formula_units_Z 48
_cell_length_a 32.237913
_cell_length_b 9.446185
_cell_length_c 7.900368
_cell_angle_alpha 90.000000
_cell_angle_beta 90.000000
_cell_angle_gamma 90.000000
_cell_volume 2405.861858
_symmetry_space_group_name_H-M "P M M M"
_symmetry_group_IT_number 47
_symmetry_cell_setting 'orthorhombic'
loop_
_space_group_symop_operation_xyz
x,y,z
-x,-y,z
x,-y,-z
-x,y,-z
-x,-y,-z
x,y,-z
-x,y,z
x,-y,z
loop_
_atom_site_type_symbol
_atom_site_label
_atom_site_fract_x
_atom_site_fract_y
_atom_site_fract_z
Si Si1 0.873698 0.159898 0.297111
Si Si2 0.634900 0.663497 0.704858
Si Si3 0.455416 0.328487 0.701035
Si Si4 0.795956 0.660084 0.297233
Si Si5 0.284295 0.839291 0.798361
Si Si6 0.953243 0.662031 0.204363
O O1 0.868747 0.152078 0.500000
O O2 0.835881 0.255265 0.229891
O O3 0.917433 0.234061 0.262719
O O4 0.872208 0.000000 0.229761
O O5 0.632914 0.659986 0.500000
O O6 0.641420 0.500000 0.760883
O O7 0.589635 0.716118 0.767919
O O8 0.672797 0.761900 0.754826
O O9 0.456061 0.295466 0.500000
O O10 0.500000 0.279812 0.772633
O O11 0.454912 0.500000 0.713740
O O12 0.800762 0.649999 0.500000
O O13 0.793462 0.500000 0.229793
O O14 0.754237 0.747120 0.265174
O O15 0.283033 0.000000 0.730675
O O16 0.280969 0.845783 0.000000
O O17 0.944838 0.500000 0.260041
O O18 0.000000 0.700186 0.260213
O O19 0.953350 0.661811 0.000000
#
# Coordination Sequence:
#
# PCOD9387429 Si02
#       6
#     8   8   8   8   8   8
#     4  10  21  36  55  81 111 140 170 207 254 307
#     4   9  17  30  51  78 103 129 165 207 252 302
#     4   7  10  19  39  69 101 127 154 196 248 296
#     4  10  21  38  60  82 102 128 166 210 256 307
#     4  11  24  38  51  71 101 136 172 208 249 300
#     4   9  19  36  56  78 106 142 183 222 258 298
#
# _framework density 19.951269
#
# number of rings (size 3 to 8) (size 9 to 14) (size 15 to 20)
#    0.000    2.667    0.000    4.000    0.000    7.333 
#    0.000    2.500    0.000    1.000    0.000    5.833 
#    0.000    0.000    0.000    0.000    0.000    0.000 
#
# Total GULP energy -267708.901449 kJ/mol
# GULP energy per Si atom -5577.268780 kJ/mol
# Density = 1.990586 g / cm^3
# Si number density = 19.951269 Si / 1000 Ang^3
#
#
#
# Elastic Constant Matrix: (Units=GPa)
#
#
# Indices 1 2 3 4 5 6 
#
# 1 199.3241 119.2138 1.1981 0.0000 0.0000 0.0000
# 2 119.2138 153.4170 9.9372 0.0000 0.0000 0.0000
# 3 1.1981 9.9372 18.5382 0.0000 0.0000 0.0000
# 4 0.0000 0.0000 0.0000 26.0022 0.0000 0.0000
# 5 0.0000 0.0000 0.0000 0.0000 72.2246 0.0000
# 6 0.0000 0.0000 0.0000 0.0000 0.0000 -42.4603
#
#
#
# Elastic Compliance Matrix: (Units=1/GPa)
#
#
# Indices 1 2 3 4 5 6 
#
# 1 0.009587 -0.007676 0.003495 0.000000 0.000000 0.000000
# 2 -0.007676 0.012899 -0.006418 0.000000 0.000000 0.000000
# 3 0.003495 -0.006418 0.057157 0.000000 0.000000 0.000000
# 4 0.000000 0.000000 0.000000 0.038458 0.000000 0.000000
# 5 0.000000 0.000000 0.000000 0.000000 0.013846 0.000000
# 6 0.000000 0.000000 0.000000 0.000000 0.000000 -0.023551
#
#
# Mechanical properties :
#
#
# Convention : Reuss Voigt Hill
#
# Bulk Modulus (GPa) = 17.11020 70.21974 43.66497
# Shear Modulus (GPa) = 33.54026 27.21530 30.37778
#
# Velocity S-wave (km/s) = 4.10458 3.69736 3.90628
# Velocity P-wave (km/s) = 5.57298 7.31433 6.50221
#
# Compressibility (1/GPa) = 0.05844466
#
# Stress axis : x y z
#
# Youngs Moduli (GPa) = 104.30981 77.52834 17.49561
#
# Poissons Ratio (x) = 0.59510 -0.06115
# Poissons Ratio (y) = 0.80067 0.11229
# Poissons Ratio (z) = -0.36456 0.49758
#
# Static dielectric constant tensor:
#      x y z
#    x 1.710300 0.000000 0.000000 
#    y 0.000000 1.690730 0.000000 
#    z 0.000000 0.000000 1.728260 
# 
# From -- ./inp_files/2466.got.cif
#   From: 2010.05.17/outbox.cif.g08.bks.cpg/sg47_2_cif.got.tgz:2466.got - 2010.06.03 20:15:42.
