data_PCOD9387981
_publ_section_title
;
Structure prediction by ZEFSAII (Michael W. Deem and Ramdas Pophale) SiO2 
 PCOD9387981
Probable space group: P M M M
;
_chemical_formula_sum "Si O2"
_cell_formula_units_Z 17
_cell_length_a 7.819412
_cell_length_b 9.022795
_cell_length_c 14.018062
_cell_angle_alpha 90.000000
_cell_angle_beta 90.000000
_cell_angle_gamma 90.000000
_cell_volume 989.015648
_symmetry_space_group_name_H-M "P M M M"
_symmetry_group_IT_number 47
_symmetry_cell_setting 'orthorhombic'
loop_
_space_group_symop_operation_xyz
x,y,z
-x,-y,z
x,-y,-z
-x,y,-z
-x,-y,-z
x,y,-z
-x,y,z
x,-y,z
loop_
_atom_site_type_symbol
_atom_site_label
_atom_site_fract_x
_atom_site_fract_y
_atom_site_fract_z
Si Si1 0.695490 0.676472 0.801598
Si Si2 0.000000 0.836502 0.302617
Si Si3 0.206111 0.173613 0.000000
Si Si4 0.000000 0.000000 0.500000
O O1 0.500000 0.704539 0.771317
O O2 0.722266 0.500000 0.806964
O O3 0.832922 0.749821 0.731626
O O4 0.724578 0.747061 0.905613
O O5 0.000000 0.873587 0.414327
O O6 0.000000 0.000000 0.253334
O O7 0.000000 0.185814 0.000000
O O8 0.251958 0.000000 0.000000
#
# Coordination Sequence:
#
# PCOD9387981 Si02
#       4
#     8   4   4   1
#     4  11  23  38  60  91 127 164 199 240 293 354
#     4  10  21  42  64  88 113 151 202 249 306 357
#     4  11  22  35  56  91 128 167 206 239 281 343
#     4   8  24  44  68  90 112 146 198 260 322 354
#
# _framework density 17.188807000000001
#
# number of rings (size 3 to 8) (size 9 to 14) (size 15 to 20)
#    0.706    0.706    2.353    3.529    0.000    7.529 
#    0.000    4.706    0.000    2.824    0.000    0.000 
#    0.000    0.000    0.000    0.000    0.000    0.000 
#
# Total GULP energy -94642.462780 kJ/mol
# GULP energy per Si atom -5567.203693 kJ/mol
# Density = 1.714968 g / cm^3
# Si number density = 17.188807 Si / 1000 Ang^3
#
#
#
# Elastic Constant Matrix: (Units=GPa)
#
#
# Indices 1 2 3 4 5 6 
#
# 1 142.9879 98.5367 72.5036 0.0000 0.0000 0.0000
# 2 98.5367 133.3897 63.3106 0.0000 0.0000 0.0000
# 3 72.5036 63.3106 146.0569 0.0000 0.0000 0.0000
# 4 0.0000 0.0000 0.0000 -7.9977 0.0000 0.0000
# 5 0.0000 0.0000 0.0000 0.0000 -2.6216 0.0000
# 6 0.0000 0.0000 0.0000 0.0000 0.0000 -127.0533
#
#
#
# Elastic Compliance Matrix: (Units=1/GPa)
#
#
# Indices 1 2 3 4 5 6 
#
# 1 0.015507 -0.009822 -0.003440 0.000000 0.000000 0.000000
# 2 -0.009822 0.015660 -0.001912 0.000000 0.000000 0.000000
# 3 -0.003440 -0.001912 0.009383 0.000000 0.000000 0.000000
# 4 0.000000 0.000000 0.000000 -0.125035 0.000000 0.000000
# 5 0.000000 0.000000 0.000000 0.000000 -0.381445 0.000000
# 6 0.000000 0.000000 0.000000 0.000000 0.000000 -0.007871
#
#
# Mechanical properties :
#
#
# Convention : Reuss Voigt Hill
#
# Bulk Modulus (GPa) = 98.02997 99.01513 98.52255
# Shear Modulus (GPa) = -11.36231 -14.99562 -13.17897
#
# Velocity S-wave (km/s) = -2.57384 -2.95686 -2.77197
# Velocity P-wave (km/s) = 6.95142 6.78765 6.87002
#
# Compressibility (1/GPa) = 0.01020096
#
# Stress axis : x y z
#
# Youngs Moduli (GPa) = 64.48844 63.85570 106.57300
#
# Poissons Ratio (x) = 0.62721 0.36661
# Poissons Ratio (y) = 0.63342 0.20381
# Poissons Ratio (z) = 0.22184 0.12212
#
# Static dielectric constant tensor:
#      x y z
#    x 1.593900 0.000000 0.000000 
#    y 0.000000 1.583130 0.000000 
#    z 0.000000 0.000000 1.539120 
# 
# From -- ./inp_files/20178.got.cif
#   From: 2010.05.17/outbox.cif.g08.bks.cpg/sg47_11_cif.got.tgz:20178.got - 2010.06.03 20:15:42.
