data_PCOD9387575
_publ_section_title
;
Structure prediction by ZEFSAII (Michael W. Deem and Ramdas Pophale) SiO2 
 PCOD9387575
Probable space group: P M M M
;
_chemical_formula_sum "Si O2"
_cell_formula_units_Z 40
_cell_length_a 9.190932
_cell_length_b 30.588341
_cell_length_c 7.660233
_cell_angle_alpha 90.000000
_cell_angle_beta 90.000000
_cell_angle_gamma 90.000000
_cell_volume 2153.562378
_symmetry_space_group_name_H-M "P M M M"
_symmetry_group_IT_number 47
_symmetry_cell_setting 'orthorhombic'
loop_
_space_group_symop_operation_xyz
x,y,z
-x,-y,z
x,-y,-z
-x,y,-z
-x,-y,-z
x,y,-z
-x,y,z
x,-y,z
loop_
_atom_site_type_symbol
_atom_site_label
_atom_site_fract_x
_atom_site_fract_y
_atom_site_fract_z
Si Si1 0.174562 0.824048 0.794629
Si Si2 0.176977 0.343339 0.500000
Si Si3 0.666920 0.500000 0.787490
Si Si4 0.163488 0.000000 0.707409
Si Si5 0.174774 0.410946 0.795424
Si Si6 0.176940 0.243759 0.500000
Si Si7 0.664192 0.911942 0.791142
O O1 0.218839 0.783937 0.671171
O O2 0.251340 0.868577 0.732235
O O3 0.000000 0.829740 0.780446
O O4 0.207325 0.816468 0.000000
O O5 0.219046 0.371092 0.670850
O O6 0.230145 0.293547 0.500000
O O7 0.000000 0.341719 0.500000
O O8 0.500000 0.500000 0.729176
O O9 0.749366 0.544208 0.735978
O O10 0.668036 0.500000 0.000000
O O11 0.249309 0.956306 0.756444
O O12 0.152554 0.000000 0.500000
O O13 0.000000 0.000000 0.782031
O O14 0.000000 0.416358 0.782790
O O15 0.209325 0.403165 0.000000
O O16 0.000000 0.245384 0.500000
O O17 0.500000 0.914206 0.721078
O O18 0.655490 0.907934 0.000000
#
# Coordination Sequence:
#
# PCOD9387575 Si02
#       7
#     8   4   4   4   8   4   8
#     4   9  18  33  54  78 103 134 171 212 258 305
#     4   9  18  31  48  75 103 129 166 212 259 303
#     4   9  17  30  49  72  99 133 170 207 249 296
#     4  11  24  37  52  78 110 141 172 207 250 304
#     4   9  17  30  49  72 100 133 168 207 251 300
#     4   9  18  32  52  77 104 130 166 216 260 305
#     4  10  21  37  56  78 105 136 171 212 256 305
#
# _framework density 18.573874
#
# number of rings (size 3 to 8) (size 9 to 14) (size 15 to 20)
#    0.000    2.600    0.000    1.500    1.400    5.600 
#    0.000    6.500    0.000    2.400    0.000    5.600 
#    0.000    0.000    0.000    0.000    0.000    0.000 
#
# Total GULP energy -223128.892026 kJ/mol
# GULP energy per Si atom -5578.222301 kJ/mol
# Density = 1.853160 g / cm^3
# Si number density = 18.573874 Si / 1000 Ang^3
#
#
#
# Elastic Constant Matrix: (Units=GPa)
#
#
# Indices 1 2 3 4 5 6 
#
# 1 59.1192 65.7675 36.9482 0.0000 0.0000 0.0000
# 2 65.7675 220.1887 76.8687 0.0000 0.0000 0.0000
# 3 36.9482 76.8687 82.1646 0.0000 0.0000 0.0000
# 4 0.0000 0.0000 0.0000 33.1644 0.0000 0.0000
# 5 0.0000 0.0000 0.0000 0.0000 7.3309 0.0000
# 6 0.0000 0.0000 0.0000 0.0000 0.0000 -3.8725
#
#
#
# Elastic Compliance Matrix: (Units=1/GPa)
#
#
# Indices 1 2 3 4 5 6 
#
# 1 0.027825 -0.005855 -0.007035 0.000000 0.000000 0.000000
# 2 -0.005855 0.007976 -0.004829 0.000000 0.000000 0.000000
# 3 -0.007035 -0.004829 0.019852 0.000000 0.000000 0.000000
# 4 0.000000 0.000000 0.000000 0.030153 0.000000 0.000000
# 5 0.000000 0.000000 0.000000 0.000000 0.136409 0.000000
# 6 0.000000 0.000000 0.000000 0.000000 0.000000 -0.258233
#
#
# Mechanical properties :
#
#
# Convention : Reuss Voigt Hill
#
# Bulk Modulus (GPa) = 49.46773 80.07126 64.76950
# Shear Modulus (GPa) = 811.78985 19.45044 415.62015
#
# Velocity S-wave (km/s) = 20.92866 3.23955 14.97504
# Velocity P-wave (km/s) = 24.71240 7.56281 18.27428
#
# Compressibility (1/GPa) = 0.02021520
#
# Stress axis : x y z
#
# Youngs Moduli (GPa) = 35.93870 125.37123 50.37241
#
# Poissons Ratio (x) = 0.73406 0.35436
# Poissons Ratio (y) = 0.21043 0.24326
# Poissons Ratio (z) = 0.25282 0.60545
#
# Static dielectric constant tensor:
#      x y z
#    x 1.637120 0.000000 0.000000 
#    y 0.000000 1.618810 0.000000 
#    z 0.000000 0.000000 1.665190 
# 
# From -- ./inp_files/1923.got.cif
#   From: 2010.05.17/outbox.cif.g08.bks.cpg/sg47_1_cif.got.tgz:1923.got - 2010.06.03 20:15:42.
