data_PCOD9387374
_publ_section_title
;
Structure prediction by ZEFSAII (Michael W. Deem and Ramdas Pophale) SiO2 
 PCOD9387374
Probable space group: P M M M
;
_chemical_formula_sum "Si O2"
_cell_formula_units_Z 40
_cell_length_a 8.676884
_cell_length_b 13.041741
_cell_length_c 18.775412
_cell_angle_alpha 90.000000
_cell_angle_beta 90.000000
_cell_angle_gamma 90.000000
_cell_volume 2124.657048
_symmetry_space_group_name_H-M "P M M M"
_symmetry_group_IT_number 47
_symmetry_cell_setting 'orthorhombic'
loop_
_space_group_symop_operation_xyz
x,y,z
-x,-y,z
x,-y,-z
-x,y,-z
-x,-y,-z
x,y,-z
-x,y,z
x,-y,z
loop_
_atom_site_type_symbol
_atom_site_label
_atom_site_fract_x
_atom_site_fract_y
_atom_site_fract_z
Si Si1 0.814132 0.686897 0.919413
Si Si2 0.814458 0.882631 0.687766
Si Si3 0.683609 0.500000 0.658829
Si Si4 0.315646 0.882923 0.844718
Si Si5 0.813494 0.701289 0.417553
Si Si6 0.186967 0.500000 0.181726
O O1 0.753254 0.797417 0.896016
O O2 0.765194 0.600254 0.863111
O O3 0.000000 0.688671 0.918201
O O4 0.765599 0.661422 0.000000
O O5 0.739838 0.860393 0.764253
O O6 0.767805 0.800430 0.628672
O O7 0.000000 0.876723 0.695970
O O8 0.775571 0.000000 0.668065
O O9 0.500000 0.500000 0.659106
O O10 0.745329 0.399757 0.618392
O O11 0.745512 0.500000 0.739504
O O12 0.500000 0.879069 0.847487
O O13 0.266378 0.000000 0.861493
O O14 0.767159 0.709732 0.500000
O O15 0.000000 0.694351 0.415333
O O16 0.000000 0.500000 0.186710
#
# Coordination Sequence:
#
# PCOD9387374 Si02
#       6
#     8   8   4   8   8   4
#     4  10  21  37  58  83 109 138 175 220 269 321
#     4   9  18  34  57  83 109 139 178 223 268 316
#     4  12  25  38  55  80 109 142 183 226 264 310
#     4  10  21  36  54  78 110 147 184 221 262 311
#     4  10  21  37  57  81 110 143 178 219 270 324
#     4  10  21  39  61  82 107 139 175 218 270 324
#
# _framework density 18.826568999999999
#
# number of rings (size 3 to 8) (size 9 to 14) (size 15 to 20)
#    0.000    2.000    0.000    3.300    0.000   11.600 
#    0.000    4.000    0.000    1.800    0.000    4.200 
#    0.000    0.000    0.000    0.000    0.000    0.000 
#
# Total GULP energy -223455.983926 kJ/mol
# GULP energy per Si atom -5586.399598 kJ/mol
# Density = 1.878372 g / cm^3
# Si number density = 18.826569 Si / 1000 Ang^3
#
#
#
# Elastic Constant Matrix: (Units=GPa)
#
#
# Indices 1 2 3 4 5 6 
#
# 1 5.3079 5.7064 2.2616 0.0000 0.0000 0.0000
# 2 5.7064 50.9614 -1.4424 0.0000 0.0000 0.0000
# 3 2.2616 -1.4424 22.8092 0.0000 0.0000 0.0000
# 4 0.0000 0.0000 0.0000 60.1932 0.0000 0.0000
# 5 0.0000 0.0000 0.0000 0.0000 -28.5299 0.0000
# 6 0.0000 0.0000 0.0000 0.0000 0.0000 10.2614
#
#
#
# Elastic Compliance Matrix: (Units=1/GPa)
#
#
# Indices 1 2 3 4 5 6 
#
# 1 0.226701 -0.026067 -0.024127 0.000000 0.000000 0.000000
# 2 -0.026067 0.022655 0.004017 0.000000 0.000000 0.000000
# 3 -0.024127 0.004017 0.046488 0.000000 0.000000 0.000000
# 4 0.000000 0.000000 0.000000 0.016613 0.000000 0.000000
# 5 0.000000 0.000000 0.000000 0.000000 -0.035051 0.000000
# 6 0.000000 0.000000 0.000000 0.000000 0.000000 0.097452
#
#
# Mechanical properties :
#
#
# Convention : Reuss Voigt Hill
#
# Bulk Modulus (GPa) = 4.91423 10.23662 7.57542
# Shear Modulus (GPa) = 9.34506 13.22180 11.28343
#
# Velocity S-wave (km/s) = 2.23037 2.65296 2.45079
# Velocity P-wave (km/s) = 3.04116 3.85141 3.47002
#
# Compressibility (1/GPa) = 0.20349087
#
# Stress axis : x y z
#
# Youngs Moduli (GPa) = 4.41111 44.13982 21.51078
#
# Poissons Ratio (x) = 1.15061 0.51898
# Poissons Ratio (y) = 0.11499 -0.08642
# Poissons Ratio (z) = 0.10642 -0.17733
#
# Static dielectric constant tensor:
#      x y z
#    x 1.638680 0.000000 0.000000 
#    y 0.000000 1.640810 0.000000 
#    z 0.000000 0.000000 1.622420 
# 
# From -- ./inp_files/20719.got.cif
#   From: 2010.05.17/outbox.cif.g08.bks.cpg/sg47_11_cif.got.tgz:20719.got - 2010.06.03 20:15:42.
