data_PCOD9387425
_publ_section_title
;
Structure prediction by ZEFSAII (Michael W. Deem and Ramdas Pophale) SiO2 
 PCOD9387425
Probable space group: P M M M
;
_chemical_formula_sum "Si O2"
_cell_formula_units_Z 48
_cell_length_a 31.834235
_cell_length_b 9.642555
_cell_length_c 8.965757
_cell_angle_alpha 90.000000
_cell_angle_beta 90.000000
_cell_angle_gamma 90.000000
_cell_volume 2752.158910
_symmetry_space_group_name_H-M "P M M M"
_symmetry_group_IT_number 47
_symmetry_cell_setting 'orthorhombic'
loop_
_space_group_symop_operation_xyz
x,y,z
-x,-y,z
x,-y,-z
-x,y,-z
-x,-y,-z
x,y,-z
-x,y,z
x,-y,z
loop_
_atom_site_type_symbol
_atom_site_label
_atom_site_fract_x
_atom_site_fract_y
_atom_site_fract_z
Si Si1 0.833905 0.837435 0.179307
Si Si2 0.335546 0.336238 0.675989
Si Si3 0.574989 0.663083 0.821675
Si Si4 0.738835 0.834744 0.822121
Si Si5 0.000000 0.668650 0.325964
Si Si6 0.500000 0.163207 0.678842
Si Si7 0.091697 0.337433 0.319617
O O1 0.786431 0.794843 0.222724
O O2 0.870215 0.749070 0.254180
O O3 0.838735 0.000000 0.216580
O O4 0.836491 0.825151 0.000000
O O5 0.341619 0.313034 0.500000
O O6 0.327308 0.500000 0.699382
O O7 0.378582 0.302326 0.762101
O O8 0.296768 0.248294 0.736576
O O9 0.566989 0.500000 0.786070
O O10 0.540516 0.759528 0.745436
O O11 0.573190 0.678002 0.000000
O O12 0.734608 0.000000 0.797835
O O13 0.734751 0.810767 0.000000
O O14 0.045406 0.711242 0.263814
O O15 0.000000 0.500000 0.323736
O O16 0.000000 0.710066 0.500000
O O17 0.500000 0.175593 0.500000
O O18 0.500000 0.000000 0.717304
O O19 0.091577 0.328087 0.500000
O O20 0.096336 0.500000 0.281462
#
# Coordination Sequence:
#
# PCOD9387425 Si02
#       7
#     8   8   8   8   4   4   8
#     4   9  19  35  51  69  98 134 169 205 248 300
#     4  10  21  36  55  81 110 137 168 210 258 305
#     4  10  21  38  60  83 107 140 180 216 255 306
#     4   9  19  36  55  73  97 134 175 210 249 300
#     4   7  12  26  46  67  94 126 158 197 246 297
#     4  11  24  39  56  82 114 145 178 217 260 304
#     4   9  17  30  50  74  97 124 162 206 250 298
#
# _framework density 17.440853000000001
#
# number of rings (size 3 to 8) (size 9 to 14) (size 15 to 20)
#    0.000    2.667    0.000    3.500    0.000    6.667 
#    0.000    5.833    0.000    4.000    0.000    0.000 
#    0.000    0.000    0.000    0.000    0.000    0.000 
#
# Total GULP energy -267670.230491 kJ/mol
# GULP energy per Si atom -5576.463135 kJ/mol
# Density = 1.740116 g / cm^3
# Si number density = 17.440853 Si / 1000 Ang^3
#
#
#
# Elastic Constant Matrix: (Units=GPa)
#
#
# Indices 1 2 3 4 5 6 
#
# 1 184.2561 93.3990 62.5510 0.0000 0.0000 0.0000
# 2 93.3990 68.0503 45.8124 0.0000 0.0000 0.0000
# 3 62.5510 45.8124 42.5302 0.0000 0.0000 0.0000
# 4 0.0000 0.0000 0.0000 30.4737 0.0000 0.0000
# 5 0.0000 0.0000 0.0000 0.0000 36.7114 0.0000
# 6 0.0000 0.0000 0.0000 0.0000 0.0000 129.1683
#
#
#
# Elastic Compliance Matrix: (Units=1/GPa)
#
#
# Indices 1 2 3 4 5 6 
#
# 1 0.017839 -0.024819 0.000498 0.000000 0.000000 0.000000
# 2 -0.024819 0.088000 -0.058288 0.000000 0.000000 0.000000
# 3 0.000498 -0.058288 0.085567 0.000000 0.000000 0.000000
# 4 0.000000 0.000000 0.000000 0.032815 0.000000 0.000000
# 5 0.000000 0.000000 0.000000 0.000000 0.027239 0.000000
# 6 0.000000 0.000000 0.000000 0.000000 0.000000 0.007742
#
#
# Mechanical properties :
#
#
# Convention : Reuss Voigt Hill
#
# Bulk Modulus (GPa) = 38.18743 77.59570 57.89157
# Shear Modulus (GPa) = 11.54335 45.47564 28.50949
#
# Velocity S-wave (km/s) = 2.57545 5.11183 4.04745
# Velocity P-wave (km/s) = 5.54859 8.91226 7.42345
#
# Compressibility (1/GPa) = 0.02618663
#
# Stress axis : x y z
#
# Youngs Moduli (GPa) = 56.05697 11.36365 11.68680
#
# Poissons Ratio (x) = 0.28204 -0.00582
# Poissons Ratio (y) = 1.39130 0.68120
# Poissons Ratio (z) = -0.02792 0.66237
#
# Static dielectric constant tensor:
#      x y z
#    x 1.589170 0.000000 0.000000 
#    y 0.000000 1.572530 0.000000 
#    z 0.000000 0.000000 1.583520 
# 
# From -- ./inp_files/2746.got.cif
#   From: 2010.05.17/outbox.cif.g08.bks.cpg/sg47_2_cif.got.tgz:2746.got - 2010.06.03 20:15:42.
