data_PCOD9387926
_publ_section_title
;
Structure prediction by ZEFSAII (Michael W. Deem and Ramdas Pophale) SiO2 
 PCOD9387926
Probable space group: P M M M
;
_chemical_formula_sum "Si O2"
_cell_formula_units_Z 44
_cell_length_a 7.857067
_cell_length_b 7.680602
_cell_length_c 35.428100
_cell_angle_alpha 90.000000
_cell_angle_beta 90.000000
_cell_angle_gamma 90.000000
_cell_volume 2137.979711
_symmetry_space_group_name_H-M "P M M M"
_symmetry_group_IT_number 47
_symmetry_cell_setting 'orthorhombic'
loop_
_space_group_symop_operation_xyz
x,y,z
-x,-y,z
x,-y,-z
-x,y,-z
-x,-y,-z
x,y,-z
-x,y,z
x,-y,z
loop_
_atom_site_type_symbol
_atom_site_label
_atom_site_fract_x
_atom_site_fract_y
_atom_site_fract_z
Si Si1 0.200877 0.788281 0.540517
Si Si2 0.815215 0.208735 0.095140
Si Si3 0.791430 0.201132 0.622986
Si Si4 0.791723 0.500000 0.679707
Si Si5 0.500000 0.294276 0.957819
Si Si6 0.297776 0.199933 0.177158
Si Si7 0.796429 0.500000 0.234207
O O1 0.274081 0.730342 0.500000
O O2 0.268323 0.735058 0.581477
O O3 0.000000 0.742188 0.539964
O O4 0.209092 0.000000 0.540960
O O5 0.665488 0.249071 0.066475
O O6 0.780338 0.268874 0.137922
O O7 0.000000 0.271779 0.082236
O O8 0.818963 0.000000 0.098101
O O9 0.738497 0.330190 0.656056
O O10 0.000000 0.201865 0.621720
O O11 0.740030 0.000000 0.628628
O O12 0.732471 0.500000 0.722798
O O13 0.000000 0.500000 0.680182
O O14 0.500000 0.500000 0.961550
O O15 0.500000 0.216609 0.000000
O O16 0.500000 0.194766 0.171130
O O17 0.259240 0.329577 0.211128
O O18 0.239853 0.000000 0.184145
O O19 0.000000 0.500000 0.235326
#
# Coordination Sequence:
#
# PCOD9387926 Si02
#       7
#     8   8   8   4   4   8   4
#     4   7   9  14  26  44  64  91 138 199 254 300
#     4  10  21  39  64  91 119 156 202 250 298 349
#     4   8  13  22  35  48  70 111 155 200 256 309
#     4   9  18  29  38  57  88 121 165 207 249 322
#     4  11  25  41  59  89 129 171 209 247 293 347
#     4  10  21  39  62  87 114 145 188 240 294 354
#     4  11  23  35  53  82 113 147 181 227 290 346
#
# _framework density 20.580175000000001
#
# number of rings (size 3 to 8) (size 9 to 14) (size 15 to 20)
#    0.000    2.818    0.909    2.727    1.273    3.273 
#    0.000    4.091    0.000    2.727    0.000    0.000 
#    0.000    0.000    0.000    0.000    0.000    7.273 
#
# Total GULP energy -245421.127646 kJ/mol
# GULP energy per Si atom -5577.752901 kJ/mol
# Density = 2.053333 g / cm^3
# Si number density = 20.580175 Si / 1000 Ang^3
#
#
#
# Elastic Constant Matrix: (Units=GPa)
#
#
# Indices 1 2 3 4 5 6 
#
# 1 73.9594 17.4441 51.0411 0.0000 0.0000 0.0000
# 2 17.4441 84.9378 70.3863 0.0000 0.0000 0.0000
# 3 51.0411 70.3863 217.4680 0.0000 0.0000 0.0000
# 4 0.0000 0.0000 0.0000 49.4096 0.0000 0.0000
# 5 0.0000 0.0000 0.0000 0.0000 16.2587 0.0000
# 6 0.0000 0.0000 0.0000 0.0000 0.0000 5.8975
#
#
#
# Elastic Compliance Matrix: (Units=1/GPa)
#
#
# Indices 1 2 3 4 5 6 
#
# 1 0.016138 -0.000240 -0.003710 0.000000 0.000000 0.000000
# 2 -0.000240 0.016092 -0.005152 0.000000 0.000000 0.000000
# 3 -0.003710 -0.005152 0.007137 0.000000 0.000000 0.000000
# 4 0.000000 0.000000 0.000000 0.020239 0.000000 0.000000
# 5 0.000000 0.000000 0.000000 0.000000 0.061506 0.000000
# 6 0.000000 0.000000 0.000000 0.000000 0.000000 0.169564
#
#
# Mechanical properties :
#
#
# Convention : Reuss Voigt Hill
#
# Bulk Modulus (GPa) = 47.25321 72.67869 59.96595
# Shear Modulus (GPa) = 15.82614 30.14607 22.98610
#
# Velocity S-wave (km/s) = 2.77609 3.83144 3.34564
# Velocity P-wave (km/s) = 5.76940 7.41382 6.64269
#
# Compressibility (1/GPa) = 0.02116258
#
# Stress axis : x y z
#
# Youngs Moduli (GPa) = 61.96603 62.14258 140.12118
#
# Poissons Ratio (x) = 0.01491 0.51985
# Poissons Ratio (y) = 0.01487 0.72192
# Poissons Ratio (z) = 0.22989 0.32016
#
# Static dielectric constant tensor:
#      x y z
#    x 1.776850 0.000000 0.000000 
#    y 0.000000 1.734680 0.000000 
#    z 0.000000 0.000000 1.743260 
# 
# From -- ./inp_files/33988.got.cif
#   From: 2010.05.17/outbox.cif.g08.bks.cpg/sg47_17_cif.got.tgz:33988.got - 2010.06.03 20:15:42.
