data_PCOD9387053
_publ_section_title
;
Structure prediction by ZEFSAII (Michael W. Deem and Ramdas Pophale) SiO2 
 PCOD9387053
Probable space group: P M M M
;
_chemical_formula_sum "Si O2"
_cell_formula_units_Z 64
_cell_length_a 24.764939
_cell_length_b 9.058453
_cell_length_c 14.757822
_cell_angle_alpha 90.000000
_cell_angle_beta 90.000000
_cell_angle_gamma 90.000000
_cell_volume 3310.652256
_symmetry_space_group_name_H-M "P M M M"
_symmetry_group_IT_number 47
_symmetry_cell_setting 'orthorhombic'
loop_
_space_group_symop_operation_xyz
x,y,z
-x,-y,z
x,-y,-z
-x,y,-z
-x,-y,-z
x,y,-z
-x,y,z
x,-y,z
loop_
_atom_site_type_symbol
_atom_site_label
_atom_site_fract_x
_atom_site_fract_y
_atom_site_fract_z
Si Si1 0.714517 0.323674 0.891379
Si Si2 0.939979 0.324654 0.857646
Si Si3 0.156960 0.661109 0.606200
Si Si4 0.435365 0.324506 0.602504
Si Si5 0.257838 0.832162 0.606007
Si Si6 0.057701 0.170442 0.667319
Si Si7 0.173858 0.165436 0.106909
Si Si8 0.357612 0.171565 0.741736
O O1 0.716280 0.500000 0.878527
O O2 0.772729 0.253969 0.862797
O O3 0.667224 0.253267 0.829698
O O4 0.706731 0.296177 0.000000
O O5 0.934823 0.500000 0.871285
O O6 0.943428 0.277885 0.753135
O O7 0.884274 0.245561 0.885660
O O8 0.000000 0.280824 0.895437
O O9 0.166826 0.645854 0.500000
O O10 0.142631 0.500000 0.644131
O O11 0.212283 0.724149 0.644183
O O12 0.109533 0.778040 0.614545
O O13 0.418489 0.273974 0.500000
O O14 0.500000 0.305452 0.607345
O O15 0.423848 0.500000 0.607104
O O16 0.406848 0.245740 0.687077
O O17 0.269766 0.800137 0.500000
O O18 0.310219 0.823395 0.666803
O O19 0.236603 0.000000 0.609300
O O20 0.000000 0.185681 0.618522
O O21 0.062103 0.000000 0.696495
O O22 0.171690 0.000000 0.147979
O O23 0.182205 0.150068 0.000000
O O24 0.368816 0.000000 0.763252
#
# Coordination Sequence:
#
# PCOD9387053 Si02
#       8
#     8   8   8   8   8   8   8   8
#     4  10  22  40  60  83 114 154 201 251 300 351
#     4  10  21  36  54  76 102 133 171 219 275 338
#     4  10  21  35  51  72  98 130 169 216 269 324
#     4   9  19  37  61  91 130 173 212 249 288 335
#     4   9  19  35  52  75 111 149 184 224 273 336
#     4  10  21  36  53  71  93 125 166 214 268 327
#     4  10  21  37  57  80 107 139 176 223 282 346
#     4  11  22  35  58  90 121 158 199 243 297 350
#
# _framework density 19.331537000000001
#
# number of rings (size 3 to 8) (size 9 to 14) (size 15 to 20)
#    0.000    2.125    0.000    3.000    1.750    6.250 
#    0.000    4.375    0.000    0.375    0.000    2.625 
#    0.000    0.000    0.000    0.000    0.000    0.000 
#
# Total GULP energy -356683.301346 kJ/mol
# GULP energy per Si atom -5573.176584 kJ/mol
# Density = 1.928754 g / cm^3
# Si number density = 19.331537 Si / 1000 Ang^3
#
#
#
# Elastic Constant Matrix: (Units=GPa)
#
#
# Indices 1 2 3 4 5 6 
#
# 1 81.4220 51.3159 34.9085 0.0000 0.0000 0.0000
# 2 51.3159 96.1788 40.6334 0.0000 0.0000 0.0000
# 3 34.9085 40.6334 78.4510 0.0000 0.0000 0.0000
# 4 0.0000 0.0000 0.0000 25.5904 0.0000 0.0000
# 5 0.0000 0.0000 0.0000 0.0000 30.8323 0.0000
# 6 0.0000 0.0000 0.0000 0.0000 0.0000 31.3258
#
#
#
# Elastic Compliance Matrix: (Units=1/GPa)
#
#
# Indices 1 2 3 4 5 6 
#
# 1 0.019536 -0.008642 -0.004217 0.000000 0.000000 0.000000
# 2 -0.008642 0.017133 -0.005028 0.000000 0.000000 0.000000
# 3 -0.004217 -0.005028 0.017228 0.000000 0.000000 0.000000
# 4 0.000000 0.000000 0.000000 0.039077 0.000000 0.000000
# 5 0.000000 0.000000 0.000000 0.000000 0.032434 0.000000
# 6 0.000000 0.000000 0.000000 0.000000 0.000000 0.031923
#
#
# Mechanical properties :
#
#
# Convention : Reuss Voigt Hill
#
# Bulk Modulus (GPa) = 55.18183 56.64084 55.91134
# Shear Modulus (GPa) = 25.10737 26.16263 25.63500
#
# Velocity S-wave (km/s) = 3.60777 3.68280 3.64548
# Velocity P-wave (km/s) = 6.77950 6.88820 6.83407
#
# Compressibility (1/GPa) = 0.01812191
#
# Stress axis : x y z
#
# Youngs Moduli (GPa) = 51.18705 58.36855 58.04610
#
# Poissons Ratio (x) = 0.50441 0.24478
# Poissons Ratio (y) = 0.44235 0.29188
# Poissons Ratio (z) = 0.21586 0.29350
#
# Static dielectric constant tensor:
#      x y z
#    x 1.682010 0.000000 0.000000 
#    y 0.000000 1.710180 0.000000 
#    z 0.000000 0.000000 1.702110 
# 
# From -- ./inp_files/12705.got.cif
#   From: 2010.05.17/outbox.cif.g08.bks.cpg/sg47_7_cif.got.tgz:12705.got - 2010.06.03 20:15:42.
