data_PCOD9387578
_publ_section_title
;
Structure prediction by ZEFSAII (Michael W. Deem and Ramdas Pophale) SiO2 
 PCOD9387578
Probable space group: P M M M
;
_chemical_formula_sum "Si O2"
_cell_formula_units_Z 44
_cell_length_a 17.729503
_cell_length_b 15.792264
_cell_length_c 8.755746
_cell_angle_alpha 90.000000
_cell_angle_beta 90.000000
_cell_angle_gamma 90.000000
_cell_volume 2451.512496
_symmetry_space_group_name_H-M "P M M M"
_symmetry_group_IT_number 47
_symmetry_cell_setting 'orthorhombic'
loop_
_space_group_symop_operation_xyz
x,y,z
-x,-y,z
x,-y,-z
-x,y,-z
-x,-y,-z
x,y,-z
-x,y,z
x,-y,z
loop_
_atom_site_type_symbol
_atom_site_label
_atom_site_fract_x
_atom_site_fract_y
_atom_site_fract_z
Si Si1 0.884763 0.093408 0.681637
Si Si2 0.281631 0.091006 0.817964
Si Si3 0.415463 0.597169 0.683782
Si Si4 0.296502 0.274889 0.182088
Si Si5 0.000000 0.598956 0.316611
Si Si6 0.881049 0.272489 0.817111
O O1 0.895883 0.099796 0.500000
O O2 0.796033 0.090727 0.724314
O O3 0.910400 0.180833 0.758809
O O4 0.914037 0.000000 0.730823
O O5 0.322106 0.178625 0.780685
O O6 0.319952 0.000000 0.792808
O O7 0.262194 0.095809 0.000000
O O8 0.415312 0.597689 0.500000
O O9 0.500000 0.623010 0.734340
O O10 0.403387 0.500000 0.733467
O O11 0.350095 0.657500 0.741419
O O12 0.207788 0.280870 0.224361
O O13 0.300523 0.286000 0.000000
O O14 0.071478 0.651166 0.253730
O O15 0.000000 0.500000 0.269973
O O16 0.000000 0.602119 0.500000
O O17 0.887114 0.274030 0.000000
#
# Coordination Sequence:
#
# PCOD9387578 Si02
#       6
#     8   8   8   8   4   8
#     4   9  16  27  47  76 107 136 168 209 254 299
#     4   8  14  26  44  68 101 137 169 202 244 297
#     4   9  19  35  52  71  98 132 167 205 255 310
#     4   9  18  31  51  80 105 129 166 208 248 293
#     4  11  25  43  60  77 100 133 173 218 266 309
#     4  10  21  37  56  78 106 139 174 212 254 305
#
# _framework density 17.948103
#
# number of rings (size 3 to 8) (size 9 to 14) (size 15 to 20)
#    0.000    2.818    0.000    3.000    0.000    6.909 
#    0.000    5.000    0.000    3.273    0.000    3.818 
#    0.000    0.000    0.000    0.000    0.000    0.000 
#
# Total GULP energy -245071.696123 kJ/mol
# GULP energy per Si atom -5569.811276 kJ/mol
# Density = 1.790725 g / cm^3
# Si number density = 17.948103 Si / 1000 Ang^3
#
#
#
# Elastic Constant Matrix: (Units=GPa)
#
#
# Indices 1 2 3 4 5 6 
#
# 1 86.0406 81.2675 30.6370 0.0000 0.0000 0.0000
# 2 81.2675 186.5477 51.8733 0.0000 0.0000 0.0000
# 3 30.6370 51.8733 33.0580 0.0000 0.0000 0.0000
# 4 0.0000 0.0000 0.0000 31.6018 0.0000 0.0000
# 5 0.0000 0.0000 0.0000 0.0000 26.7608 0.0000
# 6 0.0000 0.0000 0.0000 0.0000 0.0000 9222.6388
#
#
#
# Elastic Compliance Matrix: (Units=1/GPa)
#
#
# Indices 1 2 3 4 5 6 
#
# 1 0.021200 -0.006692 -0.009146 0.000000 0.000000 0.000000
# 2 -0.006692 0.011623 -0.012036 0.000000 0.000000 0.000000
# 3 -0.009146 -0.012036 0.057612 0.000000 0.000000 0.000000
# 4 0.000000 0.000000 0.000000 0.031644 0.000000 0.000000
# 5 0.000000 0.000000 0.000000 0.000000 0.037368 0.000000
# 6 0.000000 0.000000 0.000000 0.000000 0.000000 0.000108
#
#
# Mechanical properties :
#
#
# Convention : Reuss Voigt Hill
#
# Bulk Modulus (GPa) = 28.82955 70.35576 49.59265
# Shear Modulus (GPa) = 22.03934 1865.65817 943.84876
#
# Velocity S-wave (km/s) = 3.50801 32.27585 22.95688
# Velocity P-wave (km/s) = 5.70138 37.79231 27.02558
#
# Compressibility (1/GPa) = 0.03468663
#
# Stress axis : x y z
#
# Youngs Moduli (GPa) = 47.16912 86.03778 17.35735
#
# Poissons Ratio (x) = 0.57580 0.15876
# Poissons Ratio (y) = 0.31567 0.20891
# Poissons Ratio (z) = 0.43142 1.03553
#
# Static dielectric constant tensor:
#      x y z
#    x 1.604760 0.000000 0.000000 
#    y 0.000000 1.647820 0.000000 
#    z 0.000000 0.000000 1.604700 
# 
# From -- ./inp_files/8959.got.cif
#   From: 2010.05.17/outbox.cif.g08.bks.cpg/sg47_5_cif.got.tgz:8959.got - 2010.06.03 20:15:42.
