data_PCOD9387674
_publ_section_title
;
Structure prediction by ZEFSAII (Michael W. Deem and Ramdas Pophale) SiO2 
 PCOD9387674
Probable space group: P M M M
;
_chemical_formula_sum "Si O2"
_cell_formula_units_Z 52
_cell_length_a 8.923130
_cell_length_b 11.215811
_cell_length_c 31.184252
_cell_angle_alpha 90.000000
_cell_angle_beta 90.000000
_cell_angle_gamma 90.000000
_cell_volume 3120.924294
_symmetry_space_group_name_H-M "P M M M"
_symmetry_group_IT_number 47
_symmetry_cell_setting 'orthorhombic'
loop_
_space_group_symop_operation_xyz
x,y,z
-x,-y,z
x,-y,-z
-x,y,-z
-x,-y,-z
x,y,-z
-x,y,z
x,-y,z
loop_
_atom_site_type_symbol
_atom_site_label
_atom_site_fract_x
_atom_site_fract_y
_atom_site_fract_z
Si Si1 0.820283 0.000000 0.449361
Si Si2 0.319638 0.764330 0.586880
Si Si3 0.829791 0.144138 0.913337
Si Si4 0.817417 0.859050 0.183719
Si Si5 0.328024 0.854621 0.000000
Si Si6 0.174547 0.359724 0.668322
Si Si7 0.318185 0.631255 0.500000
Si Si8 0.680450 0.360789 0.761858
O O1 0.751750 0.110345 0.424392
O O2 0.774880 0.000000 0.500000
O O3 0.000000 0.000000 0.448232
O O4 0.500000 0.769149 0.589498
O O5 0.253233 0.710759 0.630153
O O6 0.275230 0.690137 0.544579
O O7 0.769313 0.166645 0.865640
O O8 0.745565 0.187156 0.955634
O O9 0.000000 0.188256 0.914979
O O10 0.834370 0.000000 0.916186
O O11 0.750103 0.750797 0.211749
O O12 0.000000 0.854740 0.185470
O O13 0.777667 0.000000 0.193790
O O14 0.500000 0.821279 0.000000
O O15 0.318484 0.000000 0.000000
O O16 0.179633 0.500000 0.657460
O O17 0.259656 0.345637 0.713358
O O18 0.000000 0.325003 0.673023
O O19 0.256833 0.500000 0.500000
O O20 0.500000 0.629865 0.500000
O O21 0.500000 0.353223 0.763302
O O22 0.720738 0.500000 0.774689
#
# Coordination Sequence:
#
# PCOD9387674 Si02
#       8
#     4   8   8   8   4   8   4   8
#     4  11  23  39  57  77 109 145 177 211 251 298
#     4  11  21  36  58  81 108 138 174 213 252 301
#     4   8  14  25  41  62  93 133 172 211 259 314
#     4   9  18  33  53  78 107 139 177 222 271 321
#     4   9  15  21  33  59  94 131 172 215 258 306
#     4  10  21  38  59  82 108 137 170 212 262 310
#     4   9  18  31  51  80 108 133 162 201 250 299
#     4  10  21  37  57  81 108 140 179 221 266 321
#
# _framework density 16.661732000000001
#
# number of rings (size 3 to 8) (size 9 to 14) (size 15 to 20)
#    0.000    2.385    0.769    3.231    0.000    4.615 
#    1.385    1.538    0.000    1.846    0.000    0.538 
#    0.000    4.308    0.000    0.000    0.000    0.000 
#
# Total GULP energy -289500.974493 kJ/mol
# GULP energy per Si atom -5567.326433 kJ/mol
# Density = 1.662381 g / cm^3
# Si number density = 16.661732 Si / 1000 Ang^3
#
#
#
# Elastic Constant Matrix: (Units=GPa)
#
#
# Indices 1 2 3 4 5 6 
#
# 1 62.4140 46.9460 53.6251 0.0000 0.0000 0.0000
# 2 46.9460 112.5570 81.1485 0.0000 0.0000 0.0000
# 3 53.6251 81.1485 136.0325 0.0000 0.0000 0.0000
# 4 0.0000 0.0000 0.0000 30.3303 0.0000 0.0000
# 5 0.0000 0.0000 0.0000 0.0000 16.0052 0.0000
# 6 0.0000 0.0000 0.0000 0.0000 0.0000 287.5033
#
#
#
# Elastic Compliance Matrix: (Units=1/GPa)
#
#
# Indices 1 2 3 4 5 6 
#
# 1 0.026464 -0.006170 -0.006752 0.000000 0.000000 0.000000
# 2 -0.006170 0.017027 -0.007725 0.000000 0.000000 0.000000
# 3 -0.006752 -0.007725 0.014621 0.000000 0.000000 0.000000
# 4 0.000000 0.000000 0.000000 0.032970 0.000000 0.000000
# 5 0.000000 0.000000 0.000000 0.000000 0.062480 0.000000
# 6 0.000000 0.000000 0.000000 0.000000 0.000000 0.003478
#
#
# Mechanical properties :
#
#
# Convention : Reuss Voigt Hill
#
# Bulk Modulus (GPa) = 59.45802 74.93809 67.19806
# Shear Modulus (GPa) = 24.51693 75.38666 49.95179
#
# Velocity S-wave (km/s) = 3.84011 6.73377 5.48134
# Velocity P-wave (km/s) = 7.44478 10.27288 8.97097
#
# Compressibility (1/GPa) = 0.01681859
#
# Stress axis : x y z
#
# Youngs Moduli (GPa) = 37.78730 58.72899 68.39460
#
# Poissons Ratio (x) = 0.36237 0.46177
# Poissons Ratio (y) = 0.23315 0.52836
# Poissons Ratio (z) = 0.25512 0.45369
#
# Static dielectric constant tensor:
#      x y z
#    x 1.563850 0.000000 0.000000 
#    y 0.000000 1.520450 0.000000 
#    z 0.000000 0.000000 1.458930 
# 
# From -- ./inp_files/33282.got.cif
#   From: 2010.05.17/outbox.cif.g08.bks.cpg/sg47_17_cif.got.tgz:33282.got - 2010.06.03 20:15:42.
