data_PCOD9387129
_publ_section_title
;
Structure prediction by ZEFSAII (Michael W. Deem and Ramdas Pophale) SiO2 
 PCOD9387129
Probable space group: P M M M
;
_chemical_formula_sum "Si O2"
_cell_formula_units_Z 48
_cell_length_a 7.655805
_cell_length_b 20.733280
_cell_length_c 14.880923
_cell_angle_alpha 90.000000
_cell_angle_beta 90.000000
_cell_angle_gamma 90.000000
_cell_volume 2362.048144
_symmetry_space_group_name_H-M "P M M M"
_symmetry_group_IT_number 47
_symmetry_cell_setting 'orthorhombic'
loop_
_space_group_symop_operation_xyz
x,y,z
-x,-y,z
x,-y,-z
-x,y,-z
-x,-y,-z
x,y,-z
-x,y,z
x,-y,z
loop_
_atom_site_type_symbol
_atom_site_label
_atom_site_fract_x
_atom_site_fract_y
_atom_site_fract_z
Si Si1 0.201611 0.427505 0.198301
Si Si2 0.207484 0.177078 0.107751
Si Si3 0.695471 0.422789 0.000000
Si Si4 0.500000 0.925947 0.890824
Si Si5 0.296420 0.790719 0.602368
Si Si6 0.209982 0.931171 0.393305
Si Si7 0.798229 0.707873 0.765507
O O1 0.278570 0.500000 0.209423
O O2 0.209039 0.409294 0.092606
O O3 0.283240 0.363458 0.241253
O O4 0.000000 0.432910 0.227119
O O5 0.328358 0.116100 0.133203
O O6 0.270875 0.240324 0.162171
O O7 0.000000 0.166382 0.127506
O O8 0.223210 0.187203 0.000000
O O9 0.679575 0.500000 0.000000
O O10 0.500000 0.394678 0.000000
O O11 0.500000 0.000000 0.858352
O O12 0.500000 0.928927 0.000000
O O13 0.227197 0.789911 0.500000
O O14 0.500000 0.774657 0.599398
O O15 0.279463 0.863402 0.640328
O O16 0.206997 0.742247 0.669743
O O17 0.253645 0.932040 0.500000
O O18 0.000000 0.929322 0.386215
O O19 0.270898 0.000000 0.355260
O O20 0.000000 0.698163 0.792363
#
# Coordination Sequence:
#
# PCOD9387129 Si02
#       7
#     8   8   4   4   8   8   8
#     4   9  18  33  53  77 106 140 177 217 263 316
#     4   9  19  35  54  81 114 144 182 231 279 330
#     4   9  17  29  45  73 111 143 173 206 249 310
#     4   9  18  34  56  80 106 146 196 235 276 324
#     4  10  21  35  52  76 105 137 176 222 270 321
#     4   8  14  27  49  74  99 129 164 205 257 316
#     4  10  21  35  55  79 105 141 179 218 269 328
#
# _framework density 20.321348
#
# number of rings (size 3 to 8) (size 9 to 14) (size 15 to 20)
#    0.000    2.833    0.000    1.250    2.333    3.333 
#    0.000    4.167    0.000    1.500    0.000    3.500 
#    0.000    0.000    0.000    0.000    0.000    0.000 
#
# Total GULP energy -267394.665580 kJ/mol
# GULP energy per Si atom -5570.722200 kJ/mol
# Density = 2.027510 g / cm^3
# Si number density = 20.321348 Si / 1000 Ang^3
#
#
#
# Elastic Constant Matrix: (Units=GPa)
#
#
# Indices 1 2 3 4 5 6 
#
# 1 63.5501 33.0424 6.8337 0.0000 0.0000 0.0000
# 2 33.0424 195.7414 52.1578 0.0000 0.0000 0.0000
# 3 6.8337 52.1578 54.5094 0.0000 0.0000 0.0000
# 4 0.0000 0.0000 0.0000 -67.6375 0.0000 0.0000
# 5 0.0000 0.0000 0.0000 0.0000 -13.2799 0.0000
# 6 0.0000 0.0000 0.0000 0.0000 0.0000 156.1400
#
#
#
# Elastic Compliance Matrix: (Units=1/GPa)
#
#
# Indices 1 2 3 4 5 6 
#
# 1 0.017278 -0.003140 0.000838 0.000000 0.000000 0.000000
# 2 -0.003140 0.007428 -0.006714 0.000000 0.000000 0.000000
# 3 0.000838 -0.006714 0.024664 0.000000 0.000000 0.000000
# 4 0.000000 0.000000 0.000000 -0.014785 0.000000 0.000000
# 5 0.000000 0.000000 0.000000 0.000000 -0.075302 0.000000
# 6 0.000000 0.000000 0.000000 0.000000 0.000000 0.006405
#
#
# Mechanical properties :
#
#
# Convention : Reuss Voigt Hill
#
# Bulk Modulus (GPa) = 31.90837 55.31874 43.61355
# Shear Modulus (GPa) = -856.94676 29.82899 -413.55888
#
# Velocity S-wave (km/s) = -20.55756 3.83543 -14.28115
# Velocity P-wave (km/s) = 23.40402 6.84800 15.82487
#
# Compressibility (1/GPa) = 0.03133974
#
# Stress axis : x y z
#
# Youngs Moduli (GPa) = 57.87673 134.62953 40.54427
#
# Poissons Ratio (x) = 0.42275 -0.03400
# Poissons Ratio (y) = 0.18174 0.27220
# Poissons Ratio (z) = -0.04853 0.90386
#
# Static dielectric constant tensor:
#      x y z
#    x 1.761900 0.000000 0.000000 
#    y 0.000000 1.773330 0.000000 
#    z 0.000000 0.000000 1.727510 
# 
# From -- ./inp_files/21079.got.cif
#   From: 2010.05.17/outbox.cif.g08.bks.cpg/sg47_11_cif.got.tgz:21079.got - 2010.06.03 20:15:42.
