data_PCOD9387088
_publ_section_title
;
Structure prediction by ZEFSAII (Michael W. Deem and Ramdas Pophale) SiO2 
 PCOD9387088
Probable space group: P M M M
;
_chemical_formula_sum "Si O2"
_cell_formula_units_Z 52
_cell_length_a 9.115309
_cell_length_b 20.556491
_cell_length_c 14.921971
_cell_angle_alpha 90.000000
_cell_angle_beta 90.000000
_cell_angle_gamma 90.000000
_cell_volume 2796.060533
_symmetry_space_group_name_H-M "P M M M"
_symmetry_group_IT_number 47
_symmetry_cell_setting 'orthorhombic'
loop_
_space_group_symop_operation_xyz
x,y,z
-x,-y,z
x,-y,-z
-x,y,-z
-x,-y,-z
x,y,-z
-x,y,z
x,-y,z
loop_
_atom_site_type_symbol
_atom_site_label
_atom_site_fract_x
_atom_site_fract_y
_atom_site_fract_z
Si Si1 0.333876 0.578434 0.500000
Si Si2 0.330019 0.072690 0.609003
Si Si3 0.324763 0.200550 0.102784
Si Si4 0.174968 0.423795 0.314929
Si Si5 0.324393 0.697960 0.253945
Si Si6 0.825928 0.793738 0.392959
Si Si7 0.828930 0.929388 0.890897
O O1 0.345516 0.500000 0.500000
O O2 0.500000 0.605064 0.500000
O O3 0.243509 0.594328 0.588554
O O4 0.329348 0.071766 0.500000
O O5 0.500000 0.082179 0.636784
O O6 0.232618 0.134556 0.634505
O O7 0.281717 0.000000 0.637726
O O8 0.500000 0.193701 0.102264
O O9 0.287443 0.260319 0.166048
O O10 0.257481 0.133649 0.139352
O O11 0.275443 0.210126 0.000000
O O12 0.207476 0.500000 0.297391
O O13 0.251109 0.372706 0.249757
O O14 0.000000 0.416128 0.316654
O O15 0.500000 0.692595 0.262868
O O16 0.258906 0.739345 0.336590
O O17 0.799911 0.786022 0.500000
O O18 0.000000 0.788863 0.377282
O O19 0.000000 0.924402 0.866912
O O20 0.772180 0.000000 0.860939
O O21 0.821304 0.929456 0.000000
#
# Coordination Sequence:
#
# PCOD9387088 Si02
#       7
#     4   8   8   8   8   8   8
#     4   9  17  31  53  81 111 143 178 211 250 307
#     4   8  14  27  48  71  96 131 176 223 267 310
#     4   9  19  36  56  79 107 139 179 227 276 323
#     4  10  21  37  57  81 111 144 177 218 265 314
#     4  11  23  37  56  80 107 141 179 220 267 324
#     4  10  21  35  51  74 106 141 176 218 266 315
#     4   8  14  26  47  76 107 138 173 215 267 326
#
# _framework density 18.597594999999998
#
# number of rings (size 3 to 8) (size 9 to 14) (size 15 to 20)
#    0.000    2.692    0.000    2.538    1.077    4.615 
#    0.000    3.846    0.000    1.385    0.000    3.231 
#    0.000    0.000    0.000    0.000    0.000    0.000 
#
# Total GULP energy -290126.202611 kJ/mol
# GULP energy per Si atom -5579.350050 kJ/mol
# Density = 1.855527 g / cm^3
# Si number density = 18.597595 Si / 1000 Ang^3
#
#
#
# Elastic Constant Matrix: (Units=GPa)
#
#
# Indices 1 2 3 4 5 6 
#
# 1 64.3057 70.4622 37.2231 0.0000 0.0000 0.0000
# 2 70.4622 156.1288 53.7025 0.0000 0.0000 0.0000
# 3 37.2231 53.7025 58.6669 0.0000 0.0000 0.0000
# 4 0.0000 0.0000 0.0000 41.8548 0.0000 0.0000
# 5 0.0000 0.0000 0.0000 0.0000 12.3526 0.0000
# 6 0.0000 0.0000 0.0000 0.0000 0.0000 33.8525
#
#
#
# Elastic Compliance Matrix: (Units=1/GPa)
#
#
# Indices 1 2 3 4 5 6 
#
# 1 0.035324 -0.012016 -0.011413 0.000000 0.000000 0.000000
# 2 -0.012016 0.013436 -0.004675 0.000000 0.000000 0.000000
# 3 -0.011413 -0.004675 0.028566 0.000000 0.000000 0.000000
# 4 0.000000 0.000000 0.000000 0.023892 0.000000 0.000000
# 5 0.000000 0.000000 0.000000 0.000000 0.080955 0.000000
# 6 0.000000 0.000000 0.000000 0.000000 0.000000 0.029540
#
#
# Mechanical properties :
#
#
# Convention : Reuss Voigt Hill
#
# Bulk Modulus (GPa) = 47.35384 66.87522 57.11453
# Shear Modulus (GPa) = 18.18447 25.45952 21.82200
#
# Velocity S-wave (km/s) = 3.13035 3.70397 3.42918
# Velocity P-wave (km/s) = 6.21153 7.37087 6.81589
#
# Compressibility (1/GPa) = 0.02111761
#
# Stress axis : x y z
#
# Youngs Moduli (GPa) = 28.30962 74.42679 35.00671
#
# Poissons Ratio (x) = 0.89433 0.39952
# Poissons Ratio (y) = 0.34018 0.16365
# Poissons Ratio (z) = 0.32309 0.34794
#
# Static dielectric constant tensor:
#      x y z
#    x 1.621440 0.000000 0.000000 
#    y 0.000000 1.656040 0.000000 
#    z 0.000000 0.000000 1.675690 
# 
# From -- ./inp_files/21477.got.cif
#   From: 2010.05.17/outbox.cif.g08.bks.cpg/sg47_11_cif.got.tgz:21477.got - 2010.06.03 20:15:42.
