data_PCOD9387886
_publ_section_title
;
Structure prediction by ZEFSAII (Michael W. Deem and Ramdas Pophale) SiO2 
 PCOD9387886
Probable space group: P M M M
;
_chemical_formula_sum "Si O2"
_cell_formula_units_Z 56
_cell_length_a 16.357505
_cell_length_b 19.808746
_cell_length_c 9.166429
_cell_angle_alpha 90.000000
_cell_angle_beta 90.000000
_cell_angle_gamma 90.000000
_cell_volume 2970.121557
_symmetry_space_group_name_H-M "P M M M"
_symmetry_group_IT_number 47
_symmetry_cell_setting 'orthorhombic'
loop_
_space_group_symop_operation_xyz
x,y,z
-x,-y,z
x,-y,-z
-x,y,-z
-x,-y,-z
x,y,-z
-x,y,z
x,-y,z
loop_
_atom_site_type_symbol
_atom_site_label
_atom_site_fract_x
_atom_site_fract_y
_atom_site_fract_z
Si Si1 0.401483 0.575687 0.829103
Si Si2 0.098568 0.424072 0.670389
Si Si3 0.908968 0.848248 0.825486
Si Si4 0.756033 0.080045 0.325573
Si Si5 0.165585 0.706598 0.827307
Si Si6 0.664290 0.707192 0.326161
Si Si7 0.589601 0.847652 0.676844
O O1 0.500000 0.578174 0.818883
O O2 0.375575 0.500000 0.784084
O O3 0.364589 0.635747 0.735902
O O4 0.380078 0.584400 0.000000
O O5 0.121003 0.414300 0.500000
O O6 0.124380 0.500000 0.713824
O O7 0.134603 0.364526 0.766307
O O8 0.000000 0.421886 0.678720
O O9 0.834632 0.886827 0.749634
O O10 0.896448 0.768162 0.799660
O O11 0.000000 0.868885 0.776677
O O12 0.903738 0.858722 0.000000
O O13 0.761500 0.092309 0.500000
O O14 0.669972 0.112110 0.273102
O O15 0.755122 0.000000 0.301094
O O16 0.249136 0.724140 0.745436
O O17 0.179468 0.702242 0.000000
O O18 0.671957 0.704122 0.500000
O O19 0.603462 0.768632 0.289501
O O20 0.588832 0.853808 0.500000
O O21 0.500000 0.870084 0.729785
#
# Coordination Sequence:
#
# PCOD9387886 Si02
#       7
#     8   8   8   8   8   8   8
#     4   9  19  36  55  76 107 147 190 238 292 347
#     4   9  19  36  56  79 109 145 186 234 290 349
#     4  10  22  40  61  85 116 155 196 238 288 345
#     4  10  21  38  61  90 122 153 189 234 283 340
#     4  11  22  36  56  81 111 147 193 243 290 343
#     4  11  21  34  55  81 112 148 190 240 292 342
#     4   9  18  34  57  86 119 152 188 232 283 339
#
# _framework density 18.854447
#
# number of rings (size 3 to 8) (size 9 to 14) (size 15 to 20)
#    0.000    2.143    1.429    2.571    0.000    4.571 
#    0.000    4.286    0.000    1.286    0.000    1.000 
#    0.000    0.000    0.000    0.000    0.000    0.000 
#
# Total GULP energy -312546.498738 kJ/mol
# GULP energy per Si atom -5581.187477 kJ/mol
# Density = 1.881153 g / cm^3
# Si number density = 18.854447 Si / 1000 Ang^3
#
#
#
# Elastic Constant Matrix: (Units=GPa)
#
#
# Indices 1 2 3 4 5 6 
#
# 1 138.3396 65.3166 40.0802 0.0000 0.0000 0.0000
# 2 65.3166 95.3769 45.8630 0.0000 0.0000 0.0000
# 3 40.0802 45.8630 41.3637 0.0000 0.0000 0.0000
# 4 0.0000 0.0000 0.0000 24.3012 0.0000 0.0000
# 5 0.0000 0.0000 0.0000 0.0000 20.2414 0.0000
# 6 0.0000 0.0000 0.0000 0.0000 0.0000 15.4136
#
#
#
# Elastic Compliance Matrix: (Units=1/GPa)
#
#
# Indices 1 2 3 4 5 6 
#
# 1 0.011146 -0.005226 -0.005006 0.000000 0.000000 0.000000
# 2 -0.005226 0.024910 -0.022555 0.000000 0.000000 0.000000
# 3 -0.005006 -0.022555 0.054035 0.000000 0.000000 0.000000
# 4 0.000000 0.000000 0.000000 0.041150 0.000000 0.000000
# 5 0.000000 0.000000 0.000000 0.000000 0.049404 0.000000
# 6 0.000000 0.000000 0.000000 0.000000 0.000000 0.064878
#
#
# Mechanical properties :
#
#
# Convention : Reuss Voigt Hill
#
# Bulk Modulus (GPa) = 40.78879 64.17774 52.48327
# Shear Modulus (GPa) = 15.66077 20.24594 17.95335
#
# Velocity S-wave (km/s) = 2.88516 3.28045 3.08913
# Velocity P-wave (km/s) = 5.72533 6.96138 6.37339
#
# Compressibility (1/GPa) = 0.02451654
#
# Stress axis : x y z
#
# Youngs Moduli (GPa) = 89.71447 40.14506 18.50662
#
# Poissons Ratio (x) = 0.20981 0.09264
# Poissons Ratio (y) = 0.46888 0.41742
# Poissons Ratio (z) = 0.44909 0.90547
#
# Static dielectric constant tensor:
#      x y z
#    x 1.665630 0.000000 0.000000 
#    y 0.000000 1.649520 0.000000 
#    z 0.000000 0.000000 1.626770 
# 
# From -- ./inp_files/7189.got.cif
#   From: 2010.05.17/outbox.cif.g08.bks.cpg/sg47_4_cif.got.tgz:7189.got - 2010.06.03 20:15:42.
