data_PCOD9387702
_publ_section_title
;
Structure prediction by ZEFSAII (Michael W. Deem and Ramdas Pophale) SiO2 
 PCOD9387702
Probable space group: P M M M
;
_chemical_formula_sum "Si O2"
_cell_formula_units_Z 48
_cell_length_a 36.871490
_cell_length_b 9.006603
_cell_length_c 7.374355
_cell_angle_alpha 90.000000
_cell_angle_beta 90.000000
_cell_angle_gamma 90.000000
_cell_volume 2448.926488
_symmetry_space_group_name_H-M "P M M M"
_symmetry_group_IT_number 47
_symmetry_cell_setting 'orthorhombic'
loop_
_space_group_symop_operation_xyz
x,y,z
-x,-y,z
x,-y,-z
-x,y,-z
-x,-y,-z
x,y,-z
-x,y,z
x,-y,z
loop_
_atom_site_type_symbol
_atom_site_label
_atom_site_fract_x
_atom_site_fract_y
_atom_site_fract_z
Si Si1 0.539026 0.677978 0.218677
Si Si2 0.750174 0.180752 0.500000
Si Si3 0.166576 0.178242 0.500000
Si Si4 0.959888 0.827623 0.220281
Si Si5 0.308064 0.821486 0.209872
Si Si6 0.617674 0.326618 0.220881
Si Si7 0.114387 0.324868 0.783836
O O1 0.500000 0.735937 0.285688
O O2 0.539304 0.500000 0.252596
O O3 0.578308 0.733518 0.282621
O O4 0.538683 0.695553 0.000000
O O5 0.791653 0.230032 0.500000
O O6 0.726263 0.227366 0.327428
O O7 0.751122 0.000000 0.500000
O O8 0.145008 0.239159 0.673471
O O9 0.165762 0.000000 0.500000
O O10 0.925261 0.733156 0.276045
O O11 0.000000 0.777395 0.279976
O O12 0.955333 0.000000 0.273720
O O13 0.960324 0.824618 0.000000
O O14 0.346239 0.757389 0.279078
O O15 0.310126 0.000000 0.218422
O O16 0.303694 0.777826 0.000000
O O17 0.620252 0.500000 0.270647
O O18 0.617133 0.319986 0.000000
O O19 0.117179 0.500000 0.750574
O O20 0.117694 0.298747 0.000000
#
# Coordination Sequence:
#
# PCOD9387702 Si02
#       7
#     8   4   4   8   8   8   8
#     4   7   9  14  27  50  81 116 151 185 221 263
#     4   9  20  37  55  76  97 122 161 204 249 303
#     4  11  23  39  60  82 105 136 180 232 273 315
#     4   8  14  27  50  80 112 146 186 229 267 305
#     4   9  17  31  51  72  95 122 152 191 241 295
#     4   8  13  22  38  62  91 120 152 190 230 276
#     4  10  21  37  57  82 115 152 184 218 268 327
#
# _framework density 19.600425999999999
#
# number of rings (size 3 to 8) (size 9 to 14) (size 15 to 20)
#    0.000    3.333    0.000    2.750    0.000    2.000 
#    0.000    5.833    0.000    5.000    0.000    4.083 
#    0.000    4.667    0.000    0.500    0.000    0.000 
#
# Total GULP energy -267521.008324 kJ/mol
# GULP energy per Si atom -5573.354340 kJ/mol
# Density = 1.955581 g / cm^3
# Si number density = 19.600426 Si / 1000 Ang^3
#
#
#
# Elastic Constant Matrix: (Units=GPa)
#
#
# Indices 1 2 3 4 5 6 
#
# 1 238.7378 59.0849 62.4166 0.0000 0.0000 0.0000
# 2 59.0849 34.1331 27.2467 0.0000 0.0000 0.0000
# 3 62.4166 27.2467 81.9241 0.0000 0.0000 0.0000
# 4 0.0000 0.0000 0.0000 5.6510 0.0000 0.0000
# 5 0.0000 0.0000 0.0000 0.0000 48.9091 0.0000
# 6 0.0000 0.0000 0.0000 0.0000 0.0000 32.1940
#
#
#
# Elastic Compliance Matrix: (Units=1/GPa)
#
#
# Indices 1 2 3 4 5 6 
#
# 1 0.007542 -0.011529 -0.001912 0.000000 0.000000 0.000000
# 2 -0.011529 0.057510 -0.010343 0.000000 0.000000 0.000000
# 3 -0.001912 -0.010343 0.017103 0.000000 0.000000 0.000000
# 4 0.000000 0.000000 0.000000 0.176960 0.000000 0.000000
# 5 0.000000 0.000000 0.000000 0.000000 0.020446 0.000000
# 6 0.000000 0.000000 0.000000 0.000000 0.000000 0.031062
#
#
# Mechanical properties :
#
#
# Convention : Reuss Voigt Hill
#
# Bulk Modulus (GPa) = 28.91243 72.47683 50.69463
# Shear Modulus (GPa) = 13.52376 31.08726 22.30551
#
# Velocity S-wave (km/s) = 2.62958 3.98685 3.37710
# Velocity P-wave (km/s) = 4.89924 7.63221 6.41300
#
# Compressibility (1/GPa) = 0.03458720
#
# Stress axis : x y z
#
# Youngs Moduli (GPa) = 132.59522 17.38818 58.46972
#
# Poissons Ratio (x) = 0.20047 0.11177
# Poissons Ratio (y) = 1.52868 0.60477
# Poissons Ratio (z) = 0.25347 0.17985
#
# Static dielectric constant tensor:
#      x y z
#    x 1.696710 0.000000 0.000000 
#    y 0.000000 1.651230 0.000000 
#    z 0.000000 0.000000 1.761150 
# 
# From -- ./inp_files/13913.got.cif
#   From: 2010.05.17/outbox.cif.g08.bks.cpg/sg47_7_cif.got.tgz:13913.got - 2010.06.03 20:15:42.
