data_PCOD9387295
_publ_section_title
;
Structure prediction by ZEFSAII (Michael W. Deem and Ramdas Pophale) SiO2 
 PCOD9387295
Probable space group: P M M M
;
_chemical_formula_sum "Si O2"
_cell_formula_units_Z 48
_cell_length_a 10.256740
_cell_length_b 8.715733
_cell_length_c 29.746209
_cell_angle_alpha 90.000000
_cell_angle_beta 90.000000
_cell_angle_gamma 90.000000
_cell_volume 2659.162570
_symmetry_space_group_name_H-M "P M M M"
_symmetry_group_IT_number 47
_symmetry_cell_setting 'orthorhombic'
loop_
_space_group_symop_operation_xyz
x,y,z
-x,-y,z
x,-y,-z
-x,y,-z
-x,-y,-z
x,y,-z
-x,y,z
x,-y,z
loop_
_atom_site_type_symbol
_atom_site_label
_atom_site_fract_x
_atom_site_fract_y
_atom_site_fract_z
Si Si1 0.649755 0.316496 0.123620
Si Si2 0.751567 0.183654 0.601621
Si Si3 0.649919 0.814610 0.777624
Si Si4 0.849717 0.185052 0.051710
Si Si5 0.000000 0.321418 0.553604
Si Si6 0.848639 0.812934 0.299940
Si Si7 0.500000 0.316144 0.552393
O O1 0.500000 0.271601 0.112689
O O2 0.655986 0.500000 0.125471
O O3 0.679026 0.249699 0.172971
O O4 0.749496 0.255124 0.086746
O O5 0.874487 0.236694 0.572698
O O6 0.782736 0.232217 0.652851
O O7 0.625274 0.256575 0.579117
O O8 0.738862 0.000000 0.601209
O O9 0.500000 0.770653 0.765829
O O10 0.756445 0.763342 0.741138
O O11 0.653596 0.000000 0.779383
O O12 0.000000 0.228994 0.061423
O O13 0.842940 0.000000 0.054058
O O14 0.820998 0.229560 0.000000
O O15 0.000000 0.500000 0.567716
O O16 0.000000 0.317004 0.500000
O O17 0.000000 0.762118 0.297327
O O18 0.851507 0.000000 0.299447
O O19 0.500000 0.500000 0.551936
O O20 0.500000 0.264114 0.500000
#
# Coordination Sequence:
#
# PCOD9387295 Si02
#       7
#     8   8   8   8   4   8   4
#     4  10  21  36  53  78 115 151 185 228 277 329
#     4  11  22  38  62  89 115 145 189 240 283 333
#     4   9  18  33  56  80 105 144 189 228 272 328
#     4   9  19  36  57  81 109 143 187 236 282 331
#     4  11  23  39  59  83 117 157 189 225 280 341
#     4   9  18  34  56  84 113 139 175 227 280 327
#     4  11  25  43  59  81 117 155 189 229 284 345
#
# _framework density 18.050795000000001
#
# number of rings (size 3 to 8) (size 9 to 14) (size 15 to 20)
#    0.000    2.167    0.833    2.500    1.167    6.000 
#    0.000    5.833    0.000    0.000    0.000    0.000 
#    0.000    0.000    0.000    0.000    0.000    0.000 
#
# Total GULP energy -267919.599545 kJ/mol
# GULP energy per Si atom -5581.658324 kJ/mol
# Density = 1.800971 g / cm^3
# Si number density = 18.050795 Si / 1000 Ang^3
#
#
#
# Elastic Constant Matrix: (Units=GPa)
#
#
# Indices 1 2 3 4 5 6 
#
# 1 182.0949 40.3483 130.3597 0.0000 0.0000 0.0000
# 2 40.3483 30.5408 42.1768 0.0000 0.0000 0.0000
# 3 130.3597 42.1768 165.8460 0.0000 0.0000 0.0000
# 4 0.0000 0.0000 0.0000 -73.6520 0.0000 0.0000
# 5 0.0000 0.0000 0.0000 0.0000 42.6870 0.0000
# 6 0.0000 0.0000 0.0000 0.0000 0.0000 20.9290
#
#
#
# Elastic Compliance Matrix: (Units=1/GPa)
#
#
# Indices 1 2 3 4 5 6 
#
# 1 0.012984 -0.004716 -0.009007 0.000000 0.000000 0.000000
# 2 -0.004716 0.052180 -0.009563 0.000000 0.000000 0.000000
# 3 -0.009007 -0.009563 0.015542 0.000000 0.000000 0.000000
# 4 0.000000 0.000000 0.000000 -0.013577 0.000000 0.000000
# 5 0.000000 0.000000 0.000000 0.000000 0.023426 0.000000
# 6 0.000000 0.000000 0.000000 0.000000 0.000000 0.047781
#
#
# Mechanical properties :
#
#
# Convention : Reuss Voigt Hill
#
# Bulk Modulus (GPa) = 29.29619 89.36123 59.32871
# Shear Modulus (GPa) = 25.47305 9.03258 17.25282
#
# Velocity S-wave (km/s) = 3.76065 2.23938 3.09494
# Velocity P-wave (km/s) = 5.92636 7.50329 6.76096
#
# Compressibility (1/GPa) = 0.03413413
#
# Stress axis : x y z
#
# Youngs Moduli (GPa) = 77.01499 19.16435 64.34384
#
# Poissons Ratio (x) = 0.09037 0.57954
# Poissons Ratio (y) = 0.36317 0.61535
# Poissons Ratio (z) = 0.69367 0.18328
#
# Static dielectric constant tensor:
#      x y z
#    x 1.596890 0.000000 0.000000 
#    y 0.000000 1.607070 0.000000 
#    z 0.000000 0.000000 1.594680 
# 
# From -- ./inp_files/34159.got.cif
#   From: 2010.05.17/outbox.cif.g08.bks.cpg/sg47_18_cif.got.tgz:34159.got - 2010.06.03 20:15:42.
