data_PCOD9387806
_publ_section_title
;
Structure prediction by ZEFSAII (Michael W. Deem and Ramdas Pophale) SiO2 
 PCOD9387806
Probable space group: P M M M
;
_chemical_formula_sum "Si O2"
_cell_formula_units_Z 40
_cell_length_a 22.817399
_cell_length_b 11.187467
_cell_length_c 8.846459
_cell_angle_alpha 90.000000
_cell_angle_beta 90.000000
_cell_angle_gamma 90.000000
_cell_volume 2258.225843
_symmetry_space_group_name_H-M "P M M M"
_symmetry_group_IT_number 47
_symmetry_cell_setting 'orthorhombic'
loop_
_space_group_symop_operation_xyz
x,y,z
-x,-y,z
x,-y,-z
-x,y,-z
-x,-y,-z
x,y,-z
-x,y,z
x,-y,z
loop_
_atom_site_type_symbol
_atom_site_label
_atom_site_fract_x
_atom_site_fract_y
_atom_site_fract_z
Si Si1 0.930343 0.500000 0.319497
Si Si2 0.000000 0.141091 0.329991
Si Si3 0.568346 0.365504 0.816150
Si Si4 0.773515 0.858230 0.324204
Si Si5 0.354452 0.862554 0.182923
Si Si6 0.112460 0.255950 0.180013
O O1 0.923970 0.500000 0.500000
O O2 0.900458 0.614450 0.246903
O O3 0.000000 0.500000 0.284842
O O4 0.941617 0.178921 0.243583
O O5 0.000000 0.195516 0.500000
O O6 0.000000 0.000000 0.343586
O O7 0.500000 0.353848 0.773090
O O8 0.588482 0.500000 0.768431
O O9 0.604463 0.248163 0.766738
O O10 0.570456 0.365517 0.000000
O O11 0.771332 0.822446 0.500000
O O12 0.710484 0.840641 0.247129
O O13 0.825898 0.792231 0.240087
O O14 0.785878 0.000000 0.318179
O O15 0.371976 0.000000 0.226898
O O16 0.352876 0.861073 0.000000
O O17 0.111647 0.256236 0.000000
#
# Coordination Sequence:
#
# PCOD9387806 Si02
#       6
#     4   4   8   8   8   8
#     4  11  23  41  63  81 108 146 179 216 267 328
#     4  11  23  38  57  82 111 143 179 219 270 331
#     4   8  14  26  46  74 108 143 176 216 271 328
#     4  10  21  38  58  78 106 145 183 221 272 332
#     4   9  17  30  50  77 107 138 177 227 274 320
#     4  12  24  38  59  84 110 139 178 226 274 322
#
# _framework density 17.71302
#
# number of rings (size 3 to 8) (size 9 to 14) (size 15 to 20)
#    0.000    2.000    1.000    4.200    0.000    5.200 
#    1.800    2.000    0.000    0.600    0.000    4.200 
#    0.000    0.000    0.000    0.000    0.000    0.000 
#
# Total GULP energy -223136.431140 kJ/mol
# GULP energy per Si atom -5578.410778 kJ/mol
# Density = 1.767270 g / cm^3
# Si number density = 17.713020 Si / 1000 Ang^3
#
#
#
# Elastic Constant Matrix: (Units=GPa)
#
#
# Indices 1 2 3 4 5 6 
#
# 1 112.8777 96.4603 42.4845 0.0000 0.0000 0.0000
# 2 96.4603 150.5674 49.0429 0.0000 0.0000 0.0000
# 3 42.4845 49.0429 68.6762 0.0000 0.0000 0.0000
# 4 0.0000 0.0000 0.0000 21.1608 0.0000 0.0000
# 5 0.0000 0.0000 0.0000 0.0000 -84.9922 0.0000
# 6 0.0000 0.0000 0.0000 0.0000 0.0000 42.7361
#
#
#
# Elastic Compliance Matrix: (Units=1/GPa)
#
#
# Indices 1 2 3 4 5 6 
#
# 1 0.020510 -0.011737 -0.004306 0.000000 0.000000 0.000000
# 2 -0.011737 0.015371 -0.003716 0.000000 0.000000 0.000000
# 3 -0.004306 -0.003716 0.019879 0.000000 0.000000 0.000000
# 4 0.000000 0.000000 0.000000 0.047257 0.000000 0.000000
# 5 0.000000 0.000000 0.000000 0.000000 -0.011766 0.000000
# 6 0.000000 0.000000 0.000000 0.000000 0.000000 0.023399
#
#
# Mechanical properties :
#
#
# Convention : Reuss Voigt Hill
#
# Bulk Modulus (GPa) = 61.57193 78.67742 70.12467
# Shear Modulus (GPa) = 31.33176 5.38983 18.36080
#
# Velocity S-wave (km/s) = 4.21034 1.74627 3.22307
# Velocity P-wave (km/s) = 7.64671 6.96995 7.31616
#
# Compressibility (1/GPa) = 0.01624117
#
# Stress axis : x y z
#
# Youngs Moduli (GPa) = 48.75760 65.05729 50.30482
#
# Poissons Ratio (x) = 0.76356 0.21663
# Poissons Ratio (y) = 0.57226 0.18694
# Poissons Ratio (z) = 0.20996 0.24176
#
# Static dielectric constant tensor:
#      x y z
#    x 1.578400 0.000000 0.000000 
#    y 0.000000 1.418200 0.000000 
#    z 0.000000 0.000000 1.589950 
# 
# From -- ./inp_files/10738.got.cif
#   From: 2010.05.17/outbox.cif.g08.bks.cpg/sg47_6_cif.got.tgz:10738.got - 2010.06.03 20:15:42.
