data_PCOD9387423
_publ_section_title
;
Structure prediction by ZEFSAII (Michael W. Deem and Ramdas Pophale) SiO2 
 PCOD9387423
Probable space group: P M M M
;
_chemical_formula_sum "Si O2"
_cell_formula_units_Z 48
_cell_length_a 17.226521
_cell_length_b 15.973013
_cell_length_c 8.793094
_cell_angle_alpha 90.000000
_cell_angle_beta 90.000000
_cell_angle_gamma 90.000000
_cell_volume 2419.502855
_symmetry_space_group_name_H-M "P M M M"
_symmetry_group_IT_number 47
_symmetry_cell_setting 'orthorhombic'
loop_
_space_group_symop_operation_xyz
x,y,z
-x,-y,z
x,-y,-z
-x,y,-z
-x,-y,-z
x,y,-z
-x,y,z
x,-y,z
loop_
_atom_site_type_symbol
_atom_site_label
_atom_site_fract_x
_atom_site_fract_y
_atom_site_fract_z
Si Si1 0.500000 0.342500 0.181374
Si Si2 0.349452 0.092804 0.822348
Si Si3 0.500000 0.158426 0.323203
Si Si4 0.093110 0.407390 0.331333
Si Si5 0.910192 0.243260 0.174640
Si Si6 0.336386 0.404716 0.683237
Si Si7 0.753225 0.234692 0.678503
O O1 0.500000 0.244987 0.229370
O O2 0.579113 0.382396 0.248167
O O3 0.500000 0.350808 0.000000
O O4 0.425320 0.105533 0.721679
O O5 0.294514 0.168619 0.776529
O O6 0.315614 0.000000 0.797059
O O7 0.370417 0.099150 0.000000
O O8 0.500000 0.180684 0.500000
O O9 0.121457 0.377832 0.500000
O O10 0.124733 0.500000 0.306688
O O11 0.102595 0.342882 0.196180
O O12 0.000000 0.413883 0.345195
O O13 0.842738 0.213048 0.285187
O O14 0.000000 0.225135 0.216744
O O15 0.898412 0.218325 0.000000
O O16 0.342982 0.404228 0.500000
O O17 0.314602 0.500000 0.729120
O O18 0.275946 0.329223 0.720577
O O19 0.736809 0.223992 0.500000
#
# Coordination Sequence:
#
# PCOD9387423 Si02
#       7
#     4   8   4   8   8   8   8
#     4  12  23  36  59  88 122 164 209 257 304 351
#     4  11  24  42  65  94 128 163 197 242 302 361
#     4  12  23  38  63  94 128 166 205 247 296 349
#     4   8  14  26  45  69  98 134 179 231 285 343
#     4  10  21  36  55  80 112 151 194 245 307 368
#     4  10  22  40  60  84 119 164 210 255 304 357
#     4  11  23  39  62  89 120 160 203 252 304 360
#
# _framework density 19.838785999999999
#
# number of rings (size 3 to 8) (size 9 to 14) (size 15 to 20)
#    0.000    1.667    1.667    4.000    0.000    6.333 
#    0.000    3.333    0.000    0.500    0.000    3.500 
#    0.000    0.000    0.000    0.000    0.000    0.000 
#
# Total GULP energy -267725.174735 kJ/mol
# GULP energy per Si atom -5577.607807 kJ/mol
# Density = 1.979363 g / cm^3
# Si number density = 19.838786 Si / 1000 Ang^3
#
#
#
# Elastic Constant Matrix: (Units=GPa)
#
#
# Indices 1 2 3 4 5 6 
#
# 1 92.0685 16.0414 18.9478 0.0000 0.0000 0.0000
# 2 16.0414 85.6999 16.5984 0.0000 0.0000 0.0000
# 3 18.9478 16.5984 36.2796 0.0000 0.0000 0.0000
# 4 0.0000 0.0000 0.0000 26.3638 0.0000 0.0000
# 5 0.0000 0.0000 0.0000 0.0000 27.6889 0.0000
# 6 0.0000 0.0000 0.0000 0.0000 0.0000 33.9699
#
#
#
# Elastic Compliance Matrix: (Units=1/GPa)
#
#
# Indices 1 2 3 4 5 6 
#
# 1 0.012273 -0.001159 -0.005880 0.000000 0.000000 0.000000
# 2 -0.001159 0.012912 -0.005303 0.000000 0.000000 0.000000
# 3 -0.005880 -0.005303 0.033061 0.000000 0.000000 0.000000
# 4 0.000000 0.000000 0.000000 0.037931 0.000000 0.000000
# 5 0.000000 0.000000 0.000000 0.000000 0.036116 0.000000
# 6 0.000000 0.000000 0.000000 0.000000 0.000000 0.029438
#
#
# Mechanical properties :
#
#
# Convention : Reuss Voigt Hill
#
# Bulk Modulus (GPa) = 29.79349 35.24700 32.52025
# Shear Modulus (GPa) = 25.30350 28.43520 26.86935
#
# Velocity S-wave (km/s) = 3.57523 3.79002 3.68419
# Velocity P-wave (km/s) = 5.66510 6.07928 5.87584
#
# Compressibility (1/GPa) = 0.03356438
#
# Stress axis : x y z
#
# Youngs Moduli (GPa) = 81.47670 77.44444 30.24745
#
# Poissons Ratio (x) = 0.08972 0.17786
# Poissons Ratio (y) = 0.09439 0.16039
# Poissons Ratio (z) = 0.47908 0.41065
#
# Static dielectric constant tensor:
#      x y z
#    x 1.752150 0.000000 0.000000 
#    y 0.000000 1.725440 0.000000 
#    z 0.000000 0.000000 1.680740 
# 
# From -- ./inp_files/9158.got.cif
#   From: 2010.05.17/outbox.cif.g08.bks.cpg/sg47_5_cif.got.tgz:9158.got - 2010.06.03 20:15:42.
