data_PCOD9387788
_publ_section_title
;
Structure prediction by ZEFSAII (Michael W. Deem and Ramdas Pophale) SiO2 
 PCOD9387788
Probable space group: P M M M
;
_chemical_formula_sum "Si O2"
_cell_formula_units_Z 56
_cell_length_a 22.031384
_cell_length_b 9.198032
_cell_length_c 15.007642
_cell_angle_alpha 90.000000
_cell_angle_beta 90.000000
_cell_angle_gamma 90.000000
_cell_volume 3041.229242
_symmetry_space_group_name_H-M "P M M M"
_symmetry_group_IT_number 47
_symmetry_cell_setting 'orthorhombic'
loop_
_space_group_symop_operation_xyz
x,y,z
-x,-y,z
x,-y,-z
-x,y,-z
-x,-y,-z
x,y,-z
-x,y,z
x,-y,z
loop_
_atom_site_type_symbol
_atom_site_label
_atom_site_fract_x
_atom_site_fract_y
_atom_site_fract_z
Si Si1 0.809617 0.668525 0.398041
Si Si2 0.810354 0.667999 0.898251
Si Si3 0.068221 0.831202 0.642776
Si Si4 0.500000 0.675197 0.105965
Si Si5 0.732867 0.826830 0.750667
Si Si6 0.590432 0.175095 0.758890
Si Si7 0.068371 0.831554 0.141553
Si Si8 0.500000 0.175840 0.602574
O O1 0.789346 0.678467 0.500000
O O2 0.810609 0.500000 0.370881
O O3 0.877338 0.733429 0.391326
O O4 0.765604 0.758113 0.334505
O O5 0.809994 0.500000 0.869730
O O6 0.767906 0.761993 0.835007
O O7 0.878438 0.730381 0.892814
O O8 0.789461 0.676511 0.000000
O O9 0.070221 0.826905 0.750615
O O10 0.000000 0.787402 0.615435
O O11 0.077149 0.000000 0.616585
O O12 0.500000 0.500000 0.114268
O O13 0.556965 0.743478 0.159912
O O14 0.500000 0.710324 0.000000
O O15 0.661574 0.792466 0.754616
O O16 0.740101 0.000000 0.748558
O O17 0.557267 0.215653 0.665549
O O18 0.582614 0.000000 0.770245
O O19 0.000000 0.790757 0.114002
O O20 0.078693 0.000000 0.115540
O O21 0.500000 0.230103 0.500000
O O22 0.500000 0.000000 0.596771
#
# Coordination Sequence:
#
# PCOD9387788 Si02
#       8
#     8   8   8   4   8   8   8   4
#     4  11  24  39  56  82 116 153 192 236 291 352
#     4  11  24  39  56  81 113 149 189 236 292 351
#     4   9  18  34  57  83 109 141 185 238 295 350
#     4  10  21  37  60  91 124 157 191 228 274 330
#     4  11  23  40  61  84 114 153 198 243 284 332
#     4   9  20  37  59  88 118 152 192 234 279 323
#     4   9  18  34  57  83 109 140 182 234 292 350
#     4   8  14  30  58  89 118 143 173 218 268 318
#
# _framework density 18.413606999999999
#
# number of rings (size 3 to 8) (size 9 to 14) (size 15 to 20)
#    0.000    2.143    1.429    2.786    0.000    6.286 
#    0.000    8.571    0.000    3.429    0.000    0.000 
#    0.000    0.000    0.000    0.000    0.000    0.000 
#
# Total GULP energy -312632.318907 kJ/mol
# GULP energy per Si atom -5582.719980 kJ/mol
# Density = 1.837170 g / cm^3
# Si number density = 18.413607 Si / 1000 Ang^3
#
#
#
# Elastic Constant Matrix: (Units=GPa)
#
#
# Indices 1 2 3 4 5 6 
#
# 1 154.8113 82.3681 68.1342 0.0000 0.0000 0.0000
# 2 82.3681 88.6537 54.7168 0.0000 0.0000 0.0000
# 3 68.1342 54.7168 122.6481 0.0000 0.0000 0.0000
# 4 0.0000 0.0000 0.0000 33.3754 0.0000 0.0000
# 5 0.0000 0.0000 0.0000 0.0000-8187.4951 0.0000
# 6 0.0000 0.0000 0.0000 0.0000 0.0000 -2.2157
#
#
#
# Elastic Compliance Matrix: (Units=1/GPa)
#
#
# Indices 1 2 3 4 5 6 
#
# 1 0.013348 -0.010798 -0.002598 0.000000 0.000000 0.000000
# 2 -0.010798 0.024302 -0.004843 0.000000 0.000000 0.000000
# 3 -0.002598 -0.004843 0.011757 0.000000 0.000000 0.000000
# 4 0.000000 0.000000 0.000000 0.029962 0.000000 0.000000
# 5 0.000000 0.000000 0.000000 0.000000 -0.000122 0.000000
# 6 0.000000 0.000000 0.000000 0.000000 0.000000 -0.451329
#
#
# Mechanical properties :
#
#
# Convention : Reuss Voigt Hill
#
# Bulk Modulus (GPa) = 77.34674 86.28347 81.81511
# Shear Modulus (GPa) = -15.09230 -1620.54080 -817.81655
#
# Velocity S-wave (km/s) = -2.86602 -29.69829 -21.09742
# Velocity P-wave (km/s) = 5.58071 33.60096 23.42947
#
# Compressibility (1/GPa) = 0.01292879
#
# Stress axis : x y z
#
# Youngs Moduli (GPa) = 74.91695 41.14946 85.05521
#
# Poissons Ratio (x) = 0.44435 0.22095
# Poissons Ratio (y) = 0.80898 0.41191
# Poissons Ratio (z) = 0.19462 0.19928
#
# Static dielectric constant tensor:
#      x y z
#    x 1.614750 0.000000 0.000000 
#    y 0.000000 1.611740 0.000000 
#    z 0.000000 0.000000 1.650470 
# 
# From -- ./inp_files/25253.got.cif
#   From: 2010.05.17/outbox.cif.g08.bks.cpg/sg47_13_cif.got.tgz:25253.got - 2010.06.03 20:15:42.
