data_PCOD9387247
_publ_section_title
;
Structure prediction by ZEFSAII (Michael W. Deem and Ramdas Pophale) SiO2 
 PCOD9387247
Probable space group: P M M M
;
_chemical_formula_sum "Si O2"
_cell_formula_units_Z 56
_cell_length_a 8.758730
_cell_length_b 23.119856
_cell_length_c 14.917780
_cell_angle_alpha 90.000000
_cell_angle_beta 90.000000
_cell_angle_gamma 90.000000
_cell_volume 3020.859048
_symmetry_space_group_name_H-M "P M M M"
_symmetry_group_IT_number 47
_symmetry_cell_setting 'orthorhombic'
loop_
_space_group_symop_operation_xyz
x,y,z
-x,-y,z
x,-y,-z
-x,y,-z
-x,-y,-z
x,y,-z
-x,y,z
x,-y,z
loop_
_atom_site_type_symbol
_atom_site_label
_atom_site_fract_x
_atom_site_fract_y
_atom_site_fract_z
Si Si1 0.319396 0.326774 0.227097
Si Si2 0.815815 0.889524 0.205675
Si Si3 0.818007 0.566341 0.309376
Si Si4 0.818542 0.870817 0.596964
Si Si5 0.674368 0.429636 0.500000
Si Si6 0.684656 0.221759 0.104575
Si Si7 0.180189 0.731548 0.399664
Si Si8 0.317978 0.000000 0.894025
O O1 0.500000 0.335019 0.221147
O O2 0.240516 0.388895 0.235568
O O3 0.270531 0.283239 0.148188
O O4 0.276596 0.294533 0.319627
O O5 0.759431 0.894438 0.308821
O O6 0.757390 0.830174 0.161305
O O7 0.000000 0.888856 0.205976
O O8 0.754367 0.943210 0.149604
O O9 0.767011 0.500000 0.294312
O O10 0.756863 0.585762 0.407253
O O11 0.000000 0.567075 0.312619
O O12 0.753948 0.889458 0.500000
O O13 0.805937 0.801149 0.602115
O O14 0.000000 0.883749 0.594867
O O15 0.672601 0.500000 0.500000
O O16 0.500000 0.408929 0.500000
O O17 0.500000 0.217106 0.111040
O O18 0.726593 0.217655 0.000000
O O19 0.224803 0.712402 0.500000
O O20 0.000000 0.717734 0.386801
O O21 0.500000 0.000000 0.880150
O O22 0.288861 0.000000 0.000000
#
# Coordination Sequence:
#
# PCOD9387247 Si02
#       8
#     8   8   8   8   4   8   8   4
#     4  11  22  34  53  80 109 142 184 232 276 327
#     4  11  21  36  62  91 115 143 187 236 274 318
#     4  10  21  36  53  73 103 145 186 224 273 332
#     4   8  15  30  53  81 114 149 181 217 266 322
#     4   9  17  31  51  75 105 141 183 228 269 316
#     4  10  22  40  59  81 113 149 181 221 283 346
#     4   9  17  31  51  75 108 148 183 217 264 327
#     4  11  25  43  60  79 112 156 191 227 284 345
#
# _framework density 18.537773999999999
#
# number of rings (size 3 to 8) (size 9 to 14) (size 15 to 20)
#    0.000    2.143    1.429    3.000    1.000    5.143 
#    0.000    0.357    0.000    4.286    0.000    3.000 
#    0.000    0.000    0.000    0.000    0.000    0.000 
#
# Total GULP energy -312555.965752 kJ/mol
# GULP energy per Si atom -5581.356531 kJ/mol
# Density = 1.849558 g / cm^3
# Si number density = 18.537774 Si / 1000 Ang^3
#
#
#
# Elastic Constant Matrix: (Units=GPa)
#
#
# Indices 1 2 3 4 5 6 
#
# 1 36.0413 33.1386 37.9719 0.0000 0.0000 0.0000
# 2 33.1386 87.7076 57.5356 0.0000 0.0000 0.0000
# 3 37.9719 57.5356 134.5414 0.0000 0.0000 0.0000
# 4 0.0000 0.0000 0.0000 15.9694 0.0000 0.0000
# 5 0.0000 0.0000 0.0000 0.0000 20.7100 0.0000
# 6 0.0000 0.0000 0.0000 0.0000 0.0000 25.2066
#
#
#
# Elastic Compliance Matrix: (Units=1/GPa)
#
#
# Indices 1 2 3 4 5 6 
#
# 1 0.048081 -0.012877 -0.008063 0.000000 0.000000 0.000000
# 2 -0.012877 0.019296 -0.004617 0.000000 0.000000 0.000000
# 3 -0.008063 -0.004617 0.011683 0.000000 0.000000 0.000000
# 4 0.000000 0.000000 0.000000 0.062620 0.000000 0.000000
# 5 0.000000 0.000000 0.000000 0.000000 0.048286 0.000000
# 6 0.000000 0.000000 0.000000 0.000000 0.000000 0.039672
#
#
# Mechanical properties :
#
#
# Convention : Reuss Voigt Hill
#
# Bulk Modulus (GPa) = 35.78524 57.28694 46.53609
# Shear Modulus (GPa) = 17.23734 21.02015 19.12874
#
# Velocity S-wave (km/s) = 3.05265 3.37101 3.21577
# Velocity P-wave (km/s) = 5.63656 6.79128 6.24068
#
# Compressibility (1/GPa) = 0.02794448
#
# Stress axis : x y z
#
# Youngs Moduli (GPa) = 20.79820 51.82468 85.59471
#
# Poissons Ratio (x) = 0.66735 0.69017
# Poissons Ratio (y) = 0.26782 0.39522
# Poissons Ratio (z) = 0.16770 0.23930
#
# Static dielectric constant tensor:
#      x y z
#    x 1.625980 0.000000 0.000000 
#    y 0.000000 1.657700 0.000000 
#    z 0.000000 0.000000 1.642040 
# 
# From -- ./inp_files/21644.got.cif
#   From: 2010.05.17/outbox.cif.g08.bks.cpg/sg47_11_cif.got.tgz:21644.got - 2010.06.03 20:15:42.
