data_PCOD9387708
_publ_section_title
;
Structure prediction by ZEFSAII (Michael W. Deem and Ramdas Pophale) SiO2 
 PCOD9387708
Probable space group: P M M M
;
_chemical_formula_sum "Si O2"
_cell_formula_units_Z 48
_cell_length_a 8.918643
_cell_length_b 29.380837
_cell_length_c 10.205182
_cell_angle_alpha 90.000000
_cell_angle_beta 90.000000
_cell_angle_gamma 90.000000
_cell_volume 2674.137278
_symmetry_space_group_name_H-M "P M M M"
_symmetry_group_IT_number 47
_symmetry_cell_setting 'orthorhombic'
loop_
_space_group_symop_operation_xyz
x,y,z
-x,-y,z
x,-y,-z
-x,y,-z
-x,-y,-z
x,y,-z
-x,y,z
x,-y,z
loop_
_atom_site_type_symbol
_atom_site_label
_atom_site_fract_x
_atom_site_fract_y
_atom_site_fract_z
Si Si1 0.326945 0.945750 0.000000
Si Si2 0.319893 0.053627 0.500000
Si Si3 0.819383 0.797410 0.153889
Si Si4 0.820514 0.100867 0.752583
Si Si5 0.821412 0.375085 0.348330
Si Si6 0.319763 0.552795 0.847773
Si Si7 0.679714 0.723982 0.348676
O O1 0.500000 0.929800 0.000000
O O2 0.240623 0.927552 0.125608
O O3 0.328208 0.000000 0.000000
O O4 0.500000 0.055284 0.500000
O O5 0.255762 0.079841 0.374779
O O6 0.276129 0.000000 0.500000
O O7 0.782852 0.846555 0.216423
O O8 0.745566 0.758786 0.243071
O O9 0.000000 0.792385 0.157370
O O10 0.774351 0.796057 0.000000
O O11 0.000000 0.097382 0.742137
O O12 0.789496 0.387658 0.500000
O O13 0.759403 0.412800 0.250070
O O14 0.744229 0.326392 0.324095
O O15 0.000000 0.370291 0.333885
O O16 0.500000 0.556984 0.835315
O O17 0.280840 0.500000 0.820855
O O18 0.281724 0.562273 0.000000
O O19 0.720603 0.736408 0.500000
O O20 0.500000 0.723160 0.340241
#
# Coordination Sequence:
#
# PCOD9387708 Si02
#       7
#     4   4   8   8   8   8   8
#     4  11  23  39  61  89 121 157 193 237 294 345
#     4  11  25  43  61  87 123 157 193 241 294 347
#     4  10  22  41  61  85 117 150 187 233 286 342
#     4  11  23  41  63  89 118 154 198 241 287 347
#     4  10  21  37  57  83 115 152 193 238 289 343
#     4   9  19  36  57  82 114 153 196 241 289 342
#     4  10  22  39  60  87 115 148 192 238 286 343
#
# _framework density 17.949714
#
# number of rings (size 3 to 8) (size 9 to 14) (size 15 to 20)
#    0.000    1.833    0.833    3.000    1.167    8.667 
#    0.000    2.500    0.000    0.000    0.000    0.000 
#    0.000    0.000    0.000    0.000    0.000    0.000 
#
# Total GULP energy -268108.551995 kJ/mol
# GULP energy per Si atom -5585.594833 kJ/mol
# Density = 1.790886 g / cm^3
# Si number density = 17.949714 Si / 1000 Ang^3
#
#
#
# Elastic Constant Matrix: (Units=GPa)
#
#
# Indices 1 2 3 4 5 6 
#
# 1 58.0205 69.4259 69.4645 0.0000 0.0000 0.0000
# 2 69.4259 147.0736 121.7524 0.0000 0.0000 0.0000
# 3 69.4645 121.7524 182.2485 0.0000 0.0000 0.0000
# 4 0.0000 0.0000 0.0000 43.0015 0.0000 0.0000
# 5 0.0000 0.0000 0.0000 0.0000 27.8926 0.0000
# 6 0.0000 0.0000 0.0000 0.0000 0.0000 38.2190
#
#
#
# Elastic Compliance Matrix: (Units=1/GPa)
#
#
# Indices 1 2 3 4 5 6 
#
# 1 0.042584 -0.014912 -0.006269 0.000000 0.000000 0.000000
# 2 -0.014912 0.020434 -0.007967 0.000000 0.000000 0.000000
# 3 -0.006269 -0.007967 0.013199 0.000000 0.000000 0.000000
# 4 0.000000 0.000000 0.000000 0.023255 0.000000 0.000000
# 5 0.000000 0.000000 0.000000 0.000000 0.035852 0.000000
# 6 0.000000 0.000000 0.000000 0.000000 0.000000 0.026165
#
#
# Mechanical properties :
#
#
# Convention : Reuss Voigt Hill
#
# Bulk Modulus (GPa) = 55.80177 100.95869 78.38023
# Shear Modulus (GPa) = 22.14736 30.26928 26.20832
#
# Velocity S-wave (km/s) = 3.51644 4.11096 3.82527
# Velocity P-wave (km/s) = 6.90235 8.88261 7.95434
#
# Compressibility (1/GPa) = 0.01792058
#
# Stress axis : x y z
#
# Youngs Moduli (GPa) = 23.48281 48.93703 75.76256
#
# Poissons Ratio (x) = 0.72977 0.47494
# Poissons Ratio (y) = 0.35018 0.60364
# Poissons Ratio (z) = 0.14721 0.38991
#
# Static dielectric constant tensor:
#      x y z
#    x 1.600410 0.000000 0.000000 
#    y 0.000000 1.585030 0.000000 
#    z 0.000000 0.000000 1.591500 
# 
# From -- ./inp_files/2692.got.cif
#   From: 2010.05.17/outbox.cif.g08.bks.cpg/sg47_2_cif.got.tgz:2692.got - 2010.06.03 20:15:42.
