data_PCOD9387869
_publ_section_title
;
Structure prediction by ZEFSAII (Michael W. Deem and Ramdas Pophale) SiO2 
 PCOD9387869
Probable space group: P M M M
;
_chemical_formula_sum "Si O2"
_cell_formula_units_Z 40
_cell_length_a 8.893008
_cell_length_b 15.590679
_cell_length_c 14.766703
_cell_angle_alpha 90.000000
_cell_angle_beta 90.000000
_cell_angle_gamma 90.000000
_cell_volume 2047.374326
_symmetry_space_group_name_H-M "P M M M"
_symmetry_group_IT_number 47
_symmetry_cell_setting 'orthorhombic'
loop_
_space_group_symop_operation_xyz
x,y,z
-x,-y,z
x,-y,-z
-x,y,-z
-x,-y,-z
x,y,-z
-x,y,z
x,-y,z
loop_
_atom_site_type_symbol
_atom_site_label
_atom_site_fract_x
_atom_site_fract_y
_atom_site_fract_z
Si Si1 0.178118 0.220300 0.143376
Si Si2 0.320551 0.594364 0.643201
Si Si3 0.320894 0.097614 0.000000
Si Si4 0.680239 0.900071 0.500000
Si Si5 0.178731 0.227188 0.358999
Si Si6 0.820259 0.592620 0.157801
O O1 0.207862 0.218007 0.251195
O O2 0.216118 0.317388 0.111212
O O3 0.000000 0.207709 0.129698
O O4 0.264430 0.149542 0.087190
O O5 0.500000 0.602558 0.634035
O O6 0.276771 0.500000 0.606265
O O7 0.242197 0.680617 0.608791
O O8 0.271862 0.591680 0.748783
O O9 0.500000 0.095974 0.000000
O O10 0.264007 0.000000 0.000000
O O11 0.500000 0.895193 0.500000
O O12 0.744648 0.849055 0.413917
O O13 0.724530 0.000000 0.500000
O O14 0.000000 0.225727 0.372534
O O15 0.795887 0.500000 0.112235
O O16 0.000000 0.597582 0.179683
#
# Coordination Sequence:
#
# PCOD9387869 Si02
#       6
#     8   8   4   4   8   8
#     4   9  19  36  59  85 111 144 184 225 273 326
#     4   9  16  27  48  80 116 152 187 224 270 325
#     4  11  25  41  56  77 106 142 185 235 288 337
#     4  11  25  43  62  85 114 147 183 230 288 343
#     4  10  21  38  61  87 115 149 189 232 277 330
#     4   8  14  27  49  78 111 145 181 220 265 323
#
# _framework density 19.537219
#
# number of rings (size 3 to 8) (size 9 to 14) (size 15 to 20)
#    0.000    2.600    0.000    3.000    0.000    7.600 
#    0.000    5.000    0.000    6.000    0.000    0.000 
#    0.000    0.000    0.000    0.000    0.000    0.000 
#
# Total GULP energy -223073.411830 kJ/mol
# GULP energy per Si atom -5576.835296 kJ/mol
# Density = 1.949275 g / cm^3
# Si number density = 19.537219 Si / 1000 Ang^3
#
#
#
# Elastic Constant Matrix: (Units=GPa)
#
#
# Indices 1 2 3 4 5 6 
#
# 1 55.6668 76.1428 37.8377 0.0000 0.0000 0.0000
# 2 76.1428 231.7092 65.6803 0.0000 0.0000 0.0000
# 3 37.8377 65.6803 79.2953 0.0000 0.0000 0.0000
# 4 0.0000 0.0000 0.0000 31.4075 0.0000 0.0000
# 5 0.0000 0.0000 0.0000 0.0000 34.9659 0.0000
# 6 0.0000 0.0000 0.0000 0.0000 0.0000 32.7244
#
#
#
# Elastic Compliance Matrix: (Units=1/GPa)
#
#
# Indices 1 2 3 4 5 6 
#
# 1 0.038036 -0.009611 -0.010189 0.000000 0.000000 0.000000
# 2 -0.009611 0.008068 -0.002097 0.000000 0.000000 0.000000
# 3 -0.010189 -0.002097 0.019210 0.000000 0.000000 0.000000
# 4 0.000000 0.000000 0.000000 0.031840 0.000000 0.000000
# 5 0.000000 0.000000 0.000000 0.000000 0.028599 0.000000
# 6 0.000000 0.000000 0.000000 0.000000 0.000000 0.030558
#
#
# Mechanical properties :
#
#
# Convention : Reuss Voigt Hill
#
# Bulk Modulus (GPa) = 46.46758 80.66587 63.56673
# Shear Modulus (GPa) = 24.12213 32.28694 28.20453
#
# Velocity S-wave (km/s) = 3.51761 4.06961 3.80364
# Velocity P-wave (km/s) = 6.35089 7.96619 7.20396
#
# Compressibility (1/GPa) = 0.02152038
#
# Stress axis : x y z
#
# Youngs Moduli (GPa) = 26.29100 123.93952 52.05625
#
# Poissons Ratio (x) = 1.19117 0.53040
# Poissons Ratio (y) = 0.25268 0.10916
# Poissons Ratio (z) = 0.26788 0.25990
#
# Static dielectric constant tensor:
#      x y z
#    x 1.645600 0.000000 0.000000 
#    y 0.000000 1.709110 0.000000 
#    z 0.000000 0.000000 1.734400 
# 
# From -- ./inp_files/20694.got.cif
#   From: 2010.05.17/outbox.cif.g08.bks.cpg/sg47_11_cif.got.tgz:20694.got - 2010.06.03 20:15:42.
