data_PCOD9387340
_publ_section_title
;
Structure prediction by ZEFSAII (Michael W. Deem and Ramdas Pophale) SiO2 
 PCOD9387340
Probable space group: P M M M
;
_chemical_formula_sum "Si O2"
_cell_formula_units_Z 52
_cell_length_a 7.761965
_cell_length_b 13.698403
_cell_length_c 20.917986
_cell_angle_alpha 90.000000
_cell_angle_beta 90.000000
_cell_angle_gamma 90.000000
_cell_volume 2224.136754
_symmetry_space_group_name_H-M "P M M M"
_symmetry_group_IT_number 47
_symmetry_cell_setting 'orthorhombic'
loop_
_space_group_symop_operation_xyz
x,y,z
-x,-y,z
x,-y,-z
-x,y,-z
-x,-y,-z
x,y,-z
-x,y,z
x,-y,z
loop_
_atom_site_type_symbol
_atom_site_label
_atom_site_fract_x
_atom_site_fract_y
_atom_site_fract_z
Si Si1 0.196270 0.615724 0.000000
Si Si2 0.290628 0.822483 0.570374
Si Si3 0.799763 0.320425 0.266412
Si Si4 0.699781 0.605570 0.397904
Si Si5 0.201955 0.105394 0.293266
Si Si6 0.710433 0.108976 0.925862
Si Si7 0.300101 0.300975 0.134010
O O1 0.283653 0.649715 0.065129
O O2 0.193354 0.500000 0.000000
O O3 0.000000 0.652883 0.000000
O O4 0.244585 0.859008 0.500000
O O5 0.500000 0.822863 0.575727
O O6 0.230756 0.709083 0.576903
O O7 0.220132 0.882174 0.630153
O O8 0.708711 0.382358 0.320994
O O9 0.727659 0.208814 0.267752
O O10 0.786379 0.353990 0.193504
O O11 0.000000 0.317352 0.285179
O O12 0.500000 0.603568 0.417787
O O13 0.776628 0.500000 0.415684
O O14 0.000000 0.103763 0.276578
O O15 0.277561 0.000000 0.273780
O O16 0.500000 0.111488 0.924968
O O17 0.773901 0.192694 0.879053
O O18 0.765581 0.000000 0.908848
O O19 0.759243 0.127948 0.000000
O O20 0.500000 0.294293 0.150505
#
# Coordination Sequence:
#
# PCOD9387340 Si02
#       7
#     4   8   8   8   8   8   8
#     4  11  25  43  60  79 106 140 177 219 268 319
#     4   9  18  32  51  79 112 141 173 218 270 320
#     4  10  21  36  54  77 106 140 176 220 269 315
#     4   9  18  34  55  77 102 135 176 220 265 318
#     4   9  19  36  55  75 105 147 189 224 259 305
#     4   8  14  27  49  77 106 132 159 195 243 300
#     4  11  21  36  59  84 108 138 175 217 264 315
#
# _framework density 23.379857000000001
#
# number of rings (size 3 to 8) (size 9 to 14) (size 15 to 20)
#    0.000    2.538    0.769    1.615    0.000    4.000 
#    0.000    3.077    0.000    1.846    0.000    4.308 
#    0.000    0.000    0.000    0.000    0.000    0.000 
#
# Total GULP energy -290296.348666 kJ/mol
# GULP energy per Si atom -5582.622090 kJ/mol
# Density = 2.332664 g / cm^3
# Si number density = 23.379857 Si / 1000 Ang^3
#
#
#
# Elastic Constant Matrix: (Units=GPa)
#
#
# Indices 1 2 3 4 5 6 
#
# 1 49.6603 3.0273 -3.4060 0.0000 0.0000 0.0000
# 2 3.0273 68.8918 -12.9997 0.0000 0.0000 0.0000
# 3 -3.4060 -12.9997 95.6696 0.0000 0.0000 0.0000
# 4 0.0000 0.0000 0.0000 -5.1394 0.0000 0.0000
# 5 0.0000 0.0000 0.0000 0.0000 46.4613 0.0000
# 6 0.0000 0.0000 0.0000 0.0000 0.0000 4.3171
#
#
#
# Elastic Compliance Matrix: (Units=1/GPa)
#
#
# Indices 1 2 3 4 5 6 
#
# 1 0.020226 -0.000773 0.000615 0.000000 0.000000 0.000000
# 2 -0.000773 0.014927 0.002001 0.000000 0.000000 0.000000
# 3 0.000615 0.002001 0.010746 0.000000 0.000000 0.000000
# 4 0.000000 0.000000 0.000000 -0.194576 0.000000 0.000000
# 5 0.000000 0.000000 0.000000 0.000000 0.021523 0.000000
# 6 0.000000 0.000000 0.000000 0.000000 0.000000 0.231637
#
#
# Mechanical properties :
#
#
# Convention : Reuss Voigt Hill
#
# Bulk Modulus (GPa) = 20.16705 20.82943 20.49824
# Shear Modulus (GPa) = 42.61642 24.30116 33.45879
#
# Velocity S-wave (km/s) = 4.27404 3.22748 3.78709
# Velocity P-wave (km/s) = 5.74466 4.77675 5.28292
#
# Compressibility (1/GPa) = 0.04958584
#
# Stress axis : x y z
#
# Youngs Moduli (GPa) = 49.44104 66.99267 93.05433
#
# Poissons Ratio (x) = 0.05177 -0.05724
# Poissons Ratio (y) = 0.03820 -0.18618
# Poissons Ratio (z) = -0.03041 -0.13404
#
# Static dielectric constant tensor:
#      x y z
#    x 1.879190 0.000000 0.000000 
#    y 0.000000 1.913950 0.000000 
#    z 0.000000 0.000000 1.894390 
# 
# From -- ./inp_files/10988.got.cif
#   From: 2010.05.17/outbox.cif.g08.bks.cpg/sg47_6_cif.got.tgz:10988.got - 2010.06.03 20:15:42.
