data_PCOD9387626
_publ_section_title
;
Structure prediction by ZEFSAII (Michael W. Deem and Ramdas Pophale) SiO2 
 PCOD9387626
Probable space group: P M M M
;
_chemical_formula_sum "Si O2"
_cell_formula_units_Z 64
_cell_length_a 15.269005
_cell_length_b 25.890185
_cell_length_c 7.754395
_cell_angle_alpha 90.000000
_cell_angle_beta 90.000000
_cell_angle_gamma 90.000000
_cell_volume 3065.446992
_symmetry_space_group_name_H-M "P M M M"
_symmetry_group_IT_number 47
_symmetry_cell_setting 'orthorhombic'
loop_
_space_group_symop_operation_xyz
x,y,z
-x,-y,z
x,-y,-z
-x,y,-z
-x,-y,-z
x,y,-z
-x,y,z
x,-y,z
loop_
_atom_site_type_symbol
_atom_site_label
_atom_site_fract_x
_atom_site_fract_y
_atom_site_fract_z
Si Si1 0.905048 0.695219 0.791600
Si Si2 0.749816 0.136394 0.801564
Si Si3 0.289631 0.443490 0.288983
Si Si4 0.399301 0.058482 0.708609
Si Si5 0.273432 0.748945 0.791290
Si Si6 0.599713 0.344342 0.706274
Si Si7 0.901024 0.057773 0.293918
Si Si8 0.904883 0.575938 0.701752
O O1 0.820262 0.726116 0.735377
O O2 0.901754 0.637880 0.716207
O O3 0.000000 0.718418 0.746167
O O4 0.901800 0.690679 0.000000
O O5 0.666573 0.099543 0.783049
O O6 0.725315 0.192246 0.724664
O O7 0.832468 0.103168 0.738868
O O8 0.769457 0.146696 0.000000
O O9 0.286731 0.440682 0.500000
O O10 0.326957 0.500000 0.244104
O O11 0.344062 0.393633 0.228278
O O12 0.188583 0.441704 0.226978
O O13 0.393853 0.060446 0.500000
O O14 0.500000 0.068031 0.757047
O O15 0.376292 0.000000 0.760676
O O16 0.348887 0.709052 0.737682
O O17 0.276588 0.749146 0.000000
O O18 0.594784 0.350756 0.500000
O O19 0.500000 0.343486 0.773297
O O20 0.906132 0.053994 0.500000
O O21 0.000000 0.067939 0.229030
O O22 0.873705 0.000000 0.231022
O O23 0.906149 0.561345 0.500000
O O24 0.000000 0.560188 0.776211
#
# Coordination Sequence:
#
# PCOD9387626 Si02
#       8
#     8   8   8   8   8   8   8   8
#     4   9  17  31  52  73  95 130 172 208 246 296
#     4  11  23  35  52  82 114 143 179 225 276 327
#     4   9  17  30  50  78 110 138 166 210 268 324
#     4   9  19  37  59  80 104 138 178 219 268 326
#     4  10  22  38  54  75 106 143 177 214 265 320
#     4  10  21  37  57  79 102 133 178 228 272 318
#     4   9  19  37  59  82 112 152 193 229 268 317
#     4   9  16  27  47  75 104 133 165 203 249 302
#
# _framework density 20.877869
#
# number of rings (size 3 to 8) (size 9 to 14) (size 15 to 20)
#    0.000    2.500    1.250    1.500    0.000    5.250 
#    0.000    7.500    0.000    3.000    0.000    2.625 
#    0.000    0.000    0.000    0.000    0.000    0.000 
#
# Total GULP energy -356953.582110 kJ/mol
# GULP energy per Si atom -5577.399720 kJ/mol
# Density = 2.083035 g / cm^3
# Si number density = 20.877869 Si / 1000 Ang^3
#
#
#
# Elastic Constant Matrix: (Units=GPa)
#
#
# Indices 1 2 3 4 5 6 
#
# 1 153.1825 104.6339 8.4712 0.0000 0.0000 0.0000
# 2 104.6339 169.6066 5.5390 0.0000 0.0000 0.0000
# 3 8.4712 5.5390 27.4047 0.0000 0.0000 0.0000
# 4 0.0000 0.0000 0.0000 13.7957 0.0000 0.0000
# 5 0.0000 0.0000 0.0000 0.0000 28.6557 0.0000
# 6 0.0000 0.0000 0.0000 0.0000 0.0000 65.0472
#
#
#
# Elastic Compliance Matrix: (Units=1/GPa)
#
#
# Indices 1 2 3 4 5 6 
#
# 1 0.011403 -0.006966 -0.002117 0.000000 0.000000 0.000000
# 2 -0.006966 0.010190 0.000094 0.000000 0.000000 0.000000
# 3 -0.002117 0.000094 0.037126 0.000000 0.000000 0.000000
# 4 0.000000 0.000000 0.000000 0.072486 0.000000 0.000000
# 5 0.000000 0.000000 0.000000 0.000000 0.034897 0.000000
# 6 0.000000 0.000000 0.000000 0.000000 0.000000 0.015373
#
#
# Mechanical properties :
#
#
# Convention : Reuss Voigt Hill
#
# Bulk Modulus (GPa) = 24.54547 65.27578 44.91063
# Shear Modulus (GPa) = 23.47035 36.93638 30.20336
#
# Velocity S-wave (km/s) = 3.35651 4.21071 3.80764
# Velocity P-wave (km/s) = 5.17723 7.41441 6.39442
#
# Compressibility (1/GPa) = 0.04074072
#
# Stress axis : x y z
#
# Youngs Moduli (GPa) = 87.69333 98.13239 26.93560
#
# Poissons Ratio (x) = 0.68357 0.05702
# Poissons Ratio (y) = 0.61086 -0.00252
# Poissons Ratio (z) = 0.18565 -0.00919
#
# Static dielectric constant tensor:
#      x y z
#    x 1.748670 0.000000 0.000000 
#    y 0.000000 1.753590 0.000000 
#    z 0.000000 0.000000 1.791780 
# 
# From -- ./inp_files/7896.got.cif
#   From: 2010.05.17/outbox.cif.g08.bks.cpg/sg47_4_cif.got.tgz:7896.got - 2010.06.03 20:15:42.
