data_PCOD9387924
_publ_section_title
;
Structure prediction by ZEFSAII (Michael W. Deem and Ramdas Pophale) SiO2 
 PCOD9387924
Probable space group: P M M M
;
_chemical_formula_sum "Si O2"
_cell_formula_units_Z 44
_cell_length_a 14.739687
_cell_length_b 7.471587
_cell_length_c 19.662004
_cell_angle_alpha 90.000000
_cell_angle_beta 90.000000
_cell_angle_gamma 90.000000
_cell_volume 2165.353963
_symmetry_space_group_name_H-M "P M M M"
_symmetry_group_IT_number 47
_symmetry_cell_setting 'orthorhombic'
loop_
_space_group_symop_operation_xyz
x,y,z
-x,-y,z
x,-y,-z
-x,y,-z
-x,-y,-z
x,y,-z
-x,y,z
x,-y,z
loop_
_atom_site_type_symbol
_atom_site_label
_atom_site_fract_x
_atom_site_fract_y
_atom_site_fract_z
Si Si1 0.602623 0.716578 0.814117
Si Si2 0.897388 0.781896 0.649906
Si Si3 0.390585 0.500000 0.419010
Si Si4 0.890862 0.799306 0.500000
Si Si5 0.101259 0.000000 0.082611
Si Si6 0.298305 0.793671 0.674683
Si Si7 0.754383 0.288466 0.919804
O O1 0.500000 0.778780 0.823105
O O2 0.601531 0.500000 0.811854
O O3 0.644190 0.779903 0.743295
O O4 0.668446 0.768042 0.875528
O O5 0.872415 0.717185 0.573250
O O6 0.806314 0.737185 0.690777
O O7 0.000000 0.720960 0.667947
O O8 0.903334 0.000000 0.647642
O O9 0.500000 0.500000 0.408030
O O10 0.373965 0.500000 0.500000
O O11 0.344999 0.330542 0.381632
O O12 0.000000 0.815483 0.500000
O O13 0.850975 0.000000 0.500000
O O14 0.158939 0.826506 0.102055
O O15 0.000000 0.000000 0.110488
O O16 0.095727 0.000000 0.000000
O O17 0.296032 0.000000 0.651734
O O18 0.769935 0.500000 0.910750
O O19 0.738635 0.256267 0.000000
#
# Coordination Sequence:
#
# PCOD9387924 Si02
#       7
#     8   8   4   4   4   8   8
#     4  10  21  39  62  86 119 159 199 248 308 367
#     4   8  15  29  51  81 114 146 182 229 282 343
#     4  11  26  46  63  85 120 154 197 262 315 353
#     4   7  10  20  42  71 101 132 169 213 268 328
#     4   9  18  34  57  87 125 165 205 250 300 358
#     4  11  23  39  64  90 117 156 204 243 296 375
#     4   9  19  36  59  89 123 158 205 256 300 355
#
# _framework density 20.320003
#
# number of rings (size 3 to 8) (size 9 to 14) (size 15 to 20)
#    0.000    2.636    0.909    1.636    2.545    2.545 
#    0.000    5.909    0.000    3.273    0.000    0.000 
#    0.000    0.000    0.000    0.000    0.000    0.000 
#
# Total GULP energy -245404.905469 kJ/mol
# GULP energy per Si atom -5577.384215 kJ/mol
# Density = 2.027375 g / cm^3
# Si number density = 20.320003 Si / 1000 Ang^3
#
#
#
# Elastic Constant Matrix: (Units=GPa)
#
#
# Indices 1 2 3 4 5 6 
#
# 1 211.5870 57.5071 72.8931 0.0000 0.0000 0.0000
# 2 57.5071 87.6939 38.4068 0.0000 0.0000 0.0000
# 3 72.8931 38.4068 63.3177 0.0000 0.0000 0.0000
# 4 0.0000 0.0000 0.0000 -40.9510 0.0000 0.0000
# 5 0.0000 0.0000 0.0000 0.0000 21.5856 0.0000
# 6 0.0000 0.0000 0.0000 0.0000 0.0000 24.5483
#
#
#
# Elastic Compliance Matrix: (Units=1/GPa)
#
#
# Indices 1 2 3 4 5 6 
#
# 1 0.008005 -0.001652 -0.008213 0.000000 0.000000 0.000000
# 2 -0.001652 0.015870 -0.007724 0.000000 0.000000 0.000000
# 3 -0.008213 -0.007724 0.029934 0.000000 0.000000 0.000000
# 4 0.000000 0.000000 0.000000 -0.024419 0.000000 0.000000
# 5 0.000000 0.000000 0.000000 0.000000 0.046327 0.000000
# 6 0.000000 0.000000 0.000000 0.000000 0.000000 0.040736
#
#
# Mechanical properties :
#
#
# Convention : Reuss Voigt Hill
#
# Bulk Modulus (GPa) = 53.67852 77.80139 65.73996
# Shear Modulus (GPa) = 31.67764 13.95601 22.81682
#
# Velocity S-wave (km/s) = 3.95262 2.62355 3.35457
# Velocity P-wave (km/s) = 6.87786 6.89555 6.88671
#
# Compressibility (1/GPa) = 0.01862943
#
# Stress axis : x y z
#
# Youngs Moduli (GPa) = 124.92679 63.01347 33.40730
#
# Poissons Ratio (x) = 0.10411 0.27437
# Poissons Ratio (y) = 0.20641 0.25804
# Poissons Ratio (z) = 1.02603 0.48671
#
# Static dielectric constant tensor:
#      x y z
#    x 1.721510 0.000000 0.000000 
#    y 0.000000 1.777740 0.000000 
#    z 0.000000 0.000000 1.726240 
# 
# From -- ./inp_files/27936.got.cif
#   From: 2010.05.17/outbox.cif.g08.bks.cpg/sg47_14_cif.got.tgz:27936.got - 2010.06.03 20:15:42.
