data_PCOD9387183
_publ_section_title
;
Structure prediction by ZEFSAII (Michael W. Deem and Ramdas Pophale) SiO2 
 PCOD9387183
Probable space group: P M M M
;
_chemical_formula_sum "Si O2"
_cell_formula_units_Z 52
_cell_length_a 14.198461
_cell_length_b 15.952259
_cell_length_c 11.397125
_cell_angle_alpha 90.000000
_cell_angle_beta 90.000000
_cell_angle_gamma 90.000000
_cell_volume 2581.420631
_symmetry_space_group_name_H-M "P M M M"
_symmetry_group_IT_number 47
_symmetry_cell_setting 'orthorhombic'
loop_
_space_group_symop_operation_xyz
x,y,z
-x,-y,z
x,-y,-z
-x,y,-z
-x,-y,-z
x,y,-z
-x,y,z
x,-y,z
loop_
_atom_site_type_symbol
_atom_site_label
_atom_site_fract_x
_atom_site_fract_y
_atom_site_fract_z
Si Si1 0.109409 0.746249 0.630636
Si Si2 0.608807 0.628587 0.366613
Si Si3 0.311041 0.097693 0.873689
Si Si4 0.207482 0.404408 0.756797
Si Si5 0.105172 0.905614 0.202653
Si Si6 0.389993 0.169237 0.630677
Si Si7 0.891300 0.601013 0.000000
O O1 0.138363 0.768368 0.500000
O O2 0.167161 0.666463 0.672193
O O3 0.116364 0.829408 0.707640
O O4 0.000000 0.721089 0.632973
O O5 0.634635 0.601231 0.500000
O O6 0.500000 0.605060 0.346364
O O7 0.681277 0.596690 0.269240
O O8 0.613738 0.729752 0.366847
O O9 0.197433 0.100588 0.875882
O O10 0.342139 0.137636 0.750245
O O11 0.339138 0.000000 0.869172
O O12 0.345793 0.132861 0.000000
O O13 0.173931 0.500000 0.735455
O O14 0.168335 0.377656 0.884301
O O15 0.000000 0.897746 0.149123
O O16 0.108576 0.000000 0.255623
O O17 0.354418 0.142384 0.500000
O O18 0.500000 0.144571 0.635885
O O19 0.898522 0.500000 0.000000
O O20 0.000000 0.633653 0.000000
#
# Coordination Sequence:
#
# PCOD9387183 Si02
#       7
#     8   8   8   8   8   8   4
#     4  10  21  36  55  84 119 150 189 245 300 353
#     4   9  19  37  59  84 116 151 190 240 294 349
#     4  10  21  35  53  82 118 151 187 241 304 356
#     4  11  22  37  59  85 115 155 198 240 294 357
#     4   9  19  37  58  80 112 157 202 240 285 345
#     4   9  19  38  61  81 108 151 197 240 290 350
#     4   9  20  40  61  79 108 154 203 246 287 341
#
# _framework density 20.143947000000001
#
# number of rings (size 3 to 8) (size 9 to 14) (size 15 to 20)
#    0.000    2.385    0.000    2.769    0.000    5.846 
#    5.538    8.077    0.000    1.385    0.000    0.000 
#    0.000    0.000    0.000    0.000    0.000    0.000 
#
# Total GULP energy -289763.171434 kJ/mol
# GULP energy per Si atom -5572.368681 kJ/mol
# Density = 2.009810 g / cm^3
# Si number density = 20.143947 Si / 1000 Ang^3
#
#
#
# Elastic Constant Matrix: (Units=GPa)
#
#
# Indices 1 2 3 4 5 6 
#
# 1 100.9467 24.0622 68.2006 0.0000 0.0000 0.0000
# 2 24.0622 69.1126 33.6984 0.0000 0.0000 0.0000
# 3 68.2006 33.6984 122.6424 0.0000 0.0000 0.0000
# 4 0.0000 0.0000 0.0000 4.1011 0.0000 0.0000
# 5 0.0000 0.0000 0.0000 0.0000 166.1191 0.0000
# 6 0.0000 0.0000 0.0000 0.0000 0.0000 25.2621
#
#
#
# Elastic Compliance Matrix: (Units=1/GPa)
#
#
# Indices 1 2 3 4 5 6 
#
# 1 0.015988 -0.001422 -0.008500 0.000000 0.000000 0.000000
# 2 -0.001422 0.016834 -0.003835 0.000000 0.000000 0.000000
# 3 -0.008500 -0.003835 0.013934 0.000000 0.000000 0.000000
# 4 0.000000 0.000000 0.000000 0.243837 0.000000 0.000000
# 5 0.000000 0.000000 0.000000 0.000000 0.006020 0.000000
# 6 0.000000 0.000000 0.000000 0.000000 0.000000 0.039585
#
#
# Mechanical properties :
#
#
# Convention : Reuss Voigt Hill
#
# Bulk Modulus (GPa) = 51.96759 60.51380 56.24069
# Shear Modulus (GPa) = 13.50893 50.21250 31.86071
#
# Velocity S-wave (km/s) = 2.59244 4.99810 3.98131
# Velocity P-wave (km/s) = 5.90043 7.96328 7.00817
#
# Compressibility (1/GPa) = 0.01924276
#
# Stress axis : x y z
#
# Youngs Moduli (GPa) = 62.54754 59.40373 71.76540
#
# Poissons Ratio (x) = 0.08446 0.61001
# Poissons Ratio (y) = 0.08893 0.27521
# Poissons Ratio (z) = 0.53166 0.22780
#
# Static dielectric constant tensor:
#      x y z
#    x 1.763780 0.000000 0.000000 
#    y 0.000000 1.707320 0.000000 
#    z 0.000000 0.000000 1.722730 
# 
# From -- ./inp_files/17645.got.cif
#   From: 2010.05.17/outbox.cif.g08.bks.cpg/sg47_9_cif.got.tgz:17645.got - 2010.06.03 20:15:42.
