data_PCOD9387348
_publ_section_title
;
Structure prediction by ZEFSAII (Michael W. Deem and Ramdas Pophale) SiO2 
 PCOD9387348
Probable space group: P M M M
;
_chemical_formula_sum "Si O2"
_cell_formula_units_Z 56
_cell_length_a 9.038590
_cell_length_b 15.505755
_cell_length_c 20.622091
_cell_angle_alpha 90.000000
_cell_angle_beta 90.000000
_cell_angle_gamma 90.000000
_cell_volume 2890.189396
_symmetry_space_group_name_H-M "P M M M"
_symmetry_group_IT_number 47
_symmetry_cell_setting 'orthorhombic'
loop_
_space_group_symop_operation_xyz
x,y,z
-x,-y,z
x,-y,-z
-x,y,-z
-x,-y,-z
x,y,-z
-x,y,z
x,-y,z
loop_
_atom_site_type_symbol
_atom_site_label
_atom_site_fract_x
_atom_site_fract_y
_atom_site_fract_z
Si Si1 0.823423 0.102511 0.166344
Si Si2 0.323642 0.660643 0.429220
Si Si3 0.677460 0.600962 0.830689
Si Si4 0.177023 0.848456 0.570960
Si Si5 0.665197 0.101878 0.297897
Si Si6 0.678096 0.243248 0.075617
Si Si7 0.834379 0.397714 0.301099
O O1 0.755610 0.132635 0.235380
O O2 0.754248 0.163011 0.111451
O O3 0.000000 0.111120 0.168081
O O4 0.790150 0.000000 0.156617
O O5 0.295819 0.618259 0.500000
O O6 0.500000 0.672054 0.423384
O O7 0.241085 0.752058 0.430864
O O8 0.259579 0.615994 0.365858
O O9 0.500000 0.603154 0.822010
O O10 0.716891 0.500000 0.843540
O O11 0.716883 0.667584 0.887539
O O12 0.753612 0.632273 0.764148
O O13 0.213278 0.888050 0.500000
O O14 0.251079 0.887626 0.634362
O O15 0.000000 0.848857 0.577345
O O16 0.500000 0.140721 0.300792
O O17 0.650683 0.000000 0.287944
O O18 0.500000 0.233244 0.080514
O O19 0.717765 0.246949 0.000000
O O20 0.847342 0.500000 0.293000
O O21 0.000000 0.360413 0.307826
#
# Coordination Sequence:
#
# PCOD9387348 Si02
#       7
#     8   8   8   8   8   8   8
#     4  10  22  40  61  86 118 156 198 244 293 348
#     4  10  21  36  54  77 107 145 189 237 288 341
#     4   9  19  37  60  86 118 155 195 240 288 344
#     4  10  21  36  54  78 110 148 189 234 285 340
#     4  10  21  37  58  83 111 146 189 236 286 341
#     4  10  22  39  61  91 122 154 193 236 290 354
#     4  10  21  36  55  80 110 146 188 234 287 345
#
# _framework density 19.375893000000001
#
# number of rings (size 3 to 8) (size 9 to 14) (size 15 to 20)
#    0.000    2.143    0.000    2.143    2.000    6.286 
#    0.000    5.714    0.000    0.000    0.000    3.000 
#    0.000    0.000    0.000    0.000    0.000    0.000 
#
# Total GULP energy -312403.546359 kJ/mol
# GULP energy per Si atom -5578.634756 kJ/mol
# Density = 1.933179 g / cm^3
# Si number density = 19.375893 Si / 1000 Ang^3
#
#
#
# Elastic Constant Matrix: (Units=GPa)
#
#
# Indices 1 2 3 4 5 6 
#
# 1 82.3677 38.3584 81.9637 0.0000 0.0000 0.0000
# 2 38.3584 60.5206 61.6336 0.0000 0.0000 0.0000
# 3 81.9637 61.6336 204.8110 0.0000 0.0000 0.0000
# 4 0.0000 0.0000 0.0000 -5.4429 0.0000 0.0000
# 5 0.0000 0.0000 0.0000 0.0000 23.6059 0.0000
# 6 0.0000 0.0000 0.0000 0.0000 0.0000 25.6455
#
#
#
# Elastic Compliance Matrix: (Units=1/GPa)
#
#
# Indices 1 2 3 4 5 6 
#
# 1 0.022173 -0.007234 -0.006697 0.000000 0.000000 0.000000
# 2 -0.007234 0.026185 -0.004985 0.000000 0.000000 0.000000
# 3 -0.006697 -0.004985 0.009063 0.000000 0.000000 0.000000
# 4 0.000000 0.000000 0.000000 -0.183727 0.000000 0.000000
# 5 0.000000 0.000000 0.000000 0.000000 0.042362 0.000000
# 6 0.000000 0.000000 0.000000 0.000000 0.000000 0.038993
#
#
# Mechanical properties :
#
#
# Convention : Reuss Voigt Hill
#
# Bulk Modulus (GPa) = 51.04661 79.06787 65.05724
# Shear Modulus (GPa) = -8461.79570 19.81130 -4220.99220
#
# Velocity S-wave (km/s) = -66.15631 3.20108 -46.72478
# Velocity P-wave (km/s) = 76.21772 7.38637 53.64039
#
# Compressibility (1/GPa) = 0.01958994
#
# Stress axis : x y z
#
# Youngs Moduli (GPa) = 45.09933 38.19049 110.34337
#
# Poissons Ratio (x) = 0.27626 0.73894
# Poissons Ratio (y) = 0.32623 0.55004
# Poissons Ratio (z) = 0.30202 0.19037
#
# Static dielectric constant tensor:
#      x y z
#    x 1.676480 0.000000 0.000000 
#    y 0.000000 1.710850 0.000000 
#    z 0.000000 0.000000 1.677040 
# 
# From -- ./inp_files/7220.got.cif
#   From: 2010.05.17/outbox.cif.g08.bks.cpg/sg47_4_cif.got.tgz:7220.got - 2010.06.03 20:15:42.
