data_PCOD9387726
_publ_section_title
;
Structure prediction by ZEFSAII (Michael W. Deem and Ramdas Pophale) SiO2 
 PCOD9387726
Probable space group: P M M M
;
_chemical_formula_sum "Si O2"
_cell_formula_units_Z 64
_cell_length_a 23.649818
_cell_length_b 16.411527
_cell_length_c 8.005408
_cell_angle_alpha 90.000000
_cell_angle_beta 90.000000
_cell_angle_gamma 90.000000
_cell_volume 3107.136018
_symmetry_space_group_name_H-M "P M M M"
_symmetry_group_IT_number 47
_symmetry_cell_setting 'orthorhombic'
loop_
_space_group_symop_operation_xyz
x,y,z
-x,-y,z
x,-y,-z
-x,y,-z
-x,-y,-z
x,y,-z
-x,y,z
x,-y,z
loop_
_atom_site_type_symbol
_atom_site_label
_atom_site_fract_x
_atom_site_fract_y
_atom_site_fract_z
Si Si1 0.819264 0.813068 0.305089
Si Si2 0.097179 0.586974 0.200221
Si Si3 0.589525 0.092677 0.806967
Si Si4 0.285431 0.095184 0.690545
Si Si5 0.221971 0.639740 0.201217
Si Si6 0.061324 0.235465 0.301011
Si Si7 0.438583 0.725981 0.697725
Si Si8 0.652267 0.409385 0.200574
O O1 0.824632 0.837238 0.500000
O O2 0.770636 0.868429 0.228979
O O3 0.792380 0.723771 0.291587
O O4 0.882261 0.807647 0.231486
O O5 0.074495 0.500000 0.259383
O O6 0.164908 0.588740 0.230005
O O7 0.070710 0.667995 0.276020
O O8 0.088957 0.592037 0.000000
O O9 0.656963 0.105095 0.790565
O O10 0.566625 0.176710 0.730863
O O11 0.577185 0.000000 0.737888
O O12 0.572537 0.090940 0.000000
O O13 0.294260 0.128513 0.500000
O O14 0.276141 0.000000 0.674656
O O15 0.282632 0.605679 0.255590
O O16 0.224924 0.653216 0.000000
O O17 0.060876 0.220705 0.500000
O O18 0.000000 0.211907 0.231968
O O19 0.439133 0.716034 0.500000
O O20 0.500000 0.699929 0.767567
O O21 0.388245 0.666920 0.758122
O O22 0.633744 0.500000 0.261021
O O23 0.653907 0.413118 0.000000
#
# Coordination Sequence:
#
# PCOD9387726 Si02
#       8
#     8   8   8   8   8   8   8   8
#     4   9  17  29  46  68  94 126 164 203 244 293
#     4   9  17  29  45  65  90 118 148 188 238 290
#     4  10  21  37  59  87 115 140 168 207 257 314
#     4   9  17  30  50  76 105 133 159 193 242 300
#     4   9  17  30  49  73  99 125 156 197 249 304
#     4   9  18  31  44  59  84 121 162 201 240 281
#     4  11  25  42  58  78 107 144 183 220 258 304
#     4  10  21  37  58  82 107 138 177 222 270 316
#
# _framework density 20.597746000000001
#
# number of rings (size 3 to 8) (size 9 to 14) (size 15 to 20)
#    0.000    2.500    0.000    1.875    0.000    7.750 
#    0.000    3.750    0.000    2.625    0.000    2.625 
#    0.000    0.000    0.000    9.375    0.000    9.750 
#
# Total GULP energy -356524.071023 kJ/mol
# GULP energy per Si atom -5570.688610 kJ/mol
# Density = 2.055086 g / cm^3
# Si number density = 20.597746 Si / 1000 Ang^3
#
#
#
# Elastic Constant Matrix: (Units=GPa)
#
#
# Indices 1 2 3 4 5 6 
#
# 1 110.1904 42.2713 7.6534 0.0000 0.0000 0.0000
# 2 42.2713 39.6677 4.7768 0.0000 0.0000 0.0000
# 3 7.6534 4.7768 17.6135 0.0000 0.0000 0.0000
# 4 0.0000 0.0000 0.0000 17.2211 0.0000 0.0000
# 5 0.0000 0.0000 0.0000 0.0000 -4.3098 0.0000
# 6 0.0000 0.0000 0.0000 0.0000 0.0000 1.9344
#
#
#
# Elastic Compliance Matrix: (Units=1/GPa)
#
#
# Indices 1 2 3 4 5 6 
#
# 1 0.015442 -0.016176 -0.002323 0.000000 0.000000 0.000000
# 2 -0.016176 0.043005 -0.004634 0.000000 0.000000 0.000000
# 3 -0.002323 -0.004634 0.059041 0.000000 0.000000 0.000000
# 4 0.000000 0.000000 0.000000 0.058068 0.000000 0.000000
# 5 0.000000 0.000000 0.000000 0.000000 -0.232029 0.000000
# 6 0.000000 0.000000 0.000000 0.000000 0.000000 0.516960
#
#
# Mechanical properties :
#
#
# Convention : Reuss Voigt Hill
#
# Bulk Modulus (GPa) = 14.04069 30.76383 22.40226
# Shear Modulus (GPa) = 9.42518 10.48714 9.95616
#
# Velocity S-wave (km/s) = 2.14144 2.25886 2.20093
# Velocity P-wave (km/s) = 3.59802 4.66597 4.16635
#
# Compressibility (1/GPa) = 0.07122159
#
# Stress axis : x y z
#
# Youngs Moduli (GPa) = 64.75918 23.25325 16.93744
#
# Poissons Ratio (x) = 0.37614 0.03934
# Poissons Ratio (y) = 1.04752 0.07850
# Poissons Ratio (z) = 0.15043 0.10777
#
# Static dielectric constant tensor:
#      x y z
#    x 1.789880 0.000000 0.000000 
#    y 0.000000 1.766000 0.000000 
#    z 0.000000 0.000000 1.777750 
# 
# From -- ./inp_files/12719.got.cif
#   From: 2010.05.17/outbox.cif.g08.bks.cpg/sg47_7_cif.got.tgz:12719.got - 2010.06.03 20:15:42.
