data_PCOD9387632
_publ_section_title
;
Structure prediction by ZEFSAII (Michael W. Deem and Ramdas Pophale) SiO2 
 PCOD9387632
Probable space group: P M M M
;
_chemical_formula_sum "Si O2"
_cell_formula_units_Z 64
_cell_length_a 16.027042
_cell_length_b 7.710924
_cell_length_c 24.612240
_cell_angle_alpha 90.000000
_cell_angle_beta 90.000000
_cell_angle_gamma 90.000000
_cell_volume 3041.661909
_symmetry_space_group_name_H-M "P M M M"
_symmetry_group_IT_number 47
_symmetry_cell_setting 'orthorhombic'
loop_
_space_group_symop_operation_xyz
x,y,z
-x,-y,z
x,-y,-z
-x,y,-z
-x,-y,-z
x,y,-z
-x,y,z
x,-y,z
loop_
_atom_site_type_symbol
_atom_site_label
_atom_site_fract_x
_atom_site_fract_y
_atom_site_fract_z
Si Si1 0.173139 0.289443 0.059666
Si Si2 0.590149 0.212852 0.822000
Si Si3 0.594466 0.790326 0.562476
Si Si4 0.247578 0.799289 0.240156
Si Si5 0.752306 0.295727 0.635692
Si Si6 0.094274 0.711683 0.437369
Si Si7 0.091607 0.705884 0.170353
Si Si8 0.631695 0.795336 0.058952
O O1 0.175457 0.500000 0.061201
O O2 0.123509 0.225047 0.112146
O O3 0.268387 0.225901 0.062988
O O4 0.139753 0.239203 0.000000
O O5 0.500000 0.263460 0.799052
O O6 0.670080 0.276708 0.788719
O O7 0.596243 0.272776 0.884551
O O8 0.592279 0.000000 0.822195
O O9 0.610069 0.734888 0.500000
O O10 0.500000 0.734839 0.577405
O O11 0.667660 0.730011 0.601724
O O12 0.594883 0.000000 0.563013
O O13 0.253267 0.782556 0.304605
O O14 0.162019 0.728782 0.215624
O O15 0.246587 0.000000 0.225121
O O16 0.765565 0.500000 0.643304
O O17 0.831438 0.227213 0.601316
O O18 0.108366 0.764873 0.500000
O O19 0.095611 0.500000 0.437087
O O20 0.000000 0.764054 0.421500
O O21 0.084201 0.500000 0.162924
O O22 0.000000 0.775021 0.184723
O O23 0.611717 0.000000 0.057758
O O24 0.606202 0.721883 0.000000
#
# Coordination Sequence:
#
# PCOD9387632 Si02
#       8
#     8   8   8   8   8   8   8   8
#     4   9  17  30  51  78 107 137 169 212 271 336
#     4   9  18  33  53  76 101 133 175 222 272 323
#     4   9  19  37  60  86 118 155 191 228 276 333
#     4  11  23  39  56  76 106 146 189 232 276 326
#     4  11  22  35  56  85 114 146 187 234 280 328
#     4   8  15  30  53  81 111 140 170 208 260 321
#     4  10  21  37  57  79 105 140 182 229 280 332
#     4   9  16  28  50  78 104 130 165 213 268 326
#
# _framework density 21.041129000000002
#
# number of rings (size 3 to 8) (size 9 to 14) (size 15 to 20)
#    0.000    2.500    1.250    1.875    0.000    2.750 
#    0.000    5.625    0.000    4.125    0.000    8.750 
#    0.000    0.000    0.000    0.000    0.000    0.000 
#
# Total GULP energy -357159.606669 kJ/mol
# GULP energy per Si atom -5580.618854 kJ/mol
# Density = 2.099324 g / cm^3
# Si number density = 21.041129 Si / 1000 Ang^3
#
#
#
# Elastic Constant Matrix: (Units=GPa)
#
#
# Indices 1 2 3 4 5 6 
#
# 1 164.4597 -4.0768 85.4782 0.0000 0.0000 0.0000
# 2 -4.0768 31.2337 -9.6000 0.0000 0.0000 0.0000
# 3 85.4782 -9.6000 110.5079 0.0000 0.0000 0.0000
# 4 0.0000 0.0000 0.0000 25.2922 0.0000 0.0000
# 5 0.0000 0.0000 0.0000 0.0000 -13.0709 0.0000
# 6 0.0000 0.0000 0.0000 0.0000 0.0000 9.7839
#
#
#
# Elastic Compliance Matrix: (Units=1/GPa)
#
#
# Indices 1 2 3 4 5 6 
#
# 1 0.010207 -0.001124 -0.007993 0.000000 0.000000 0.000000
# 2 -0.001124 0.033019 0.003738 0.000000 0.000000 0.000000
# 3 -0.007993 0.003738 0.015556 0.000000 0.000000 0.000000
# 4 0.000000 0.000000 0.000000 0.039538 0.000000 0.000000
# 5 0.000000 0.000000 0.000000 0.000000 -0.076506 0.000000
# 6 0.000000 0.000000 0.000000 0.000000 0.000000 0.102209
#
#
# Mechanical properties :
#
#
# Convention : Reuss Voigt Hill
#
# Bulk Modulus (GPa) = 20.82291 49.97825 35.40058
# Shear Modulus (GPa) = 33.15897 20.02771 26.59334
#
# Velocity S-wave (km/s) = 3.97408 3.08853 3.55896
# Velocity P-wave (km/s) = 5.56557 6.04342 5.80941
#
# Compressibility (1/GPa) = 0.04802403
#
# Stress axis : x y z
#
# Youngs Moduli (GPa) = 97.97310 30.28571 64.28274
#
# Poissons Ratio (x) = 0.03405 0.51380
# Poissons Ratio (y) = 0.11016 -0.24030
# Poissons Ratio (z) = 0.78307 -0.11321
#
# Static dielectric constant tensor:
#      x y z
#    x 1.767230 0.000000 0.000000 
#    y 0.000000 1.823770 0.000000 
#    z 0.000000 0.000000 1.730190 
# 
# From -- ./inp_files/25598.got.cif
#   From: 2010.05.17/outbox.cif.g08.bks.cpg/sg47_13_cif.got.tgz:25598.got - 2010.06.03 20:15:42.
