data_PCOD9387718
_publ_section_title
;
Structure prediction by ZEFSAII (Michael W. Deem and Ramdas Pophale) SiO2 
 PCOD9387718
Probable space group: P M M M
;
_chemical_formula_sum "Si O2"
_cell_formula_units_Z 37
_cell_length_a 10.303677
_cell_length_b 7.736878
_cell_length_c 23.035356
_cell_angle_alpha 90.000000
_cell_angle_beta 90.000000
_cell_angle_gamma 90.000000
_cell_volume 1836.339234
_symmetry_space_group_name_H-M "P M M M"
_symmetry_group_IT_number 47
_symmetry_cell_setting 'orthorhombic'
loop_
_space_group_symop_operation_xyz
x,y,z
-x,-y,z
x,-y,-z
-x,y,-z
-x,-y,-z
x,y,-z
-x,y,z
x,-y,z
loop_
_atom_site_type_symbol
_atom_site_label
_atom_site_fract_x
_atom_site_fract_y
_atom_site_fract_z
Si Si1 0.351534 0.706143 0.000000
Si Si2 0.146447 0.791015 0.221117
Si Si3 0.500000 0.191459 0.403773
Si Si4 0.765653 0.706001 0.649014
Si Si5 0.351436 0.206076 0.126804
Si Si6 0.500000 0.500000 0.500000
Si Si7 0.000000 0.711304 0.433302
O O1 0.296980 0.762881 0.938050
O O2 0.354906 0.500000 0.000000
O O3 0.500000 0.775112 0.000000
O O4 0.184531 0.743034 0.286537
O O5 0.253979 0.725897 0.175672
O O6 0.000000 0.729789 0.208714
O O7 0.145136 0.000000 0.217575
O O8 0.628207 0.210450 0.364723
O O9 0.500000 0.347010 0.449724
O O10 0.500000 0.000000 0.430326
O O11 0.752160 0.500000 0.642077
O O12 0.872951 0.765879 0.602246
O O13 0.500000 0.275672 0.130302
O O14 0.360507 0.000000 0.134641
O O15 0.000000 0.500000 0.433700
O O16 0.000000 0.768471 0.500000
#
# Coordination Sequence:
#
# PCOD9387718 Si02
#       7
#     4   8   4   8   8   1   4
#     4   9  17  31  52  81 114 144 186 247 308 366
#     4  10  21  37  57  84 122 162 206 257 311 372
#     4  12  27  45  71  98 131 170 209 262 321 383
#     4  11  22  41  64  92 127 166 210 261 313 377
#     4   9  18  33  55  81 111 154 203 251 303 366
#     4  12  26  52  68 100 136 164 210 260 328 386
#     4   9  20  36  63  89 121 164 208 255 310 368
#
# _framework density 20.148783000000002
#
# number of rings (size 3 to 8) (size 9 to 14) (size 15 to 20)
#    0.000    1.946    2.162    1.135    3.027    2.162 
#    0.000    0.541    0.000    5.838    0.000    0.000 
#    0.000    0.000    0.000    0.000    0.000    0.000 
#
# Total GULP energy -206314.070885 kJ/mol
# GULP energy per Si atom -5576.055970 kJ/mol
# Density = 2.010292 g / cm^3
# Si number density = 20.148783 Si / 1000 Ang^3
#
#
#
# Elastic Constant Matrix: (Units=GPa)
#
#
# Indices 1 2 3 4 5 6 
#
# 1 157.2331 19.8152 92.8185 0.0000 0.0000 0.0000
# 2 19.8152 70.4193 8.5491 0.0000 0.0000 0.0000
# 3 92.8185 8.5491 180.7319 0.0000 0.0000 0.0000
# 4 0.0000 0.0000 0.0000 28.4658 0.0000 0.0000
# 5 0.0000 0.0000 0.0000 0.0000 27.7934 0.0000
# 6 0.0000 0.0000 0.0000 0.0000 0.0000 0.1220
#
#
#
# Elastic Compliance Matrix: (Units=1/GPa)
#
#
# Indices 1 2 3 4 5 6 
#
# 1 0.009419 -0.002075 -0.004739 0.000000 0.000000 0.000000
# 2 -0.002075 0.014740 0.000368 0.000000 0.000000 0.000000
# 3 -0.004739 0.000368 0.007950 0.000000 0.000000 0.000000
# 4 0.000000 0.000000 0.000000 0.035130 0.000000 0.000000
# 5 0.000000 0.000000 0.000000 0.000000 0.035980 0.000000
# 6 0.000000 0.000000 0.000000 0.000000 0.000000 8.198602
#
#
# Mechanical properties :
#
#
# Convention : Reuss Voigt Hill
#
# Bulk Modulus (GPa) = 52.03773 72.30556 62.17164
# Shear Modulus (GPa) = 0.60088 30.42300 15.51194
#
# Velocity S-wave (km/s) = 0.54669 3.88998 2.77766
# Velocity P-wave (km/s) = 5.12653 7.49264 6.41954
#
# Compressibility (1/GPa) = 0.01921683
#
# Stress axis : x y z
#
# Youngs Moduli (GPa) = 106.16614 67.84336 125.79296
#
# Poissons Ratio (x) = 0.14078 0.59617
# Poissons Ratio (y) = 0.22031 -0.04635
# Poissons Ratio (z) = 0.50315 -0.02500
#
# Static dielectric constant tensor:
#      x y z
#    x 1.712660 0.000000 0.000000 
#    y 0.000000 1.727690 0.000000 
#    z 0.000000 0.000000 1.684900 
# 
# From -- ./inp_files/31727.got.cif
#   From: 2010.05.17/outbox.cif.g08.bks.cpg/sg47_16_cif.got.tgz:31727.got - 2010.06.03 20:15:42.
