data_PCOD9387659
_publ_section_title
;
Structure prediction by ZEFSAII (Michael W. Deem and Ramdas Pophale) SiO2 
 PCOD9387659
Probable space group: P M M M
;
_chemical_formula_sum "Si O2"
_cell_formula_units_Z 64
_cell_length_a 24.488974
_cell_length_b 13.921743
_cell_length_c 9.427707
_cell_angle_alpha 90.000000
_cell_angle_beta 90.000000
_cell_angle_gamma 90.000000
_cell_volume 3214.180628
_symmetry_space_group_name_H-M "P M M M"
_symmetry_group_IT_number 47
_symmetry_cell_setting 'orthorhombic'
loop_
_space_group_symop_operation_xyz
x,y,z
-x,-y,z
x,-y,-z
-x,y,-z
-x,-y,-z
x,y,-z
-x,y,z
x,-y,z
loop_
_atom_site_type_symbol
_atom_site_label
_atom_site_fract_x
_atom_site_fract_y
_atom_site_fract_z
Si Si1 0.768234 0.117086 0.662127
Si Si2 0.731766 0.382914 0.837873
Si Si3 0.876456 0.889278 0.165457
Si Si4 0.938114 0.700423 0.167618
Si Si5 0.162421 0.615795 0.337802
Si Si6 0.376456 0.389278 0.665457
Si Si7 0.337579 0.884205 0.162198
Si Si8 0.561886 0.200423 0.332382
O O1 0.764544 0.150468 0.500000
O O2 0.825697 0.139555 0.736176
O O3 0.716467 0.149113 0.754397
O O4 0.766215 0.000000 0.659726
O O5 0.733785 0.500000 0.840274
O O6 0.783533 0.350887 0.745603
O O7 0.674303 0.360445 0.763824
O O8 0.735456 0.349532 0.000000
O O9 0.924934 0.813692 0.183777
O O10 0.891385 0.000000 0.194658
O O11 0.858873 0.884178 0.000000
O O12 0.891911 0.646970 0.256112
O O13 0.000000 0.678269 0.210711
O O14 0.932277 0.677643 0.000000
O O15 0.162210 0.649889 0.500000
O O16 0.164301 0.500000 0.340170
O O17 0.358873 0.384178 0.500000
O O18 0.391386 0.500000 0.694658
O O19 0.424934 0.313692 0.683777
O O20 0.391911 0.853030 0.243888
O O21 0.335700 0.000000 0.159830
O O22 0.337790 0.850111 0.000000
O O23 0.567723 0.177643 0.500000
O O24 0.500000 0.178269 0.289289
#
# Coordination Sequence:
#
# PCOD9387659 Si02
#       8
#     8   8   8   8   8   8   8   8
#     4   9  17  31  54  83 111 138 172 215 264 319
#     4   9  17  31  54  83 111 138 172 215 264 319
#     4   9  18  34  56  81 110 142 175 215 263 314
#     4  10  22  38  55  78 107 141 183 224 262 310
#     4  10  21  37  57  80 107 140 177 219 268 319
#     4   9  18  34  56  81 110 142 175 215 263 314
#     4  10  21  37  57  80 107 140 177 219 268 319
#     4  10  22  38  55  78 107 141 183 224 262 310
#
# _framework density 19.911762
#
# number of rings (size 3 to 8) (size 9 to 14) (size 15 to 20)
#    0.000    2.500    0.000    1.500    0.000    8.000 
#    0.000    5.000    0.000    0.000    0.000    5.250 
#    0.000    0.000    0.000    0.000    0.000    0.000 
#
# Total GULP energy -357548.339441 kJ/mol
# GULP energy per Si atom -5586.692804 kJ/mol
# Density = 1.986644 g / cm^3
# Si number density = 19.911762 Si / 1000 Ang^3
#
#
#
# Elastic Constant Matrix: (Units=GPa)
#
#
# Indices 1 2 3 4 5 6 
#
# 1 93.1019 -4.8581 40.0408 0.0000 0.0000 0.0000
# 2 -4.8581 37.8811 6.1576 0.0000 0.0000 0.0000
# 3 40.0408 6.1576 72.5742 0.0000 0.0000 0.0000
# 4 0.0000 0.0000 0.0000 21.3159 0.0000 0.0000
# 5 0.0000 0.0000 0.0000 0.0000 29.3883 0.0000
# 6 0.0000 0.0000 0.0000 0.0000 0.0000 23.5137
#
#
#
# Elastic Compliance Matrix: (Units=1/GPa)
#
#
# Indices 1 2 3 4 5 6 
#
# 1 0.014454 0.003194 -0.008245 0.000000 0.000000 0.000000
# 2 0.003194 0.027473 -0.004093 0.000000 0.000000 0.000000
# 3 -0.008245 -0.004093 0.018675 0.000000 0.000000 0.000000
# 4 0.000000 0.000000 0.000000 0.046913 0.000000 0.000000
# 5 0.000000 0.000000 0.000000 0.000000 0.034027 0.000000
# 6 0.000000 0.000000 0.000000 0.000000 0.000000 0.042528
#
#
# Mechanical properties :
#
#
# Convention : Reuss Voigt Hill
#
# Bulk Modulus (GPa) = 23.63325 31.80419 27.71872
# Shear Modulus (GPa) = 23.09841 25.65805 24.37823
#
# Velocity S-wave (km/s) = 3.40963 3.59358 3.50281
# Velocity P-wave (km/s) = 5.23407 5.76417 5.50551
#
# Compressibility (1/GPa) = 0.04231327
#
# Stress axis : x y z
#
# Youngs Moduli (GPa) = 69.18628 36.39892 53.54618
#
# Poissons Ratio (x) = -0.11626 0.44151
# Poissons Ratio (y) = -0.22098 0.21917
# Poissons Ratio (z) = 0.57047 0.14899
#
# Static dielectric constant tensor:
#      x y z
#    x 1.636530 0.000000 0.000000 
#    y 0.000000 1.757870 0.000000 
#    z 0.000000 0.000000 1.677800 
# 
# From -- ./inp_files/7849.got.cif
#   From: 2010.05.17/outbox.cif.g08.bks.cpg/sg47_4_cif.got.tgz:7849.got - 2010.06.03 20:15:42.
