data_PCOD9387742
_publ_section_title
;
Structure prediction by ZEFSAII (Michael W. Deem and Ramdas Pophale) SiO2 
 PCOD9387742
Probable space group: P M M M
;
_chemical_formula_sum "Si O2"
_cell_formula_units_Z 40
_cell_length_a 12.107543
_cell_length_b 8.799936
_cell_length_c 20.708205
_cell_angle_alpha 90.000000
_cell_angle_beta 90.000000
_cell_angle_gamma 90.000000
_cell_volume 2206.368199
_symmetry_space_group_name_H-M "P M M M"
_symmetry_group_IT_number 47
_symmetry_cell_setting 'orthorhombic'
loop_
_space_group_symop_operation_xyz
x,y,z
-x,-y,z
x,-y,-z
-x,y,-z
-x,-y,-z
x,y,-z
-x,y,z
x,-y,z
loop_
_atom_site_type_symbol
_atom_site_label
_atom_site_fract_x
_atom_site_fract_y
_atom_site_fract_z
Si Si1 0.000000 0.318695 0.771009
Si Si2 0.628979 0.317034 0.304218
Si Si3 0.000000 0.181008 0.373058
Si Si4 0.775746 0.317638 0.573115
Si Si5 0.371658 0.681686 0.924212
Si Si6 0.228668 0.180218 0.187749
O O1 0.000000 0.253159 0.698314
O O2 0.110131 0.259514 0.805474
O O3 0.000000 0.500000 0.767900
O O4 0.500000 0.276693 0.302717
O O5 0.637582 0.500000 0.295368
O O6 0.685494 0.278952 0.372650
O O7 0.696573 0.237187 0.247466
O O8 0.890475 0.237524 0.409287
O O9 0.000000 0.000000 0.367841
O O10 0.741818 0.280101 0.500000
O O11 0.793183 0.500000 0.576515
O O12 0.500000 0.718399 0.909603
O O13 0.358667 0.500000 0.914473
O O14 0.290772 0.769985 0.877225
O O15 0.352846 0.713042 0.000000
O O16 0.215280 0.000000 0.190941
#
# Coordination Sequence:
#
# PCOD9387742 Si02
#       6
#     4   8   4   8   8   8
#     4  12  24  41  64  85 112 152 196 244 292 347
#     4  10  21  37  58  83 114 156 201 242 287 345
#     4  12  23  37  58  86 115 147 188 241 301 358
#     4  10  21  37  58  83 113 153 199 244 291 347
#     4   9  19  38  64  92 123 162 205 242 278 330
#     4  12  24  38  59  90 123 154 191 241 297 350
#
# _framework density 18.129342000000001
#
# number of rings (size 3 to 8) (size 9 to 14) (size 15 to 20)
#    0.000    1.400    2.000    5.100    0.000    5.600 
#    0.000    3.500    0.000    3.000    0.000    2.800 
#    0.000    0.000    0.000    0.000    0.000    0.000 
#
# Total GULP energy -223617.200764 kJ/mol
# GULP energy per Si atom -5590.430019 kJ/mol
# Density = 1.808808 g / cm^3
# Si number density = 18.129342 Si / 1000 Ang^3
#
#
#
# Elastic Constant Matrix: (Units=GPa)
#
#
# Indices 1 2 3 4 5 6 
#
# 1 136.4332 57.3284 62.2625 0.0000 0.0000 0.0000
# 2 57.3284 64.7831 48.3315 0.0000 0.0000 0.0000
# 3 62.2625 48.3315 91.2033 0.0000 0.0000 0.0000
# 4 0.0000 0.0000 0.0000 -35.9258 0.0000 0.0000
# 5 0.0000 0.0000 0.0000 0.0000 20.2486 0.0000
# 6 0.0000 0.0000 0.0000 0.0000 0.0000 -35.3270
#
#
#
# Elastic Compliance Matrix: (Units=1/GPa)
#
#
# Indices 1 2 3 4 5 6 
#
# 1 0.012689 -0.007882 -0.004485 0.000000 0.000000 0.000000
# 2 -0.007882 0.030426 -0.010743 0.000000 0.000000 0.000000
# 3 -0.004485 -0.010743 0.019719 0.000000 0.000000 0.000000
# 4 0.000000 0.000000 0.000000 -0.027835 0.000000 0.000000
# 5 0.000000 0.000000 0.000000 0.000000 0.049386 0.000000
# 6 0.000000 0.000000 0.000000 0.000000 0.000000 -0.028307
#
#
# Mechanical properties :
#
#
# Convention : Reuss Voigt Hill
#
# Bulk Modulus (GPa) = 60.19125 69.80717 64.99921
# Shear Modulus (GPa) = 46.36694 -1.90103 22.23295
#
# Velocity S-wave (km/s) = 5.06272 -1.02512 3.50573
# Velocity P-wave (km/s) = 8.21267 6.09816 7.23310
#
# Compressibility (1/GPa) = 0.01661371
#
# Stress axis : x y z
#
# Youngs Moduli (GPa) = 78.81145 32.86669 50.71206
#
# Poissons Ratio (x) = 0.25907 0.22745
# Poissons Ratio (y) = 0.62122 0.54478
# Poissons Ratio (z) = 0.35347 0.35307
#
# Static dielectric constant tensor:
#      x y z
#    x 1.593850 0.000000 0.000000 
#    y 0.000000 1.604190 0.000000 
#    z 0.000000 0.000000 1.608750 
# 
# From -- ./inp_files/30331.got.cif
#   From: 2010.05.17/outbox.cif.g08.bks.cpg/sg47_16_cif.got.tgz:30331.got - 2010.06.03 20:15:42.
