data_PCOD9387872
_publ_section_title
;
Structure prediction by ZEFSAII (Michael W. Deem and Ramdas Pophale) SiO2 
 PCOD9387872
Probable space group: P M M M
;
_chemical_formula_sum "Si O2"
_cell_formula_units_Z 40
_cell_length_a 9.162383
_cell_length_b 30.591945
_cell_length_c 7.362858
_cell_angle_alpha 90.000000
_cell_angle_beta 90.000000
_cell_angle_gamma 90.000000
_cell_volume 2063.773143
_symmetry_space_group_name_H-M "P M M M"
_symmetry_group_IT_number 47
_symmetry_cell_setting 'orthorhombic'
loop_
_space_group_symop_operation_xyz
x,y,z
-x,-y,z
x,-y,-z
-x,y,-z
-x,-y,-z
x,y,-z
-x,y,z
x,-y,z
loop_
_atom_site_type_symbol
_atom_site_label
_atom_site_fract_x
_atom_site_fract_y
_atom_site_fract_z
Si Si1 0.673835 0.051735 0.500000
Si Si2 0.667601 0.797790 0.221110
Si Si3 0.322607 0.549599 0.500000
Si Si4 0.832036 0.289655 0.221493
Si Si5 0.827580 0.887235 0.782884
Si Si6 0.673833 0.621415 0.785629
O O1 0.500000 0.059081 0.500000
O O2 0.746120 0.075022 0.326546
O O3 0.701052 0.000000 0.500000
O O4 0.500000 0.800665 0.280494
O O5 0.743362 0.752988 0.281485
O O6 0.758205 0.840700 0.272337
O O7 0.667071 0.796852 0.000000
O O8 0.267653 0.500000 0.500000
O O9 0.500000 0.547286 0.500000
O O10 0.280896 0.578793 0.326563
O O11 0.756902 0.334994 0.275785
O O12 0.000000 0.287469 0.278247
O O13 0.829743 0.289270 0.000000
O O14 0.000000 0.887583 0.744273
O O15 0.808227 0.892161 0.000000
O O16 0.500000 0.628117 0.758924
O O17 0.698940 0.615257 0.000000
#
# Coordination Sequence:
#
# PCOD9387872 Si02
#       6
#     4   8   4   8   8   8
#     4  11  25  43  62  85 114 149 191 240 290 339
#     4   9  16  28  50  80 113 147 182 220 264 318
#     4   9  18  32  50  73  98 123 159 210 260 305
#     4   9  16  27  46  73 105 139 174 212 255 306
#     4  10  21  38  61  88 118 152 190 233 282 336
#     4   9  17  30  49  72  98 129 165 205 251 304
#
# _framework density 19.381974
#
# number of rings (size 3 to 8) (size 9 to 14) (size 15 to 20)
#    0.000    2.600    0.000    2.100    0.000    7.600 
#    0.000    5.500    0.000    2.400    0.000    2.800 
#    0.000    0.000    0.000    0.000    0.000    0.000 
#
# Total GULP energy -223412.339185 kJ/mol
# GULP energy per Si atom -5585.308480 kJ/mol
# Density = 1.933786 g / cm^3
# Si number density = 19.381974 Si / 1000 Ang^3
#
#
#
# Elastic Constant Matrix: (Units=GPa)
#
#
# Indices 1 2 3 4 5 6 
#
# 1 128.4766 112.0346 49.4521 0.0000 0.0000 0.0000
# 2 112.0346 213.4866 62.5007 0.0000 0.0000 0.0000
# 3 49.4521 62.5007 82.7005 0.0000 0.0000 0.0000
# 4 0.0000 0.0000 0.0000 36.2318 0.0000 0.0000
# 5 0.0000 0.0000 0.0000 0.0000 10.4342 0.0000
# 6 0.0000 0.0000 0.0000 0.0000 0.0000 -13.3445
#
#
#
# Elastic Compliance Matrix: (Units=1/GPa)
#
#
# Indices 1 2 3 4 5 6 
#
# 1 0.015296 -0.006869 -0.003955 0.000000 0.000000 0.000000
# 2 -0.006869 0.009100 -0.002770 0.000000 0.000000 0.000000
# 3 -0.003955 -0.002770 0.016550 0.000000 0.000000 0.000000
# 4 0.000000 0.000000 0.000000 0.027600 0.000000 0.000000
# 5 0.000000 0.000000 0.000000 0.000000 0.095839 0.000000
# 6 0.000000 0.000000 0.000000 0.000000 0.000000 -0.074937
#
#
# Mechanical properties :
#
#
# Convention : Reuss Voigt Hill
#
# Bulk Modulus (GPa) = 72.68526 96.95983 84.82254
# Shear Modulus (GPa) = 41.24681 20.04270 30.64476
#
# Velocity S-wave (km/s) = 4.61814 3.21922 3.98061
# Velocity P-wave (km/s) = 8.12522 7.99701 8.06137
#
# Compressibility (1/GPa) = 0.01375795
#
# Stress axis : x y z
#
# Youngs Moduli (GPa) = 65.37664 109.89211 60.42300
#
# Poissons Ratio (x) = 0.75487 0.23898
# Poissons Ratio (y) = 0.44909 0.16735
# Poissons Ratio (z) = 0.25857 0.30436
#
# Static dielectric constant tensor:
#      x y z
#    x 1.643860 0.000000 0.000000 
#    y 0.000000 1.630750 0.000000 
#    z 0.000000 0.000000 1.727680 
# 
# From -- ./inp_files/1770.got.cif
#   From: 2010.05.17/outbox.cif.g08.bks.cpg/sg47_1_cif.got.tgz:1770.got - 2010.06.03 20:15:42.
