data_PCOD9387802
_publ_section_title
;
Structure prediction by ZEFSAII (Michael W. Deem and Ramdas Pophale) SiO2 
 PCOD9387802
Probable space group: P M M M
;
_chemical_formula_sum "Si O2"
_cell_formula_units_Z 40
_cell_length_a 9.047310
_cell_length_b 7.450063
_cell_length_c 30.910659
_cell_angle_alpha 90.000000
_cell_angle_beta 90.000000
_cell_angle_gamma 90.000000
_cell_volume 2083.472060
_symmetry_space_group_name_H-M "P M M M"
_symmetry_group_IT_number 47
_symmetry_cell_setting 'orthorhombic'
loop_
_space_group_symop_operation_xyz
x,y,z
-x,-y,z
x,-y,-z
-x,y,-z
-x,-y,-z
x,y,-z
-x,y,z
x,-y,z
loop_
_atom_site_type_symbol
_atom_site_label
_atom_site_fract_x
_atom_site_fract_y
_atom_site_fract_z
Si Si1 0.677731 0.000000 0.284390
Si Si2 0.825127 0.286177 0.776605
Si Si3 0.680390 0.000000 0.384165
Si Si4 0.320055 0.293489 0.451801
Si Si5 0.331297 0.281329 0.134555
Si Si6 0.172022 0.718726 0.952153
O O1 0.740601 0.172416 0.259328
O O2 0.726377 0.000000 0.334467
O O3 0.500000 0.000000 0.282587
O O4 0.799279 0.500000 0.771648
O O5 0.765251 0.231183 0.823916
O O6 0.000000 0.253608 0.774093
O O7 0.729506 0.170580 0.412411
O O8 0.500000 0.000000 0.383767
O O9 0.274858 0.231251 0.500000
O O10 0.500000 0.289269 0.451728
O O11 0.275349 0.500000 0.446748
O O12 0.500000 0.223105 0.140049
O O13 0.330532 0.500000 0.133289
O O14 0.264318 0.219344 0.089003
O O15 0.176024 0.500000 0.951958
O O16 0.000000 0.769421 0.947467
O O17 0.223548 0.775770 0.000000
#
# Coordination Sequence:
#
# PCOD9387802 Si02
#       6
#     4   8   4   8   8   8
#     4  11  23  36  53  80 111 141 176 222 277 330
#     4  10  21  38  58  76  99 136 181 226 270 322
#     4   9  17  27  40  63  98 137 171 208 259 314
#     4   8  13  22  38  61  92 134 179 213 244 295
#     4   9  16  26  43  68  96 126 164 213 268 320
#     4   8  13  21  34  56  90 130 168 205 248 305
#
# _framework density 19.198720999999999
#
# number of rings (size 3 to 8) (size 9 to 14) (size 15 to 20)
#    0.000    3.000    0.000    3.000    0.000    6.000 
#    0.000    4.000    0.000    0.000    0.000    0.700 
#    0.000   12.000    0.000   18.200    0.000   14.800 
#
# Total GULP energy -223137.907692 kJ/mol
# GULP energy per Si atom -5578.447692 kJ/mol
# Density = 1.915502 g / cm^3
# Si number density = 19.198721 Si / 1000 Ang^3
#
#
#
# Elastic Constant Matrix: (Units=GPa)
#
#
# Indices 1 2 3 4 5 6 
#
# 1 66.5162 33.4448 65.9841 0.0000 0.0000 0.0000
# 2 33.4448 77.6542 68.8511 0.0000 0.0000 0.0000
# 3 65.9841 68.8511 209.7297 0.0000 0.0000 0.0000
# 4 0.0000 0.0000 0.0000 -94.6769 0.0000 0.0000
# 5 0.0000 0.0000 0.0000 0.0000 -21.0927 0.0000
# 6 0.0000 0.0000 0.0000 0.0000 0.0000 11.0682
#
#
#
# Elastic Compliance Matrix: (Units=1/GPa)
#
#
# Indices 1 2 3 4 5 6 
#
# 1 0.023130 -0.004951 -0.005652 0.000000 0.000000 0.000000
# 2 -0.004951 0.019224 -0.004754 0.000000 0.000000 0.000000
# 3 -0.005652 -0.004754 0.008107 0.000000 0.000000 0.000000
# 4 0.000000 0.000000 0.000000 -0.010562 0.000000 0.000000
# 5 0.000000 0.000000 0.000000 0.000000 -0.047410 0.000000
# 6 0.000000 0.000000 0.000000 0.000000 0.000000 0.090349
#
#
# Mechanical properties :
#
#
# Convention : Reuss Voigt Hill
#
# Bulk Modulus (GPa) = 50.63560 76.71778 63.67669
# Shear Modulus (GPa) = 41.62073 -8.56559 16.52757
#
# Velocity S-wave (km/s) = 4.66111 -2.11453 2.93724
# Velocity P-wave (km/s) = 7.44310 5.83823 6.68897
#
# Compressibility (1/GPa) = 0.01974895
#
# Stress axis : x y z
#
# Youngs Moduli (GPa) = 43.23452 52.01700 123.35520
#
# Poissons Ratio (x) = 0.25752 0.69717
# Poissons Ratio (y) = 0.21404 0.58637
# Poissons Ratio (z) = 0.24435 0.24727
#
# Static dielectric constant tensor:
#      x y z
#    x 1.642810 0.000000 0.000000 
#    y 0.000000 1.724390 0.000000 
#    z 0.000000 0.000000 1.647100 
# 
# From -- ./inp_files/33059.got.cif
#   From: 2010.05.17/outbox.cif.g08.bks.cpg/sg47_17_cif.got.tgz:33059.got - 2010.06.03 20:15:42.
