data_PCOD9387589
_publ_section_title
;
Structure prediction by ZEFSAII (Michael W. Deem and Ramdas Pophale) SiO2 
 PCOD9387589
Probable space group: P M M M
;
_chemical_formula_sum "Si O2"
_cell_formula_units_Z 56
_cell_length_a 8.928707
_cell_length_b 14.535119
_cell_length_c 19.963496
_cell_angle_alpha 90.000000
_cell_angle_beta 90.000000
_cell_angle_gamma 90.000000
_cell_volume 2590.858893
_symmetry_space_group_name_H-M "P M M M"
_symmetry_group_IT_number 47
_symmetry_cell_setting 'orthorhombic'
loop_
_space_group_symop_operation_xyz
x,y,z
-x,-y,z
x,-y,-z
-x,y,-z
-x,-y,-z
x,y,-z
-x,y,z
x,-y,z
loop_
_atom_site_type_symbol
_atom_site_label
_atom_site_fract_x
_atom_site_fract_y
_atom_site_fract_z
Si Si1 0.824292 0.292918 0.708254
Si Si2 0.819840 0.892097 0.921832
Si Si3 0.162088 0.396157 0.079608
Si Si4 0.671957 0.732234 0.837851
Si Si5 0.835851 0.110123 0.426452
Si Si6 0.679927 0.609874 0.577996
Si Si7 0.327159 0.104621 0.300885
O O1 0.745630 0.325718 0.776328
O O2 0.756898 0.332445 0.638424
O O3 0.782476 0.184988 0.721343
O O4 0.000000 0.308924 0.708568
O O5 0.743780 0.826822 0.866756
O O6 0.000000 0.883555 0.916622
O O7 0.781598 0.000000 0.911459
O O8 0.780932 0.868881 0.000000
O O9 0.171561 0.500000 0.104797
O O10 0.299774 0.335763 0.100988
O O11 0.000000 0.355709 0.102364
O O12 0.156406 0.399328 0.000000
O O13 0.500000 0.747679 0.822230
O O14 0.817100 0.149362 0.500000
O O15 0.692909 0.120930 0.380437
O O16 0.000000 0.142550 0.400061
O O17 0.849559 0.000000 0.431566
O O18 0.723196 0.631910 0.500000
O O19 0.500000 0.622798 0.582812
O O20 0.710124 0.500000 0.587351
O O21 0.500000 0.114373 0.282385
O O22 0.279157 0.000000 0.285532
#
# Coordination Sequence:
#
# PCOD9387589 Si02
#       7
#     8   8   8   8   8   8   8
#     4  12  26  42  62  88 121 163 209 256 306 368
#     4   9  19  38  64  92 124 167 219 270 318 372
#     4   9  19  38  64  92 123 161 203 244 289 350
#     4  12  25  39  58  87 126 167 206 256 315 370
#     4   8  14  26  45  69  97 130 170 215 263 320
#     4   9  20  43  74 102 127 156 192 244 314 385
#     4  10  21  37  56  78 108 147 191 241 295 350
#
# _framework density 21.614453999999999
#
# number of rings (size 3 to 8) (size 9 to 14) (size 15 to 20)
#    0.000    2.143    0.000    5.143    0.000    6.286 
#    0.000    3.571    0.000    0.000    0.000    0.000 
#    0.000    0.000    0.000    0.000    0.000    0.000 
#
# Total GULP energy -311835.302932 kJ/mol
# GULP energy per Si atom -5568.487552 kJ/mol
# Density = 2.156526 g / cm^3
# Si number density = 21.614454 Si / 1000 Ang^3
#
#
#
# Elastic Constant Matrix: (Units=GPa)
#
#
# Indices 1 2 3 4 5 6 
#
# 1 78.6335 34.4015 42.2949 0.0000 0.0000 0.0000
# 2 34.4015 85.7678 40.6990 0.0000 0.0000 0.0000
# 3 42.2949 40.6990 108.6335 0.0000 0.0000 0.0000
# 4 0.0000 0.0000 0.0000 -10.6433 0.0000 0.0000
# 5 0.0000 0.0000 0.0000 0.0000 14.4692 0.0000
# 6 0.0000 0.0000 0.0000 0.0000 0.0000 18.8419
#
#
#
# Elastic Compliance Matrix: (Units=1/GPa)
#
#
# Indices 1 2 3 4 5 6 
#
# 1 0.017457 -0.004593 -0.005076 0.000000 0.000000 0.000000
# 2 -0.004593 0.015389 -0.003977 0.000000 0.000000 0.000000
# 3 -0.005076 -0.003977 0.012671 0.000000 0.000000 0.000000
# 4 0.000000 0.000000 0.000000 -0.093956 0.000000 0.000000
# 5 0.000000 0.000000 0.000000 0.000000 0.069112 0.000000
# 6 0.000000 0.000000 0.000000 0.000000 0.000000 0.053073
#
#
# Mechanical properties :
#
#
# Convention : Reuss Voigt Hill
#
# Bulk Modulus (GPa) = 54.86968 56.42506 55.64737
# Shear Modulus (GPa) = 46.67924 14.90952 30.79438
#
# Velocity S-wave (km/s) = 4.65222 2.62924 3.77863
# Velocity P-wave (km/s) = 7.36874 5.94804 6.69617
#
# Compressibility (1/GPa) = 0.01822500
#
# Stress axis : x y z
#
# Youngs Moduli (GPa) = 57.28399 64.98145 78.91793
#
# Poissons Ratio (x) = 0.29849 0.40056
# Poissons Ratio (y) = 0.26313 0.31386
# Poissons Ratio (z) = 0.29076 0.25843
#
# Static dielectric constant tensor:
#      x y z
#    x 1.798930 0.000000 0.000000 
#    y 0.000000 1.853250 0.000000 
#    z 0.000000 0.000000 1.993190 
# 
# From -- ./inp_files/29699.got.cif
#   From: 2010.05.17/outbox.cif.g08.bks.cpg/sg47_15_cif.got.tgz:29699.got - 2010.06.03 20:15:42.
