data_PCOD9387130
_publ_section_title
;
Structure prediction by ZEFSAII (Michael W. Deem and Ramdas Pophale) SiO2 
 PCOD9387130
Probable space group: P M M M
;
_chemical_formula_sum "Si O2"
_cell_formula_units_Z 64
_cell_length_a 8.463058
_cell_length_b 19.147359
_cell_length_c 20.949409
_cell_angle_alpha 90.000000
_cell_angle_beta 90.000000
_cell_angle_gamma 90.000000
_cell_volume 3394.751376
_symmetry_space_group_name_H-M "P M M M"
_symmetry_group_IT_number 47
_symmetry_cell_setting 'orthorhombic'
loop_
_space_group_symop_operation_xyz
x,y,z
-x,-y,z
x,-y,-z
-x,y,-z
-x,-y,-z
x,y,-z
-x,y,z
x,-y,z
loop_
_atom_site_type_symbol
_atom_site_label
_atom_site_fract_x
_atom_site_fract_y
_atom_site_fract_z
Si Si1 0.811038 0.331718 0.691498
Si Si2 0.308761 0.080093 0.190555
Si Si3 0.690921 0.826409 0.072722
Si Si4 0.810768 0.671294 0.073209
Si Si5 0.191396 0.171418 0.691246
Si Si6 0.689090 0.420087 0.811275
Si Si7 0.690784 0.580844 0.572948
Si Si8 0.807511 0.080053 0.427756
O O1 0.754414 0.251542 0.694744
O O2 0.747680 0.376007 0.750896
O O3 0.759699 0.368334 0.625865
O O4 0.000000 0.331048 0.694847
O O5 0.500000 0.079923 0.191643
O O6 0.258229 0.116865 0.124569
O O7 0.248655 0.126396 0.249005
O O8 0.254473 0.000000 0.195251
O O9 0.500000 0.823478 0.073452
O O10 0.754347 0.749602 0.089577
O O11 0.741039 0.842362 0.000000
O O12 0.744470 0.617076 0.124007
O O13 0.000000 0.669568 0.075235
O O14 0.759554 0.657135 0.000000
O O15 0.245817 0.133361 0.626323
O O16 0.000000 0.171449 0.691219
O O17 0.500000 0.420848 0.809991
O O18 0.746682 0.500000 0.807755
O O19 0.738037 0.597781 0.500000
O O20 0.500000 0.583675 0.575838
O O21 0.736476 0.500000 0.585701
O O22 0.756710 0.097166 0.500000
O O23 0.000000 0.080737 0.427801
O O24 0.759914 0.000000 0.413369
#
# Coordination Sequence:
#
# PCOD9387130 Si02
#       8
#     8   8   8   8   8   8   8   8
#     4  11  23  36  54  82 112 142 180 228 278 325
#     4  10  21  35  52  77 107 138 175 221 269 313
#     4   9  18  34  56  79 105 141 181 217 257 311
#     4  10  21  37  58  84 113 142 173 216 269 321
#     4  10  21  35  52  76 105 138 175 215 262 318
#     4  11  24  40  58  79 105 141 183 224 267 321
#     4   9  19  37  59  81 108 145 186 224 266 323
#     4   8  14  27  49  74  98 128 168 210 249 293
#
# _framework density 18.852633000000001
#
# number of rings (size 3 to 8) (size 9 to 14) (size 15 to 20)
#    0.000    2.250    0.000    3.375    0.000    9.000 
#    0.000    4.375    0.000    0.375    0.000    4.375 
#    0.000    0.000    0.000    0.000    0.000    0.000 
#
# Total GULP energy -357363.543487 kJ/mol
# GULP energy per Si atom -5583.805367 kJ/mol
# Density = 1.880972 g / cm^3
# Si number density = 18.852633 Si / 1000 Ang^3
#
#
#
# Elastic Constant Matrix: (Units=GPa)
#
#
# Indices 1 2 3 4 5 6 
#
# 1 15.2406 29.1974 24.1613 0.0000 0.0000 0.0000
# 2 29.1974 193.5621 132.7251 0.0000 0.0000 0.0000
# 3 24.1613 132.7251 146.4117 0.0000 0.0000 0.0000
# 4 0.0000 0.0000 0.0000 42.9232 0.0000 0.0000
# 5 0.0000 0.0000 0.0000 0.0000 40.9571 0.0000
# 6 0.0000 0.0000 0.0000 0.0000 0.0000 14.0647
#
#
#
# Elastic Compliance Matrix: (Units=1/GPa)
#
#
# Indices 1 2 3 4 5 6 
#
# 1 0.094995 -0.009461 -0.007100 0.000000 0.000000 0.000000
# 2 -0.009461 0.014595 -0.011670 0.000000 0.000000 0.000000
# 3 -0.007100 -0.011670 0.018580 0.000000 0.000000 0.000000
# 4 0.000000 0.000000 0.000000 0.023297 0.000000 0.000000
# 5 0.000000 0.000000 0.000000 0.000000 0.024416 0.000000
# 6 0.000000 0.000000 0.000000 0.000000 0.000000 0.071100
#
#
# Mechanical properties :
#
#
# Convention : Reuss Voigt Hill
#
# Bulk Modulus (GPa) = 13.94512 80.82022 47.38267
# Shear Modulus (GPa) = 15.27430 30.86437 23.06934
#
# Velocity S-wave (km/s) = 2.84948 4.05055 3.50189
# Velocity P-wave (km/s) = 4.27072 8.05223 6.44505
#
# Compressibility (1/GPa) = 0.07170969
#
# Stress axis : x y z
#
# Youngs Moduli (GPa) = 10.52691 68.51561 53.82021
#
# Poissons Ratio (x) = 0.64822 0.38211
# Poissons Ratio (y) = 0.09959 0.62806
# Poissons Ratio (z) = 0.07474 0.79955
#
# Static dielectric constant tensor:
#      x y z
#    x 1.652590 0.000000 0.000000 
#    y 0.000000 1.634160 0.000000 
#    z 0.000000 0.000000 1.638680 
# 
# From -- ./inp_files/29971.got.cif
#   From: 2010.05.17/outbox.cif.g08.bks.cpg/sg47_15_cif.got.tgz:29971.got - 2010.06.03 20:15:42.
