data_PCOD9387873
_publ_section_title
;
Structure prediction by ZEFSAII (Michael W. Deem and Ramdas Pophale) SiO2 
 PCOD9387873
Probable space group: P M M M
;
_chemical_formula_sum "Si O2"
_cell_formula_units_Z 44
_cell_length_a 9.193584
_cell_length_b 31.782191
_cell_length_c 7.249148
_cell_angle_alpha 90.000000
_cell_angle_beta 90.000000
_cell_angle_gamma 90.000000
_cell_volume 2118.144812
_symmetry_space_group_name_H-M "P M M M"
_symmetry_group_IT_number 47
_symmetry_cell_setting 'orthorhombic'
loop_
_space_group_symop_operation_xyz
x,y,z
-x,-y,z
x,-y,-z
-x,y,-z
-x,-y,-z
x,y,-z
-x,y,z
x,-y,z
loop_
_atom_site_type_symbol
_atom_site_label
_atom_site_fract_x
_atom_site_fract_y
_atom_site_fract_z
Si Si1 0.173292 0.549745 0.000000
Si Si2 0.832970 0.695085 0.275746
Si Si3 0.169567 0.136947 0.724738
Si Si4 0.826182 0.954734 0.722237
Si Si5 0.671027 0.609490 0.720773
Si Si6 0.667204 0.779081 0.724954
O O1 0.245566 0.572537 0.825057
O O2 0.201240 0.500000 0.000000
O O3 0.000000 0.556562 0.000000
O O4 0.833348 0.695783 0.500000
O O5 0.741847 0.654005 0.222798
O O6 0.758170 0.738391 0.215967
O O7 0.000000 0.692182 0.215958
O O8 0.171345 0.136633 0.500000
O O9 0.227138 0.090999 0.785307
O O10 0.260379 0.177206 0.784640
O O11 0.000000 0.141168 0.777856
O O12 0.810415 0.955114 0.500000
O O13 0.000000 0.954508 0.759202
O O14 0.768333 0.000000 0.788968
O O15 0.686429 0.605434 0.500000
O O16 0.500000 0.609033 0.764804
O O17 0.669330 0.779187 0.500000
O O18 0.500000 0.775916 0.781515
#
# Coordination Sequence:
#
# PCOD9387873 Si02
#       6
#     4   8   8   8   8   8
#     4  11  25  43  63  89 121 157 197 239 280 325
#     4   9  16  27  45  68  94 125 162 204 252 309
#     4   8  12  17  25  37  54  79 115 162 218 279
#     4   7   9  13  21  32  45  65 101 153 211 270
#     4  10  21  38  61  88 118 152 190 234 285 338
#     4   9  15  21  30  47  73 103 136 178 231 291
#
# _framework density 20.772894000000001
#
# number of rings (size 3 to 8) (size 9 to 14) (size 15 to 20)
#    0.000    3.182    0.000    3.545    0.000    6.545 
#    0.000    1.818    0.000    0.545    0.000    3.818 
#    0.000    0.000    0.000    0.000    0.000    0.000 
#
# Total GULP energy -245572.222188 kJ/mol
# GULP energy per Si atom -5581.186868 kJ/mol
# Density = 2.072561 g / cm^3
# Si number density = 20.772894 Si / 1000 Ang^3
#
#
#
# Elastic Constant Matrix: (Units=GPa)
#
#
# Indices 1 2 3 4 5 6 
#
# 1 137.6117 121.9404 25.4220 0.0000 0.0000 0.0000
# 2 121.9404 241.5201 36.3928 0.0000 0.0000 0.0000
# 3 25.4220 36.3928 94.8283 0.0000 0.0000 0.0000
# 4 0.0000 0.0000 0.0000 248.9561 0.0000 0.0000
# 5 0.0000 0.0000 0.0000 0.0000 -36.1517 0.0000
# 6 0.0000 0.0000 0.0000 0.0000 0.0000 -16.1152
#
#
#
# Elastic Compliance Matrix: (Units=1/GPa)
#
#
# Indices 1 2 3 4 5 6 
#
# 1 0.013247 -0.006531 -0.001045 0.000000 0.000000 0.000000
# 2 -0.006531 0.007614 -0.001171 0.000000 0.000000 0.000000
# 3 -0.001045 -0.001171 0.011275 0.000000 0.000000 0.000000
# 4 0.000000 0.000000 0.000000 0.004017 0.000000 0.000000
# 5 0.000000 0.000000 0.000000 0.000000 -0.027661 0.000000
# 6 0.000000 0.000000 0.000000 0.000000 0.000000 -0.062053
#
#
# Mechanical properties :
#
#
# Convention : Reuss Voigt Hill
#
# Bulk Modulus (GPa) = 68.29638 93.49673 80.89655
# Shear Modulus (GPa) = -160.32339 58.68485 -50.81927
#
# Velocity S-wave (km/s) = -8.79470 5.32090 -4.95150
# Velocity P-wave (km/s) = 8.37734 9.10253 2.51756
#
# Compressibility (1/GPa) = 0.01464206
#
# Stress axis : x y z
#
# Youngs Moduli (GPa) = 75.48963 131.33332 88.69137
#
# Poissons Ratio (x) = 0.85770 0.09268
# Poissons Ratio (y) = 0.49300 0.10389
# Poissons Ratio (z) = 0.07888 0.15384
#
# Static dielectric constant tensor:
#      x y z
#    x 1.681740 0.000000 0.000000 
#    y 0.000000 1.727410 0.000000 
#    z 0.000000 0.000000 1.615360 
# 
# From -- ./inp_files/2211.got.cif
#   From: 2010.05.17/outbox.cif.g08.bks.cpg/sg47_2_cif.got.tgz:2211.got - 2010.06.03 20:15:42.
