data_PCOD9387284
_publ_section_title
;
Structure prediction by ZEFSAII (Michael W. Deem and Ramdas Pophale) SiO2 
 PCOD9387284
Probable space group: P M M M
;
_chemical_formula_sum "Si O2"
_cell_formula_units_Z 44
_cell_length_a 8.250994
_cell_length_b 14.447593
_cell_length_c 18.401491
_cell_angle_alpha 90.000000
_cell_angle_beta 90.000000
_cell_angle_gamma 90.000000
_cell_volume 2193.586596
_symmetry_space_group_name_H-M "P M M M"
_symmetry_group_IT_number 47
_symmetry_cell_setting 'orthorhombic'
loop_
_space_group_symop_operation_xyz
x,y,z
-x,-y,z
x,-y,-z
-x,y,-z
-x,-y,-z
x,y,-z
-x,y,z
x,-y,z
loop_
_atom_site_type_symbol
_atom_site_label
_atom_site_fract_x
_atom_site_fract_y
_atom_site_fract_z
Si Si1 0.306428 0.391872 0.500000
Si Si2 0.193562 0.254942 0.380360
Si Si3 0.185311 0.112189 0.000000
Si Si4 0.198206 0.107549 0.500000
Si Si5 0.305214 0.607983 0.919039
Si Si6 0.183808 0.279882 0.778999
Si Si7 0.313483 0.109237 0.844459
O O1 0.275047 0.500000 0.500000
O O2 0.500000 0.376269 0.500000
O O3 0.229112 0.341810 0.431133
O O4 0.251005 0.165925 0.428134
O O5 0.262762 0.279618 0.300941
O O6 0.000000 0.241604 0.371382
O O7 0.281663 0.136510 0.072103
O O8 0.000000 0.146905 0.000000
O O9 0.175772 0.000000 0.000000
O O10 0.000000 0.109004 0.500000
O O11 0.248878 0.000000 0.500000
O O12 0.500000 0.609799 0.921469
O O13 0.255122 0.500000 0.911246
O O14 0.256048 0.665655 0.847907
O O15 0.247270 0.640143 0.000000
O O16 0.193649 0.171647 0.798997
O O17 0.000000 0.313123 0.772807
O O18 0.500000 0.129031 0.825412
O O19 0.285288 0.000000 0.836712
#
# Coordination Sequence:
#
# PCOD9387284 Si02
#       7
#     4   8   4   4   8   8   8
#     4  10  21  37  60  87 112 143 181 224 278 336
#     4   9  20  37  55  82 117 149 184 225 275 337
#     4   9  17  31  51  73  98 131 178 235 283 323
#     4   8  14  30  58  83 104 139 185 226 264 316
#     4   9  20  40  62  81 105 143 191 241 294 350
#     4  11  23  36  55  84 117 152 188 234 289 340
#     4  10  21  36  53  75 107 149 192 232 279 335
#
# _framework density 20.058474
#
# number of rings (size 3 to 8) (size 9 to 14) (size 15 to 20)
#    0.000    2.455    0.000    2.727    1.273    6.545 
#    0.000    6.364    0.000    4.364    0.000    0.000 
#    0.000    0.000    0.000    0.000    0.000    0.000 
#
# Total GULP energy -245223.041218 kJ/mol
# GULP energy per Si atom -5573.250937 kJ/mol
# Density = 2.001282 g / cm^3
# Si number density = 20.058474 Si / 1000 Ang^3
#
#
#
# Elastic Constant Matrix: (Units=GPa)
#
#
# Indices 1 2 3 4 5 6 
#
# 1 13.9204 13.6212 12.7233 0.0000 0.0000 0.0000
# 2 13.6212 76.4236 59.8266 0.0000 0.0000 0.0000
# 3 12.7233 59.8266 177.2748 0.0000 0.0000 0.0000
# 4 0.0000 0.0000 0.0000 -16.3794 0.0000 0.0000
# 5 0.0000 0.0000 0.0000 0.0000 10.0813 0.0000
# 6 0.0000 0.0000 0.0000 0.0000 0.0000 22.7509
#
#
#
# Elastic Compliance Matrix: (Units=1/GPa)
#
#
# Indices 1 2 3 4 5 6 
#
# 1 0.087259 -0.014474 -0.001378 0.000000 0.000000 0.000000
# 2 -0.014474 0.020184 -0.005773 0.000000 0.000000 0.000000
# 3 -0.001378 -0.005773 0.007688 0.000000 0.000000 0.000000
# 4 0.000000 0.000000 0.000000 -0.061052 0.000000 0.000000
# 5 0.000000 0.000000 0.000000 0.000000 0.099194 0.000000
# 6 0.000000 0.000000 0.000000 0.000000 0.000000 0.043954
#
#
# Mechanical properties :
#
#
# Convention : Reuss Voigt Hill
#
# Bulk Modulus (GPa) = 13.91168 48.88454 31.39811
# Shear Modulus (GPa) = 18.90809 15.38706 17.14757
#
# Velocity S-wave (km/s) = 3.07359 2.77268 2.92700
# Velocity P-wave (km/s) = 4.42115 5.88849 5.20677
#
# Compressibility (1/GPa) = 0.07188205
#
# Stress axis : x y z
#
# Youngs Moduli (GPa) = 11.46007 49.54478 130.07146
#
# Poissons Ratio (x) = 0.71709 0.17927
# Poissons Ratio (y) = 0.16587 0.75088
# Poissons Ratio (z) = 0.01579 0.28601
#
# Static dielectric constant tensor:
#      x y z
#    x 1.725230 0.000000 0.000000 
#    y 0.000000 1.709210 0.000000 
#    z 0.000000 0.000000 1.747610 
# 
# From -- ./inp_files/26395.got.cif
#   From: 2010.05.17/outbox.cif.g08.bks.cpg/sg47_14_cif.got.tgz:26395.got - 2010.06.03 20:15:42.
