data_PCOD9387048
_publ_section_title
;
Structure prediction by ZEFSAII (Michael W. Deem and Ramdas Pophale) SiO2 
 PCOD9387048
Probable space group: P M M M
;
_chemical_formula_sum "Si O2"
_cell_formula_units_Z 52
_cell_length_a 7.663375
_cell_length_b 16.169877
_cell_length_c 20.330108
_cell_angle_alpha 90.000000
_cell_angle_beta 90.000000
_cell_angle_gamma 90.000000
_cell_volume 2519.222230
_symmetry_space_group_name_H-M "P M M M"
_symmetry_group_IT_number 47
_symmetry_cell_setting 'orthorhombic'
loop_
_space_group_symop_operation_xyz
x,y,z
-x,-y,z
x,-y,-z
-x,y,-z
-x,-y,-z
x,y,-z
-x,y,z
x,-y,z
loop_
_atom_site_type_symbol
_atom_site_label
_atom_site_fract_x
_atom_site_fract_y
_atom_site_fract_z
Si Si1 0.211311 0.830363 0.572162
Si Si2 0.205636 0.244318 0.205317
Si Si3 0.785997 0.092485 0.708313
Si Si4 0.705996 0.363424 0.572172
Si Si5 0.708601 0.321168 0.926369
Si Si6 0.710626 0.410470 0.715081
Si Si7 0.301136 0.500000 0.080247
O O1 0.265807 0.861049 0.500000
O O2 0.268234 0.883560 0.634271
O O3 0.273535 0.735696 0.578585
O O4 0.000000 0.827871 0.573241
O O5 0.278377 0.165072 0.243749
O O6 0.261071 0.255392 0.130139
O O7 0.243553 0.329377 0.243892
O O8 0.000000 0.234161 0.205280
O O9 0.000000 0.093140 0.708793
O O10 0.730549 0.000000 0.725869
O O11 0.778826 0.386866 0.500000
O O12 0.500000 0.383264 0.570478
O O13 0.776269 0.401079 0.639789
O O14 0.500000 0.332587 0.931170
O O15 0.780285 0.411269 0.903932
O O16 0.772787 0.301662 0.000000
O O17 0.500000 0.411359 0.713044
O O18 0.768029 0.500000 0.741977
O O19 0.500000 0.500000 0.107340
O O20 0.311057 0.500000 0.000000
#
# Coordination Sequence:
#
# PCOD9387048 Si02
#       7
#     8   8   8   8   8   8   4
#     4   9  16  28  49  74  99 129 167 212 261 311
#     4  11  22  35  53  78 108 137 168 214 263 305
#     4   9  18  33  52  75 103 135 172 214 262 312
#     4   9  17  30  49  71  97 131 173 221 264 300
#     4   9  18  34  56  79 105 139 175 208 247 301
#     4  10  21  35  51  72 101 141 183 216 253 307
#     4   7  12  26  49  75  99 127 164 197 228 279
#
# _framework density 20.641290000000001
#
# number of rings (size 3 to 8) (size 9 to 14) (size 15 to 20)
#    0.000    2.692    1.538    1.385    1.077    1.231 
#    0.000    3.077    0.000    6.000    0.000    8.615 
#    0.000    0.000    0.000    0.000    0.000    0.000 
#
# Total GULP energy -290082.245746 kJ/mol
# GULP energy per Si atom -5578.504726 kJ/mol
# Density = 2.059431 g / cm^3
# Si number density = 20.641290 Si / 1000 Ang^3
#
#
#
# Elastic Constant Matrix: (Units=GPa)
#
#
# Indices 1 2 3 4 5 6 
#
# 1 37.5237 0.8999 7.5764 0.0000 0.0000 0.0000
# 2 0.8999 131.5886 85.7027 0.0000 0.0000 0.0000
# 3 7.5764 85.7027 143.9635 0.0000 0.0000 0.0000
# 4 0.0000 0.0000 0.0000 13.4809 0.0000 0.0000
# 5 0.0000 0.0000 0.0000 0.0000 9.3723 0.0000
# 6 0.0000 0.0000 0.0000 0.0000 0.0000 13.0756
#
#
#
# Elastic Compliance Matrix: (Units=1/GPa)
#
#
# Indices 1 2 3 4 5 6 
#
# 1 0.027054 0.001212 -0.002145 0.000000 0.000000 0.000000
# 2 0.001212 0.012466 -0.007485 0.000000 0.000000 0.000000
# 3 -0.002145 -0.007485 0.011515 0.000000 0.000000 0.000000
# 4 0.000000 0.000000 0.000000 0.074179 0.000000 0.000000
# 5 0.000000 0.000000 0.000000 0.000000 0.106697 0.000000
# 6 0.000000 0.000000 0.000000 0.000000 0.000000 0.076478
#
#
# Mechanical properties :
#
#
# Convention : Reuss Voigt Hill
#
# Bulk Modulus (GPa) = 29.24083 55.71488 42.47786
# Shear Modulus (GPa) = 14.85333 21.77890 18.31611
#
# Velocity S-wave (km/s) = 2.68543 3.25177 2.98208
# Velocity P-wave (km/s) = 4.87979 6.41477 5.69919
#
# Compressibility (1/GPa) = 0.03419875
#
# Stress axis : x y z
#
# Youngs Moduli (GPa) = 36.96317 80.21800 86.84355
#
# Poissons Ratio (x) = -0.09725 0.18632
# Poissons Ratio (y) = -0.04481 0.65002
# Poissons Ratio (z) = 0.07930 0.60043
#
# Static dielectric constant tensor:
#      x y z
#    x 1.810950 0.000000 0.000000 
#    y 0.000000 1.747360 0.000000 
#    z 0.000000 0.000000 1.774150 
# 
# From -- ./inp_files/29603.got.cif
#   From: 2010.05.17/outbox.cif.g08.bks.cpg/sg47_15_cif.got.tgz:29603.got - 2010.06.03 20:15:42.
