data_PCOD9387692
_publ_section_title
;
Structure prediction by ZEFSAII (Michael W. Deem and Ramdas Pophale) SiO2 
 PCOD9387692
Probable space group: P M M M
;
_chemical_formula_sum "Si O2"
_cell_formula_units_Z 44
_cell_length_a 8.877695
_cell_length_b 28.810356
_cell_length_c 9.425513
_cell_angle_alpha 90.000000
_cell_angle_beta 90.000000
_cell_angle_gamma 90.000000
_cell_volume 2410.759251
_symmetry_space_group_name_H-M "P M M M"
_symmetry_group_IT_number 47
_symmetry_cell_setting 'orthorhombic'
loop_
_space_group_symop_operation_xyz
x,y,z
-x,-y,z
x,-y,-z
-x,y,-z
-x,-y,-z
x,y,-z
-x,y,z
x,-y,z
loop_
_atom_site_type_symbol
_atom_site_label
_atom_site_fract_x
_atom_site_fract_y
_atom_site_fract_z
Si Si1 0.316265 0.500000 0.163145
Si Si2 0.180216 0.862169 0.665590
Si Si3 0.680144 0.591233 0.332718
Si Si4 0.820175 0.690255 0.667058
Si Si5 0.680705 0.946187 0.165971
Si Si6 0.680561 0.775900 0.165901
O O1 0.500000 0.500000 0.166645
O O2 0.268791 0.453261 0.243550
O O3 0.268625 0.500000 0.000000
O O4 0.222897 0.859551 0.500000
O O5 0.236077 0.910073 0.734302
O O6 0.253336 0.820042 0.752017
O O7 0.000000 0.858857 0.675329
O O8 0.705884 0.582466 0.500000
O O9 0.500000 0.597170 0.312941
O O10 0.761586 0.639048 0.293887
O O11 0.782751 0.697582 0.500000
O O12 0.743527 0.729618 0.760919
O O13 0.000000 0.692729 0.681416
O O14 0.500000 0.940945 0.181454
O O15 0.717895 0.000000 0.196100
O O16 0.716283 0.937138 0.000000
O O17 0.500000 0.776538 0.175639
O O18 0.722614 0.777633 0.000000
#
# Coordination Sequence:
#
# PCOD9387692 Si02
#       6
#     4   8   8   8   8   8
#     4   9  17  29  48  75 104 134 174 225 270 309
#     4  11  24  39  56  82 115 148 183 225 272 323
#     4   9  17  31  52  76 103 138 178 218 264 318
#     4  10  21  37  57  82 111 142 178 221 270 324
#     4   9  19  37  60  85 113 146 186 230 273 320
#     4  11  24  40  59  83 109 140 181 226 271 323
#
# _framework density 18.251511000000001
#
# number of rings (size 3 to 8) (size 9 to 14) (size 15 to 20)
#    0.000    2.091    0.000    3.545    0.000   11.273 
#    0.000    5.000    0.000    2.727    0.000    0.000 
#    0.000    0.000    0.000    0.000    0.000    0.000 
#
# Total GULP energy -245790.100490 kJ/mol
# GULP energy per Si atom -5586.138648 kJ/mol
# Density = 1.820997 g / cm^3
# Si number density = 18.251511 Si / 1000 Ang^3
#
#
#
# Elastic Constant Matrix: (Units=GPa)
#
#
# Indices 1 2 3 4 5 6 
#
# 1 42.6637 60.4601 64.7143 0.0000 0.0000 0.0000
# 2 60.4601 164.3900 124.1073 0.0000 0.0000 0.0000
# 3 64.7143 124.1073 143.9291 0.0000 0.0000 0.0000
# 4 0.0000 0.0000 0.0000 57.7081 0.0000 0.0000
# 5 0.0000 0.0000 0.0000 0.0000 23.1553 0.0000
# 6 0.0000 0.0000 0.0000 0.0000 0.0000 -341.9476
#
#
#
# Elastic Compliance Matrix: (Units=1/GPa)
#
#
# Indices 1 2 3 4 5 6 
#
# 1 0.075825 -0.006156 -0.028784 0.000000 0.000000 0.000000
# 2 -0.006156 0.017929 -0.012692 0.000000 0.000000 0.000000
# 3 -0.028784 -0.012692 0.030834 0.000000 0.000000 0.000000
# 4 0.000000 0.000000 0.000000 0.017329 0.000000 0.000000
# 5 0.000000 0.000000 0.000000 0.000000 0.043187 0.000000
# 6 0.000000 0.000000 0.000000 0.000000 0.000000 -0.002924
#
#
# Mechanical properties :
#
#
# Convention : Reuss Voigt Hill
#
# Bulk Modulus (GPa) = 34.10303 94.39401 64.24852
# Shear Modulus (GPa) = 17.40835 -45.43675 -14.01420
#
# Velocity S-wave (km/s) = 3.09172 -4.99488 -2.77399
# Velocity P-wave (km/s) = 5.60987 4.30879 5.00181
#
# Compressibility (1/GPa) = 0.02932291
#
# Stress axis : x y z
#
# Youngs Moduli (GPa) = 13.18827 55.77517 32.43163
#
# Poissons Ratio (x) = 0.34337 0.93353
# Poissons Ratio (y) = 0.08119 0.41162
# Poissons Ratio (z) = 0.37962 0.70789
#
# Static dielectric constant tensor:
#      x y z
#    x 1.608530 0.000000 0.000000 
#    y 0.000000 1.597480 0.000000 
#    z 0.000000 0.000000 1.610960 
# 
# From -- ./inp_files/2088.got.cif
#   From: 2010.05.17/outbox.cif.g08.bks.cpg/sg47_2_cif.got.tgz:2088.got - 2010.06.03 20:15:42.
