data_PCOD9387259
_publ_section_title
;
Structure prediction by ZEFSAII (Michael W. Deem and Ramdas Pophale) SiO2 
 PCOD9387259
Probable space group: P M M M
;
_chemical_formula_sum "Si O2"
_cell_formula_units_Z 44
_cell_length_a 29.213363
_cell_length_b 8.182931
_cell_length_c 9.898925
_cell_angle_alpha 90.000000
_cell_angle_beta 90.000000
_cell_angle_gamma 90.000000
_cell_volume 2366.347264
_symmetry_space_group_name_H-M "P M M M"
_symmetry_group_IT_number 47
_symmetry_cell_setting 'orthorhombic'
loop_
_space_group_symop_operation_xyz
x,y,z
-x,-y,z
x,-y,-z
-x,y,-z
-x,-y,-z
x,y,-z
-x,y,z
x,-y,z
loop_
_atom_site_type_symbol
_atom_site_label
_atom_site_fract_x
_atom_site_fract_y
_atom_site_fract_z
Si Si1 0.684642 0.695253 0.845985
Si Si2 0.500000 0.799728 0.655943
Si Si3 0.866574 0.302892 0.345166
Si Si4 0.948612 0.699515 0.844095
Si Si5 0.417035 0.803293 0.154673
Si Si6 0.233582 0.195110 0.345415
O O1 0.683620 0.500000 0.848297
O O2 0.634349 0.756254 0.804378
O O3 0.724913 0.750065 0.748008
O O4 0.692512 0.754911 0.000000
O O5 0.500000 0.746490 0.500000
O O6 0.544621 0.746251 0.740321
O O7 0.500000 0.000000 0.654650
O O8 0.871200 0.244225 0.500000
O O9 0.868673 0.500000 0.347169
O O10 0.907947 0.242747 0.251989
O O11 0.816100 0.254444 0.295911
O O12 0.948161 0.500000 0.841741
O O13 0.000000 0.749869 0.802566
O O14 0.941540 0.748122 0.000000
O O15 0.419857 0.000000 0.150546
O O16 0.424813 0.743978 0.000000
O O17 0.239222 0.256571 0.500000
O O18 0.232922 0.000000 0.349046
#
# Coordination Sequence:
#
# PCOD9387259 Si02
#       6
#     8   4   8   8   8   8
#     4  10  21  36  54  77 103 131 166 208 253 300
#     4   9  17  29  48  75 102 128 164 207 244 283
#     4   9  17  29  46  69  96 125 159 200 244 290
#     4   8  14  25  42  66  95 124 155 194 240 288
#     4   9  17  31  51  73  99 132 167 202 243 291
#     4  10  21  36  53  73  99 132 168 206 250 300
#
# _framework density 18.594058
#
# number of rings (size 3 to 8) (size 9 to 14) (size 15 to 20)
#    0.000    2.818    0.000    1.909    0.000    5.091 
#    0.000    5.909    0.000    3.273    0.000    3.818 
#    0.000    0.000    0.000    0.000    0.000    0.000 
#
# Total GULP energy -245370.111012 kJ/mol
# GULP energy per Si atom -5576.593432 kJ/mol
# Density = 1.855174 g / cm^3
# Si number density = 18.594058 Si / 1000 Ang^3
#
#
#
# Elastic Constant Matrix: (Units=GPa)
#
#
# Indices 1 2 3 4 5 6 
#
# 1 213.6811 11.7882 126.7843 0.0000 0.0000 0.0000
# 2 11.7882 9.2713 10.6316 0.0000 0.0000 0.0000
# 3 126.7843 10.6316 103.5134 0.0000 0.0000 0.0000
# 4 0.0000 0.0000 0.0000 13.1616 0.0000 0.0000
# 5 0.0000 0.0000 0.0000 0.0000 41.9645 0.0000
# 6 0.0000 0.0000 0.0000 0.0000 0.0000 25.0484
#
#
#
# Elastic Compliance Matrix: (Units=1/GPa)
#
#
# Indices 1 2 3 4 5 6 
#
# 1 0.017180 0.002591 -0.021308 0.000000 0.000000 0.000000
# 2 0.002591 0.122650 -0.015770 0.000000 0.000000 0.000000
# 3 -0.021308 -0.015770 0.037379 0.000000 0.000000 0.000000
# 4 0.000000 0.000000 0.000000 0.075979 0.000000 0.000000
# 5 0.000000 0.000000 0.000000 0.000000 0.023830 0.000000
# 6 0.000000 0.000000 0.000000 0.000000 0.000000 0.039923
#
#
# Mechanical properties :
#
#
# Convention : Reuss Voigt Hill
#
# Bulk Modulus (GPa) = 9.23928 69.43045 39.33487
# Shear Modulus (GPa) = 11.84855 27.85233 19.85044
#
# Velocity S-wave (km/s) = 2.52706 3.87449 3.27091
# Velocity P-wave (km/s) = 3.67348 7.57870 5.95530
#
# Compressibility (1/GPa) = 0.10823351
#
# Stress axis : x y z
#
# Youngs Moduli (GPa) = 58.20831 8.15326 26.75332
#
# Poissons Ratio (x) = -0.02112 0.57006
# Poissons Ratio (y) = -0.15081 0.42191
# Poissons Ratio (z) = 1.24030 0.12858
#
# Static dielectric constant tensor:
#      x y z
#    x 1.617980 0.000000 0.000000 
#    y 0.000000 1.657330 0.000000 
#    z 0.000000 0.000000 1.662400 
# 
# From -- ./inp_files/13554.got.cif
#   From: 2010.05.17/outbox.cif.g08.bks.cpg/sg47_7_cif.got.tgz:13554.got - 2010.06.03 20:15:42.
