data_PCOD9387002
_publ_section_title
;
Structure prediction by ZEFSAII (Michael W. Deem and Ramdas Pophale) SiO2 
 PCOD9387002
Probable space group: P M M M
;
_chemical_formula_sum "Si O2"
_cell_formula_units_Z 48
_cell_length_a 31.237093
_cell_length_b 10.373466
_cell_length_c 7.607900
_cell_angle_alpha 90.000000
_cell_angle_beta 90.000000
_cell_angle_gamma 90.000000
_cell_volume 2465.240500
_symmetry_space_group_name_H-M "P M M M"
_symmetry_group_IT_number 47
_symmetry_cell_setting 'orthorhombic'
loop_
_space_group_symop_operation_xyz
x,y,z
-x,-y,z
x,-y,-z
-x,y,-z
-x,-y,-z
x,y,-z
-x,y,z
x,-y,z
loop_
_atom_site_type_symbol
_atom_site_label
_atom_site_fract_x
_atom_site_fract_y
_atom_site_fract_z
Si Si1 0.283900 0.853133 0.285078
Si Si2 0.880164 0.645091 0.791700
Si Si3 0.618443 0.852897 0.285518
Si Si4 0.216271 0.354668 0.292221
Si Si5 0.548758 0.352785 0.714591
Si Si6 0.048295 0.145137 0.288868
O O1 0.283116 0.853277 0.500000
O O2 0.332744 0.822122 0.233064
O O3 0.249508 0.749630 0.220698
O O4 0.274287 0.000000 0.230337
O O5 0.889305 0.500000 0.722134
O O6 0.833223 0.685436 0.726201
O O7 0.917027 0.747366 0.754057
O O8 0.876637 0.635931 0.000000
O O9 0.617836 0.851639 0.500000
O O10 0.583646 0.749925 0.224370
O O11 0.608862 0.000000 0.231652
O O12 0.225026 0.363458 0.500000
O O13 0.220376 0.500000 0.218468
O O14 0.549221 0.351347 0.500000
O O15 0.500000 0.321907 0.768028
O O16 0.558330 0.500000 0.767949
O O17 0.046479 0.139440 0.500000
O O18 0.000000 0.175889 0.226069
O O19 0.059351 0.000000 0.226483
#
# Coordination Sequence:
#
# PCOD9387002 Si02
#       6
#     8   8   8   8   8   8
#     4   8  14  24  37  54  75  98 128 170 218 262
#     4  10  21  35  50  71 100 130 158 190 229 273
#     4   8  13  20  29  42  61  85 116 157 203 249
#     4   9  17  29  45  64  85 111 146 185 222 263
#     4   8  13  19  25  35  54  82 117 156 197 242
#     4   9  19  36  56  77 100 126 158 195 232 270
#
# _framework density 19.470718000000002
#
# number of rings (size 3 to 8) (size 9 to 14) (size 15 to 20)
#    0.000    3.333    0.000    2.500    0.000    3.667 
#    0.000    9.167    0.000    0.000    0.000    0.000 
#    0.000    0.000    0.000    0.000    0.000    0.833 
#
# Total GULP energy -267550.212539 kJ/mol
# GULP energy per Si atom -5573.962761 kJ/mol
# Density = 1.942640 g / cm^3
# Si number density = 19.470718 Si / 1000 Ang^3
#
#
#
# Elastic Constant Matrix: (Units=GPa)
#
#
# Indices 1 2 3 4 5 6 
#
# 1 175.9950 151.7251 0.3811 0.0000 0.0000 0.0000
# 2 151.7251 157.9533 4.0681 0.0000 0.0000 0.0000
# 3 0.3811 4.0681 39.0784 0.0000 0.0000 0.0000
# 4 0.0000 0.0000 0.0000 15.9480 0.0000 0.0000
# 5 0.0000 0.0000 0.0000 0.0000 -38.2017 0.0000
# 6 0.0000 0.0000 0.0000 0.0000 0.0000 12.7081
#
#
#
# Elastic Compliance Matrix: (Units=1/GPa)
#
#
# Indices 1 2 3 4 5 6 
#
# 1 0.033407 -0.032168 0.003023 0.000000 0.000000 0.000000
# 2 -0.032168 0.037323 -0.003572 0.000000 0.000000 0.000000
# 3 0.003023 -0.003572 0.025932 0.000000 0.000000 0.000000
# 4 0.000000 0.000000 0.000000 0.062704 0.000000 0.000000
# 5 0.000000 0.000000 0.000000 0.000000 -0.026177 0.000000
# 6 0.000000 0.000000 0.000000 0.000000 0.000000 0.078690
#
#
# Mechanical properties :
#
#
# Convention : Reuss Voigt Hill
#
# Bulk Modulus (GPa) = 32.02200 76.15279 54.08740
# Shear Modulus (GPa) = 17.37791 12.54773 14.96282
#
# Velocity S-wave (km/s) = 2.99074 2.54134 2.77515
# Velocity P-wave (km/s) = 5.32991 6.91430 6.17315
#
# Compressibility (1/GPa) = 0.03122853
#
# Stress axis : x y z
#
# Youngs Moduli (GPa) = 29.93344 26.79341 38.56256
#
# Poissons Ratio (x) = 0.86189 -0.11657
# Poissons Ratio (y) = 0.96290 0.13773
# Poissons Ratio (z) = -0.09049 0.09570
#
# Static dielectric constant tensor:
#      x y z
#    x 1.656880 0.000000 0.000000 
#    y 0.000000 1.686190 0.000000 
#    z 0.000000 0.000000 1.729610 
# 
# From -- ./inp_files/12356.got.cif
#   From: 2010.05.17/outbox.cif.g08.bks.cpg/sg47_7_cif.got.tgz:12356.got - 2010.06.03 20:15:42.
