data_PCOD9387821
_publ_section_title
;
Structure prediction by ZEFSAII (Michael W. Deem and Ramdas Pophale) SiO2 
 PCOD9387821
Probable space group: P M M M
;
_chemical_formula_sum "Si O2"
_cell_formula_units_Z 52
_cell_length_a 17.712737
_cell_length_b 16.867159
_cell_length_c 7.492504
_cell_angle_alpha 90.000000
_cell_angle_beta 90.000000
_cell_angle_gamma 90.000000
_cell_volume 2238.487103
_symmetry_space_group_name_H-M "P M M M"
_symmetry_group_IT_number 47
_symmetry_cell_setting 'orthorhombic'
loop_
_space_group_symop_operation_xyz
x,y,z
-x,-y,z
x,-y,-z
-x,y,-z
-x,-y,-z
x,y,-z
-x,y,z
x,-y,z
loop_
_atom_site_type_symbol
_atom_site_label
_atom_site_fract_x
_atom_site_fract_y
_atom_site_fract_z
Si Si1 0.310655 0.088287 0.286210
Si Si2 0.919024 0.749271 0.718327
Si Si3 0.584182 0.239552 0.213778
Si Si4 0.086732 0.500000 0.215693
Si Si5 0.136649 0.086338 0.717651
Si Si6 0.365667 0.411938 0.204863
Si Si7 0.798341 0.635195 0.295830
O O1 0.308528 0.084008 0.500000
O O2 0.359426 0.166500 0.247248
O O3 0.223886 0.097338 0.225737
O O4 0.337728 0.000000 0.223755
O O5 0.917374 0.742866 0.500000
O O6 0.913928 0.840398 0.770805
O O7 0.840564 0.711198 0.782007
O O8 0.000000 0.714557 0.776875
O O9 0.500000 0.218851 0.276293
O O10 0.604954 0.328200 0.282929
O O11 0.583220 0.247685 0.000000
O O12 0.133014 0.426152 0.288801
O O13 0.000000 0.500000 0.269698
O O14 0.090771 0.500000 0.000000
O O15 0.137076 0.086681 0.500000
O O16 0.110733 0.000000 0.775987
O O17 0.382035 0.500000 0.283522
O O18 0.275019 0.400068 0.204166
O O19 0.392523 0.415300 0.000000
O O20 0.775283 0.650457 0.500000
#
# Coordination Sequence:
#
# PCOD9387821 Si02
#       7
#     8   8   8   4   8   8   8
#     4   9  18  34  56  81 110 145 183 223 272 331
#     4   9  17  27  41  67 102 136 171 214 263 311
#     4  10  22  38  56  82 113 144 180 224 276 333
#     4  11  23  37  53  75 106 141 176 219 271 324
#     4   8  14  26  45  69  98 134 175 215 255 305
#     4  10  21  38  59  80 106 141 183 229 276 333
#     4  11  21  34  54  78 105 139 179 223 270 322
#
# _framework density 23.229976000000001
#
# number of rings (size 3 to 8) (size 9 to 14) (size 15 to 20)
#    0.000    2.385    0.769    3.000    0.000    4.615 
#    0.000    4.615    0.000    0.000    0.000    2.154 
#    0.000    0.000    0.000   19.538    0.000   17.538 
#
# Total GULP energy -290081.345134 kJ/mol
# GULP energy per Si atom -5578.487406 kJ/mol
# Density = 2.317710 g / cm^3
# Si number density = 23.229976 Si / 1000 Ang^3
#
#
#
# Elastic Constant Matrix: (Units=GPa)
#
#
# Indices 1 2 3 4 5 6 
#
# 1 47.3748 20.4422 -2.6898 0.0000 0.0000 0.0000
# 2 20.4422 141.6823 -0.5792 0.0000 0.0000 0.0000
# 3 -2.6898 -0.5792 68.3975 0.0000 0.0000 0.0000
# 4 0.0000 0.0000 0.0000 11.7476 0.0000 0.0000
# 5 0.0000 0.0000 0.0000 0.0000 10.1578 0.0000
# 6 0.0000 0.0000 0.0000 0.0000 0.0000 16.9780
#
#
#
# Elastic Compliance Matrix: (Units=1/GPa)
#
#
# Indices 1 2 3 4 5 6 
#
# 1 0.022560 -0.003251 0.000860 0.000000 0.000000 0.000000
# 2 -0.003251 0.007527 -0.000064 0.000000 0.000000 0.000000
# 3 0.000860 -0.000064 0.014654 0.000000 0.000000 0.000000
# 4 0.000000 0.000000 0.000000 0.085124 0.000000 0.000000
# 5 0.000000 0.000000 0.000000 0.000000 0.098447 0.000000
# 6 0.000000 0.000000 0.000000 0.000000 0.000000 0.058900
#
#
# Mechanical properties :
#
#
# Convention : Reuss Voigt Hill
#
# Bulk Modulus (GPa) = 25.10750 32.42233 28.76492
# Shear Modulus (GPa) = 16.37204 23.79545 20.08375
#
# Velocity S-wave (km/s) = 2.65765 3.20401 2.94353
# Velocity P-wave (km/s) = 4.49991 5.26070 4.89511
#
# Compressibility (1/GPa) = 0.03982873
#
# Stress axis : x y z
#
# Youngs Moduli (GPa) = 44.32610 132.85657 68.24225
#
# Poissons Ratio (x) = 0.43198 -0.05866
# Poissons Ratio (y) = 0.14413 0.00438
# Poissons Ratio (z) = -0.03810 0.00852
#
# Static dielectric constant tensor:
#      x y z
#    x 1.831000 0.000000 0.000000 
#    y 0.000000 1.997810 0.000000 
#    z 0.000000 0.000000 1.918440 
# 
# From -- ./inp_files/11090.got.cif
#   From: 2010.05.17/outbox.cif.g08.bks.cpg/sg47_6_cif.got.tgz:11090.got - 2010.06.03 20:15:42.
