data_PCOD9387956
_publ_section_title
;
Structure prediction by ZEFSAII (Michael W. Deem and Ramdas Pophale) SiO2 
 PCOD9387956
Probable space group: P M M M
;
_chemical_formula_sum "Si O2"
_cell_formula_units_Z 49
_cell_length_a 19.042466
_cell_length_b 15.024766
_cell_length_c 9.197700
_cell_angle_alpha 90.000000
_cell_angle_beta 90.000000
_cell_angle_gamma 90.000000
_cell_volume 2631.541031
_symmetry_space_group_name_H-M "P M M M"
_symmetry_group_IT_number 47
_symmetry_cell_setting 'orthorhombic'
loop_
_space_group_symop_operation_xyz
x,y,z
-x,-y,z
x,-y,-z
-x,y,-z
-x,-y,-z
x,y,-z
-x,y,z
x,-y,z
loop_
_atom_site_type_symbol
_atom_site_label
_atom_site_fract_x
_atom_site_fract_y
_atom_site_fract_z
Si Si1 0.416478 0.757628 0.328138
Si Si2 0.000000 0.500000 0.500000
Si Si3 0.174516 0.329237 0.835860
Si Si4 0.083984 0.000000 0.169925
Si Si5 0.333668 0.395644 0.827753
Si Si6 0.078349 0.500000 0.205038
Si Si7 0.830218 0.847364 0.326420
Si Si8 0.316581 0.894585 0.171389
O O1 0.401210 0.765753 0.500000
O O2 0.500000 0.759833 0.307782
O O3 0.384061 0.666406 0.266076
O O4 0.378400 0.836506 0.240677
O O5 0.939233 0.500000 0.374377
O O6 0.253435 0.363426 0.806054
O O7 0.122782 0.412942 0.832564
O O8 0.154013 0.253330 0.722392
O O9 0.173661 0.291051 0.000000
O O10 0.115347 0.085429 0.251725
O O11 0.000000 0.000000 0.175030
O O12 0.106356 0.000000 0.000000
O O13 0.339370 0.500000 0.792528
O O14 0.349031 0.384773 0.000000
O O15 0.000000 0.500000 0.141520
O O16 0.829660 0.857309 0.500000
O O17 0.754332 0.870653 0.257897
O O18 0.329351 0.000000 0.184616
O O19 0.308310 0.873367 0.000000
#
# Coordination Sequence:
#
# PCOD9387956 Si02
#       8
#     8   1   8   4   8   4   8   8
#     4  11  25  43  62  92 132 170 210 260 319 381
#     4   8  24  44  58  92 136 170 208 272 328 380
#     4  11  22  39  65  95 126 166 215 264 313 380
#     4  11  25  47  69  93 128 171 216 265 317 375
#     4  10  21  39  64  94 124 163 214 264 313 373
#     4  10  23  42  64  87 134 169 211 262 326 373
#     4  12  25  39  66  98 130 167 211 262 320 379
#     4  11  23  41  67  95 126 164 211 262 314 379
#
# _framework density 18.620267999999999
#
# number of rings (size 3 to 8) (size 9 to 14) (size 15 to 20)
#    0.245    0.898    3.265    2.939    1.143    5.224 
#    0.000    3.265    0.000    0.000    0.000    0.000 
#    0.000    0.000    0.000    0.000    0.000    0.000 
#
# Total GULP energy -273556.470077 kJ/mol
# GULP energy per Si atom -5582.785104 kJ/mol
# Density = 1.857789 g / cm^3
# Si number density = 18.620268 Si / 1000 Ang^3
#
#
#
# Elastic Constant Matrix: (Units=GPa)
#
#
# Indices 1 2 3 4 5 6 
#
# 1 101.7772 54.2727 69.4732 0.0000 0.0000 0.0000
# 2 54.2727 136.7234 78.4028 0.0000 0.0000 0.0000
# 3 69.4732 78.4028 166.2220 0.0000 0.0000 0.0000
# 4 0.0000 0.0000 0.0000 -165.1289 0.0000 0.0000
# 5 0.0000 0.0000 0.0000 0.0000 41.9205 0.0000
# 6 0.0000 0.0000 0.0000 0.0000 0.0000 34.0757
#
#
#
# Elastic Compliance Matrix: (Units=1/GPa)
#
#
# Indices 1 2 3 4 5 6 
#
# 1 0.014683 -0.003166 -0.004644 0.000000 0.000000 0.000000
# 2 -0.003166 0.010708 -0.003728 0.000000 0.000000 0.000000
# 3 -0.004644 -0.003728 0.009715 0.000000 0.000000 0.000000
# 4 0.000000 0.000000 0.000000 -0.006056 0.000000 0.000000
# 5 0.000000 0.000000 0.000000 0.000000 0.023855 0.000000
# 6 0.000000 0.000000 0.000000 0.000000 0.000000 0.029346
#
#
# Mechanical properties :
#
#
# Convention : Reuss Voigt Hill
#
# Bulk Modulus (GPa) = 83.10840 89.89109 86.49974
# Shear Modulus (GPa) = 45.73004 -4.32162 20.70421
#
# Velocity S-wave (km/s) = 4.96111 -1.52511 3.33816
# Velocity P-wave (km/s) = 8.80608 6.72900 7.83666
#
# Compressibility (1/GPa) = 0.01203248
#
# Stress axis : x y z
#
# Youngs Moduli (GPa) = 68.10444 93.38567 102.93107
#
# Poissons Ratio (x) = 0.29562 0.47799
# Poissons Ratio (y) = 0.21559 0.38370
# Poissons Ratio (z) = 0.31626 0.34812
#
# Static dielectric constant tensor:
#      x y z
#    x 1.613660 0.000000 0.000000 
#    y 0.000000 1.634980 0.000000 
#    z 0.000000 0.000000 1.633420 
# 
# From -- ./inp_files/9278.got.cif
#   From: 2010.05.17/outbox.cif.g08.bks.cpg/sg47_5_cif.got.tgz:9278.got - 2010.06.03 20:15:42.
