data_PCOD9387072
_publ_section_title
;
Structure prediction by ZEFSAII (Michael W. Deem and Ramdas Pophale) SiO2 
 PCOD9387072
Probable space group: P M M M
;
_chemical_formula_sum "Si O2"
_cell_formula_units_Z 40
_cell_length_a 9.969042
_cell_length_b 26.157114
_cell_length_c 7.564265
_cell_angle_alpha 90.000000
_cell_angle_beta 90.000000
_cell_angle_gamma 90.000000
_cell_volume 1972.468090
_symmetry_space_group_name_H-M "P M M M"
_symmetry_group_IT_number 47
_symmetry_cell_setting 'orthorhombic'
loop_
_space_group_symop_operation_xyz
x,y,z
-x,-y,z
x,-y,-z
-x,y,-z
-x,-y,-z
x,y,-z
-x,y,z
x,-y,z
loop_
_atom_site_type_symbol
_atom_site_label
_atom_site_fract_x
_atom_site_fract_y
_atom_site_fract_z
Si Si1 0.151459 0.850583 0.709912
Si Si2 0.347450 0.763060 0.288628
Si Si3 0.845512 0.442632 0.215829
Si Si4 0.650251 0.058499 0.786857
Si Si5 0.347394 0.647151 0.787201
O O1 0.139977 0.841862 0.500000
O O2 0.243266 0.804574 0.782862
O O3 0.234874 0.902589 0.732683
O O4 0.000000 0.852936 0.781703
O O5 0.355134 0.770025 0.500000
O O6 0.500000 0.769240 0.218805
O O7 0.303668 0.704785 0.255946
O O8 0.803876 0.500000 0.269544
O O9 0.749796 0.397385 0.278384
O O10 0.000000 0.434853 0.269315
O O11 0.843944 0.442054 0.000000
O O12 0.500000 0.074497 0.727155
O O13 0.672687 0.000000 0.727739
O O14 0.647850 0.057910 0.000000
O O15 0.500000 0.641079 0.721570
O O16 0.350978 0.643351 0.000000
#
# Coordination Sequence:
#
# PCOD9387072 Si02
#       5
#     8   8   8   8   8
#     4  10  21  35  51  74 102 130 163 202 242 286
#     4   9  18  33  50  66  90 126 161 192 233 284
#     4   8  14  25  41  62  89 119 148 180 223 275
#     4   9  19  36  56  77 101 130 164 200 239 285
#     4   9  17  28  44  68  92 113 146 193 236 272
#
# _framework density 20.279163
#
# number of rings (size 3 to 8) (size 9 to 14) (size 15 to 20)
#    0.000    3.000    0.000    1.800    0.000    4.400 
#    0.000    7.000    0.000    0.600    0.000    4.200 
#    0.000    0.000    0.000    0.000    0.000    0.000 
#
# Total GULP energy -223150.293882 kJ/mol
# GULP energy per Si atom -5578.757347 kJ/mol
# Density = 2.023301 g / cm^3
# Si number density = 20.279163 Si / 1000 Ang^3
#
#
#
# Elastic Constant Matrix: (Units=GPa)
#
#
# Indices 1 2 3 4 5 6 
#
# 1 153.8845 133.4912 5.9159 0.0000 0.0000 0.0000
# 2 133.4912 168.3013 -1.9593 0.0000 0.0000 0.0000
# 3 5.9159 -1.9593 46.3908 0.0000 0.0000 0.0000
# 4 0.0000 0.0000 0.0000 24.8025 0.0000 0.0000
# 5 0.0000 0.0000 0.0000 0.0000 8.7829 0.0000
# 6 0.0000 0.0000 0.0000 0.0000 0.0000 83.2084
#
#
#
# Elastic Compliance Matrix: (Units=1/GPa)
#
#
# Indices 1 2 3 4 5 6 
#
# 1 0.021368 -0.016988 -0.003442 0.000000 0.000000 0.000000
# 2 -0.016988 0.019451 0.002988 0.000000 0.000000 0.000000
# 3 -0.003442 0.002988 0.022121 0.000000 0.000000 0.000000
# 4 0.000000 0.000000 0.000000 0.040318 0.000000 0.000000
# 5 0.000000 0.000000 0.000000 0.000000 0.113858 0.000000
# 6 0.000000 0.000000 0.000000 0.000000 0.000000 0.012018
#
#
# Mechanical properties :
#
#
# Convention : Reuss Voigt Hill
#
# Bulk Modulus (GPa) = 35.64490 71.49692 53.57091
# Shear Modulus (GPa) = 18.29019 38.76733 28.52876
#
# Velocity S-wave (km/s) = 3.00646 4.37702 3.75480
# Velocity P-wave (km/s) = 5.44674 7.80239 6.72846
#
# Compressibility (1/GPa) = 0.02805450
#
# Stress axis : x y z
#
# Youngs Moduli (GPa) = 46.80000 51.41139 45.20551
#
# Poissons Ratio (x) = 0.87338 0.15561
# Poissons Ratio (y) = 0.79504 -0.13507
# Poissons Ratio (z) = 0.16110 -0.15361
#
# Static dielectric constant tensor:
#      x y z
#    x 1.713710 0.000000 0.000000 
#    y 0.000000 1.692730 0.000000 
#    z 0.000000 0.000000 1.772320 
# 
# From -- ./inp_files/1352.got.cif
#   From: 2010.05.17/outbox.cif.g08.bks.cpg/sg47_1_cif.got.tgz:1352.got - 2010.06.03 20:15:42.
