data_PCOD9387012
_publ_section_title
;
Structure prediction by ZEFSAII (Michael W. Deem and Ramdas Pophale) SiO2 
 PCOD9387012
Probable space group: P M M M
;
_chemical_formula_sum "Si O2"
_cell_formula_units_Z 64
_cell_length_a 8.835023
_cell_length_b 20.779584
_cell_length_c 20.428555
_cell_angle_alpha 90.000000
_cell_angle_beta 90.000000
_cell_angle_gamma 90.000000
_cell_volume 3750.439651
_symmetry_space_group_name_H-M "P M M M"
_symmetry_group_IT_number 47
_symmetry_cell_setting 'orthorhombic'
loop_
_space_group_symop_operation_xyz
x,y,z
-x,-y,z
x,-y,-z
-x,y,-z
-x,-y,-z
x,y,-z
-x,y,z
x,-y,z
loop_
_atom_site_type_symbol
_atom_site_label
_atom_site_fract_x
_atom_site_fract_y
_atom_site_fract_z
Si Si1 0.684348 0.572871 0.324925
Si Si2 0.317518 0.573865 0.825575
Si Si3 0.317301 0.316723 0.575825
Si Si4 0.182441 0.676678 0.924508
Si Si5 0.817524 0.824064 0.924478
Si Si6 0.819010 0.822160 0.575861
Si Si7 0.682329 0.925662 0.326313
Si Si8 0.682457 0.073809 0.175271
O O1 0.500000 0.572645 0.326170
O O2 0.732923 0.500000 0.341479
O O3 0.728459 0.586734 0.249835
O O4 0.734863 0.626858 0.375816
O O5 0.500000 0.576955 0.828105
O O6 0.273543 0.500000 0.841219
O O7 0.249992 0.625136 0.875174
O O8 0.278334 0.330713 0.500000
O O9 0.500000 0.312211 0.579889
O O10 0.247856 0.247720 0.593295
O O11 0.227929 0.750361 0.908809
O O12 0.000000 0.674131 0.921669
O O13 0.226899 0.663730 0.000000
O O14 0.750014 0.875321 0.874797
O O15 0.000000 0.826654 0.921670
O O16 0.773102 0.837096 0.000000
O O17 0.775604 0.835129 0.500000
O O18 0.756124 0.876403 0.623730
O O19 0.000000 0.819962 0.579483
O O20 0.500000 0.920717 0.330397
O O21 0.725586 0.912269 0.250735
O O22 0.722984 0.000000 0.340545
O O23 0.500000 0.076097 0.172151
O O24 0.728480 0.000000 0.160452
#
# Coordination Sequence:
#
# PCOD9387012 Si02
#       8
#     8   8   8   8   8   8   8   8
#     4   8  15  29  48  71  99 127 157 198 244 284
#     4   9  18  32  49  70  97 127 158 195 240 289
#     4   9  17  30  50  74  98 127 164 202 238 281
#     4   9  19  35  51  68  94 126 159 198 241 283
#     4   9  19  35  52  72 100 132 166 203 242 287
#     4  10  21  35  50  71 101 133 163 199 243 290
#     4   9  19  36  55  74  98 128 162 201 244 290
#     4   9  19  35  53  75 102 129 160 200 244 290
#
# _framework density 17.064665999999999
#
# number of rings (size 3 to 8) (size 9 to 14) (size 15 to 20)
#    0.000    3.000    0.000    2.625    0.000    5.000 
#    0.000   11.875    0.000    1.125    0.000    1.750 
#    0.000    0.000    0.000    0.000    0.000    0.000 
#
# Total GULP energy -356747.248039 kJ/mol
# GULP energy per Si atom -5574.175751 kJ/mol
# Density = 1.702583 g / cm^3
# Si number density = 17.064666 Si / 1000 Ang^3
#
#
#
# Elastic Constant Matrix: (Units=GPa)
#
#
# Indices 1 2 3 4 5 6 
#
# 1 13.4259 42.1759 36.9518 0.0000 0.0000 0.0000
# 2 42.1759 178.0912 141.6841 0.0000 0.0000 0.0000
# 3 36.9518 141.6841 134.2616 0.0000 0.0000 0.0000
# 4 0.0000 0.0000 0.0000 43.8290 0.0000 0.0000
# 5 0.0000 0.0000 0.0000 0.0000 17.7710 0.0000
# 6 0.0000 0.0000 0.0000 0.0000 0.0000 2.8847
#
#
#
# Elastic Compliance Matrix: (Units=1/GPa)
#
#
# Indices 1 2 3 4 5 6 
#
# 1 0.344615 -0.038366 -0.054358 0.000000 0.000000 0.000000
# 2 -0.038366 0.039268 -0.030880 0.000000 0.000000 0.000000
# 3 -0.054358 -0.030880 0.054996 0.000000 0.000000 0.000000
# 4 0.000000 0.000000 0.000000 0.022816 0.000000 0.000000
# 5 0.000000 0.000000 0.000000 0.000000 0.056271 0.000000
# 6 0.000000 0.000000 0.000000 0.000000 0.000000 0.346651
#
#
# Mechanical properties :
#
#
# Convention : Reuss Voigt Hill
#
# Bulk Modulus (GPa) = 5.21730 85.26693 45.24212
# Shear Modulus (GPa) = 4.25273 19.89475 12.07374
#
# Velocity S-wave (km/s) = 1.58036 3.41815 2.66283
# Velocity P-wave (km/s) = 2.52865 8.10270 6.00199
#
# Compressibility (1/GPa) = 0.19166984
#
# Stress axis : x y z
#
# Youngs Moduli (GPa) = 2.90179 25.46601 18.18329
#
# Poissons Ratio (x) = 0.97704 0.98841
# Poissons Ratio (y) = 0.11133 0.56149
# Poissons Ratio (z) = 0.15774 0.78638
#
# Static dielectric constant tensor:
#      x y z
#    x 1.573830 0.000000 0.000000 
#    y 0.000000 1.557590 0.000000 
#    z 0.000000 0.000000 1.564960 
# 
# From -- ./inp_files/29982.got.cif
#   From: 2010.05.17/outbox.cif.g08.bks.cpg/sg47_15_cif.got.tgz:29982.got - 2010.06.03 20:15:42.
