data_PCOD9387280
_publ_section_title
;
Structure prediction by ZEFSAII (Michael W. Deem and Ramdas Pophale) SiO2 
 PCOD9387280
Probable space group: P M M M
;
_chemical_formula_sum "Si O2"
_cell_formula_units_Z 52
_cell_length_a 7.687346
_cell_length_b 13.403059
_cell_length_c 22.232445
_cell_angle_alpha 90.000000
_cell_angle_beta 90.000000
_cell_angle_gamma 90.000000
_cell_volume 2290.696671
_symmetry_space_group_name_H-M "P M M M"
_symmetry_group_IT_number 47
_symmetry_cell_setting 'orthorhombic'
loop_
_space_group_symop_operation_xyz
x,y,z
-x,-y,z
x,-y,-z
-x,y,-z
-x,-y,-z
x,y,-z
-x,y,z
x,-y,z
loop_
_atom_site_type_symbol
_atom_site_label
_atom_site_fract_x
_atom_site_fract_y
_atom_site_fract_z
Si Si1 0.208827 0.500000 0.931065
Si Si2 0.288499 0.826114 0.566151
Si Si3 0.796957 0.319061 0.275908
Si Si4 0.701817 0.606524 0.400505
Si Si5 0.203470 0.104666 0.305315
Si Si6 0.712149 0.113935 0.929903
Si Si7 0.297099 0.306875 0.143502
O O1 0.276036 0.601257 0.901422
O O2 0.000000 0.500000 0.926131
O O3 0.260332 0.500000 0.000000
O O4 0.239795 0.862216 0.500000
O O5 0.500000 0.827783 0.570394
O O6 0.228080 0.710954 0.574439
O O7 0.217932 0.886011 0.622696
O O8 0.709507 0.383532 0.327885
O O9 0.720669 0.207044 0.280849
O O10 0.783852 0.343456 0.206268
O O11 0.000000 0.317793 0.293187
O O12 0.500000 0.604902 0.419023
O O13 0.780791 0.500000 0.418167
O O14 0.000000 0.104204 0.288598
O O15 0.282251 0.000000 0.285189
O O16 0.500000 0.115717 0.929106
O O17 0.772551 0.203783 0.886333
O O18 0.764982 0.000000 0.913510
O O19 0.763267 0.131420 0.000000
O O20 0.500000 0.290205 0.155634
#
# Coordination Sequence:
#
# PCOD9387280 Si02
#       7
#     4   8   8   8   8   8   8
#     4  11  25  43  61  83 115 153 190 231 278 327
#     4   9  18  32  50  76 107 135 169 217 273 330
#     4  10  21  36  53  75 105 139 176 221 270 318
#     4   9  18  33  53  74  99 133 173 217 264 319
#     4   9  19  36  55  74 101 142 186 224 267 320
#     4   8  15  30  53  81 111 140 172 215 267 320
#     4  11  22  36  58  86 114 146 186 229 274 330
#
# _framework density 22.700516
#
# number of rings (size 3 to 8) (size 9 to 14) (size 15 to 20)
#    0.000    2.538    0.000    2.077    1.077    4.000 
#    0.000    3.077    0.000    1.385    0.000    9.692 
#    0.000    0.000    0.000    0.000    0.000    0.000 
#
# Total GULP energy -290212.372752 kJ/mol
# GULP energy per Si atom -5581.007168 kJ/mol
# Density = 2.264885 g / cm^3
# Si number density = 22.700516 Si / 1000 Ang^3
#
#
#
# Elastic Constant Matrix: (Units=GPa)
#
#
# Indices 1 2 3 4 5 6 
#
# 1 44.3586 -0.9719 -5.1975 0.0000 0.0000 0.0000
# 2 -0.9719 89.7275 -10.6083 0.0000 0.0000 0.0000
# 3 -5.1975 -10.6083 65.8203 0.0000 0.0000 0.0000
# 4 0.0000 0.0000 0.0000 -20.9711 0.0000 0.0000
# 5 0.0000 0.0000 0.0000 0.0000 14.4577 0.0000
# 6 0.0000 0.0000 0.0000 0.0000 0.0000 -15.3919
#
#
#
# Elastic Compliance Matrix: (Units=1/GPa)
#
#
# Indices 1 2 3 4 5 6 
#
# 1 0.022773 0.000468 0.001874 0.000000 0.000000 0.000000
# 2 0.000468 0.011371 0.001870 0.000000 0.000000 0.000000
# 3 0.001874 0.001870 0.015642 0.000000 0.000000 0.000000
# 4 0.000000 0.000000 0.000000 -0.047685 0.000000 0.000000
# 5 0.000000 0.000000 0.000000 0.000000 0.069167 0.000000
# 6 0.000000 0.000000 0.000000 0.000000 0.000000 -0.064969
#
#
# Mechanical properties :
#
#
# Convention : Reuss Voigt Hill
#
# Bulk Modulus (GPa) = 17.17928 18.48346 17.83137
# Shear Modulus (GPa) = 289.35927 10.06457 149.71192
#
# Velocity S-wave (km/s) = 11.30243 2.10790 8.12983
# Velocity P-wave (km/s) = 13.33832 3.75291 9.79783
#
# Compressibility (1/GPa) = 0.05820967
#
# Stress axis : x y z
#
# Youngs Moduli (GPa) = 43.91102 87.94330 63.92976
#
# Poissons Ratio (x) = -0.04118 -0.11979
# Poissons Ratio (y) = -0.02056 -0.11953
# Poissons Ratio (z) = -0.08228 -0.16442
#
# Static dielectric constant tensor:
#      x y z
#    x 1.861740 0.000000 0.000000 
#    y 0.000000 1.738610 0.000000 
#    z 0.000000 0.000000 1.821510 
# 
# From -- ./inp_files/29604.got.cif
#   From: 2010.05.17/outbox.cif.g08.bks.cpg/sg47_15_cif.got.tgz:29604.got - 2010.06.03 20:15:42.
