data_PCOD9387580
_publ_section_title
;
Structure prediction by ZEFSAII (Michael W. Deem and Ramdas Pophale) SiO2 
 PCOD9387580
Probable space group: P M M M
;
_chemical_formula_sum "Si O2"
_cell_formula_units_Z 48
_cell_length_a 7.569769
_cell_length_b 9.255297
_cell_length_c 35.985128
_cell_angle_alpha 90.000000
_cell_angle_beta 90.000000
_cell_angle_gamma 90.000000
_cell_volume 2521.134632
_symmetry_space_group_name_H-M "P M M M"
_symmetry_group_IT_number 47
_symmetry_cell_setting 'orthorhombic'
loop_
_space_group_symop_operation_xyz
x,y,z
-x,-y,z
x,-y,-z
-x,y,-z
-x,-y,-z
x,y,-z
-x,y,z
x,-y,z
loop_
_atom_site_type_symbol
_atom_site_label
_atom_site_fract_x
_atom_site_fract_y
_atom_site_fract_z
Si Si1 0.000000 0.175574 0.207468
Si Si2 0.707828 0.172925 0.350728
Si Si3 0.291309 0.827230 0.851453
Si Si4 0.790315 0.162458 0.000000
Si Si5 0.715502 0.666103 0.573887
Si Si6 0.000000 0.175565 0.708052
Si Si7 0.283819 0.833536 0.500000
Si Si8 0.710881 0.662958 0.925396
O O1 0.827938 0.216596 0.183527
O O2 0.000000 0.229389 0.249710
O O3 0.000000 0.000000 0.209118
O O4 0.500000 0.202113 0.344283
O O5 0.765933 0.253826 0.388166
O O6 0.828434 0.216614 0.315991
O O7 0.726739 0.000000 0.356305
O O8 0.500000 0.798806 0.845420
O O9 0.227652 0.746788 0.888663
O O10 0.271899 0.000000 0.856994
O O11 0.741957 0.248849 0.962947
O O12 0.000000 0.150939 0.000000
O O13 0.714853 0.000000 0.000000
O O14 0.500000 0.666652 0.573259
O O15 0.773097 0.500000 0.573285
O O16 0.773684 0.751286 0.537199
O O17 0.000000 0.000000 0.709753
O O18 0.500000 0.832610 0.500000
O O19 0.228238 0.000000 0.500000
O O20 0.500000 0.653373 0.921334
O O21 0.781910 0.500000 0.927968
#
# Coordination Sequence:
#
# PCOD9387580 Si02
#       8
#     4   8   8   4   8   4   4   8
#     4   9  18  32  53  80 107 132 167 215 262 313
#     4   9  17  30  49  72  99 132 169 208 253 305
#     4   9  18  33  54  79 107 140 176 216 263 313
#     4  11  24  37  52  78 110 143 180 221 262 306
#     4   9  16  26  42  66  97 133 171 210 253 300
#     4   9  18  32  51  78 105 130 165 213 262 307
#     4   9  15  23  39  66  99 132 170 213 253 298
#     4  10  21  37  56  78 106 140 178 220 264 311
#
# _framework density 19.039047
#
# number of rings (size 3 to 8) (size 9 to 14) (size 15 to 20)
#    0.000    2.667    0.000    1.750    1.167    6.333 
#    0.000    3.750    0.000    2.500    0.000    8.167 
#    0.000    0.000    0.000    0.000    0.000    0.000 
#
# Total GULP energy -267850.217724 kJ/mol
# GULP energy per Si atom -5580.212869 kJ/mol
# Density = 1.899571 g / cm^3
# Si number density = 19.039047 Si / 1000 Ang^3
#
#
#
# Elastic Constant Matrix: (Units=GPa)
#
#
# Indices 1 2 3 4 5 6 
#
# 1 69.8147 38.5459 62.7772 0.0000 0.0000 0.0000
# 2 38.5459 92.7725 88.3829 0.0000 0.0000 0.0000
# 3 62.7772 88.3829 229.9026 0.0000 0.0000 0.0000
# 4 0.0000 0.0000 0.0000 -4.2077 0.0000 0.0000
# 5 0.0000 0.0000 0.0000 0.0000 57.5470 0.0000
# 6 0.0000 0.0000 0.0000 0.0000 0.0000 4.2324
#
#
#
# Elastic Compliance Matrix: (Units=1/GPa)
#
#
# Indices 1 2 3 4 5 6 
#
# 1 0.020350 -0.004988 -0.003639 0.000000 0.000000 0.000000
# 2 -0.004988 0.018231 -0.005647 0.000000 0.000000 0.000000
# 3 -0.003639 -0.005647 0.007514 0.000000 0.000000 0.000000
# 4 0.000000 0.000000 0.000000 -0.237662 0.000000 0.000000
# 5 0.000000 0.000000 0.000000 0.000000 0.017377 0.000000
# 6 0.000000 0.000000 0.000000 0.000000 0.000000 0.236274
#
#
# Mechanical properties :
#
#
# Convention : Reuss Voigt Hill
#
# Bulk Modulus (GPa) = 56.98900 85.76685 71.37793
# Shear Modulus (GPa) = 51.82340 25.03326 38.42833
#
# Velocity S-wave (km/s) = 5.22289 3.63000 4.49753
# Velocity P-wave (km/s) = 8.14673 7.91927 8.03381
#
# Compressibility (1/GPa) = 0.01754724
#
# Stress axis : x y z
#
# Youngs Moduli (GPa) = 49.14003 54.85157 133.08313
#
# Poissons Ratio (x) = 0.27362 0.48430
# Poissons Ratio (y) = 0.24512 0.75146
# Poissons Ratio (z) = 0.17883 0.30972
#
# Static dielectric constant tensor:
#      x y z
#    x 1.694200 0.000000 0.000000 
#    y 0.000000 1.651820 0.000000 
#    z 0.000000 0.000000 1.634600 
# 
# From -- ./inp_files/34238.got.cif
#   From: 2010.05.17/outbox.cif.g08.bks.cpg/sg47_18_cif.got.tgz:34238.got - 2010.06.03 20:15:42.
