data_PCOD9387120
_publ_section_title
;
Structure prediction by ZEFSAII (Michael W. Deem and Ramdas Pophale) SiO2 
 PCOD9387120
Probable space group: P M M M
;
_chemical_formula_sum "Si O2"
_cell_formula_units_Z 44
_cell_length_a 7.373024
_cell_length_b 13.239777
_cell_length_c 17.210851
_cell_angle_alpha 90.000000
_cell_angle_beta 90.000000
_cell_angle_gamma 90.000000
_cell_volume 1680.074974
_symmetry_space_group_name_H-M "P M M M"
_symmetry_group_IT_number 47
_symmetry_cell_setting 'orthorhombic'
loop_
_space_group_symop_operation_xyz
x,y,z
-x,-y,z
x,-y,-z
-x,y,-z
-x,-y,-z
x,y,-z
-x,y,z
x,-y,z
loop_
_atom_site_type_symbol
_atom_site_label
_atom_site_fract_x
_atom_site_fract_y
_atom_site_fract_z
Si Si1 0.212038 0.885416 0.845150
Si Si2 0.281320 0.118139 0.329992
Si Si3 0.279608 0.379646 0.415519
Si Si4 0.711598 0.621160 0.752495
Si Si5 0.707038 0.315482 0.084015
Si Si6 0.283806 0.122938 0.500000
O O1 0.230179 0.845734 0.756115
O O2 0.297492 0.805006 0.902807
O O3 0.000000 0.889158 0.863231
O O4 0.284427 0.000000 0.848363
O O5 0.500000 0.122939 0.332988
O O6 0.216407 0.155902 0.414627
O O7 0.226653 0.000000 0.327911
O O8 0.219360 0.340293 0.500000
O O9 0.500000 0.369562 0.413857
O O10 0.241297 0.500000 0.417262
O O11 0.214352 0.342789 0.331095
O O12 0.500000 0.655072 0.754835
O O13 0.710758 0.500000 0.747229
O O14 0.794137 0.646219 0.836085
O O15 0.500000 0.354507 0.083025
O O16 0.787745 0.339645 0.000000
O O17 0.500000 0.144568 0.500000
O O18 0.266117 0.000000 0.500000
#
# Coordination Sequence:
#
# PCOD9387120 Si02
#       6
#     8   8   8   8   8   4
#     4  10  21  36  53  72  95 128 171 217 266 313
#     4   8  13  24  45  71  97 125 158 199 247 298
#     4   7   9  15  32  61  96 131 161 188 226 278
#     4   8  14  26  46  73 104 134 163 199 244 297
#     4  10  21  35  52  75 101 131 167 209 261 316
#     4   7  10  18  37  67  97 123 154 193 240 293
#
# _framework density 26.189308
#
# number of rings (size 3 to 8) (size 9 to 14) (size 15 to 20)
#    0.000    3.545    0.000    3.273    0.000    2.182 
#    0.000    4.091    2.000    3.273    0.000    1.273 
#    0.000    0.000    0.000    4.545    0.000    3.636 
#
# Total GULP energy -245658.648466 kJ/mol
# GULP energy per Si atom -5583.151102 kJ/mol
# Density = 2.612970 g / cm^3
# Si number density = 26.189308 Si / 1000 Ang^3
#
#
#
# Elastic Constant Matrix: (Units=GPa)
#
#
# Indices 1 2 3 4 5 6 
#
# 1 95.9084 -8.9570 9.2827 0.0000 0.0000 0.0000
# 2 -8.9570 62.3869 42.1284 0.0000 0.0000 0.0000
# 3 9.2827 42.1284 281.8931 0.0000 0.0000 0.0000
# 4 0.0000 0.0000 0.0000 28.1243 0.0000 0.0000
# 5 0.0000 0.0000 0.0000 0.0000 338.0893 0.0000
# 6 0.0000 0.0000 0.0000 0.0000 0.0000 24.7374
#
#
#
# Elastic Compliance Matrix: (Units=1/GPa)
#
#
# Indices 1 2 3 4 5 6 
#
# 1 0.010673 0.001968 -0.000646 0.000000 0.000000 0.000000
# 2 0.001968 0.018191 -0.002783 0.000000 0.000000 0.000000
# 3 -0.000646 -0.002783 0.003985 0.000000 0.000000 0.000000
# 4 0.000000 0.000000 0.000000 0.035557 0.000000 0.000000
# 5 0.000000 0.000000 0.000000 0.000000 0.002958 0.000000
# 6 0.000000 0.000000 0.000000 0.000000 0.000000 0.040425
#
#
# Mechanical properties :
#
#
# Convention : Reuss Voigt Hill
#
# Bulk Modulus (GPa) = 33.41433 58.34407 45.87920
# Shear Modulus (GPa) = 40.10106 104.70582 72.40344
#
# Velocity S-wave (km/s) = 3.91730 6.32986 5.26367
# Velocity P-wave (km/s) = 5.76600 8.70339 7.38227
#
# Compressibility (1/GPa) = 0.02992728
#
# Stress axis : x y z
#
# Youngs Moduli (GPa) = 93.69503 54.97163 250.96078
#
# Poissons Ratio (x) = -0.10820 0.16202
# Poissons Ratio (y) = -0.18442 0.69854
# Poissons Ratio (z) = 0.06049 0.15301
#
# Static dielectric constant tensor:
#      x y z
#    x 1.961160 0.000000 0.000000 
#    y 0.000000 2.119650 0.000000 
#    z 0.000000 0.000000 2.054900 
# 
# From -- ./inp_files/26381.got.cif
#   From: 2010.05.17/outbox.cif.g08.bks.cpg/sg47_14_cif.got.tgz:26381.got - 2010.06.03 20:15:42.
