data_PCOD9387687
_publ_section_title
;
Structure prediction by ZEFSAII (Michael W. Deem and Ramdas Pophale) SiO2 
 PCOD9387687
Probable space group: P M M M
;
_chemical_formula_sum "Si O2"
_cell_formula_units_Z 64
_cell_length_a 9.255734
_cell_length_b 14.106745
_cell_length_c 24.670810
_cell_angle_alpha 90.000000
_cell_angle_beta 90.000000
_cell_angle_gamma 90.000000
_cell_volume 3221.225211
_symmetry_space_group_name_H-M "P M M M"
_symmetry_group_IT_number 47
_symmetry_cell_setting 'orthorhombic'
loop_
_space_group_symop_operation_xyz
x,y,z
-x,-y,z
x,-y,-z
-x,y,-z
-x,-y,-z
x,y,-z
-x,y,z
x,-y,z
loop_
_atom_site_type_symbol
_atom_site_label
_atom_site_fract_x
_atom_site_fract_y
_atom_site_fract_z
Si Si1 0.334857 0.384400 0.770446
Si Si2 0.331474 0.886890 0.377917
Si Si3 0.326435 0.388664 0.106252
Si Si4 0.834297 0.115590 0.732595
Si Si5 0.173214 0.264817 0.439296
Si Si6 0.666881 0.885455 0.840826
Si Si7 0.827354 0.389046 0.663527
Si Si8 0.828205 0.214491 0.061275
O O1 0.500000 0.353490 0.762853
O O2 0.334180 0.500000 0.770171
O O3 0.288593 0.360407 0.831562
O O4 0.240736 0.352783 0.719602
O O5 0.500000 0.861808 0.373459
O O6 0.247212 0.860122 0.322833
O O7 0.255120 0.832342 0.426653
O O8 0.321004 0.000000 0.384184
O O9 0.500000 0.377112 0.100149
O O10 0.294837 0.500000 0.098494
O O11 0.238556 0.319316 0.067928
O O12 0.747030 0.146093 0.785838
O O13 0.000000 0.149127 0.732525
O O14 0.837925 0.000000 0.734273
O O15 0.204739 0.299579 0.500000
O O16 0.217880 0.334868 0.390801
O O17 0.000000 0.251168 0.435419
O O18 0.500000 0.854014 0.840971
O O19 0.749273 0.847838 0.893405
O O20 0.668085 0.000000 0.841175
O O21 0.789383 0.500000 0.658130
O O22 0.000000 0.382140 0.667804
O O23 0.000000 0.215803 0.070595
O O24 0.801751 0.180118 0.000000
#
# Coordination Sequence:
#
# PCOD9387687 Si02
#       8
#     8   8   8   8   8   8   8   8
#     4   8  15  30  53  81 110 138 171 213 265 325
#     4  10  21  37  57  81 110 143 179 223 274 325
#     4   9  19  37  60  84 111 145 184 228 280 336
#     4   9  17  32  57  87 116 144 176 217 269 331
#     4  10  22  38  54  75 105 143 187 230 273 325
#     4  10  21  38  61  87 114 145 183 229 279 330
#     4   9  18  33  54  80 108 138 174 218 268 321
#     4  11  25  41  56  79 112 150 192 235 279 331
#
# _framework density 19.868217000000001
#
# number of rings (size 3 to 8) (size 9 to 14) (size 15 to 20)
#    0.000    2.500    0.000    2.250    0.000    7.500 
#    0.000    8.750    0.000    0.000    0.000    2.625 
#    0.000    0.000    0.000    0.000    0.000    0.000 
#
# Total GULP energy -357502.624518 kJ/mol
# GULP energy per Si atom -5585.978508 kJ/mol
# Density = 1.982300 g / cm^3
# Si number density = 19.868217 Si / 1000 Ang^3
#
#
#
# Elastic Constant Matrix: (Units=GPa)
#
#
# Indices 1 2 3 4 5 6 
#
# 1 59.6292 13.9838 42.3047 0.0000 0.0000 0.0000
# 2 13.9838 40.9098 11.1279 0.0000 0.0000 0.0000
# 3 42.3047 11.1279 101.7537 0.0000 0.0000 0.0000
# 4 0.0000 0.0000 0.0000 29.2761 0.0000 0.0000
# 5 0.0000 0.0000 0.0000 0.0000 62.8602 0.0000
# 6 0.0000 0.0000 0.0000 0.0000 0.0000 22.6662
#
#
#
# Elastic Compliance Matrix: (Units=1/GPa)
#
#
# Indices 1 2 3 4 5 6 
#
# 1 0.025104 -0.005918 -0.009790 0.000000 0.000000 0.000000
# 2 -0.005918 0.026589 -0.000447 0.000000 0.000000 0.000000
# 3 -0.009790 -0.000447 0.013947 0.000000 0.000000 0.000000
# 4 0.000000 0.000000 0.000000 0.034158 0.000000 0.000000
# 5 0.000000 0.000000 0.000000 0.000000 0.015908 0.000000
# 6 0.000000 0.000000 0.000000 0.000000 0.000000 0.044119
#
#
# Mechanical properties :
#
#
# Convention : Reuss Voigt Hill
#
# Bulk Modulus (GPa) = 30.00412 37.45838 33.73125
# Shear Modulus (GPa) = 24.60106 31.95226 28.27666
#
# Velocity S-wave (km/s) = 3.52264 4.01460 3.77664
# Velocity P-wave (km/s) = 5.62847 6.35482 6.00264
#
# Compressibility (1/GPa) = 0.03332875
#
# Stress axis : x y z
#
# Youngs Moduli (GPa) = 39.83482 37.61012 71.70139
#
# Poissons Ratio (x) = 0.22258 0.70194
# Poissons Ratio (y) = 0.23574 0.03207
# Poissons Ratio (z) = 0.38997 0.01682
#
# Static dielectric constant tensor:
#      x y z
#    x 1.662260 0.000000 0.000000 
#    y 0.000000 1.745280 0.000000 
#    z 0.000000 0.000000 1.673300 
# 
# From -- ./inp_files/7930.got.cif
#   From: 2010.05.17/outbox.cif.g08.bks.cpg/sg47_4_cif.got.tgz:7930.got - 2010.06.03 20:15:42.
