data_PCOD9387925
_publ_section_title
;
Structure prediction by ZEFSAII (Michael W. Deem and Ramdas Pophale) SiO2 
 PCOD9387925
Probable space group: P M M M
;
_chemical_formula_sum "Si O2"
_cell_formula_units_Z 33
_cell_length_a 7.555045
_cell_length_b 10.250791
_cell_length_c 20.605702
_cell_angle_alpha 90.000000
_cell_angle_beta 90.000000
_cell_angle_gamma 90.000000
_cell_volume 1595.812451
_symmetry_space_group_name_H-M "P M M M"
_symmetry_group_IT_number 47
_symmetry_cell_setting 'orthorhombic'
loop_
_space_group_symop_operation_xyz
x,y,z
-x,-y,z
x,-y,-z
-x,y,-z
-x,-y,-z
x,y,-z
-x,y,z
x,-y,z
loop_
_atom_site_type_symbol
_atom_site_label
_atom_site_fract_x
_atom_site_fract_y
_atom_site_fract_z
Si Si1 0.500000 0.500000 0.000000
Si Si2 0.216911 0.849102 0.500000
Si Si3 0.715068 0.852594 0.134748
Si Si4 0.803185 0.277655 0.000000
Si Si5 0.713067 0.353398 0.758695
Si Si6 0.210952 0.647380 0.391567
O O1 0.653726 0.386813 0.000000
O O2 0.275256 0.762693 0.438115
O O3 0.000000 0.853171 0.500000
O O4 0.275567 0.000000 0.500000
O O5 0.500000 0.848512 0.133578
O O6 0.779371 0.808414 0.064461
O O7 0.777099 0.751801 0.189734
O O8 0.769123 0.000000 0.149460
O O9 0.000000 0.333967 0.000000
O O10 0.500000 0.356324 0.763463
O O11 0.778071 0.500000 0.773256
O O12 0.757139 0.323963 0.684061
O O13 0.280662 0.500000 0.405201
O O14 0.000000 0.640576 0.401741
#
# Coordination Sequence:
#
# PCOD9387925 Si02
#       6
#     1   4   8   4   8   8
#     4  12  26  48  66  94 136 160 200 266 316 362
#     4   9  17  29  48  73 100 134 176 225 286 348
#     4  10  21  39  62  86 121 166 201 245 307 367
#     4  12  26  42  68  97 124 165 211 254 311 371
#     4   9  19  34  55  79 111 151 194 237 291 354
#     4   9  17  31  50  73 101 136 179 230 285 344
#
# _framework density 20.679123000000001
#
# number of rings (size 3 to 8) (size 9 to 14) (size 15 to 20)
#    0.000    2.303    1.212    0.909    1.697    5.333 
#    0.000    0.606    0.000    3.636    0.000    0.000 
#    0.000    0.000    0.000    0.000    0.000    0.000 
#
# Total GULP energy -184032.690288 kJ/mol
# GULP energy per Si atom -5576.748191 kJ/mol
# Density = 2.063206 g / cm^3
# Si number density = 20.679123 Si / 1000 Ang^3
#
#
#
# Elastic Constant Matrix: (Units=GPa)
#
#
# Indices 1 2 3 4 5 6 
#
# 1 79.2421 28.7856 6.7917 0.0000 0.0000 0.0000
# 2 28.7856 214.4070 150.8825 0.0000 0.0000 0.0000
# 3 6.7917 150.8825 163.7430 0.0000 0.0000 0.0000
# 4 0.0000 0.0000 0.0000 759.3476 0.0000 0.0000
# 5 0.0000 0.0000 0.0000 0.0000 11.0550 0.0000
# 6 0.0000 0.0000 0.0000 0.0000 0.0000 -18.9769
#
#
#
# Elastic Compliance Matrix: (Units=1/GPa)
#
#
# Indices 1 2 3 4 5 6 
#
# 1 0.013845 -0.004138 0.003239 0.000000 0.000000 0.000000
# 2 -0.004138 0.014504 -0.013193 0.000000 0.000000 0.000000
# 3 0.003239 -0.013193 0.018130 0.000000 0.000000 0.000000
# 4 0.000000 0.000000 0.000000 0.001317 0.000000 0.000000
# 5 0.000000 0.000000 0.000000 0.000000 0.090457 0.000000
# 6 0.000000 0.000000 0.000000 0.000000 0.000000 -0.052696
#
#
# Mechanical properties :
#
#
# Convention : Reuss Voigt Hill
#
# Bulk Modulus (GPa) = 54.66280 92.25686 73.45983
# Shear Modulus (GPa) = 41.72257 168.34728 105.03493
#
# Velocity S-wave (km/s) = 4.49666 9.03250 7.13463
# Velocity P-wave (km/s) = 7.31103 12.38918 10.17209
#
# Compressibility (1/GPa) = 0.01829398
#
# Stress axis : x y z
#
# Youngs Moduli (GPa) = 72.22763 68.94785 55.15851
#
# Poissons Ratio (x) = 0.28530 -0.17864
# Poissons Ratio (y) = 0.29887 0.72770
# Poissons Ratio (z) = -0.23392 0.90963
#
# Static dielectric constant tensor:
#      x y z
#    x 1.764760 0.000000 0.000000 
#    y 0.000000 1.716850 0.000000 
#    z 0.000000 0.000000 1.701320 
# 
# From -- ./inp_files/1139.got.cif
#   From: 2010.05.17/outbox.cif.g08.bks.cpg/sg47_1_cif.got.tgz:1139.got - 2010.06.03 20:15:42.
