data_PCOD9387576
_publ_section_title
;
Structure prediction by ZEFSAII (Michael W. Deem and Ramdas Pophale) SiO2 
 PCOD9387576
Probable space group: P M M M
;
_chemical_formula_sum "Si O2"
_cell_formula_units_Z 48
_cell_length_a 33.707177
_cell_length_b 9.400919
_cell_length_c 7.950869
_cell_angle_alpha 90.000000
_cell_angle_beta 90.000000
_cell_angle_gamma 90.000000
_cell_volume 2519.458971
_symmetry_space_group_name_H-M "P M M M"
_symmetry_group_IT_number 47
_symmetry_cell_setting 'orthorhombic'
loop_
_space_group_symop_operation_xyz
x,y,z
-x,-y,z
x,-y,-z
-x,y,-z
-x,-y,-z
x,y,-z
-x,y,z
x,-y,z
loop_
_atom_site_type_symbol
_atom_site_label
_atom_site_fract_x
_atom_site_fract_y
_atom_site_fract_z
Si Si1 0.500000 0.163053 0.706205
Si Si2 0.182368 0.339105 0.201182
Si Si3 0.423396 0.662904 0.297244
Si Si4 0.045227 0.172682 0.500000
Si Si5 0.259126 0.160480 0.699469
Si Si6 0.103336 0.170909 0.801557
Si Si7 0.664349 0.662850 0.200427
O O1 0.500000 0.165376 0.500000
O O2 0.460218 0.243450 0.762212
O O3 0.500000 0.000000 0.759435
O O4 0.182977 0.500000 0.270082
O O5 0.222543 0.255273 0.239394
O O6 0.143603 0.250332 0.252814
O O7 0.179723 0.348977 0.000000
O O8 0.425046 0.660097 0.500000
O O9 0.427313 0.500000 0.236336
O O10 0.379653 0.714473 0.248004
O O11 0.069064 0.212344 0.669613
O O12 0.000000 0.224853 0.500000
O O13 0.043971 0.000000 0.500000
O O14 0.255320 0.150898 0.500000
O O15 0.300522 0.237475 0.737872
O O16 0.257868 0.000000 0.770421
O O17 0.109095 0.000000 0.790417
O O18 0.094875 0.202504 0.000000
O O19 0.668626 0.500000 0.266341
O O20 0.666920 0.656614 0.000000
#
# Coordination Sequence:
#
# PCOD9387576 Si02
#       7
#     4   8   8   4   8   8   8
#     4   9  17  29  48  75 102 128 164 213 262 307
#     4  10  21  37  57  81 109 142 181 226 275 327
#     4   9  17  31  52  75 100 132 169 209 256 312
#     4   9  18  32  53  83 115 147 189 239 285 336
#     4  11  24  38  54  79 109 141 178 220 266 319
#     4   9  18  33  54  80 112 149 187 232 285 336
#     4  10  21  37  56  78 105 138 176 218 265 317
#
# _framework density 19.05171
#
# number of rings (size 3 to 8) (size 9 to 14) (size 15 to 20)
#    0.000    2.333    0.000    2.250    1.167    7.333 
#    0.000    3.750    0.000    3.500    0.000    2.333 
#    0.000    0.000    0.000    0.000    0.000    0.000 
#
# Total GULP energy -267847.627853 kJ/mol
# GULP energy per Si atom -5580.158914 kJ/mol
# Density = 1.900835 g / cm^3
# Si number density = 19.051710 Si / 1000 Ang^3
#
#
#
# Elastic Constant Matrix: (Units=GPa)
#
#
# Indices 1 2 3 4 5 6 
#
# 1 184.4034 90.5920 29.0852 0.0000 0.0000 0.0000
# 2 90.5920 94.8974 24.7907 0.0000 0.0000 0.0000
# 3 29.0852 24.7907 34.3752 0.0000 0.0000 0.0000
# 4 0.0000 0.0000 0.0000 13.1305 0.0000 0.0000
# 5 0.0000 0.0000 0.0000 0.0000 59.7512 0.0000
# 6 0.0000 0.0000 0.0000 0.0000 0.0000 -128.3948
#
#
#
# Elastic Compliance Matrix: (Units=1/GPa)
#
#
# Indices 1 2 3 4 5 6 
#
# 1 0.010323 -0.009331 -0.002005 0.000000 0.000000 0.000000
# 2 -0.009331 0.021418 -0.007551 0.000000 0.000000 0.000000
# 3 -0.002005 -0.007551 0.036233 0.000000 0.000000 0.000000
# 4 0.000000 0.000000 0.000000 0.076159 0.000000 0.000000
# 5 0.000000 0.000000 0.000000 0.000000 0.016736 0.000000
# 6 0.000000 0.000000 0.000000 0.000000 0.000000 -0.007788
#
#
# Mechanical properties :
#
#
# Convention : Reuss Voigt Hill
#
# Bulk Modulus (GPa) = 33.11312 66.95687 50.03499
# Shear Modulus (GPa) = 24.88529 0.17793 12.53161
#
# Velocity S-wave (km/s) = 3.61806 0.30594 2.56748
# Velocity P-wave (km/s) = 5.90527 5.94524 5.92529
#
# Compressibility (1/GPa) = 0.03019951
#
# Stress axis : x y z
#
# Youngs Moduli (GPa) = 96.86873 46.68961 27.59908
#
# Poissons Ratio (x) = 0.43566 0.05534
# Poissons Ratio (y) = 0.90389 0.20840
# Poissons Ratio (z) = 0.19424 0.35256
#
# Static dielectric constant tensor:
#      x y z
#    x 1.637190 0.000000 0.000000 
#    y 0.000000 1.674650 0.000000 
#    z 0.000000 0.000000 1.686990 
# 
# From -- ./inp_files/13847.got.cif
#   From: 2010.05.17/outbox.cif.g08.bks.cpg/sg47_7_cif.got.tgz:13847.got - 2010.06.03 20:15:42.
