data_PCOD9387717
_publ_section_title
;
Structure prediction by ZEFSAII (Michael W. Deem and Ramdas Pophale) SiO2 
 PCOD9387717
Probable space group: P M M M
;
_chemical_formula_sum "Si O2"
_cell_formula_units_Z 37
_cell_length_a 12.282323
_cell_length_b 18.592565
_cell_length_c 7.760322
_cell_angle_alpha 90.000000
_cell_angle_beta 90.000000
_cell_angle_gamma 90.000000
_cell_volume 1772.146268
_symmetry_space_group_name_H-M "P M M M"
_symmetry_group_IT_number 47
_symmetry_cell_setting 'orthorhombic'
loop_
_space_group_symop_operation_xyz
x,y,z
-x,-y,z
x,-y,-z
-x,y,-z
-x,-y,-z
x,y,-z
-x,y,z
x,-y,z
loop_
_atom_site_type_symbol
_atom_site_label
_atom_site_fract_x
_atom_site_fract_y
_atom_site_fract_z
Si Si1 0.256896 0.421928 0.794902
Si Si2 0.500000 0.783628 0.710412
Si Si3 0.275061 0.853415 0.704232
Si Si4 0.825281 0.000000 0.189007
Si Si5 0.873712 0.281483 0.209012
Si Si6 0.000000 0.000000 0.500000
Si Si7 0.500000 0.618432 0.293138
O O1 0.221045 0.500000 0.725454
O O2 0.194053 0.351366 0.727965
O O3 0.386366 0.414926 0.766818
O O4 0.237541 0.422562 0.000000
O O5 0.500000 0.782602 0.500000
O O6 0.390037 0.822199 0.766669
O O7 0.500000 0.701109 0.766734
O O8 0.283259 0.866942 0.500000
O O9 0.184836 0.791477 0.731843
O O10 0.243898 0.927283 0.793692
O O11 0.906942 0.000000 0.348283
O O12 0.877074 0.000000 0.000000
O O13 0.000000 0.284405 0.262766
O O14 0.871307 0.281406 0.000000
O O15 0.500000 0.615825 0.500000
#
# Coordination Sequence:
#
# PCOD9387717 Si02
#       7
#     8   4   8   4   8   1   4
#     4  10  21  37  57  84 120 160 205 261 327 394
#     4   9  20  37  65  91 126 169 213 266 322 398
#     4  11  22  43  66  95 130 171 218 267 335 395
#     4  12  27  46  70 105 140 175 228 278 325 392
#     4  10  22  38  58  86 119 161 213 268 324 390
#     4  12  26  52  72 104 136 192 220 272 338 374
#     4  11  20  36  58  89 117 155 205 260 318 380
#
# _framework density 20.878639
#
# number of rings (size 3 to 8) (size 9 to 14) (size 15 to 20)
#    0.000    1.514    3.243    1.459    1.514    3.027 
#    0.000    6.486    0.000    0.000    0.000    3.027 
#    0.000    0.000    0.000    0.000    0.000    0.000 
#
# Total GULP energy -206519.981659 kJ/mol
# GULP energy per Si atom -5581.621126 kJ/mol
# Density = 2.083112 g / cm^3
# Si number density = 20.878639 Si / 1000 Ang^3
#
#
#
# Elastic Constant Matrix: (Units=GPa)
#
#
# Indices 1 2 3 4 5 6 
#
# 1 120.1181 63.8880 4.6885 0.0000 0.0000 0.0000
# 2 63.8880 184.4662 14.2982 0.0000 0.0000 0.0000
# 3 4.6885 14.2982 76.5768 0.0000 0.0000 0.0000
# 4 0.0000 0.0000 0.0000 64.8814 0.0000 0.0000
# 5 0.0000 0.0000 0.0000 0.0000 -549.1564 0.0000
# 6 0.0000 0.0000 0.0000 0.0000 0.0000 -259.3954
#
#
#
# Elastic Compliance Matrix: (Units=1/GPa)
#
#
# Indices 1 2 3 4 5 6 
#
# 1 0.010205 -0.003537 0.000036 0.000000 0.000000 0.000000
# 2 -0.003537 0.006727 -0.001039 0.000000 0.000000 0.000000
# 3 0.000036 -0.001039 0.013251 0.000000 0.000000 0.000000
# 4 0.000000 0.000000 0.000000 0.015413 0.000000 0.000000
# 5 0.000000 0.000000 0.000000 0.000000 -0.001821 0.000000
# 6 0.000000 0.000000 0.000000 0.000000 0.000000 -0.003855
#
#
# Mechanical properties :
#
#
# Convention : Reuss Voigt Hill
#
# Bulk Modulus (GPa) = 47.39222 60.76782 54.08002
# Shear Modulus (GPa) = 89.23064 -128.84830 -19.80883
#
# Velocity S-wave (km/s) = 6.54451 -7.86428 -3.08354
# Velocity P-wave (km/s) = 8.93619 7.30028 3.64427
#
# Compressibility (1/GPa) = 0.02110051
#
# Stress axis : x y z
#
# Youngs Moduli (GPa) = 97.99017 148.66157 75.46787
#
# Poissons Ratio (x) = 0.52585 -0.00269
# Poissons Ratio (y) = 0.34661 0.07844
# Poissons Ratio (z) = -0.00349 0.15452
#
# Static dielectric constant tensor:
#      x y z
#    x 1.714140 0.000000 0.000000 
#    y 0.000000 1.750980 0.000000 
#    z 0.000000 0.000000 1.757320 
# 
# From -- ./inp_files/3813.got.cif
#   From: 2010.05.17/outbox.cif.g08.bks.cpg/sg47_2_cif.got.tgz:3813.got - 2010.06.03 20:15:42.
