data_PCOD9387089
_publ_section_title
;
Structure prediction by ZEFSAII (Michael W. Deem and Ramdas Pophale) SiO2 
 PCOD9387089
Probable space group: P M M M
;
_chemical_formula_sum "Si O2"
_cell_formula_units_Z 52
_cell_length_a 9.224683
_cell_length_b 15.244508
_cell_length_c 20.043842
_cell_angle_alpha 90.000000
_cell_angle_beta 90.000000
_cell_angle_gamma 90.000000
_cell_volume 2818.680390
_symmetry_space_group_name_H-M "P M M M"
_symmetry_group_IT_number 47
_symmetry_cell_setting 'orthorhombic'
loop_
_space_group_symop_operation_xyz
x,y,z
-x,-y,z
x,-y,-z
-x,y,-z
-x,-y,-z
x,y,-z
-x,y,z
x,-y,z
loop_
_atom_site_type_symbol
_atom_site_label
_atom_site_fract_x
_atom_site_fract_y
_atom_site_fract_z
Si Si1 0.753505 0.597142 0.925240
Si Si2 0.667746 0.205817 0.071706
Si Si3 0.676704 0.100235 0.198699
Si Si4 0.334395 0.500000 0.580872
Si Si5 0.673684 0.246616 0.698662
Si Si6 0.835672 0.599274 0.225482
Si Si7 0.827228 0.320679 0.421599
O O1 0.680566 0.500000 0.923208
O O2 0.667886 0.688598 0.921807
O O3 0.838970 0.601106 0.855538
O O4 0.823475 0.599462 0.000000
O O5 0.500000 0.178899 0.068886
O O6 0.731349 0.154937 0.134527
O O7 0.736769 0.184666 0.000000
O O8 0.500000 0.099149 0.196239
O O9 0.713004 0.157289 0.263280
O O10 0.726467 0.000000 0.199005
O O11 0.500000 0.500000 0.606416
O O12 0.342681 0.500000 0.500000
O O13 0.245319 0.413393 0.598395
O O14 0.500000 0.253344 0.692160
O O15 0.731941 0.327073 0.744315
O O16 0.751961 0.252757 0.627718
O O17 0.790260 0.500000 0.243919
O O18 0.000000 0.613906 0.249635
O O19 0.797076 0.305446 0.500000
O O20 0.000000 0.324067 0.413309
#
# Coordination Sequence:
#
# PCOD9387089 Si02
#       7
#     8   8   8   4   8   8   8
#     4   9  17  29  46  70 101 140 187 232 270 316
#     4   9  16  27  45  72 105 139 178 224 275 328
#     4   9  18  33  52  76 105 137 178 230 287 339
#     4   9  17  31  53  83 117 151 186 219 252 299
#     4  11  22  36  56  81 109 143 182 226 275 329
#     4  10  21  35  51  74 107 146 186 228 273 324
#     4  10  21  37  57  81 112 149 185 222 265 317
#
# _framework density 18.448347999999999
#
# number of rings (size 3 to 8) (size 9 to 14) (size 15 to 20)
#    0.000    2.385    1.538    1.154    1.077    3.077 
#    0.000    6.154    0.000    2.308    0.000    3.231 
#    0.000    2.462    0.000    0.000    0.000    0.000 
#
# Total GULP energy -289535.247070 kJ/mol
# GULP energy per Si atom -5567.985521 kJ/mol
# Density = 1.840636 g / cm^3
# Si number density = 18.448348 Si / 1000 Ang^3
#
#
#
# Elastic Constant Matrix: (Units=GPa)
#
#
# Indices 1 2 3 4 5 6 
#
# 1 55.0374 32.5703 36.9036 0.0000 0.0000 0.0000
# 2 32.5703 126.6085 69.7061 0.0000 0.0000 0.0000
# 3 36.9036 69.7061 132.0866 0.0000 0.0000 0.0000
# 4 0.0000 0.0000 0.0000 15.1613 0.0000 0.0000
# 5 0.0000 0.0000 0.0000 0.0000 7.3210 0.0000
# 6 0.0000 0.0000 0.0000 0.0000 0.0000 -110.0684
#
#
#
# Elastic Compliance Matrix: (Units=1/GPa)
#
#
# Indices 1 2 3 4 5 6 
#
# 1 0.023355 -0.003405 -0.004728 0.000000 0.000000 0.000000
# 2 -0.003405 0.011629 -0.005186 0.000000 0.000000 0.000000
# 3 -0.004728 -0.005186 0.011629 0.000000 0.000000 0.000000
# 4 0.000000 0.000000 0.000000 0.065958 0.000000 0.000000
# 5 0.000000 0.000000 0.000000 0.000000 0.136594 0.000000
# 6 0.000000 0.000000 0.000000 0.000000 0.000000 -0.009085
#
#
# Mechanical properties :
#
#
# Convention : Reuss Voigt Hill
#
# Bulk Modulus (GPa) = 50.06320 65.78806 57.92563
# Shear Modulus (GPa) = 18.28989 -5.88039 6.20475
#
# Velocity S-wave (km/s) = 3.15208 -1.78729 1.83592
# Velocity P-wave (km/s) = 6.35951 5.61060 5.99676
#
# Compressibility (1/GPa) = 0.01997475
#
# Stress axis : x y z
#
# Youngs Moduli (GPa) = 42.81782 85.98850 85.99500
#
# Poissons Ratio (x) = 0.29278 0.40660
# Poissons Ratio (y) = 0.14579 0.44596
# Poissons Ratio (z) = 0.20245 0.44593
#
# Static dielectric constant tensor:
#      x y z
#    x 1.634590 0.000000 0.000000 
#    y 0.000000 1.623950 0.000000 
#    z 0.000000 0.000000 1.691740 
# 
# From -- ./inp_files/29611.got.cif
#   From: 2010.05.17/outbox.cif.g08.bks.cpg/sg47_15_cif.got.tgz:29611.got - 2010.06.03 20:15:42.
