data_PCOD9387383
_publ_section_title
;
Structure prediction by ZEFSAII (Michael W. Deem and Ramdas Pophale) SiO2 
 PCOD9387383
Probable space group: P M M M
;
_chemical_formula_sum "Si O2"
_cell_formula_units_Z 48
_cell_length_a 9.075722
_cell_length_b 10.602052
_cell_length_c 27.749011
_cell_angle_alpha 90.000000
_cell_angle_beta 90.000000
_cell_angle_gamma 90.000000
_cell_volume 2670.045262
_symmetry_space_group_name_H-M "P M M M"
_symmetry_group_IT_number 47
_symmetry_cell_setting 'orthorhombic'
loop_
_space_group_symop_operation_xyz
x,y,z
-x,-y,z
x,-y,-z
-x,y,-z
-x,-y,-z
x,y,-z
-x,y,z
x,-y,z
loop_
_atom_site_type_symbol
_atom_site_label
_atom_site_fract_x
_atom_site_fract_y
_atom_site_fract_z
Si Si1 0.665921 0.500000 0.441816
Si Si2 0.675111 0.138380 0.354602
Si Si3 0.677421 0.642470 0.282528
Si Si4 0.175944 0.760617 0.555775
Si Si5 0.177178 0.643951 0.821719
Si Si6 0.822449 0.852775 0.900115
Si Si7 0.331849 0.847279 0.000000
O O1 0.500000 0.500000 0.421341
O O2 0.654274 0.500000 0.500000
O O3 0.754232 0.625755 0.430110
O O4 0.500000 0.154631 0.363136
O O5 0.725804 0.250200 0.319667
O O6 0.757411 0.145832 0.405361
O O7 0.697626 0.000000 0.332514
O O8 0.500000 0.649912 0.278290
O O9 0.714619 0.500000 0.299040
O O10 0.748264 0.661609 0.230184
O O11 0.216256 0.787971 0.500000
O O12 0.000000 0.755728 0.558382
O O13 0.212391 0.500000 0.838095
O O14 0.221914 0.753517 0.858875
O O15 0.000000 0.650868 0.816300
O O16 0.751933 0.813014 0.950988
O O17 0.000000 0.849298 0.904318
O O18 0.781734 0.000000 0.889962
O O19 0.500000 0.801620 0.000000
O O20 0.334817 0.000000 0.000000
#
# Coordination Sequence:
#
# PCOD9387383 Si02
#       7
#     4   8   8   8   8   8   4
#     4   9  17  31  53  79 105 135 171 209 249 296
#     4  10  22  38  55  78 107 139 177 219 263 315
#     4   9  19  36  56  76 100 133 171 213 262 314
#     4  10  21  36  54  79 110 140 173 215 263 313
#     4   9  18  33  52  75 102 131 166 209 257 310
#     4   9  17  30  49  72  99 134 173 210 250 299
#     4   9  17  29  46  71 102 134 172 215 254 294
#
# _framework density 17.977222999999999
#
# number of rings (size 3 to 8) (size 9 to 14) (size 15 to 20)
#    0.000    2.667    0.000    1.000    1.167    5.667 
#    0.000    2.083    0.000    2.500    0.000    0.000 
#    0.000    0.000    0.000    0.000    0.000    0.000 
#
# Total GULP energy -267626.454012 kJ/mol
# GULP energy per Si atom -5575.551125 kJ/mol
# Density = 1.793631 g / cm^3
# Si number density = 17.977223 Si / 1000 Ang^3
#
#
#
# Elastic Constant Matrix: (Units=GPa)
#
#
# Indices 1 2 3 4 5 6 
#
# 1 26.2698 38.6273 35.1154 0.0000 0.0000 0.0000
# 2 38.6273 125.4706 86.7410 0.0000 0.0000 0.0000
# 3 35.1154 86.7410 108.5734 0.0000 0.0000 0.0000
# 4 0.0000 0.0000 0.0000 34.1797 0.0000 0.0000
# 5 0.0000 0.0000 0.0000 0.0000 27.3774 0.0000
# 6 0.0000 0.0000 0.0000 0.0000 0.0000 13.9032
#
#
#
# Elastic Compliance Matrix: (Units=1/GPa)
#
#
# Indices 1 2 3 4 5 6 
#
# 1 0.077385 -0.014566 -0.013391 0.000000 0.000000 0.000000
# 2 -0.014566 0.020544 -0.011702 0.000000 0.000000 0.000000
# 3 -0.013391 -0.011702 0.022890 0.000000 0.000000 0.000000
# 4 0.000000 0.000000 0.000000 0.029257 0.000000 0.000000
# 5 0.000000 0.000000 0.000000 0.000000 0.036526 0.000000
# 6 0.000000 0.000000 0.000000 0.000000 0.000000 0.071926
#
#
# Mechanical properties :
#
#
# Convention : Reuss Voigt Hill
#
# Bulk Modulus (GPa) = 24.09586 64.58679 44.34133
# Shear Modulus (GPa) = 14.21741 21.74739 17.98240
#
# Velocity S-wave (km/s) = 2.81527 3.48188 3.16616
# Velocity P-wave (km/s) = 4.89901 7.22285 6.17130
#
# Compressibility (1/GPa) = 0.04150090
#
# Stress axis : x y z
#
# Youngs Moduli (GPa) = 12.92242 48.67547 43.68639
#
# Poissons Ratio (x) = 0.70901 0.58501
# Poissons Ratio (y) = 0.18823 0.51122
# Poissons Ratio (z) = 0.17305 0.56961
#
# Static dielectric constant tensor:
#      x y z
#    x 1.601270 0.000000 0.000000 
#    y 0.000000 1.643850 0.000000 
#    z 0.000000 0.000000 1.593070 
# 
# From -- ./inp_files/34061.got.cif
#   From: 2010.05.17/outbox.cif.g08.bks.cpg/sg47_18_cif.got.tgz:34061.got - 2010.06.03 20:15:42.
