data_PCOD9387281
_publ_section_title
;
Structure prediction by ZEFSAII (Michael W. Deem and Ramdas Pophale) SiO2 
 PCOD9387281
Probable space group: P M M M
;
_chemical_formula_sum "Si O2"
_cell_formula_units_Z 48
_cell_length_a 8.564142
_cell_length_b 32.019323
_cell_length_c 9.219220
_cell_angle_alpha 90.000000
_cell_angle_beta 90.000000
_cell_angle_gamma 90.000000
_cell_volume 2528.076337
_symmetry_space_group_name_H-M "P M M M"
_symmetry_group_IT_number 47
_symmetry_cell_setting 'orthorhombic'
loop_
_space_group_symop_operation_xyz
x,y,z
-x,-y,z
x,-y,-z
-x,y,-z
-x,-y,-z
x,y,-z
-x,y,z
x,-y,z
loop_
_atom_site_type_symbol
_atom_site_label
_atom_site_fract_x
_atom_site_fract_y
_atom_site_fract_z
Si Si1 0.310793 0.591064 0.168772
Si Si2 0.312591 0.000000 0.331566
Si Si3 0.812607 0.918467 0.831535
Si Si4 0.312731 0.163011 0.331575
Si Si5 0.188537 0.328403 0.332923
Si Si6 0.810982 0.244388 0.168397
Si Si7 0.318757 0.500000 0.176599
O O1 0.500000 0.589998 0.172399
O O2 0.251088 0.629164 0.263287
O O3 0.252076 0.545125 0.218998
O O4 0.264925 0.596993 0.000000
O O5 0.251367 0.041075 0.250935
O O6 0.500000 0.000000 0.328120
O O7 0.262482 0.000000 0.500000
O O8 0.753967 0.876790 0.752971
O O9 0.000000 0.919333 0.827907
O O10 0.762674 0.918802 0.000000
O O11 0.262994 0.162118 0.500000
O O12 0.500000 0.161326 0.327039
O O13 0.255165 0.205225 0.255611
O O14 0.237957 0.324283 0.500000
O O15 0.239043 0.287929 0.241411
O O16 0.000000 0.329525 0.329062
O O17 0.000000 0.242550 0.174131
O O18 0.763991 0.242758 0.000000
O O19 0.500000 0.500000 0.223618
O O20 0.319396 0.500000 0.000000
#
# Coordination Sequence:
#
# PCOD9387281 Si02
#       7
#     8   4   8   8   8   8   4
#     4   9  17  31  53  78 102 132 173 220 268 318
#     4  11  24  41  62  90 122 155 194 239 286 334
#     4  11  24  41  62  89 119 153 195 237 278 330
#     4  11  24  40  59  86 118 150 185 226 274 328
#     4  10  21  36  53  75 106 143 179 217 266 322
#     4  10  21  38  60  83 106 138 182 227 271 323
#     4   7  12  26  48  73 100 130 168 215 264 315
#
# _framework density 18.98677
#
# number of rings (size 3 to 8) (size 9 to 14) (size 15 to 20)
#    0.000    2.000    0.000    4.500    0.000   11.333 
#    0.000    0.833    0.000    4.000    0.000    0.000 
#    0.000    0.000    0.000    0.000    0.000    0.000 
#
# Total GULP energy -268102.194596 kJ/mol
# GULP energy per Si atom -5585.462387 kJ/mol
# Density = 1.894356 g / cm^3
# Si number density = 18.986770 Si / 1000 Ang^3
#
#
#
# Elastic Constant Matrix: (Units=GPa)
#
#
# Indices 1 2 3 4 5 6 
#
# 1 19.7182 34.7179 40.3787 0.0000 0.0000 0.0000
# 2 34.7179 214.5733 116.2486 0.0000 0.0000 0.0000
# 3 40.3787 116.2486 179.4862 0.0000 0.0000 0.0000
# 4 0.0000 0.0000 0.0000 93.1470 0.0000 0.0000
# 5 0.0000 0.0000 0.0000 0.0000 26.3023 0.0000
# 6 0.0000 0.0000 0.0000 0.0000 0.0000 36.4519
#
#
#
# Elastic Compliance Matrix: (Units=1/GPa)
#
#
# Indices 1 2 3 4 5 6 
#
# 1 0.098937 -0.006084 -0.018317 0.000000 0.000000 0.000000
# 2 -0.006084 0.007554 -0.003524 0.000000 0.000000 0.000000
# 3 -0.018317 -0.003524 0.011974 0.000000 0.000000 0.000000
# 4 0.000000 0.000000 0.000000 0.010736 0.000000 0.000000
# 5 0.000000 0.000000 0.000000 0.000000 0.038019 0.000000
# 6 0.000000 0.000000 0.000000 0.000000 0.000000 0.027433
#
#
# Mechanical properties :
#
#
# Convention : Reuss Voigt Hill
#
# Bulk Modulus (GPa) = 15.97059 88.49645 52.23352
# Shear Modulus (GPa) = 18.42465 46.00908 32.21687
#
# Velocity S-wave (km/s) = 3.11849 4.92796 4.12370
# Velocity P-wave (km/s) = 4.62562 8.89328 7.08826
#
# Compressibility (1/GPa) = 0.06261511
#
# Stress axis : x y z
#
# Youngs Moduli (GPa) = 10.10745 132.38263 83.51172
#
# Poissons Ratio (x) = 0.80548 1.52968
# Poissons Ratio (y) = 0.06150 0.29426
# Poissons Ratio (z) = 0.18514 0.46647
#
# Static dielectric constant tensor:
#      x y z
#    x 1.653570 0.000000 0.000000 
#    y 0.000000 1.633100 0.000000 
#    z 0.000000 0.000000 1.642120 
# 
# From -- ./inp_files/2593.got.cif
#   From: 2010.05.17/outbox.cif.g08.bks.cpg/sg47_2_cif.got.tgz:2593.got - 2010.06.03 20:15:42.
