data_PCOD9387194
_publ_section_title
;
Structure prediction by ZEFSAII (Michael W. Deem and Ramdas Pophale) SiO2 
 PCOD9387194
Probable space group: P M M M
;
_chemical_formula_sum "Si O2"
_cell_formula_units_Z 56
_cell_length_a 19.621322
_cell_length_b 15.867598
_cell_length_c 9.730033
_cell_angle_alpha 90.000000
_cell_angle_beta 90.000000
_cell_angle_gamma 90.000000
_cell_volume 3029.380094
_symmetry_space_group_name_H-M "P M M M"
_symmetry_group_IT_number 47
_symmetry_cell_setting 'orthorhombic'
loop_
_space_group_symop_operation_xyz
x,y,z
-x,-y,z
x,-y,-z
-x,y,-z
-x,-y,-z
x,y,-z
-x,y,z
x,-y,z
loop_
_atom_site_type_symbol
_atom_site_label
_atom_site_fract_x
_atom_site_fract_y
_atom_site_fract_z
Si Si1 0.349366 0.638050 0.159840
Si Si2 0.074679 0.397104 0.657542
Si Si3 0.226239 0.897733 0.337539
Si Si4 0.804042 0.602005 0.155850
Si Si5 0.355392 0.836607 0.161482
Si Si6 0.581008 0.500000 0.343213
Si Si7 0.925494 0.899028 0.334464
Si Si8 0.500000 0.900051 0.157233
O O1 0.270792 0.626905 0.202201
O O2 0.364851 0.736269 0.165016
O O3 0.393690 0.580910 0.259008
O O4 0.355265 0.609664 0.000000
O O5 0.081223 0.370036 0.500000
O O6 0.076366 0.500000 0.657416
O O7 0.136309 0.365850 0.748043
O O8 0.000000 0.372431 0.709351
O O9 0.233953 0.876006 0.500000
O O10 0.288861 0.862843 0.247840
O O11 0.149990 0.868943 0.289210
O O12 0.227425 0.000000 0.329163
O O13 0.806569 0.500000 0.155224
O O14 0.813480 0.631444 0.000000
O O15 0.426944 0.873496 0.217120
O O16 0.346740 0.862329 0.000000
O O17 0.500000 0.500000 0.347465
O O18 0.607335 0.500000 0.500000
O O19 0.925236 0.888496 0.500000
O O20 0.000000 0.865860 0.285034
O O21 0.926180 0.000000 0.308763
O O22 0.500000 0.000000 0.150937
O O23 0.500000 0.865175 0.000000
#
# Coordination Sequence:
#
# PCOD9387194 Si02
#       8
#     8   8   8   8   8   4   8   4
#     4  10  21  38  58  80 106 139 181 220 259 316
#     4   8  14  24  39  63  94 126 162 206 256 308
#     4   9  17  30  50  77 109 144 181 222 272 325
#     4   9  16  28  46  69  95 124 165 214 258 303
#     4  10  21  35  55  80 105 140 182 223 268 315
#     4  11  25  41  59  85 112 137 168 209 265 322
#     4   7  10  19  39  68  99 132 174 220 260 306
#     4   9  18  34  55  80 107 134 174 221 257 299
#
# _framework density 18.485631000000001
#
# number of rings (size 3 to 8) (size 9 to 14) (size 15 to 20)
#    0.000    3.000    0.714    2.357    1.000    2.857 
#    0.000    1.786    0.000    2.571    0.000    6.000 
#    0.000    0.000    0.000    0.000    0.000    0.000 
#
# Total GULP energy -311853.313051 kJ/mol
# GULP energy per Si atom -5568.809162 kJ/mol
# Density = 1.844356 g / cm^3
# Si number density = 18.485631 Si / 1000 Ang^3
#
#
#
# Elastic Constant Matrix: (Units=GPa)
#
#
# Indices 1 2 3 4 5 6 
#
# 1 181.5274 33.6342 65.0490 0.0000 0.0000 0.0000
# 2 33.6342 30.9451 19.3057 0.0000 0.0000 0.0000
# 3 65.0490 19.3057 46.3196 0.0000 0.0000 0.0000
# 4 0.0000 0.0000 0.0000 10.6613 0.0000 0.0000
# 5 0.0000 0.0000 0.0000 0.0000 31.8394 0.0000
# 6 0.0000 0.0000 0.0000 0.0000 0.0000 8.7753
#
#
#
# Elastic Compliance Matrix: (Units=1/GPa)
#
#
# Indices 1 2 3 4 5 6 
#
# 1 0.011323 -0.003225 -0.014557 0.000000 0.000000 0.000000
# 2 -0.003225 0.044589 -0.014055 0.000000 0.000000 0.000000
# 3 -0.014557 -0.014055 0.047890 0.000000 0.000000 0.000000
# 4 0.000000 0.000000 0.000000 0.093797 0.000000 0.000000
# 5 0.000000 0.000000 0.000000 0.000000 0.031408 0.000000
# 6 0.000000 0.000000 0.000000 0.000000 0.000000 0.113957
#
#
# Mechanical properties :
#
#
# Convention : Reuss Voigt Hill
#
# Bulk Modulus (GPa) = 24.92051 54.97445 39.94748
# Shear Modulus (GPa) = 11.90435 19.64207 15.77321
#
# Velocity S-wave (km/s) = 2.54043 3.26323 2.92425
# Velocity P-wave (km/s) = 4.70269 6.63338 5.74966
#
# Compressibility (1/GPa) = 0.04012759
#
# Stress axis : x y z
#
# Youngs Moduli (GPa) = 88.31812 22.42688 20.88107
#
# Poissons Ratio (x) = 0.07233 0.30396
# Poissons Ratio (y) = 0.28483 0.29349
# Poissons Ratio (z) = 1.28563 0.31522
#
# Static dielectric constant tensor:
#      x y z
#    x 1.661400 0.000000 0.000000 
#    y 0.000000 1.639400 0.000000 
#    z 0.000000 0.000000 1.625650 
# 
# From -- ./inp_files/11286.got.cif
#   From: 2010.05.17/outbox.cif.g08.bks.cpg/sg47_6_cif.got.tgz:11286.got - 2010.06.03 20:15:42.
