data_PCOD9387463
_publ_section_title
;
Structure prediction by ZEFSAII (Michael W. Deem and Ramdas Pophale) SiO2 
 PCOD9387463
Probable space group: P M M M
;
_chemical_formula_sum "Si O2"
_cell_formula_units_Z 52
_cell_length_a 14.639125
_cell_length_b 20.176508
_cell_length_c 9.585204
_cell_angle_alpha 90.000000
_cell_angle_beta 90.000000
_cell_angle_gamma 90.000000
_cell_volume 2831.147416
_symmetry_space_group_name_H-M "P M M M"
_symmetry_group_IT_number 47
_symmetry_cell_setting 'orthorhombic'
loop_
_space_group_symop_operation_xyz
x,y,z
-x,-y,z
x,-y,-z
-x,y,-z
-x,-y,-z
x,y,-z
-x,y,z
x,-y,z
loop_
_atom_site_type_symbol
_atom_site_label
_atom_site_fract_x
_atom_site_fract_y
_atom_site_fract_z
Si Si1 0.276805 0.420358 0.337644
Si Si2 0.392920 0.324486 0.835108
Si Si3 0.894703 0.129723 0.834899
Si Si4 0.897059 0.419346 0.159753
Si Si5 0.609499 0.924415 0.665375
Si Si6 0.110669 0.000000 0.341655
Si Si7 0.709867 0.809592 0.165937
O O1 0.277421 0.402650 0.500000
O O2 0.282779 0.500000 0.326570
O O3 0.358124 0.385750 0.254829
O O4 0.182410 0.398578 0.263622
O O5 0.500000 0.311497 0.814768
O O6 0.334739 0.259973 0.793737
O O7 0.377800 0.337121 0.000000
O O8 0.818635 0.185461 0.810080
O O9 0.000000 0.147478 0.802181
O O10 0.866509 0.065963 0.744032
O O11 0.891826 0.112574 0.000000
O O12 0.897926 0.500000 0.159962
O O13 0.000000 0.397827 0.196579
O O14 0.877694 0.398577 0.000000
O O15 0.626626 0.916040 0.500000
O O16 0.500000 0.918527 0.686278
O O17 0.661444 0.869294 0.752966
O O18 0.635982 0.000000 0.703353
O O19 0.146704 0.000000 0.500000
O O20 0.000000 0.000000 0.349246
O O21 0.694224 0.817997 0.000000
#
# Coordination Sequence:
#
# PCOD9387463 Si02
#       7
#     8   8   8   8   8   4   8
#     4  10  21  36  56  84 115 145 181 228 278 331
#     4  10  22  40  59  79 106 140 180 230 287 344
#     4   9  18  33  52  75 107 144 179 218 266 319
#     4   8  14  27  50  80 113 148 183 217 256 308
#     4   9  19  35  53  76 107 140 175 219 271 323
#     4   9  17  29  47  73 104 139 180 223 263 304
#     4  10  21  36  56  80 106 139 182 227 270 320
#
# _framework density 18.367111000000001
#
# number of rings (size 3 to 8) (size 9 to 14) (size 15 to 20)
#    0.000    2.692    0.000    2.077    1.077    5.231 
#    0.000    4.615    0.000    2.769    0.000    0.000 
#    0.000    0.000    0.000    0.000    0.000    0.000 
#
# Total GULP energy -290061.390393 kJ/mol
# GULP energy per Si atom -5578.103661 kJ/mol
# Density = 1.832531 g / cm^3
# Si number density = 18.367111 Si / 1000 Ang^3
#
#
#
# Elastic Constant Matrix: (Units=GPa)
#
#
# Indices 1 2 3 4 5 6 
#
# 1 91.7486 39.8629 52.3495 0.0000 0.0000 0.0000
# 2 39.8629 37.4924 38.9120 0.0000 0.0000 0.0000
# 3 52.3495 38.9120 59.3427 0.0000 0.0000 0.0000
# 4 0.0000 0.0000 0.0000 19.9228 0.0000 0.0000
# 5 0.0000 0.0000 0.0000 0.0000 21.0611 0.0000
# 6 0.0000 0.0000 0.0000 0.0000 0.0000 31.4979
#
#
#
# Elastic Compliance Matrix: (Units=1/GPa)
#
#
# Indices 1 2 3 4 5 6 
#
# 1 0.023251 -0.010748 -0.013464 0.000000 0.000000 0.000000
# 2 -0.010748 0.088460 -0.048524 0.000000 0.000000 0.000000
# 3 -0.013464 -0.048524 0.060546 0.000000 0.000000 0.000000
# 4 0.000000 0.000000 0.000000 0.050194 0.000000 0.000000
# 5 0.000000 0.000000 0.000000 0.000000 0.047481 0.000000
# 6 0.000000 0.000000 0.000000 0.000000 0.000000 0.031748
#
#
# Mechanical properties :
#
#
# Convention : Reuss Voigt Hill
#
# Bulk Modulus (GPa) = 37.33109 50.09251 43.71180
# Shear Modulus (GPa) = 10.96302 18.32698 14.64500
#
# Velocity S-wave (km/s) = 2.44577 3.16225 2.82680
# Velocity P-wave (km/s) = 5.32398 6.37693 5.87410
#
# Compressibility (1/GPa) = 0.02678732
#
# Stress axis : x y z
#
# Youngs Moduli (GPa) = 43.00891 11.30453 16.51639
#
# Poissons Ratio (x) = 0.12150 0.22237
# Poissons Ratio (y) = 0.46225 0.80143
# Poissons Ratio (z) = 0.57905 0.54854
#
# Static dielectric constant tensor:
#      x y z
#    x 1.655230 0.000000 0.000000 
#    y 0.000000 1.618000 0.000000 
#    z 0.000000 0.000000 1.609860 
# 
# From -- ./inp_files/6917.got.cif
#   From: 2010.05.17/outbox.cif.g08.bks.cpg/sg47_4_cif.got.tgz:6917.got - 2010.06.03 20:15:42.
