data_PCOD9387724
_publ_section_title
;
Structure prediction by ZEFSAII (Michael W. Deem and Ramdas Pophale) SiO2 
 PCOD9387724
Probable space group: P M M M
;
_chemical_formula_sum "Si O2"
_cell_formula_units_Z 64
_cell_length_a 24.329621
_cell_length_b 15.776528
_cell_length_c 9.061426
_cell_angle_alpha 90.000000
_cell_angle_beta 90.000000
_cell_angle_gamma 90.000000
_cell_volume 3478.110091
_symmetry_space_group_name_H-M "P M M M"
_symmetry_group_IT_number 47
_symmetry_cell_setting 'orthorhombic'
loop_
_space_group_symop_operation_xyz
x,y,z
-x,-y,z
x,-y,-z
-x,y,-z
-x,-y,-z
x,y,-z
-x,y,z
x,-y,z
loop_
_atom_site_type_symbol
_atom_site_label
_atom_site_fract_x
_atom_site_fract_y
_atom_site_fract_z
Si Si1 0.565463 0.097956 0.324535
Si Si2 0.249574 0.750000 0.321028
Si Si3 0.061003 0.147898 0.174571
Si Si4 0.172674 0.593733 0.677131
Si Si5 0.827326 0.093733 0.322869
Si Si6 0.938997 0.352102 0.825429
Si Si7 0.565463 0.597956 0.675465
Si Si8 0.369051 0.750000 0.824007
O O1 0.575541 0.109904 0.500000
O O2 0.500000 0.108718 0.301020
O O3 0.598870 0.167088 0.234346
O O4 0.579321 0.000000 0.288487
O O5 0.255642 0.750000 0.500000
O O6 0.214080 0.667731 0.276883
O O7 0.214080 0.832269 0.276883
O O8 0.308531 0.750000 0.246077
O O9 0.112314 0.108450 0.257356
O O10 0.063864 0.250000 0.191656
O O11 0.000000 0.120658 0.225037
O O12 0.064971 0.129646 0.000000
O O13 0.168590 0.598145 0.500000
O O14 0.192559 0.500000 0.718665
O O15 0.112314 0.608450 0.742644
O O16 0.831410 0.098145 0.500000
O O17 0.807441 0.000000 0.281335
O O18 0.000000 0.379342 0.774963
O O19 0.935029 0.370354 0.000000
O O20 0.575541 0.609904 0.500000
O O21 0.500000 0.608718 0.698980
O O22 0.579321 0.500000 0.711513
O O23 0.598870 0.667088 0.765654
O O24 0.366625 0.750000 0.000000
#
# Coordination Sequence:
#
# PCOD9387724 Si02
#       8
#     8   8   8   8   8   8   8   8
#     4   9  19  38  64  91 119 155 198 238 277 330
#     4  10  22  41  58  75 106 148 193 238 279 326
#     4   9  18  33  54  80 110 143 177 215 267 335
#     4  10  21  37  58  82 105 135 181 233 281 328
#     4  10  21  37  58  82 105 135 181 233 281 328
#     4   9  18  33  54  80 110 143 177 215 267 335
#     4   9  19  38  64  91 119 155 198 238 277 330
#     4  12  25  37  56  88 123 156 191 237 291 344
#
# _framework density 18.400798000000002
#
# number of rings (size 3 to 8) (size 9 to 14) (size 15 to 20)
#    0.000    2.250    1.250    3.000    0.000    6.000 
#    0.000    7.500    0.000    0.000    0.000    0.000 
#    0.000    0.000    0.000    0.000    0.000    0.000 
#
# Total GULP energy -357306.711593 kJ/mol
# GULP energy per Si atom -5582.917369 kJ/mol
# Density = 1.835892 g / cm^3
# Si number density = 18.400798 Si / 1000 Ang^3
#
#
#
# Elastic Constant Matrix: (Units=GPa)
#
#
# Indices 1 2 3 4 5 6 
#
# 1 123.5126 98.7051 58.2274 0.0000 0.0000 0.0000
# 2 98.7051 153.1606 63.8310 0.0000 0.0000 0.0000
# 3 58.2274 63.8310 40.4966 0.0000 0.0000 0.0000
# 4 0.0000 0.0000 0.0000 13.5058 0.0000 0.0000
# 5 0.0000 0.0000 0.0000 0.0000 65.6255 0.0000
# 6 0.0000 0.0000 0.0000 0.0000 0.0000 8.4387
#
#
#
# Elastic Compliance Matrix: (Units=1/GPa)
#
#
# Indices 1 2 3 4 5 6 
#
# 1 0.025721 -0.003390 -0.031639 0.000000 0.000000 0.000000
# 2 -0.003390 0.019476 -0.025824 0.000000 0.000000 0.000000
# 3 -0.031639 -0.025824 0.110889 0.000000 0.000000 0.000000
# 4 0.000000 0.000000 0.000000 0.074042 0.000000 0.000000
# 5 0.000000 0.000000 0.000000 0.000000 0.015238 0.000000
# 6 0.000000 0.000000 0.000000 0.000000 0.000000 0.118502
#
#
# Mechanical properties :
#
#
# Convention : Reuss Voigt Hill
#
# Bulk Modulus (GPa) = 29.08670 84.29963 56.69317
# Shear Modulus (GPa) = 10.05963 23.94108 17.00036
#
# Velocity S-wave (km/s) = 2.34069 3.61097 3.04286
# Velocity P-wave (km/s) = 4.81110 7.95600 6.57437
#
# Compressibility (1/GPa) = 0.03437997
#
# Stress axis : x y z
#
# Youngs Moduli (GPa) = 38.87828 51.34406 9.01801
#
# Poissons Ratio (x) = 0.17408 0.28532
# Poissons Ratio (y) = 0.13181 0.23288
# Poissons Ratio (z) = 1.23007 1.32591
#
# Static dielectric constant tensor:
#      x y z
#    x 1.601930 0.000000 0.000000 
#    y 0.000000 1.653590 0.000000 
#    z 0.000000 0.000000 1.606210 
# 
# From -- ./inp_files/12736.got.cif
#   From: 2010.05.17/outbox.cif.g08.bks.cpg/sg47_7_cif.got.tgz:12736.got - 2010.06.03 20:15:42.
