data_PCOD9387223
_publ_section_title
;
Structure prediction by ZEFSAII (Michael W. Deem and Ramdas Pophale) SiO2 
 PCOD9387223
Probable space group: P M M M
;
_chemical_formula_sum "Si O2"
_cell_formula_units_Z 36
_cell_length_a 7.685624
_cell_length_b 23.925299
_cell_length_c 9.599488
_cell_angle_alpha 90.000000
_cell_angle_beta 90.000000
_cell_angle_gamma 90.000000
_cell_volume 1765.162034
_symmetry_space_group_name_H-M "P M M M"
_symmetry_group_IT_number 47
_symmetry_cell_setting 'orthorhombic'
loop_
_space_group_symop_operation_xyz
x,y,z
-x,-y,z
x,-y,-z
-x,y,-z
-x,-y,-z
x,y,-z
-x,y,z
x,-y,z
loop_
_atom_site_type_symbol
_atom_site_label
_atom_site_fract_x
_atom_site_fract_y
_atom_site_fract_z
Si Si1 0.209920 0.936718 0.841839
Si Si2 0.200777 0.500000 0.330536
Si Si3 0.789608 0.378367 0.340344
Si Si4 0.292593 0.168719 0.342989
Si Si5 0.708535 0.270987 0.157681
O O1 0.265161 0.890015 0.733501
O O2 0.000000 0.937407 0.843665
O O3 0.268272 0.000000 0.808755
O O4 0.268459 0.923171 0.000000
O O5 0.197815 0.500000 0.500000
O O6 0.277081 0.560390 0.292684
O O7 0.000000 0.500000 0.281679
O O8 0.730726 0.367676 0.500000
O O9 0.742220 0.328284 0.239181
O O10 0.000000 0.382154 0.345034
O O11 0.221577 0.169319 0.500000
O O12 0.500000 0.177236 0.352985
O O13 0.221803 0.218967 0.247734
O O14 0.500000 0.264342 0.148763
O O15 0.777234 0.271656 0.000000
#
# Coordination Sequence:
#
# PCOD9387223 Si02
#       5
#     8   4   8   8   8
#     4   9  19  36  56  78 105 136 168 202 243 293
#     4   7  12  26  48  73 100 128 160 201 246 293
#     4   9  17  31  53  78 101 128 165 207 250 297
#     4  10  21  36  54  76 101 131 169 211 252 295
#     4  10  21  36  52  71  99 135 171 207 250 298
#
# _framework density 20.394729000000002
#
# number of rings (size 3 to 8) (size 9 to 14) (size 15 to 20)
#    0.000    2.778    0.000    3.333    0.000    5.333 
#    0.000    4.444    0.000    5.333    0.000    0.000 
#    0.000    0.000    0.000    0.000    0.000    0.000 
#
# Total GULP energy -200831.896786 kJ/mol
# GULP energy per Si atom -5578.663800 kJ/mol
# Density = 2.034831 g / cm^3
# Si number density = 20.394729 Si / 1000 Ang^3
#
#
#
# Elastic Constant Matrix: (Units=GPa)
#
#
# Indices 1 2 3 4 5 6 
#
# 1 34.2455 -0.4562 8.9984 0.0000 0.0000 0.0000
# 2 -0.4562 186.1527 133.7581 0.0000 0.0000 0.0000
# 3 8.9984 133.7581 177.2675 0.0000 0.0000 0.0000
# 4 0.0000 0.0000 0.0000 50.2700 0.0000 0.0000
# 5 0.0000 0.0000 0.0000 0.0000 20.2612 0.0000
# 6 0.0000 0.0000 0.0000 0.0000 0.0000 28.4562
#
#
#
# Elastic Compliance Matrix: (Units=1/GPa)
#
#
# Indices 1 2 3 4 5 6 
#
# 1 0.030145 0.002563 -0.003464 0.000000 0.000000 0.000000
# 2 0.002563 0.011952 -0.009148 0.000000 0.000000 0.000000
# 3 -0.003464 -0.009148 0.012720 0.000000 0.000000 0.000000
# 4 0.000000 0.000000 0.000000 0.019893 0.000000 0.000000
# 5 0.000000 0.000000 0.000000 0.000000 0.049355 0.000000
# 6 0.000000 0.000000 0.000000 0.000000 0.000000 0.035142
#
#
# Mechanical properties :
#
#
# Convention : Reuss Voigt Hill
#
# Bulk Modulus (GPa) = 28.80351 75.80737 52.30544
# Shear Modulus (GPa) = 26.19475 36.82183 31.50829
#
# Velocity S-wave (km/s) = 3.58772 4.25368 3.93482
# Velocity P-wave (km/s) = 5.59607 7.83427 6.80778
#
# Compressibility (1/GPa) = 0.03471799
#
# Stress axis : x y z
#
# Youngs Moduli (GPa) = 33.17269 83.67091 78.61708
#
# Poissons Ratio (x) = -0.21445 0.27234
# Poissons Ratio (y) = -0.08502 0.71921
# Poissons Ratio (z) = 0.11492 0.76544
#
# Static dielectric constant tensor:
#      x y z
#    x 1.771770 0.000000 0.000000 
#    y 0.000000 1.721690 0.000000 
#    z 0.000000 0.000000 1.704100 
# 
# From -- ./inp_files/1433.got.cif
#   From: 2010.05.17/outbox.cif.g08.bks.cpg/sg47_1_cif.got.tgz:1433.got - 2010.06.03 20:15:42.
