data_PCOD9387582
_publ_section_title
;
Structure prediction by ZEFSAII (Michael W. Deem and Ramdas Pophale) SiO2 
 PCOD9387582
Probable space group: P M M M
;
_chemical_formula_sum "Si O2"
_cell_formula_units_Z 36
_cell_length_a 23.986857
_cell_length_b 9.428410
_cell_length_c 8.609911
_cell_angle_alpha 90.000000
_cell_angle_beta 90.000000
_cell_angle_gamma 90.000000
_cell_volume 1947.199584
_symmetry_space_group_name_H-M "P M M M"
_symmetry_group_IT_number 47
_symmetry_cell_setting 'orthorhombic'
loop_
_space_group_symop_operation_xyz
x,y,z
-x,-y,z
x,-y,-z
-x,y,-z
-x,-y,-z
x,y,-z
-x,y,z
x,-y,z
loop_
_atom_site_type_symbol
_atom_site_label
_atom_site_fract_x
_atom_site_fract_y
_atom_site_fract_z
Si Si1 0.105516 0.335613 0.313987
Si Si2 0.000000 0.835661 0.186290
Si Si3 0.438572 0.334297 0.689030
Si Si4 0.790205 0.165856 0.814573
Si Si5 0.670118 0.167583 0.685848
O O1 0.101767 0.332922 0.500000
O O2 0.102879 0.500000 0.262970
O O3 0.054444 0.246072 0.245576
O O4 0.162827 0.262568 0.261594
O O5 0.000000 0.000000 0.238589
O O6 0.000000 0.835116 0.000000
O O7 0.438540 0.325936 0.500000
O O8 0.500000 0.283255 0.740574
O O9 0.433672 0.500000 0.729501
O O10 0.384704 0.248955 0.743127
O O11 0.728089 0.210573 0.764486
O O12 0.797375 0.000000 0.766975
O O13 0.795512 0.172324 0.000000
O O14 0.675500 0.189955 0.500000
O O15 0.662569 0.000000 0.712281
#
# Coordination Sequence:
#
# PCOD9387582 Si02
#       5
#     8   4   8   8   8
#     4  11  24  40  59  85 114 143 179 222 265 310
#     4  11  24  41  62  88 116 147 182 217 258 310
#     4   8  14  25  42  66  96 128 163 207 259 312
#     4  10  21  37  56  78 106 141 180 220 265 319
#     4   9  17  29  47  72 100 130 167 213 262 311
#
# _framework density 18.488088000000001
#
# number of rings (size 3 to 8) (size 9 to 14) (size 15 to 20)
#    0.000    2.333    0.000    3.333    0.000    9.333 
#    0.000    4.444    0.000    0.667    0.000    4.667 
#    0.000    0.000    0.000    0.000    0.000    0.000 
#
# Total GULP energy -200927.650540 kJ/mol
# GULP energy per Si atom -5581.323626 kJ/mol
# Density = 1.844601 g / cm^3
# Si number density = 18.488088 Si / 1000 Ang^3
#
#
#
# Elastic Constant Matrix: (Units=GPa)
#
#
# Indices 1 2 3 4 5 6 
#
# 1 180.5134 100.2934 39.1339 0.0000 0.0000 0.0000
# 2 100.2934 111.2175 36.4547 0.0000 0.0000 0.0000
# 3 39.1339 36.4547 25.5587 0.0000 0.0000 0.0000
# 4 0.0000 0.0000 0.0000 18.2901 0.0000 0.0000
# 5 0.0000 0.0000 0.0000 0.0000 -221.9465 0.0000
# 6 0.0000 0.0000 0.0000 0.0000 0.0000 65.0605
#
#
#
# Elastic Compliance Matrix: (Units=1/GPa)
#
#
# Indices 1 2 3 4 5 6 
#
# 1 0.011469 -0.008613 -0.005275 0.000000 0.000000 0.000000
# 2 -0.008613 0.023354 -0.020122 0.000000 0.000000 0.000000
# 3 -0.005275 -0.020122 0.075904 0.000000 0.000000 0.000000
# 4 0.000000 0.000000 0.000000 0.054674 0.000000 0.000000
# 5 0.000000 0.000000 0.000000 0.000000 -0.004506 0.000000
# 6 0.000000 0.000000 0.000000 0.000000 0.000000 0.015370
#
#
# Mechanical properties :
#
#
# Convention : Reuss Voigt Hill
#
# Bulk Modulus (GPa) = 23.41644 74.33927 48.87785
# Shear Modulus (GPa) = 19.34059 -18.29202 0.52428
#
# Velocity S-wave (km/s) = 3.23787 -3.14888 0.53310
# Velocity P-wave (km/s) = 5.16446 5.20346 5.18400
#
# Compressibility (1/GPa) = 0.04270504
#
# Stress axis : x y z
#
# Youngs Moduli (GPa) = 87.19176 42.81847 13.17455
#
# Poissons Ratio (x) = 0.36881 0.06950
# Poissons Ratio (y) = 0.75101 0.26510
# Poissons Ratio (z) = 0.45996 0.86161
#
# Static dielectric constant tensor:
#      x y z
#    x 1.621780 0.000000 0.000000 
#    y 0.000000 1.625190 0.000000 
#    z 0.000000 0.000000 1.627030 
# 
# From -- ./inp_files/1092.got.cif
#   From: 2010.05.17/outbox.cif.g08.bks.cpg/sg47_1_cif.got.tgz:1092.got - 2010.06.03 20:15:42.
