data_PCOD9387334
_publ_section_title
;
Structure prediction by ZEFSAII (Michael W. Deem and Ramdas Pophale) SiO2 
 PCOD9387334
Probable space group: P M M M
;
_chemical_formula_sum "Si O2"
_cell_formula_units_Z 52
_cell_length_a 7.643760
_cell_length_b 13.686638
_cell_length_c 21.152841
_cell_angle_alpha 90.000000
_cell_angle_beta 90.000000
_cell_angle_gamma 90.000000
_cell_volume 2212.954722
_symmetry_space_group_name_H-M "P M M M"
_symmetry_group_IT_number 47
_symmetry_cell_setting 'orthorhombic'
loop_
_space_group_symop_operation_xyz
x,y,z
-x,-y,z
x,-y,-z
-x,y,-z
-x,-y,-z
x,y,-z
-x,y,z
x,-y,z
loop_
_atom_site_type_symbol
_atom_site_label
_atom_site_fract_x
_atom_site_fract_y
_atom_site_fract_z
Si Si1 0.203610 0.318098 0.767815
Si Si2 0.704948 0.615644 0.500000
Si Si3 0.297122 0.692089 0.369376
Si Si4 0.712689 0.822179 0.069727
Si Si5 0.702302 0.394558 0.897764
Si Si6 0.211451 0.111028 0.426896
Si Si7 0.203959 0.894817 0.204212
O O1 0.216645 0.346827 0.695107
O O2 0.291462 0.382712 0.821588
O O3 0.279890 0.207639 0.771567
O O4 0.000000 0.314440 0.786037
O O5 0.707087 0.500000 0.500000
O O6 0.500000 0.648557 0.500000
O O7 0.783713 0.652550 0.565490
O O8 0.500000 0.663863 0.367054
O O9 0.280335 0.808631 0.378751
O O10 0.500000 0.823086 0.075084
O O11 0.773008 0.708829 0.077150
O O12 0.784859 0.882726 0.128378
O O13 0.759474 0.857748 0.000000
O O14 0.500000 0.396526 0.918069
O O15 0.780909 0.500000 0.915164
O O16 0.264051 0.133115 0.500000
O O17 0.000000 0.113832 0.425039
O O18 0.265728 0.000000 0.412970
O O19 0.000000 0.895651 0.223859
O O20 0.280186 0.000000 0.222668
#
# Coordination Sequence:
#
# PCOD9387334 Si02
#       7
#     8   4   8   8   8   8   8
#     4  10  21  36  54  77 105 138 176 221 269 318
#     4   9  20  38  56  75 102 136 171 209 258 317
#     4  11  21  35  56  81 106 136 175 220 269 318
#     4   9  18  32  51  79 112 141 172 214 263 313
#     4   9  18  34  55  77 103 138 178 219 264 315
#     4   9  18  33  53  76 104 138 170 203 253 314
#     4   9  19  36  55  74 101 141 184 220 255 302
#
# _framework density 23.497995
#
# number of rings (size 3 to 8) (size 9 to 14) (size 15 to 20)
#    0.000    2.538    0.769    1.385    0.000    3.692 
#    0.000    6.923    0.000    3.231    0.000    4.308 
#    0.000    0.000    0.000    0.000    0.000    0.000 
#
# Total GULP energy -290322.596870 kJ/mol
# GULP energy per Si atom -5583.126863 kJ/mol
# Density = 2.344451 g / cm^3
# Si number density = 23.497995 Si / 1000 Ang^3
#
#
#
# Elastic Constant Matrix: (Units=GPa)
#
#
# Indices 1 2 3 4 5 6 
#
# 1 53.7763 -1.4593 -5.9741 0.0000 0.0000 0.0000
# 2 -1.4593 60.4880 -15.4942 0.0000 0.0000 0.0000
# 3 -5.9741 -15.4942 91.9720 0.0000 0.0000 0.0000
# 4 0.0000 0.0000 0.0000 -3.1697 0.0000 0.0000
# 5 0.0000 0.0000 0.0000 0.0000 -9.7501 0.0000
# 6 0.0000 0.0000 0.0000 0.0000 0.0000 20.9790
#
#
#
# Elastic Compliance Matrix: (Units=1/GPa)
#
#
# Indices 1 2 3 4 5 6 
#
# 1 0.018768 0.000800 0.001354 0.000000 0.000000 0.000000
# 2 0.000800 0.017312 0.002968 0.000000 0.000000 0.000000
# 3 0.001354 0.002968 0.011461 0.000000 0.000000 0.000000
# 4 0.000000 0.000000 0.000000 -0.315485 0.000000 0.000000
# 5 0.000000 0.000000 0.000000 0.000000 -0.102563 0.000000
# 6 0.000000 0.000000 0.000000 0.000000 0.000000 0.047667
#
#
# Mechanical properties :
#
#
# Convention : Reuss Voigt Hill
#
# Bulk Modulus (GPa) = 17.30586 17.82010 17.56298
# Shear Modulus (GPa) = -15.93256 16.88943 0.47843
#
# Velocity S-wave (km/s) = -2.60674 2.68388 0.45172
# Velocity P-wave (km/s) = 1.29589 4.14782 2.78613
#
# Compressibility (1/GPa) = 0.05778389
#
# Stress axis : x y z
#
# Youngs Moduli (GPa) = 53.28320 57.76381 87.25326
#
# Poissons Ratio (x) = -0.04619 -0.11812
# Poissons Ratio (y) = -0.04260 -0.25900
# Poissons Ratio (z) = -0.07213 -0.17147
#
# Static dielectric constant tensor:
#      x y z
#    x 1.896920 0.000000 0.000000 
#    y 0.000000 1.906270 0.000000 
#    z 0.000000 0.000000 1.887690 
# 
# From -- ./inp_files/6979.got.cif
#   From: 2010.05.17/outbox.cif.g08.bks.cpg/sg47_4_cif.got.tgz:6979.got - 2010.06.03 20:15:42.
