data_PCOD9387100
_publ_section_title
;
Structure prediction by ZEFSAII (Michael W. Deem and Ramdas Pophale) SiO2 
 PCOD9387100
Probable space group: P M M M
;
_chemical_formula_sum "Si O2"
_cell_formula_units_Z 48
_cell_length_a 7.876998
_cell_length_b 31.401819
_cell_length_c 10.268045
_cell_angle_alpha 90.000000
_cell_angle_beta 90.000000
_cell_angle_gamma 90.000000
_cell_volume 2539.822139
_symmetry_space_group_name_H-M "P M M M"
_symmetry_group_IT_number 47
_symmetry_cell_setting 'orthorhombic'
loop_
_space_group_symop_operation_xyz
x,y,z
-x,-y,z
x,-y,-z
-x,y,-z
-x,-y,-z
x,y,-z
-x,y,z
x,-y,z
loop_
_atom_site_type_symbol
_atom_site_label
_atom_site_fract_x
_atom_site_fract_y
_atom_site_fract_z
Si Si1 0.702821 0.715370 0.647530
Si Si2 0.207363 0.951550 0.351058
Si Si3 0.201967 0.620114 0.647337
Si Si4 0.204854 0.119201 0.851479
Si Si5 0.704508 0.451892 0.852454
Si Si6 0.295421 0.215376 0.851805
O O1 0.771171 0.720355 0.500000
O O2 0.500000 0.721448 0.640665
O O3 0.733332 0.666651 0.688765
O O4 0.770196 0.749678 0.750225
O O5 0.259228 0.942394 0.500000
O O6 0.267264 0.916471 0.248638
O O7 0.000000 0.951047 0.349704
O O8 0.258833 0.000000 0.318689
O O9 0.267656 0.611769 0.500000
O O10 0.245979 0.583055 0.747463
O O11 0.000000 0.622888 0.640523
O O12 0.252402 0.167155 0.812136
O O13 0.000000 0.116748 0.853887
O O14 0.265995 0.112484 0.000000
O O15 0.500000 0.452953 0.855836
O O16 0.763256 0.500000 0.820171
O O17 0.763087 0.441804 0.000000
O O18 0.500000 0.218878 0.856089
O O19 0.231939 0.221768 0.000000
#
# Coordination Sequence:
#
# PCOD9387100 Si02
#       6
#     8   8   8   8   8   8
#     4   9  18  33  51  69  91 122 160 198 234 276
#     4   8  14  25  41  62  88 116 146 181 221 265
#     4  10  21  35  51  75 106 135 163 199 245 294
#     4   9  17  28  43  65  90 114 144 184 226 267
#     4   9  19  36  56  77 101 131 169 209 245 285
#     4   9  18  32  48  66  90 120 152 187 230 279
#
# _framework density 18.898961
#
# number of rings (size 3 to 8) (size 9 to 14) (size 15 to 20)
#    0.000    3.000    0.000    1.500    0.000    4.333 
#    0.000    5.833    0.000    0.500    0.000    3.500 
#    0.000    0.000    0.000    0.000    0.000    0.000 
#
# Total GULP energy -267604.157783 kJ/mol
# GULP energy per Si atom -5575.086620 kJ/mol
# Density = 1.885595 g / cm^3
# Si number density = 18.898961 Si / 1000 Ang^3
#
#
#
# Elastic Constant Matrix: (Units=GPa)
#
#
# Indices 1 2 3 4 5 6 
#
# 1 17.2780 1.1800 5.7664 0.0000 0.0000 0.0000
# 2 1.1800 184.3688 138.3745 0.0000 0.0000 0.0000
# 3 5.7664 138.3745 127.0681 0.0000 0.0000 0.0000
# 4 0.0000 0.0000 0.0000 38.7269 0.0000 0.0000
# 5 0.0000 0.0000 0.0000 0.0000 11.4236 0.0000
# 6 0.0000 0.0000 0.0000 0.0000 0.0000 22.6035
#
#
#
# Elastic Compliance Matrix: (Units=1/GPa)
#
#
# Indices 1 2 3 4 5 6 
#
# 1 0.061560 0.009320 -0.012943 0.000000 0.000000 0.000000
# 2 0.009320 0.031101 -0.034291 0.000000 0.000000 0.000000
# 3 -0.012943 -0.034291 0.045799 0.000000 0.000000 0.000000
# 4 0.000000 0.000000 0.000000 0.025822 0.000000 0.000000
# 5 0.000000 0.000000 0.000000 0.000000 0.087538 0.000000
# 6 0.000000 0.000000 0.000000 0.000000 0.000000 0.044241
#
#
# Mechanical properties :
#
#
# Convention : Reuss Voigt Hill
#
# Bulk Modulus (GPa) = 15.96617 68.81740 42.39178
# Shear Modulus (GPa) = 12.73023 26.77708 19.75365
#
# Velocity S-wave (km/s) = 2.59818 3.76820 3.23650
# Velocity P-wave (km/s) = 4.17939 7.44478 6.03705
#
# Compressibility (1/GPa) = 0.06263244
#
# Stress axis : x y z
#
# Youngs Moduli (GPa) = 16.24426 32.15369 21.83444
#
# Poissons Ratio (x) = -0.29968 0.28261
# Poissons Ratio (y) = -0.15140 0.74872
# Poissons Ratio (z) = 0.21025 1.10258
#
# Static dielectric constant tensor:
#      x y z
#    x 1.688190 0.000000 0.000000 
#    y 0.000000 1.626340 0.000000 
#    z 0.000000 0.000000 1.666900 
# 
# From -- ./inp_files/2476.got.cif
#   From: 2010.05.17/outbox.cif.g08.bks.cpg/sg47_2_cif.got.tgz:2476.got - 2010.06.03 20:15:42.
