data_PCOD9387014
_publ_section_title
;
Structure prediction by ZEFSAII (Michael W. Deem and Ramdas Pophale) SiO2 
 PCOD9387014
Probable space group: P M M M
;
_chemical_formula_sum "Si O2"
_cell_formula_units_Z 56
_cell_length_a 20.802831
_cell_length_b 9.006788
_cell_length_c 15.763837
_cell_angle_alpha 90.000000
_cell_angle_beta 90.000000
_cell_angle_gamma 90.000000
_cell_volume 2953.617939
_symmetry_space_group_name_H-M "P M M M"
_symmetry_group_IT_number 47
_symmetry_cell_setting 'orthorhombic'
loop_
_space_group_symop_operation_xyz
x,y,z
-x,-y,z
x,-y,-z
-x,y,-z
-x,-y,-z
x,y,-z
-x,y,z
x,-y,z
loop_
_atom_site_type_symbol
_atom_site_label
_atom_site_fract_x
_atom_site_fract_y
_atom_site_fract_z
Si Si1 0.696487 0.666595 0.899262
Si Si2 0.162185 0.181127 0.598031
Si Si3 0.430288 0.823135 0.158805
Si Si4 0.838304 0.319986 0.900570
Si Si5 0.569638 0.677120 0.343884
Si Si6 0.075123 0.179291 0.756024
Si Si7 0.697346 0.166383 0.399366
O O1 0.685898 0.500000 0.863822
O O2 0.634078 0.764202 0.883832
O O3 0.766078 0.725321 0.870763
O O4 0.704242 0.652936 0.000000
O O5 0.150257 0.228957 0.500000
O O6 0.110023 0.224874 0.668050
O O7 0.233587 0.228832 0.628984
O O8 0.164230 0.000000 0.596017
O O9 0.500000 0.786590 0.117531
O O10 0.431011 0.747001 0.250518
O O11 0.427176 0.000000 0.166928
O O12 0.839911 0.500000 0.897538
O O13 0.889359 0.251354 0.836389
O O14 0.848112 0.277557 0.000000
O O15 0.500000 0.717260 0.384179
O O16 0.572650 0.500000 0.339734
O O17 0.634037 0.738887 0.384999
O O18 0.000000 0.218205 0.754457
O O19 0.080381 0.000000 0.762191
O O20 0.705765 0.152494 0.500000
O O21 0.687706 0.000000 0.363206
#
# Coordination Sequence:
#
# PCOD9387014 Si02
#       7
#     8   8   8   8   8   8   8
#     4   9  19  36  56  78 104 136 177 223 271 322
#     4   8  16  33  55  80 112 147 182 222 270 326
#     4  10  21  35  51  74 105 140 178 220 267 321
#     4   9  20  39  59  80 110 148 188 228 273 330
#     4  10  21  35  50  71 102 139 179 224 271 318
#     4  10  21  35  55  87 118 144 181 227 275 326
#     4   9  18  33  53  76 102 135 177 224 272 322
#
# _framework density 18.959799
#
# number of rings (size 3 to 8) (size 9 to 14) (size 15 to 20)
#    0.000    2.714    0.000    2.571    2.000    4.571 
#    0.000    7.143    0.000    1.286    0.000    1.000 
#    0.000    0.000    0.000    0.000    0.000    0.000 
#
# Total GULP energy -311967.285566 kJ/mol
# GULP energy per Si atom -5570.844385 kJ/mol
# Density = 1.891665 g / cm^3
# Si number density = 18.959799 Si / 1000 Ang^3
#
#
#
# Elastic Constant Matrix: (Units=GPa)
#
#
# Indices 1 2 3 4 5 6 
#
# 1 208.8059 55.3140 70.9780 0.0000 0.0000 0.0000
# 2 55.3140 35.9845 16.8547 0.0000 0.0000 0.0000
# 3 70.9780 16.8547 68.5990 0.0000 0.0000 0.0000
# 4 0.0000 0.0000 0.0000 29.0128 0.0000 0.0000
# 5 0.0000 0.0000 0.0000 0.0000 36.5754 0.0000
# 6 0.0000 0.0000 0.0000 0.0000 0.0000 -62.2964
#
#
#
# Elastic Compliance Matrix: (Units=1/GPa)
#
#
# Indices 1 2 3 4 5 6 
#
# 1 0.011072 -0.013169 -0.008220 0.000000 0.000000 0.000000
# 2 -0.013169 0.047067 0.002062 0.000000 0.000000 0.000000
# 3 -0.008220 0.002062 0.022576 0.000000 0.000000 0.000000
# 4 0.000000 0.000000 0.000000 0.034468 0.000000 0.000000
# 5 0.000000 0.000000 0.000000 0.000000 0.027341 0.000000
# 6 0.000000 0.000000 0.000000 0.000000 0.000000 -0.016052
#
#
# Mechanical properties :
#
#
# Convention : Reuss Voigt Hill
#
# Bulk Modulus (GPa) = 23.77573 66.63142 45.20358
# Shear Modulus (GPa) = 27.90992 12.00787 19.95889
#
# Velocity S-wave (km/s) = 3.84090 2.51934 3.24805
# Velocity P-wave (km/s) = 5.67779 6.60928 6.16117
#
# Compressibility (1/GPa) = 0.04205969
#
# Stress axis : x y z
#
# Youngs Moduli (GPa) = 90.31768 21.24617 44.29406
#
# Poissons Ratio (x) = 0.27979 0.36411
# Poissons Ratio (y) = 1.18941 -0.09131
# Poissons Ratio (z) = 0.74244 -0.04380
#
# Static dielectric constant tensor:
#      x y z
#    x 1.704390 0.000000 0.000000 
#    y 0.000000 1.648090 0.000000 
#    z 0.000000 0.000000 1.679480 
# 
# From -- ./inp_files/7228.got.cif
#   From: 2010.05.17/outbox.cif.g08.bks.cpg/sg47_4_cif.got.tgz:7228.got - 2010.06.03 20:15:42.
