data_PCOD9387319
_publ_section_title
;
Structure prediction by ZEFSAII (Michael W. Deem and Ramdas Pophale) SiO2 
 PCOD9387319
Probable space group: P M M M
;
_chemical_formula_sum "Si O2"
_cell_formula_units_Z 64
_cell_length_a 7.846551
_cell_length_b 20.537766
_cell_length_c 19.098497
_cell_angle_alpha 90.000000
_cell_angle_beta 90.000000
_cell_angle_gamma 90.000000
_cell_volume 3077.734792
_symmetry_space_group_name_H-M "P M M M"
_symmetry_group_IT_number 47
_symmetry_cell_setting 'orthorhombic'
loop_
_space_group_symop_operation_xyz
x,y,z
-x,-y,z
x,-y,-z
-x,y,-z
-x,-y,-z
x,y,-z
-x,y,z
x,-y,z
loop_
_atom_site_type_symbol
_atom_site_label
_atom_site_fract_x
_atom_site_fract_y
_atom_site_fract_z
Si Si1 0.301382 0.799684 0.837617
Si Si2 0.298865 0.426089 0.646064
Si Si3 0.198952 0.295331 0.578175
Si Si4 0.201176 0.675345 0.078607
Si Si5 0.793561 0.425148 0.194416
Si Si6 0.206087 0.073641 0.918619
Si Si7 0.699044 0.186232 0.682446
Si Si8 0.291734 0.074905 0.579592
O O1 0.500000 0.781378 0.833741
O O2 0.218576 0.746794 0.888463
O O3 0.282442 0.870929 0.870445
O O4 0.226236 0.800801 0.759187
O O5 0.500000 0.426021 0.631701
O O6 0.233688 0.500000 0.635622
O O7 0.216278 0.370610 0.599228
O O8 0.271394 0.409286 0.727872
O O9 0.267016 0.284321 0.500000
O O10 0.288592 0.250197 0.634984
O O11 0.000000 0.277843 0.579199
O O12 0.270841 0.623759 0.134947
O O13 0.000000 0.661045 0.073191
O O14 0.273551 0.671992 0.000000
O O15 0.746605 0.500000 0.178987
O O16 0.000000 0.421514 0.197493
O O17 0.000000 0.077329 0.914783
O O18 0.256449 0.000000 0.899229
O O19 0.253334 0.084189 0.000000
O O20 0.500000 0.170468 0.694440
O O21 0.770989 0.126318 0.636890
O O22 0.238457 0.091892 0.500000
O O23 0.500000 0.076829 0.579603
O O24 0.242493 0.000000 0.593627
#
# Coordination Sequence:
#
# PCOD9387319 Si02
#       8
#     8   8   8   8   8   8   8   8
#     4  11  23  35  51  79 110 140 178 224 271 318
#     4  10  21  37  58  83 110 141 177 216 260 316
#     4  11  24  39  56  80 109 141 179 224 270 315
#     4  10  21  36  54  76 104 141 182 222 266 318
#     4   9  18  34  57  83 110 140 174 216 266 316
#     4   9  19  37  59  80 104 139 182 223 266 322
#     4  10  21  36  55  79 108 143 180 219 264 317
#     4   8  14  27  50  78 104 132 169 211 254 303
#
# _framework density 20.794512999999998
#
# number of rings (size 3 to 8) (size 9 to 14) (size 15 to 20)
#    0.000    2.250    0.000    3.375    0.000    9.000 
#    0.000    4.375    0.000    0.375    0.000    4.375 
#    0.000    0.000    0.000    0.000    0.000    0.000 
#
# Total GULP energy -357427.857782 kJ/mol
# GULP energy per Si atom -5584.810278 kJ/mol
# Density = 2.074718 g / cm^3
# Si number density = 20.794513 Si / 1000 Ang^3
#
#
#
# Elastic Constant Matrix: (Units=GPa)
#
#
# Indices 1 2 3 4 5 6 
#
# 1 23.7718 -11.4733 -6.8681 0.0000 0.0000 0.0000
# 2 -11.4733 56.6205 22.3358 0.0000 0.0000 0.0000
# 3 -6.8681 22.3358 59.0867 0.0000 0.0000 0.0000
# 4 0.0000 0.0000 0.0000 41.0999 0.0000 0.0000
# 5 0.0000 0.0000 0.0000 0.0000 23.0584 0.0000
# 6 0.0000 0.0000 0.0000 0.0000 0.0000 11.5710
#
#
#
# Elastic Compliance Matrix: (Units=1/GPa)
#
#
# Indices 1 2 3 4 5 6 
#
# 1 0.046865 0.008635 0.002183 0.000000 0.000000 0.000000
# 2 0.008635 0.022348 -0.007444 0.000000 0.000000 0.000000
# 3 0.002183 -0.007444 0.019992 0.000000 0.000000 0.000000
# 4 0.000000 0.000000 0.000000 0.024331 0.000000 0.000000
# 5 0.000000 0.000000 0.000000 0.000000 0.043368 0.000000
# 6 0.000000 0.000000 0.000000 0.000000 0.000000 0.086423
#
#
# Mechanical properties :
#
#
# Convention : Reuss Voigt Hill
#
# Bulk Modulus (GPa) = 10.42167 16.38532 13.40349
# Shear Modulus (GPa) = 18.61760 24.17816 21.39788
#
# Velocity S-wave (km/s) = 2.99542 3.41357 3.21131
# Velocity P-wave (km/s) = 4.12141 4.84080 4.49552
#
# Compressibility (1/GPa) = 0.09595390
#
# Stress axis : x y z
#
# Youngs Moduli (GPa) = 21.33778 44.74706 50.01986
#
# Poissons Ratio (x) = -0.38640 -0.10920
# Poissons Ratio (y) = -0.18426 0.37235
# Poissons Ratio (z) = -0.04659 0.33310
#
# Static dielectric constant tensor:
#      x y z
#    x 1.783920 0.000000 0.000000 
#    y 0.000000 1.722000 0.000000 
#    z 0.000000 0.000000 1.738630 
# 
# From -- ./inp_files/27045.got.cif
#   From: 2010.05.17/outbox.cif.g08.bks.cpg/sg47_14_cif.got.tgz:27045.got - 2010.06.03 20:15:42.
