data_PCOD9387438
_publ_section_title
;
Structure prediction by ZEFSAII (Michael W. Deem and Ramdas Pophale) SiO2 
 PCOD9387438
Probable space group: P M M M
;
_chemical_formula_sum "Si O2"
_cell_formula_units_Z 52
_cell_length_a 9.348458
_cell_length_b 15.402497
_cell_length_c 19.064419
_cell_angle_alpha 90.000000
_cell_angle_beta 90.000000
_cell_angle_gamma 90.000000
_cell_volume 2745.077995
_symmetry_space_group_name_H-M "P M M M"
_symmetry_group_IT_number 47
_symmetry_cell_setting 'orthorhombic'
loop_
_space_group_symop_operation_xyz
x,y,z
-x,-y,z
x,-y,-z
-x,y,-z
-x,-y,-z
x,y,-z
-x,y,z
x,-y,z
loop_
_atom_site_type_symbol
_atom_site_label
_atom_site_fract_x
_atom_site_fract_y
_atom_site_fract_z
Si Si1 0.170901 0.100725 0.165566
Si Si2 0.838095 0.824089 0.418183
Si Si3 0.665199 0.500000 0.583657
Si Si4 0.342805 0.897505 0.302517
Si Si5 0.671120 0.395646 0.191014
Si Si6 0.834107 0.355732 0.333885
Si Si7 0.170506 0.272619 0.082809
O O1 0.242620 0.130838 0.238371
O O2 0.205318 0.174379 0.108519
O O3 0.000000 0.100105 0.174970
O O4 0.212569 0.000000 0.148980
O O5 0.806575 0.808491 0.500000
O O6 0.726253 0.883295 0.378070
O O7 0.834417 0.736645 0.372283
O O8 0.000000 0.859661 0.413848
O O9 0.500000 0.500000 0.607869
O O10 0.666798 0.500000 0.500000
O O11 0.749553 0.581249 0.614218
O O12 0.500000 0.856726 0.298076
O O13 0.355094 0.000000 0.292304
O O14 0.500000 0.382332 0.195581
O O15 0.695957 0.500000 0.185797
O O16 0.751041 0.360835 0.260530
O O17 0.738606 0.342138 0.126645
O O18 0.000000 0.381930 0.323921
O O19 0.000000 0.285795 0.096343
O O20 0.194936 0.280766 0.000000
#
# Coordination Sequence:
#
# PCOD9387438 Si02
#       7
#     8   8   4   8   8   8   8
#     4   9  18  35  60  88 118 153 191 232 284 347
#     4  10  22  38  55  79 111 147 189 236 288 344
#     4  11  23  37  55  83 118 151 184 227 281 339
#     4  10  21  36  55  81 112 147 190 238 285 336
#     4  11  24  41  61  85 116 153 197 246 296 352
#     4  11  22  38  61  85 111 146 190 239 287 340
#     4  10  22  39  60  89 122 154 192 239 290 346
#
# _framework density 18.942995
#
# number of rings (size 3 to 8) (size 9 to 14) (size 15 to 20)
#    0.000    1.769    0.769    3.000    0.000   10.154 
#    0.000    4.615    0.000    0.000    0.000    3.231 
#    0.000    0.000    0.000    0.000    0.000    0.000 
#
# Total GULP energy -290212.529857 kJ/mol
# GULP energy per Si atom -5581.010190 kJ/mol
# Density = 1.889988 g / cm^3
# Si number density = 18.942995 Si / 1000 Ang^3
#
#
#
# Elastic Constant Matrix: (Units=GPa)
#
#
# Indices 1 2 3 4 5 6 
#
# 1 88.5545 35.7689 62.2305 0.0000 0.0000 0.0000
# 2 35.7689 40.8149 36.6718 0.0000 0.0000 0.0000
# 3 62.2305 36.6718 129.2625 0.0000 0.0000 0.0000
# 4 0.0000 0.0000 0.0000 38.9027 0.0000 0.0000
# 5 0.0000 0.0000 0.0000 0.0000 18.2215 0.0000
# 6 0.0000 0.0000 0.0000 0.0000 0.0000 -3.3866
#
#
#
# Elastic Compliance Matrix: (Units=1/GPa)
#
#
# Indices 1 2 3 4 5 6 
#
# 1 0.020918 -0.012460 -0.006536 0.000000 0.000000 0.000000
# 2 -0.012460 0.040304 -0.005436 0.000000 0.000000 0.000000
# 3 -0.006536 -0.005436 0.012425 0.000000 0.000000 0.000000
# 4 0.000000 0.000000 0.000000 0.025705 0.000000 0.000000
# 5 0.000000 0.000000 0.000000 0.000000 0.054880 0.000000
# 6 0.000000 0.000000 0.000000 0.000000 0.000000 -0.295283
#
#
# Mechanical properties :
#
#
# Convention : Reuss Voigt Hill
#
# Bulk Modulus (GPa) = 40.34770 58.66382 49.50576
# Shear Modulus (GPa) = -59.57584 19.01155 -20.28215
#
# Velocity S-wave (km/s) = -5.61412 3.17143 -3.27570
# Velocity P-wave (km/s) = 4.54738 6.66682 3.44730
#
# Compressibility (1/GPa) = 0.02478456
#
# Stress axis : x y z
#
# Youngs Moduli (GPa) = 47.80557 24.81134 80.48382
#
# Poissons Ratio (x) = 0.30914 0.52602
# Poissons Ratio (y) = 0.59564 0.43750
# Poissons Ratio (z) = 0.31244 0.13487
#
# Static dielectric constant tensor:
#      x y z
#    x 1.677460 0.000000 0.000000 
#    y 0.000000 1.744810 0.000000 
#    z 0.000000 0.000000 1.621500 
# 
# From -- ./inp_files/26727.got.cif
#   From: 2010.05.17/outbox.cif.g08.bks.cpg/sg47_14_cif.got.tgz:26727.got - 2010.06.03 20:15:42.
