data_PCOD9387972
_publ_section_title
;
Structure prediction by ZEFSAII (Michael W. Deem and Ramdas Pophale) SiO2 
 PCOD9387972
Probable space group: P M M M
;
_chemical_formula_sum "Si O2"
_cell_formula_units_Z 45
_cell_length_a 7.321125
_cell_length_b 13.089739
_cell_length_c 22.292721
_cell_angle_alpha 90.000000
_cell_angle_beta 90.000000
_cell_angle_gamma 90.000000
_cell_volume 2136.347466
_symmetry_space_group_name_H-M "P M M M"
_symmetry_group_IT_number 47
_symmetry_cell_setting 'orthorhombic'
loop_
_space_group_symop_operation_xyz
x,y,z
-x,-y,z
x,-y,-z
-x,y,-z
-x,-y,-z
x,y,-z
-x,y,z
x,-y,z
loop_
_atom_site_type_symbol
_atom_site_label
_atom_site_fract_x
_atom_site_fract_y
_atom_site_fract_z
Si Si1 0.500000 0.500000 0.500000
Si Si2 0.717551 0.883213 0.500000
Si Si3 0.220910 0.500000 0.387699
Si Si4 0.786340 0.883735 0.367572
Si Si5 0.777922 0.688434 0.300143
Si Si6 0.790054 0.000000 0.072916
Si Si7 0.777110 0.383145 0.831189
Si Si8 0.776435 0.776871 0.930945
O O1 0.340005 0.500000 0.447283
O O2 0.500000 0.884720 0.500000
O O3 0.773522 0.840505 0.435736
O O4 0.788122 0.000000 0.500000
O O5 0.266138 0.400582 0.347311
O O6 0.000000 0.500000 0.398433
O O7 0.710820 0.798376 0.323247
O O8 0.000000 0.893533 0.354115
O O9 0.709768 0.000000 0.366419
O O10 0.718346 0.658766 0.233517
O O11 0.000000 0.692508 0.298714
O O12 0.712632 0.889749 0.089453
O O13 0.000000 0.000000 0.094039
O O14 0.791989 0.000000 0.000000
O O15 0.719529 0.500000 0.838832
O O16 0.719061 0.310202 0.885227
O O17 0.000000 0.382832 0.831016
O O18 0.000000 0.780077 0.931173
O O19 0.721611 0.759345 0.000000
#
# Coordination Sequence:
#
# PCOD9387972 Si02
#       8
#     1   4   4   8   8   4   8   8
#     4  12  26  40  60  98 114 128 196 240 260 336
#     4   9  17  30  47  68  92 117 145 177 230 296
#     4  10  21  41  61  78 112 149 176 226 287 323
#     4   9  17  30  48  69  92 118 154 200 246 301
#     4   9  17  32  51  66  91 135 171 201 263 330
#     4   7  10  18  28  40  70 114 148 183 250 320
#     4   9  15  24  39  56  76 114 167 204 241 312
#     4   8  13  20  31  51  80 112 150 202 256 304
#
# _framework density 21.063988999999999
#
# number of rings (size 3 to 8) (size 9 to 14) (size 15 to 20)
#    0.000    3.200    0.889    1.467    0.000    2.133 
#    4.800    4.444    0.000    0.000    0.000    0.000 
#    0.000    0.000    0.000    1.600    0.178    3.911 
#
# Total GULP energy -250691.854628 kJ/mol
# GULP energy per Si atom -5570.930103 kJ/mol
# Density = 2.101605 g / cm^3
# Si number density = 21.063989 Si / 1000 Ang^3
#
#
#
# Elastic Constant Matrix: (Units=GPa)
#
#
# Indices 1 2 3 4 5 6 
#
# 1 92.7264 16.2471 17.3328 0.0000 0.0000 0.0000
# 2 16.2471 193.9301 125.4909 0.0000 0.0000 0.0000
# 3 17.3328 125.4909 170.1967 0.0000 0.0000 0.0000
# 4 0.0000 0.0000 0.0000 -11.6645 0.0000 0.0000
# 5 0.0000 0.0000 0.0000 0.0000 -94.8957 0.0000
# 6 0.0000 0.0000 0.0000 0.0000 0.0000 -15.9923
#
#
#
# Elastic Compliance Matrix: (Units=1/GPa)
#
#
# Indices 1 2 3 4 5 6 
#
# 1 0.011008 -0.000376 -0.000844 0.000000 0.000000 0.000000
# 2 -0.000376 0.009875 -0.007242 0.000000 0.000000 0.000000
# 3 -0.000844 -0.007242 0.011302 0.000000 0.000000 0.000000
# 4 0.000000 0.000000 0.000000 -0.085730 0.000000 0.000000
# 5 0.000000 0.000000 0.000000 0.000000 -0.010538 0.000000
# 6 0.000000 0.000000 0.000000 0.000000 0.000000 -0.062530
#
#
# Mechanical properties :
#
#
# Convention : Reuss Voigt Hill
#
# Bulk Modulus (GPa) = 65.53354 86.11055 75.82205
# Shear Modulus (GPa) = -47.80004 -4.65836 -26.22920
#
# Velocity S-wave (km/s) = -4.76886 -1.48873 -3.53259
# Velocity P-wave (km/s) = 0.92546 6.16556 4.40855
#
# Compressibility (1/GPa) = 0.01525936
#
# Stress axis : x y z
#
# Youngs Moduli (GPa) = 90.84271 101.26992 88.48338
#
# Poissons Ratio (x) = 0.03812 0.07464
# Poissons Ratio (y) = 0.03419 0.64084
# Poissons Ratio (z) = 0.07663 0.73345
#
# Static dielectric constant tensor:
#      x y z
#    x 1.776960 0.000000 0.000000 
#    y 0.000000 1.766630 0.000000 
#    z 0.000000 0.000000 1.710140 
# 
# From -- ./inp_files/31905.got.cif
#   From: 2010.05.17/outbox.cif.g08.bks.cpg/sg47_16_cif.got.tgz:31905.got - 2010.06.03 20:15:42.
