data_PCOD9387018
_publ_section_title
;
Structure prediction by ZEFSAII (Michael W. Deem and Ramdas Pophale) SiO2 
 PCOD9387018
Probable space group: P M M M
;
_chemical_formula_sum "Si O2"
_cell_formula_units_Z 44
_cell_length_a 31.343680
_cell_length_b 9.741316
_cell_length_c 7.441845
_cell_angle_alpha 90.000000
_cell_angle_beta 90.000000
_cell_angle_gamma 90.000000
_cell_volume 2272.208796
_symmetry_space_group_name_H-M "P M M M"
_symmetry_group_IT_number 47
_symmetry_cell_setting 'orthorhombic'
loop_
_space_group_symop_operation_xyz
x,y,z
-x,-y,z
x,-y,-z
-x,y,-z
-x,-y,-z
x,y,-z
-x,y,z
x,-y,z
loop_
_atom_site_type_symbol
_atom_site_label
_atom_site_fract_x
_atom_site_fract_y
_atom_site_fract_z
Si Si1 0.778639 0.343769 0.784118
Si Si2 0.125875 0.341529 0.781024
Si Si3 0.451750 0.333859 0.000000
Si Si4 0.381637 0.337912 0.285317
Si Si5 0.697990 0.844883 0.713256
Si Si6 0.952703 0.159005 0.219103
O O1 0.769613 0.500000 0.720156
O O2 0.826218 0.302352 0.722726
O O3 0.741783 0.237609 0.738817
O O4 0.780333 0.350567 0.000000
O O5 0.119237 0.500000 0.730865
O O6 0.087141 0.247852 0.717604
O O7 0.125676 0.335943 0.000000
O O8 0.423625 0.297482 0.174229
O O9 0.454463 0.500000 0.000000
O O10 0.500000 0.280014 0.000000
O O11 0.387627 0.322377 0.500000
O O12 0.372898 0.500000 0.251691
O O13 0.341645 0.246987 0.222116
O O14 0.691704 0.855414 0.500000
O O15 0.699334 0.000000 0.786273
O O16 0.000000 0.207337 0.274727
O O17 0.948220 0.000000 0.271365
O O18 0.952333 0.162359 0.000000
#
# Coordination Sequence:
#
# PCOD9387018 Si02
#       6
#     8   8   4   8   8   8
#     4   9  18  31  47  68  94 124 158 198 244 295
#     4   8  14  24  36  53  79 109 143 185 232 281
#     4   9  18  32  53  83 111 135 173 221 260 303
#     4   9  18  33  53  76 104 139 174 212 261 308
#     4  10  21  35  50  71  99 129 164 206 247 291
#     4   8  13  20  30  46  71 106 146 185 226 275
#
# _framework density 19.364419000000002
#
# number of rings (size 3 to 8) (size 9 to 14) (size 15 to 20)
#    0.000    3.182    0.000    2.182    1.273    2.909 
#    0.000    5.455    0.000    1.091    0.000    2.545 
#    0.000    0.727    0.000    8.000    0.000   13.091 
#
# Total GULP energy -245316.223435 kJ/mol
# GULP energy per Si atom -5575.368714 kJ/mol
# Density = 1.932034 g / cm^3
# Si number density = 19.364419 Si / 1000 Ang^3
#
#
#
# Elastic Constant Matrix: (Units=GPa)
#
#
# Indices 1 2 3 4 5 6 
#
# 1 220.3676 116.0114 28.6686 0.0000 0.0000 0.0000
# 2 116.0114 100.2992 23.1503 0.0000 0.0000 0.0000
# 3 28.6686 23.1503 62.6774 0.0000 0.0000 0.0000
# 4 0.0000 0.0000 0.0000 6.7533 0.0000 0.0000
# 5 0.0000 0.0000 0.0000 0.0000 92.8328 0.0000
# 6 0.0000 0.0000 0.0000 0.0000 0.0000 -11.6681
#
#
#
# Elastic Compliance Matrix: (Units=1/GPa)
#
#
# Indices 1 2 3 4 5 6 
#
# 1 0.011612 -0.013342 -0.000383 0.000000 0.000000 0.000000
# 2 -0.013342 0.026230 -0.003586 0.000000 0.000000 0.000000
# 3 -0.000383 -0.003586 0.017454 0.000000 0.000000 0.000000
# 4 0.000000 0.000000 0.000000 0.148076 0.000000 0.000000
# 5 0.000000 0.000000 0.000000 0.000000 0.010772 0.000000
# 6 0.000000 0.000000 0.000000 0.000000 0.000000 -0.085704
#
#
# Mechanical properties :
#
#
# Convention : Reuss Voigt Hill
#
# Bulk Modulus (GPa) = 48.36927 79.88943 64.12935
# Shear Modulus (GPa) = 29.41981 31.95118 30.68550
#
# Velocity S-wave (km/s) = 3.90201 4.06642 3.98506
# Velocity P-wave (km/s) = 6.73302 7.96197 7.37315
#
# Compressibility (1/GPa) = 0.02067428
#
# Stress axis : x y z
#
# Youngs Moduli (GPa) = 86.12012 38.12408 57.29252
#
# Poissons Ratio (x) = 0.50866 0.02195
# Poissons Ratio (y) = 1.14904 0.20542
# Poissons Ratio (z) = 0.03300 0.13669
#
# Static dielectric constant tensor:
#      x y z
#    x 1.663770 0.000000 0.000000 
#    y 0.000000 1.659010 0.000000 
#    z 0.000000 0.000000 1.826420 
# 
# From -- ./inp_files/13597.got.cif
#   From: 2010.05.17/outbox.cif.g08.bks.cpg/sg47_7_cif.got.tgz:13597.got - 2010.06.03 20:15:42.
