data_PCOD9387829
_publ_section_title
;
Structure prediction by ZEFSAII (Michael W. Deem and Ramdas Pophale) SiO2 
 PCOD9387829
Probable space group: P M M M
;
_chemical_formula_sum "Si O2"
_cell_formula_units_Z 48
_cell_length_a 9.975194
_cell_length_b 7.728065
_cell_length_c 30.742147
_cell_angle_alpha 90.000000
_cell_angle_beta 90.000000
_cell_angle_gamma 90.000000
_cell_volume 2369.879760
_symmetry_space_group_name_H-M "P M M M"
_symmetry_group_IT_number 47
_symmetry_cell_setting 'orthorhombic'
loop_
_space_group_symop_operation_xyz
x,y,z
-x,-y,z
x,-y,-z
-x,y,-z
-x,-y,-z
x,y,-z
-x,y,z
x,-y,z
loop_
_atom_site_type_symbol
_atom_site_label
_atom_site_fract_x
_atom_site_fract_y
_atom_site_fract_z
Si Si1 0.153778 0.796221 0.701603
Si Si2 0.500000 0.206910 0.550270
Si Si3 0.000000 0.712260 0.549237
Si Si4 0.654071 0.207297 0.777640
Si Si5 0.243218 0.295602 0.392989
Si Si6 0.155147 0.709588 0.142149
Si Si7 0.837783 0.295295 0.953299
O O1 0.252951 0.722175 0.738342
O O2 0.224845 0.779936 0.654871
O O3 0.000000 0.725561 0.700593
O O4 0.140475 0.000000 0.710970
O O5 0.500000 0.272661 0.500000
O O6 0.624752 0.264277 0.579304
O O7 0.500000 0.000000 0.547747
O O8 0.873280 0.772487 0.576043
O O9 0.000000 0.500000 0.548309
O O10 0.000000 0.771812 0.500000
O O11 0.500000 0.273343 0.778564
O O12 0.739189 0.239626 0.821253
O O13 0.644127 0.000000 0.771959
O O14 0.225213 0.500000 0.387196
O O15 0.150704 0.500000 0.140316
O O16 0.200028 0.774102 0.094160
O O17 0.000000 0.766236 0.150981
O O18 0.803875 0.500000 0.953674
O O19 0.000000 0.284962 0.953343
O O20 0.791251 0.221844 0.000000
#
# Coordination Sequence:
#
# PCOD9387829 Si02
#       7
#     8   4   4   8   8   8   8
#     4  10  21  38  59  82 110 143 181 226 276 331
#     4  11  25  43  61  85 119 157 193 227 264 311
#     4   9  18  34  57  85 117 147 175 213 264 319
#     4  10  22  38  55  76 104 144 187 224 268 323
#     4  11  22  38  61  89 118 148 183 225 273 323
#     4   9  17  30  51  80 109 137 174 224 276 323
#     4   7  10  19  39  69 103 135 168 211 266 323
#
# _framework density 20.254190000000001
#
# number of rings (size 3 to 8) (size 9 to 14) (size 15 to 20)
#    0.000    2.500    0.833    3.250    1.167    3.333 
#    0.000    0.000    0.000    3.000    0.000    5.833 
#    0.000    0.000    0.000    0.000    0.000    0.000 
#
# Total GULP energy -267530.195998 kJ/mol
# GULP energy per Si atom -5573.545750 kJ/mol
# Density = 2.020809 g / cm^3
# Si number density = 20.254190 Si / 1000 Ang^3
#
#
#
# Elastic Constant Matrix: (Units=GPa)
#
#
# Indices 1 2 3 4 5 6 
#
# 1 152.9694 -1.6855 100.7820 0.0000 0.0000 0.0000
# 2 -1.6855 31.7046 -5.6880 0.0000 0.0000 0.0000
# 3 100.7820 -5.6880 217.8181 0.0000 0.0000 0.0000
# 4 0.0000 0.0000 0.0000 12.6629 0.0000 0.0000
# 5 0.0000 0.0000 0.0000 0.0000 19.6009 0.0000
# 6 0.0000 0.0000 0.0000 0.0000 0.0000 5.0320
#
#
#
# Elastic Compliance Matrix: (Units=1/GPa)
#
#
# Indices 1 2 3 4 5 6 
#
# 1 0.009406 -0.000282 -0.004360 0.000000 0.000000 0.000000
# 2 -0.000282 0.031698 0.000958 0.000000 0.000000 0.000000
# 3 -0.004360 0.000958 0.006633 0.000000 0.000000 0.000000
# 4 0.000000 0.000000 0.000000 0.078971 0.000000 0.000000
# 5 0.000000 0.000000 0.000000 0.000000 0.051018 0.000000
# 6 0.000000 0.000000 0.000000 0.000000 0.000000 0.198727
#
#
# Mechanical properties :
#
#
# Convention : Reuss Voigt Hill
#
# Bulk Modulus (GPa) = 24.77035 65.47879 45.12457
# Shear Modulus (GPa) = 12.58564 28.06472 20.32518
#
# Velocity S-wave (km/s) = 2.49546 3.72644 3.17125
# Velocity P-wave (km/s) = 4.53425 7.13539 5.97801
#
# Compressibility (1/GPa) = 0.04037084
#
# Stress axis : x y z
#
# Youngs Moduli (GPa) = 106.31036 31.54762 150.75784
#
# Poissons Ratio (x) = 0.00890 0.65725
# Poissons Ratio (y) = 0.02999 -0.14447
# Poissons Ratio (z) = 0.46347 -0.03023
#
# Static dielectric constant tensor:
#      x y z
#    x 1.778240 0.000000 0.000000 
#    y 0.000000 1.756540 0.000000 
#    z 0.000000 0.000000 1.746490 
# 
# From -- ./inp_files/34040.got.cif
#   From: 2010.05.17/outbox.cif.g08.bks.cpg/sg47_18_cif.got.tgz:34040.got - 2010.06.03 20:15:42.
