data_PCOD9387516
_publ_section_title
;
Structure prediction by ZEFSAII (Michael W. Deem and Ramdas Pophale) SiO2 
 PCOD9387516
Probable space group: P M M M
;
_chemical_formula_sum "Si O2"
_cell_formula_units_Z 40
_cell_length_a 11.270647
_cell_length_b 8.754662
_cell_length_c 22.890708
_cell_angle_alpha 90.000000
_cell_angle_beta 90.000000
_cell_angle_gamma 90.000000
_cell_volume 2258.642296
_symmetry_space_group_name_H-M "P M M M"
_symmetry_group_IT_number 47
_symmetry_cell_setting 'orthorhombic'
loop_
_space_group_symop_operation_xyz
x,y,z
-x,-y,z
x,-y,-z
-x,y,-z
-x,-y,-z
x,y,-z
-x,y,z
x,-y,z
loop_
_atom_site_type_symbol
_atom_site_label
_atom_site_fract_x
_atom_site_fract_y
_atom_site_fract_z
Si Si1 0.500000 0.685667 0.567177
Si Si2 0.249114 0.682932 0.615136
Si Si3 0.859251 0.823216 0.731123
Si Si4 0.366556 0.685801 0.068404
Si Si5 0.136277 0.315853 0.141837
Si Si6 0.140516 0.827326 0.500000
O O1 0.500000 0.500000 0.564195
O O2 0.500000 0.740083 0.500000
O O3 0.383232 0.731334 0.601366
O O4 0.241713 0.500000 0.617863
O O5 0.204380 0.751756 0.675482
O O6 0.178614 0.741114 0.558564
O O7 0.839848 0.735132 0.791732
O O8 0.000000 0.816846 0.719299
O O9 0.825405 0.000000 0.738446
O O10 0.500000 0.734634 0.088603
O O11 0.366544 0.500000 0.071617
O O12 0.248424 0.738036 0.102844
O O13 0.356269 0.726637 0.000000
O O14 0.134360 0.500000 0.138562
O O15 0.000000 0.264161 0.126486
O O16 0.000000 0.837072 0.500000
O O17 0.190205 0.000000 0.500000
#
# Coordination Sequence:
#
# PCOD9387516 Si02
#       6
#     4   8   8   8   8   4
#     4   9  18  36  56  76 102 128 157 202 257 302
#     4  11  21  36  58  78  99 130 170 211 251 302
#     4  10  21  37  54  73 103 138 168 207 260 308
#     4   8  14  26  46  74 107 138 168 208 259 307
#     4   9  17  30  50  76 103 133 173 215 253 302
#     4  11  23  36  51  76 108 135 162 203 256 307
#
# _framework density 17.709755000000001
#
# number of rings (size 3 to 8) (size 9 to 14) (size 15 to 20)
#    0.000    2.400    1.000    2.700    0.000    4.800 
#    1.800    4.500    0.000    0.600    0.000    4.200 
#    0.000    0.000    0.000    0.000    0.000    0.000 
#
# Total GULP energy -222898.566468 kJ/mol
# GULP energy per Si atom -5572.464162 kJ/mol
# Density = 1.766945 g / cm^3
# Si number density = 17.709755 Si / 1000 Ang^3
#
#
#
# Elastic Constant Matrix: (Units=GPa)
#
#
# Indices 1 2 3 4 5 6 
#
# 1 141.1819 24.2672 89.0264 0.0000 0.0000 0.0000
# 2 24.2672 16.9812 12.1615 0.0000 0.0000 0.0000
# 3 89.0264 12.1615 104.5214 0.0000 0.0000 0.0000
# 4 0.0000 0.0000 0.0000 -11.1373 0.0000 0.0000
# 5 0.0000 0.0000 0.0000 0.0000 40.5782 0.0000
# 6 0.0000 0.0000 0.0000 0.0000 0.0000 16.6758
#
#
#
# Elastic Compliance Matrix: (Units=1/GPa)
#
#
# Indices 1 2 3 4 5 6 
#
# 1 0.018894 -0.016882 -0.014129 0.000000 0.000000 0.000000
# 2 -0.016882 0.079327 0.005150 0.000000 0.000000 0.000000
# 3 -0.014129 0.005150 0.021003 0.000000 0.000000 0.000000
# 4 0.000000 0.000000 0.000000 -0.089789 0.000000 0.000000
# 5 0.000000 0.000000 0.000000 0.000000 0.024644 0.000000
# 6 0.000000 0.000000 0.000000 0.000000 0.000000 0.059967
#
#
# Mechanical properties :
#
#
# Convention : Reuss Voigt Hill
#
# Bulk Modulus (GPa) = 14.81475 57.06608 35.94042
# Shear Modulus (GPa) = 26.55763 18.37196 22.46480
#
# Velocity S-wave (km/s) = 3.87667 3.22435 3.56546
# Velocity P-wave (km/s) = 5.33119 6.79374 6.10641
#
# Compressibility (1/GPa) = 0.06750028
#
# Stress axis : x y z
#
# Youngs Moduli (GPa) = 52.92585 12.60607 47.61313
#
# Poissons Ratio (x) = 0.21282 0.67272
# Poissons Ratio (y) = 0.89352 -0.24519
# Poissons Ratio (z) = 0.74779 -0.06492
#
# Static dielectric constant tensor:
#      x y z
#    x 1.623080 0.000000 0.000000 
#    y 0.000000 1.600520 0.000000 
#    z 0.000000 0.000000 1.602110 
# 
# From -- ./inp_files/10675.got.cif
#   From: 2010.05.17/outbox.cif.g08.bks.cpg/sg47_6_cif.got.tgz:10675.got - 2010.06.03 20:15:42.
