data_PCOD9387212
_publ_section_title
;
Structure prediction by ZEFSAII (Michael W. Deem and Ramdas Pophale) SiO2 
 PCOD9387212
Probable space group: P M M M
;
_chemical_formula_sum "Si O2"
_cell_formula_units_Z 44
_cell_length_a 21.942327
_cell_length_b 14.544491
_cell_length_c 8.519234
_cell_angle_alpha 90.000000
_cell_angle_beta 90.000000
_cell_angle_gamma 90.000000
_cell_volume 2718.828148
_symmetry_space_group_name_H-M "P M M M"
_symmetry_group_IT_number 47
_symmetry_cell_setting 'orthorhombic'
loop_
_space_group_symop_operation_xyz
x,y,z
-x,-y,z
x,-y,-z
-x,y,-z
-x,-y,-z
x,y,-z
-x,y,z
x,-y,z
loop_
_atom_site_type_symbol
_atom_site_label
_atom_site_fract_x
_atom_site_fract_y
_atom_site_fract_z
Si Si1 0.567399 0.892405 0.809120
Si Si2 0.801159 0.106945 0.309888
Si Si3 0.686216 0.218114 0.812298
Si Si4 0.065527 0.111247 0.686325
Si Si5 0.500000 0.388398 0.177669
Si Si6 0.630903 0.605821 0.687196
O O1 0.500000 0.860209 0.757144
O O2 0.625614 0.835656 0.753525
O O3 0.573586 0.000000 0.766629
O O4 0.567457 0.888419 0.000000
O O5 0.802281 0.107918 0.500000
O O6 0.746162 0.168757 0.251108
O O7 0.868136 0.140102 0.252421
O O8 0.792385 0.000000 0.261899
O O9 0.678297 0.322875 0.758716
O O10 0.686558 0.213685 0.000000
O O11 0.064701 0.132551 0.500000
O O12 0.000000 0.142948 0.753056
O O13 0.066131 0.000000 0.697680
O O14 0.500000 0.500000 0.172704
O O15 0.562993 0.363782 0.260447
O O16 0.500000 0.352170 0.000000
O O17 0.634163 0.607638 0.500000
O O18 0.639555 0.500000 0.739931
#
# Coordination Sequence:
#
# PCOD9387212 Si02
#       6
#     8   8   8   8   4   8
#     4   8  15  28  43  59  81 110 147 188 223 255
#     4   9  17  29  45  66  95 128 158 191 229 268
#     4  11  21  30  46  68  90 119 155 193 234 280
#     4   7  10  19  38  63  88 117 155 192 222 256
#     4   9  17  31  51  71  88 107 136 177 227 283
#     4  10  21  36  51  67  89 116 147 188 239 288
#
# _framework density 16.183443
#
# number of rings (size 3 to 8) (size 9 to 14) (size 15 to 20)
#    0.000    3.000    0.000    4.091    1.273    3.273 
#    0.000    0.000    0.000    0.545    0.000    6.364 
#    0.000    0.727    0.000    8.364    0.000    2.727 
#
# Total GULP energy -245086.320937 kJ/mol
# GULP energy per Si atom -5570.143658 kJ/mol
# Density = 1.614661 g / cm^3
# Si number density = 16.183443 Si / 1000 Ang^3
#
#
#
# Elastic Constant Matrix: (Units=GPa)
#
#
# Indices 1 2 3 4 5 6 
#
# 1 163.9939 69.5286 24.0667 0.0000 0.0000 0.0000
# 2 69.5286 67.7744 14.4791 0.0000 0.0000 0.0000
# 3 24.0667 14.4791 16.3960 0.0000 0.0000 0.0000
# 4 0.0000 0.0000 0.0000 13.3698 0.0000 0.0000
# 5 0.0000 0.0000 0.0000 0.0000 7.1885 0.0000
# 6 0.0000 0.0000 0.0000 0.0000 0.0000 7.5870
#
#
#
# Elastic Compliance Matrix: (Units=1/GPa)
#
#
# Indices 1 2 3 4 5 6 
#
# 1 0.011589 -0.010175 -0.008026 0.000000 0.000000 0.000000
# 2 -0.010175 0.027118 -0.009013 0.000000 0.000000 0.000000
# 3 -0.008026 -0.009013 0.080732 0.000000 0.000000 0.000000
# 4 0.000000 0.000000 0.000000 0.074795 0.000000 0.000000
# 5 0.000000 0.000000 0.000000 0.000000 0.139112 0.000000
# 6 0.000000 0.000000 0.000000 0.000000 0.000000 0.131804
#
#
# Mechanical properties :
#
#
# Convention : Reuss Voigt Hill
#
# Bulk Modulus (GPa) = 15.38200 51.59035 33.48618
# Shear Modulus (GPa) = 9.23789 14.96839 12.10314
#
# Velocity S-wave (km/s) = 2.39178 3.04455 2.73769
# Velocity P-wave (km/s) = 4.14161 6.65633 5.54345
#
# Compressibility (1/GPa) = 0.06501104
#
# Stress axis : x y z
#
# Youngs Moduli (GPa) = 86.28536 36.87534 12.38673
#
# Poissons Ratio (x) = 0.37519 0.09942
# Poissons Ratio (y) = 0.87793 0.11164
# Poissons Ratio (z) = 0.69256 0.33236
#
# Static dielectric constant tensor:
#      x y z
#    x 1.571920 0.000000 0.000000 
#    y 0.000000 1.544620 0.000000 
#    z 0.000000 0.000000 1.556120 
# 
# From -- ./inp_files/10882.got.cif
#   From: 2010.05.17/outbox.cif.g08.bks.cpg/sg47_6_cif.got.tgz:10882.got - 2010.06.03 20:15:42.
