data_PCOD9387521
_publ_section_title
;
Structure prediction by ZEFSAII (Michael W. Deem and Ramdas Pophale) SiO2 
 PCOD9387521
Probable space group: P M M M
;
_chemical_formula_sum "Si O2"
_cell_formula_units_Z 44
_cell_length_a 17.588414
_cell_length_b 13.869460
_cell_length_c 9.704440
_cell_angle_alpha 90.000000
_cell_angle_beta 90.000000
_cell_angle_gamma 90.000000
_cell_volume 2367.318605
_symmetry_space_group_name_H-M "P M M M"
_symmetry_group_IT_number 47
_symmetry_cell_setting 'orthorhombic'
loop_
_space_group_symop_operation_xyz
x,y,z
-x,-y,z
x,-y,-z
-x,y,-z
-x,-y,-z
x,y,-z
-x,y,z
x,-y,z
loop_
_atom_site_type_symbol
_atom_site_label
_atom_site_fract_x
_atom_site_fract_y
_atom_site_fract_z
Si Si1 0.648512 0.383370 0.836986
Si Si2 0.305693 0.115053 0.254321
Si Si3 0.500000 0.616892 0.663083
Si Si4 0.090757 0.614315 0.157894
Si Si5 0.214729 0.286398 0.666642
Si Si6 0.584928 0.116137 0.500000
Si Si7 0.412107 0.882703 0.000000
O O1 0.650865 0.500000 0.836355
O O2 0.573644 0.352695 0.751277
O O3 0.719867 0.344951 0.749380
O O4 0.647613 0.355187 0.000000
O O5 0.231132 0.176862 0.284255
O O6 0.364244 0.142565 0.373102
O O7 0.291606 0.000000 0.253309
O O8 0.357222 0.142226 0.125208
O O9 0.500000 0.500000 0.664049
O O10 0.500000 0.642892 0.500000
O O11 0.106411 0.500000 0.174454
O O12 0.136536 0.673483 0.271283
O O13 0.000000 0.627395 0.168723
O O14 0.113619 0.640187 0.000000
O O15 0.219596 0.295040 0.500000
O O16 0.500000 0.153043 0.500000
O O17 0.579504 0.000000 0.500000
O O18 0.500000 0.846942 0.000000
O O19 0.419015 0.000000 0.000000
#
# Coordination Sequence:
#
# PCOD9387521 Si02
#       7
#     8   8   4   8   8   4   4
#     4  10  21  37  55  75 105 148 191 233 281 337
#     4  10  21  37  54  79 114 153 196 242 293 343
#     4   9  17  33  55  75 102 141 188 239 285 330
#     4   9  20  41  68  94 119 147 179 222 281 349
#     4  12  24  36  55  87 117 149 188 232 283 338
#     4   9  16  32  56  74 100 149 200 244 290 337
#     4   9  18  34  56  80 106 143 198 260 308 339
#
# _framework density 18.58643
#
# number of rings (size 3 to 8) (size 9 to 14) (size 15 to 20)
#    0.000    2.091    0.909    3.000    2.545    7.273 
#    3.273    0.909    0.000    0.545    0.000    2.545 
#    0.000    0.000    0.000    0.000    0.000    0.000 
#
# Total GULP energy -245423.237692 kJ/mol
# GULP energy per Si atom -5577.800857 kJ/mol
# Density = 1.854413 g / cm^3
# Si number density = 18.586430 Si / 1000 Ang^3
#
#
#
# Elastic Constant Matrix: (Units=GPa)
#
#
# Indices 1 2 3 4 5 6 
#
# 1 73.0641 35.9763 57.3629 0.0000 0.0000 0.0000
# 2 35.9763 84.7162 46.8220 0.0000 0.0000 0.0000
# 3 57.3629 46.8220 192.1634 0.0000 0.0000 0.0000
# 4 0.0000 0.0000 0.0000 22.0560 0.0000 0.0000
# 5 0.0000 0.0000 0.0000 0.0000 35.4992 0.0000
# 6 0.0000 0.0000 0.0000 0.0000 0.0000 11.0090
#
#
#
# Elastic Compliance Matrix: (Units=1/GPa)
#
#
# Indices 1 2 3 4 5 6 
#
# 1 0.020268 -0.006082 -0.004568 0.000000 0.000000 0.000000
# 2 -0.006082 0.015466 -0.001953 0.000000 0.000000 0.000000
# 3 -0.004568 -0.001953 0.007043 0.000000 0.000000 0.000000
# 4 0.000000 0.000000 0.000000 0.045339 0.000000 0.000000
# 5 0.000000 0.000000 0.000000 0.000000 0.028170 0.000000
# 6 0.000000 0.000000 0.000000 0.000000 0.000000 0.090835
#
#
# Mechanical properties :
#
#
# Convention : Reuss Voigt Hill
#
# Bulk Modulus (GPa) = 56.91203 70.02957 63.47080
# Shear Modulus (GPa) = 20.99204 27.69835 24.34520
#
# Velocity S-wave (km/s) = 3.36434 3.86456 3.62309
# Velocity P-wave (km/s) = 6.76597 7.59425 7.19205
#
# Compressibility (1/GPa) = 0.01757098
#
# Stress axis : x y z
#
# Youngs Moduli (GPa) = 49.33875 64.65613 141.97702
#
# Poissons Ratio (x) = 0.39326 0.64858
# Poissons Ratio (y) = 0.30010 0.27726
# Poissons Ratio (z) = 0.22539 0.12626
#
# Static dielectric constant tensor:
#      x y z
#    x 1.640190 0.000000 0.000000 
#    y 0.000000 1.701660 0.000000 
#    z 0.000000 0.000000 1.546010 
# 
# From -- ./inp_files/9077.got.cif
#   From: 2010.05.17/outbox.cif.g08.bks.cpg/sg47_5_cif.got.tgz:9077.got - 2010.06.03 20:15:42.
