data_PCOD9387793
_publ_section_title
;
Structure prediction by ZEFSAII (Michael W. Deem and Ramdas Pophale) SiO2 
 PCOD9387793
Probable space group: P M M M
;
_chemical_formula_sum "Si O2"
_cell_formula_units_Z 34
_cell_length_a 10.284681
_cell_length_b 7.579675
_cell_length_c 21.544410
_cell_angle_alpha 90.000000
_cell_angle_beta 90.000000
_cell_angle_gamma 90.000000
_cell_volume 1679.484559
_symmetry_space_group_name_H-M "P M M M"
_symmetry_group_IT_number 47
_symmetry_cell_setting 'orthorhombic'
loop_
_space_group_symop_operation_xyz
x,y,z
-x,-y,z
x,-y,-z
-x,y,-z
-x,-y,-z
x,y,-z
-x,y,z
x,-y,z
loop_
_atom_site_type_symbol
_atom_site_label
_atom_site_fract_x
_atom_site_fract_y
_atom_site_fract_z
Si Si1 0.761989 0.287184 0.189216
Si Si2 0.354240 0.212032 0.570526
Si Si3 0.851727 0.289239 0.323318
Si Si4 0.500000 0.714086 0.114257
Si Si5 0.000000 0.500000 0.000000
Si Si6 0.500000 0.000000 0.000000
Si Si7 0.000000 0.192660 0.102896
O O1 0.775064 0.500000 0.189048
O O2 0.784472 0.224742 0.259660
O O3 0.625519 0.248436 0.156775
O O4 0.875079 0.211919 0.146470
O O5 0.328968 0.274495 0.500000
O O6 0.500000 0.273806 0.589020
O O7 0.241524 0.256955 0.618486
O O8 0.359457 0.000000 0.568286
O O9 0.862028 0.500000 0.317349
O O10 0.000000 0.220885 0.329658
O O11 0.500000 0.500000 0.098811
O O12 0.500000 0.842499 0.054784
O O13 0.000000 0.653132 0.053545
O O14 0.000000 0.000000 0.073512
#
# Coordination Sequence:
#
# PCOD9387793 Si02
#       7
#     8   8   8   4   1   1   4
#     4  10  21  45  66  90 131 169 207 269 326 380
#     4   9  20  39  59  86 126 170 214 263 315 371
#     4  10  21  37  63  91 125 168 207 258 323 374
#     4  10  25  45  69  94 126 170 211 262 325 391
#     4  12  26  48  68  96 136 172 200 282 332 366
#     4  12  26  48  68  96 136 164 208 266 332 382
#     4  12  25  43  69  98 126 170 221 259 320 401
#
# _framework density 20.244306000000002
#
# number of rings (size 3 to 8) (size 9 to 14) (size 15 to 20)
#    0.000    1.882    2.353    1.059    3.294    3.765 
#    0.000    3.529    0.000    0.000    0.000    0.000 
#    0.000    0.000    0.000    0.000    0.000    0.000 
#
# Total GULP energy -189289.125691 kJ/mol
# GULP energy per Si atom -5567.327226 kJ/mol
# Density = 2.019823 g / cm^3
# Si number density = 20.244306 Si / 1000 Ang^3
#
#
#
# Elastic Constant Matrix: (Units=GPa)
#
#
# Indices 1 2 3 4 5 6 
#
# 1 189.7937 46.9444 120.1729 0.0000 0.0000 0.0000
# 2 46.9444 83.5320 51.5145 0.0000 0.0000 0.0000
# 3 120.1729 51.5145 189.7614 0.0000 0.0000 0.0000
# 4 0.0000 0.0000 0.0000 44.4067 0.0000 0.0000
# 5 0.0000 0.0000 0.0000 0.0000 20.3485 0.0000
# 6 0.0000 0.0000 0.0000 0.0000 0.0000 27.2934
#
#
#
# Elastic Compliance Matrix: (Units=1/GPa)
#
#
# Indices 1 2 3 4 5 6 
#
# 1 0.009030 -0.001859 -0.005214 0.000000 0.000000 0.000000
# 2 -0.001859 0.014762 -0.002830 0.000000 0.000000 0.000000
# 3 -0.005214 -0.002830 0.009340 0.000000 0.000000 0.000000
# 4 0.000000 0.000000 0.000000 0.022519 0.000000 0.000000
# 5 0.000000 0.000000 0.000000 0.000000 0.049144 0.000000
# 6 0.000000 0.000000 0.000000 0.000000 0.000000 0.036639
#
#
# Mechanical properties :
#
#
# Convention : Reuss Voigt Hill
#
# Bulk Modulus (GPa) = 75.04474 100.03898 87.54186
# Shear Modulus (GPa) = 30.17847 34.70674 32.44261
#
# Velocity S-wave (km/s) = 3.86517 4.14502 4.00754
# Velocity P-wave (km/s) = 7.55443 8.51066 8.04676
#
# Compressibility (1/GPa) = 0.01332538
#
# Stress axis : x y z
#
# Youngs Moduli (GPa) = 110.74106 67.74343 107.06874
#
# Poissons Ratio (x) = 0.12597 0.55824
# Poissons Ratio (y) = 0.20592 0.30298
# Poissons Ratio (z) = 0.57738 0.19170
#
# Static dielectric constant tensor:
#      x y z
#    x 1.688570 0.000000 0.000000 
#    y 0.000000 1.758550 0.000000 
#    z 0.000000 0.000000 1.683480 
# 
# From -- ./inp_files/29210.got.cif
#   From: 2010.05.17/outbox.cif.g08.bks.cpg/sg47_15_cif.got.tgz:29210.got - 2010.06.03 20:15:42.
