data_PCOD9387665
_publ_section_title
;
Structure prediction by ZEFSAII (Michael W. Deem and Ramdas Pophale) SiO2 
 PCOD9387665
Probable space group: P M M M
;
_chemical_formula_sum "Si O2"
_cell_formula_units_Z 56
_cell_length_a 9.104190
_cell_length_b 14.615804
_cell_length_c 19.998694
_cell_angle_alpha 90.000000
_cell_angle_beta 90.000000
_cell_angle_gamma 90.000000
_cell_volume 2661.127349
_symmetry_space_group_name_H-M "P M M M"
_symmetry_group_IT_number 47
_symmetry_cell_setting 'orthorhombic'
loop_
_space_group_symop_operation_xyz
x,y,z
-x,-y,z
x,-y,-z
-x,y,-z
-x,-y,-z
x,y,-z
-x,y,z
x,-y,z
loop_
_atom_site_type_symbol
_atom_site_label
_atom_site_fract_x
_atom_site_fract_y
_atom_site_fract_z
Si Si1 0.676296 0.391484 0.921164
Si Si2 0.825871 0.709286 0.202154
Si Si3 0.672083 0.106073 0.794796
Si Si4 0.167420 0.280431 0.580251
Si Si5 0.664416 0.392039 0.684276
Si Si6 0.164729 0.890574 0.073528
Si Si7 0.666954 0.102262 0.581292
O O1 0.500000 0.379871 0.912453
O O2 0.708514 0.500000 0.907722
O O3 0.759588 0.325173 0.869192
O O4 0.710107 0.375092 0.000000
O O5 0.764573 0.807096 0.230115
O O6 0.769708 0.636835 0.256022
O O7 0.000000 0.711305 0.198946
O O8 0.500000 0.114847 0.779856
O O9 0.706522 0.120396 0.873662
O O10 0.715911 0.000000 0.778652
O O11 0.177611 0.286769 0.500000
O O12 0.276302 0.348757 0.616344
O O13 0.218277 0.178817 0.600688
O O14 0.000000 0.297826 0.600123
O O15 0.500000 0.358140 0.699302
O O16 0.661034 0.500000 0.678178
O O17 0.000000 0.859626 0.095495
O O18 0.152684 0.000000 0.067755
O O19 0.194155 0.852490 0.000000
O O20 0.665581 0.099712 0.500000
O O21 0.500000 0.124970 0.602366
O O22 0.701264 0.000000 0.605055
#
# Coordination Sequence:
#
# PCOD9387665 Si02
#       7
#     8   8   8   8   8   8   8
#     4   9  19  38  64  92 122 157 199 249 302 356
#     4  12  25  40  62  90 122 159 197 244 303 365
#     4  10  21  37  57  80 109 149 196 244 292 347
#     4  10  21  37  60  93 131 166 201 247 300 352
#     4  11  25  45  68  91 118 156 201 248 298 357
#     4   8  14  26  45  70 102 140 182 230 284 339
#     4   8  14  27  50  81 119 164 210 252 293 341
#
# _framework density 21.043714000000001
#
# number of rings (size 3 to 8) (size 9 to 14) (size 15 to 20)
#    0.000    2.286    0.000    4.286    0.000    6.571 
#    0.000    5.714    0.000    4.286    0.000    0.000 
#    0.000    0.000    0.000    0.000    0.000    0.000 
#
# Total GULP energy -312445.450724 kJ/mol
# GULP energy per Si atom -5579.383049 kJ/mol
# Density = 2.099582 g / cm^3
# Si number density = 21.043714 Si / 1000 Ang^3
#
#
#
# Elastic Constant Matrix: (Units=GPa)
#
#
# Indices 1 2 3 4 5 6 
#
# 1 87.2110 50.2986 26.1005 0.0000 0.0000 0.0000
# 2 50.2986 106.3975 20.9858 0.0000 0.0000 0.0000
# 3 26.1005 20.9858 51.1454 0.0000 0.0000 0.0000
# 4 0.0000 0.0000 0.0000 165.2856 0.0000 0.0000
# 5 0.0000 0.0000 0.0000 0.0000 20.3301 0.0000
# 6 0.0000 0.0000 0.0000 0.0000 0.0000 -20.9729
#
#
#
# Elastic Compliance Matrix: (Units=1/GPa)
#
#
# Indices 1 2 3 4 5 6 
#
# 1 0.017282 -0.006997 -0.005949 0.000000 0.000000 0.000000
# 2 -0.006997 0.013059 -0.001788 0.000000 0.000000 0.000000
# 3 -0.005949 -0.001788 0.023321 0.000000 0.000000 0.000000
# 4 0.000000 0.000000 0.000000 0.006050 0.000000 0.000000
# 5 0.000000 0.000000 0.000000 0.000000 0.049188 0.000000
# 6 0.000000 0.000000 0.000000 0.000000 0.000000 -0.047681
#
#
# Mechanical properties :
#
#
# Convention : Reuss Voigt Hill
#
# Bulk Modulus (GPa) = 41.32852 48.83599 45.08225
# Shear Modulus (GPa) = 50.63218 42.75315 46.69267
#
# Velocity S-wave (km/s) = 4.91047 4.51226 4.71557
# Velocity P-wave (km/s) = 7.19946 7.09962 7.14972
#
# Compressibility (1/GPa) = 0.02419637
#
# Stress axis : x y z
#
# Youngs Moduli (GPa) = 57.86365 76.57583 42.87928
#
# Poissons Ratio (x) = 0.53577 0.25507
# Poissons Ratio (y) = 0.40485 0.07666
# Poissons Ratio (z) = 0.34420 0.13690
#
# Static dielectric constant tensor:
#      x y z
#    x 1.730510 0.000000 0.000000 
#    y 0.000000 1.788880 0.000000 
#    z 0.000000 0.000000 1.824860 
# 
# From -- ./inp_files/29714.got.cif
#   From: 2010.05.17/outbox.cif.g08.bks.cpg/sg47_15_cif.got.tgz:29714.got - 2010.06.03 20:15:42.
