data_PCOD9387462
_publ_section_title
;
Structure prediction by ZEFSAII (Michael W. Deem and Ramdas Pophale) SiO2 
 PCOD9387462
Probable space group: P M M M
;
_chemical_formula_sum "Si O2"
_cell_formula_units_Z 44
_cell_length_a 13.115332
_cell_length_b 19.869091
_cell_length_c 7.561274
_cell_angle_alpha 90.000000
_cell_angle_beta 90.000000
_cell_angle_gamma 90.000000
_cell_volume 1970.390312
_symmetry_space_group_name_H-M "P M M M"
_symmetry_group_IT_number 47
_symmetry_cell_setting 'orthorhombic'
loop_
_space_group_symop_operation_xyz
x,y,z
-x,-y,z
x,-y,-z
-x,y,-z
-x,-y,-z
x,y,-z
-x,y,z
x,-y,z
loop_
_atom_site_type_symbol
_atom_site_label
_atom_site_fract_x
_atom_site_fract_y
_atom_site_fract_z
Si Si1 0.310815 0.337024 0.715918
Si Si2 0.500000 0.077494 0.207665
Si Si3 0.117076 0.422069 0.715599
Si Si4 0.113360 0.852459 0.702768
Si Si5 0.500000 0.575464 0.283706
Si Si6 0.878002 0.000000 0.197334
Si Si7 0.326732 0.812808 0.713360
O O1 0.306121 0.335461 0.500000
O O2 0.201025 0.367039 0.773303
O O3 0.397547 0.388202 0.772222
O O4 0.351328 0.263113 0.769182
O O5 0.402475 0.125577 0.246691
O O6 0.500000 0.000000 0.283763
O O7 0.500000 0.068532 0.000000
O O8 0.117778 0.421531 0.500000
O O9 0.141495 0.500000 0.766859
O O10 0.000000 0.407599 0.770356
O O11 0.106217 0.829193 0.500000
O O12 0.212085 0.820483 0.787124
O O13 0.000000 0.844631 0.781590
O O14 0.142793 0.931301 0.704083
O O15 0.500000 0.500000 0.223062
O O16 0.500000 0.576442 0.500000
O O17 0.000000 0.000000 0.179129
O O18 0.832308 0.000000 0.000000
O O19 0.321450 0.813294 0.500000
#
# Coordination Sequence:
#
# PCOD9387462 Si02
#       7
#     8   4   8   8   4   4   8
#     4   9  16  26  41  64  96 131 169 209 248 296
#     4  11  26  45  61  77  98 129 172 224 276 329
#     4   8  13  21  35  60 100 148 185 208 240 292
#     4   9  18  32  50  75 106 135 164 201 250 306
#     4   9  15  22  36  58  86 121 158 202 252 291
#     4   9  17  29  47  70  95 126 163 203 245 289
#     4  10  21  36  56  80 106 139 175 215 264 318
#
# _framework density 22.330601000000001
#
# number of rings (size 3 to 8) (size 9 to 14) (size 15 to 20)
#    0.000    2.818    0.000    2.182    1.273    6.909 
#    0.000    3.636    0.000    0.000    0.000    0.000 
#    0.000   13.091    0.000    2.000    0.000    2.182 
#
# Total GULP energy -245088.638964 kJ/mol
# GULP energy per Si atom -5570.196340 kJ/mol
# Density = 2.227978 g / cm^3
# Si number density = 22.330601 Si / 1000 Ang^3
#
#
#
# Elastic Constant Matrix: (Units=GPa)
#
#
# Indices 1 2 3 4 5 6 
#
# 1 151.1063 91.2496 8.5935 0.0000 0.0000 0.0000
# 2 91.2496 165.1467 5.1821 0.0000 0.0000 0.0000
# 3 8.5935 5.1821 57.5537 0.0000 0.0000 0.0000
# 4 0.0000 0.0000 0.0000 11.2161 0.0000 0.0000
# 5 0.0000 0.0000 0.0000 0.0000 -72.4282 0.0000
# 6 0.0000 0.0000 0.0000 0.0000 0.0000 14.9112
#
#
#
# Elastic Compliance Matrix: (Units=1/GPa)
#
#
# Indices 1 2 3 4 5 6 
#
# 1 0.009988 -0.005488 -0.000997 0.000000 0.000000 0.000000
# 2 -0.005488 0.009087 0.000001 0.000000 0.000000 0.000000
# 3 -0.000997 0.000001 0.017524 0.000000 0.000000 0.000000
# 4 0.000000 0.000000 0.000000 0.089158 0.000000 0.000000
# 5 0.000000 0.000000 0.000000 0.000000 -0.013807 0.000000
# 6 0.000000 0.000000 0.000000 0.000000 0.000000 0.067064
#
#
# Mechanical properties :
#
#
# Convention : Reuss Voigt Hill
#
# Bulk Modulus (GPa) = 42.31548 64.87302 53.59425
# Shear Modulus (GPa) = 25.01762 8.65859 16.83811
#
# Velocity S-wave (km/s) = 3.35076 1.97126 2.74895
# Velocity P-wave (km/s) = 5.82759 5.85623 5.84193
#
# Compressibility (1/GPa) = 0.02363201
#
# Stress axis : x y z
#
# Youngs Moduli (GPa) = 100.11548 110.04322 57.06501
#
# Poissons Ratio (x) = 0.60388 0.05691
# Poissons Ratio (y) = 0.54940 -0.00007
# Poissons Ratio (z) = 0.09985 -0.00013
#
# Static dielectric constant tensor:
#      x y z
#    x 1.831730 0.000000 0.000000 
#    y 0.000000 1.829150 0.000000 
#    z 0.000000 0.000000 1.863720 
# 
# From -- ./inp_files/6252.got.cif
#   From: 2010.05.17/outbox.cif.g08.bks.cpg/sg47_4_cif.got.tgz:6252.got - 2010.06.03 20:15:42.
