data_PCOD9387325
_publ_section_title
;
Structure prediction by ZEFSAII (Michael W. Deem and Ramdas Pophale) SiO2 
 PCOD9387325
Probable space group: P M M M
;
_chemical_formula_sum "Si O2"
_cell_formula_units_Z 56
_cell_length_a 13.795045
_cell_length_b 8.745151
_cell_length_c 24.942564
_cell_angle_alpha 90.000000
_cell_angle_beta 90.000000
_cell_angle_gamma 90.000000
_cell_volume 3009.064725
_symmetry_space_group_name_H-M "P M M M"
_symmetry_group_IT_number 47
_symmetry_cell_setting 'orthorhombic'
loop_
_space_group_symop_operation_xyz
x,y,z
-x,-y,z
x,-y,-z
-x,y,-z
-x,-y,-z
x,y,-z
-x,y,z
x,-y,z
loop_
_atom_site_type_symbol
_atom_site_label
_atom_site_fract_x
_atom_site_fract_y
_atom_site_fract_z
Si Si1 0.357047 0.179828 0.058557
Si Si2 0.000000 0.685716 0.735663
Si Si3 0.851672 0.681261 0.939963
Si Si4 0.885510 0.183747 0.439376
Si Si5 0.000000 0.815480 0.856021
Si Si6 0.614325 0.181110 0.720892
Si Si7 0.805793 0.317503 0.331753
Si Si8 0.612046 0.333311 0.170778
O O1 0.243626 0.216296 0.057872
O O2 0.388599 0.267402 0.111308
O O3 0.377082 0.000000 0.063633
O O4 0.393832 0.231432 0.000000
O O5 0.000000 0.758252 0.794924
O O6 0.900523 0.730953 0.704092
O O7 0.000000 0.500000 0.739823
O O8 0.830604 0.500000 0.932707
O O9 0.911869 0.744522 0.890322
O O10 0.895826 0.694333 0.000000
O O11 0.856344 0.227184 0.500000
O O12 0.828220 0.263706 0.391974
O O13 0.000000 0.219583 0.433596
O O14 0.875820 0.000000 0.434746
O O15 0.000000 0.000000 0.858274
O O16 0.500000 0.228498 0.710894
O O17 0.700984 0.254745 0.686572
O O18 0.645359 0.221935 0.782225
O O19 0.616011 0.000000 0.713799
O O20 0.802457 0.500000 0.328555
O O21 0.500000 0.352989 0.184038
O O22 0.661189 0.500000 0.172996
#
# Coordination Sequence:
#
# PCOD9387325 Si02
#       8
#     8   4   8   8   4   8   8   8
#     4  10  21  36  54  77 104 134 172 221 279 341
#     4  10  24  41  54  81 122 162 197 236 295 356
#     4  10  21  38  58  76  99 135 177 224 280 343
#     4   9  18  34  58  89 126 167 207 245 288 342
#     4  12  25  37  54  78 105 140 183 231 281 342
#     4  10  22  40  62  87 116 155 202 249 297 351
#     4  11  22  38  61  89 125 162 200 247 294 347
#     4  10  21  37  57  80 106 138 179 227 283 348
#
# _framework density 18.610433
#
# number of rings (size 3 to 8) (size 9 to 14) (size 15 to 20)
#    0.000    1.857    0.714    3.429    2.000    6.000 
#    0.000    2.143    0.000    0.429    0.000    3.000 
#    0.000    0.000    0.000    0.000    0.000    0.000 
#
# Total GULP energy -312049.488167 kJ/mol
# GULP energy per Si atom -5572.312289 kJ/mol
# Density = 1.856808 g / cm^3
# Si number density = 18.610433 Si / 1000 Ang^3
#
#
#
# Elastic Constant Matrix: (Units=GPa)
#
#
# Indices 1 2 3 4 5 6 
#
# 1 104.4004 30.9312 64.1142 0.0000 0.0000 0.0000
# 2 30.9312 58.2275 45.0441 0.0000 0.0000 0.0000
# 3 64.1142 45.0441 152.3092 0.0000 0.0000 0.0000
# 4 0.0000 0.0000 0.0000 24.4300 0.0000 0.0000
# 5 0.0000 0.0000 0.0000 0.0000 31.1641 0.0000
# 6 0.0000 0.0000 0.0000 0.0000 0.0000 23.3911
#
#
#
# Elastic Compliance Matrix: (Units=1/GPa)
#
#
# Indices 1 2 3 4 5 6 
#
# 1 0.013473 -0.003591 -0.004609 0.000000 0.000000 0.000000
# 2 -0.003591 0.023226 -0.005357 0.000000 0.000000 0.000000
# 3 -0.004609 -0.005357 0.010090 0.000000 0.000000 0.000000
# 4 0.000000 0.000000 0.000000 0.040933 0.000000 0.000000
# 5 0.000000 0.000000 0.000000 0.000000 0.032088 0.000000
# 6 0.000000 0.000000 0.000000 0.000000 0.000000 0.042751
#
#
# Mechanical properties :
#
#
# Convention : Reuss Voigt Hill
#
# Bulk Modulus (GPa) = 50.82928 66.12400 58.47664
# Shear Modulus (GPa) = 25.47952 27.45354 26.46653
#
# Velocity S-wave (km/s) = 3.70415 3.84496 3.77521
# Velocity P-wave (km/s) = 6.75765 7.43770 7.10581
#
# Compressibility (1/GPa) = 0.01967370
#
# Stress axis : x y z
#
# Youngs Moduli (GPa) = 74.22100 43.05520 99.10568
#
# Poissons Ratio (x) = 0.15463 0.45682
# Poissons Ratio (y) = 0.26656 0.53092
# Poissons Ratio (z) = 0.34212 0.23065
#
# Static dielectric constant tensor:
#      x y z
#    x 1.618910 0.000000 0.000000 
#    y 0.000000 1.645630 0.000000 
#    z 0.000000 0.000000 1.636020 
# 
# From -- ./inp_files/31058.got.cif
#   From: 2010.05.17/outbox.cif.g08.bks.cpg/sg47_16_cif.got.tgz:31058.got - 2010.06.03 20:15:42.
