data_PCOD9387547
_publ_section_title
;
Structure prediction by ZEFSAII (Michael W. Deem and Ramdas Pophale) SiO2 
 PCOD9387547
Probable space group: P M M M
;
_chemical_formula_sum "Si O2"
_cell_formula_units_Z 64
_cell_length_a 20.382236
_cell_length_b 20.382243
_cell_length_c 8.957341
_cell_angle_alpha 90.000000
_cell_angle_beta 90.000000
_cell_angle_gamma 90.000000
_cell_volume 3721.199112
_symmetry_space_group_name_H-M "P M M M"
_symmetry_group_IT_number 47
_symmetry_cell_setting 'orthorhombic'
loop_
_space_group_symop_operation_xyz
x,y,z
-x,-y,z
x,-y,-z
-x,y,-z
-x,-y,-z
x,y,-z
-x,y,z
x,-y,z
loop_
_atom_site_type_symbol
_atom_site_label
_atom_site_fract_x
_atom_site_fract_y
_atom_site_fract_z
Si Si1 0.424820 0.924820 0.679839
Si Si2 0.423980 0.423052 0.321116
Si Si3 0.822900 0.322900 0.678086
Si Si4 0.076948 0.076020 0.678884
Si Si5 0.324186 0.824186 0.178139
Si Si6 0.827430 0.181473 0.821240
Si Si7 0.318527 0.327430 0.178760
Si Si8 0.076815 0.576815 0.821913
O O1 0.422812 0.922812 0.500000
O O2 0.500000 0.910085 0.725459
O O3 0.373571 0.873571 0.744037
O O4 0.410084 0.000000 0.725459
O O5 0.416605 0.414772 0.500000
O O6 0.500000 0.408241 0.283705
O O7 0.412528 0.500000 0.287774
O O8 0.373451 0.376929 0.236384
O O9 0.819731 0.319731 0.500000
O O10 0.840659 0.251519 0.744753
O O11 0.751519 0.340659 0.744753
O O12 0.875770 0.375770 0.732122
O O13 0.085228 0.083394 0.500000
O O14 0.123071 0.126549 0.763616
O O15 0.000000 0.087472 0.712226
O O16 0.091759 0.000000 0.716295
O O17 0.247938 0.837060 0.216533
O O18 0.337060 0.747938 0.216533
O O19 0.330892 0.830891 0.000000
O O20 0.831405 0.189075 0.000000
O O21 0.310925 0.331405 0.000000
O O22 0.089573 0.500000 0.789791
O O23 0.000000 0.589573 0.789791
O O24 0.086448 0.586448 0.000000
#
# Coordination Sequence:
#
# PCOD9387547 Si02
#       8
#     8   8   8   8   8   8   8   8
#     4   9  19  35  53  75 103 134 170 210 251 301
#     4   9  19  36  56  79 108 140 176 219 264 312
#     4  11  22  36  56  80 107 140 178 220 265 314
#     4   9  19  36  56  79 108 140 176 219 264 312
#     4   9  20  36  52  74 103 134 170 212 257 304
#     4  10  21  37  55  77 107 140 176 219 264 314
#     4  10  21  37  55  77 107 140 176 219 264 314
#     4   9  19  37  59  81 107 140 176 214 259 313
#
# _framework density 17.198755999999999
#
# number of rings (size 3 to 8) (size 9 to 14) (size 15 to 20)
#    0.000    2.500    0.000    4.125    0.000    7.000 
#    0.000    7.500    0.000    0.000    0.000    0.000 
#    0.000    0.000    0.000    0.000    0.000    0.000 
#
# Total GULP energy -357140.562207 kJ/mol
# GULP energy per Si atom -5580.321284 kJ/mol
# Density = 1.715961 g / cm^3
# Si number density = 17.198756 Si / 1000 Ang^3
#
#
#
# Elastic Constant Matrix: (Units=GPa)
#
#
# Indices 1 2 3 4 5 6 
#
# 1 129.0762 120.2007 79.6451 0.0000 0.0000 0.0000
# 2 120.2007 129.0771 79.6454 0.0000 0.0000 0.0000
# 3 79.6451 79.6454 75.1967 0.0000 0.0000 0.0000
# 4 0.0000 0.0000 0.0000 34.6986 0.0000 0.0000
# 5 0.0000 0.0000 0.0000 0.0000 34.6986 0.0000
# 6 0.0000 0.0000 0.0000 0.0000 0.0000 42.2078
#
#
#
# Elastic Compliance Matrix: (Units=1/GPa)
#
#
# Indices 1 2 3 4 5 6 
#
# 1 0.062538 -0.050126 -0.013147 0.000000 0.000000 0.000000
# 2 -0.050126 0.062538 -0.013147 0.000000 0.000000 0.000000
# 3 -0.013147 -0.013147 0.041148 0.000000 0.000000 0.000000
# 4 0.000000 0.000000 0.000000 0.028820 0.000000 0.000000
# 5 0.000000 0.000000 0.000000 0.000000 0.028820 0.000000
# 6 0.000000 0.000000 0.000000 0.000000 0.000000 0.023692
#
#
# Mechanical properties :
#
#
# Convention : Reuss Voigt Hill
#
# Bulk Modulus (GPa) = 74.70858 99.14803 86.92830
# Shear Modulus (GPa) = 12.35007 25.91158 19.13083
#
# Velocity S-wave (km/s) = 2.68261 3.88570 3.33879
# Velocity P-wave (km/s) = 7.28888 8.82639 8.09422
#
# Compressibility (1/GPa) = 0.01338534
#
# Stress axis : x y z
#
# Youngs Moduli (GPa) = 15.99018 15.99030 24.30262
#
# Poissons Ratio (x) = 0.80152 0.31951
# Poissons Ratio (y) = 0.80152 0.31950
# Poissons Ratio (z) = 0.21022 0.21022
#
# Static dielectric constant tensor:
#      x y z
#    x 1.561290 0.000000 0.000000 
#    y 0.000000 1.561290 0.000000 
#    z 0.000000 0.000000 1.572940 
# 
# From -- ./inp_files/9994.got.cif
#   From: 2010.05.17/outbox.cif.g08.bks.cpg/sg47_5_cif.got.tgz:9994.got - 2010.06.03 20:15:42.
