data_PCOD9387638
_publ_section_title
;
Structure prediction by ZEFSAII (Michael W. Deem and Ramdas Pophale) SiO2 
 PCOD9387638
Probable space group: P M M M
;
_chemical_formula_sum "Si O2"
_cell_formula_units_Z 44
_cell_length_a 9.602262
_cell_length_b 7.699784
_cell_length_c 29.825558
_cell_angle_alpha 90.000000
_cell_angle_beta 90.000000
_cell_angle_gamma 90.000000
_cell_volume 2205.162870
_symmetry_space_group_name_H-M "P M M M"
_symmetry_group_IT_number 47
_symmetry_cell_setting 'orthorhombic'
loop_
_space_group_symop_operation_xyz
x,y,z
-x,-y,z
x,-y,-z
-x,y,-z
-x,-y,-z
x,y,-z
-x,y,z
x,-y,z
loop_
_atom_site_type_symbol
_atom_site_label
_atom_site_fract_x
_atom_site_fract_y
_atom_site_fract_z
Si Si1 0.338122 0.287427 0.353928
Si Si2 0.159874 0.712972 0.268256
Si Si3 0.156037 0.705698 0.000000
Si Si4 0.341906 0.706735 0.814973
Si Si5 0.668102 0.707604 0.548185
Si Si6 0.657514 0.793883 0.085276
O O1 0.500000 0.236157 0.347827
O O2 0.337698 0.500000 0.354775
O O3 0.243737 0.232215 0.312533
O O4 0.285939 0.227146 0.403043
O O5 0.159743 0.500000 0.268126
O O6 0.240982 0.773069 0.223780
O O7 0.000000 0.769019 0.268767
O O8 0.242404 0.752004 0.955697
O O9 0.143643 0.500000 0.000000
O O10 0.000000 0.781731 0.000000
O O11 0.500000 0.777534 0.811644
O O12 0.351261 0.500000 0.808233
O O13 0.292185 0.734626 0.865802
O O14 0.718579 0.778101 0.500000
O O15 0.500000 0.727725 0.548584
O O16 0.694922 0.500000 0.547612
O O17 0.500000 0.722632 0.078266
O O18 0.646893 0.000000 0.087276
#
# Coordination Sequence:
#
# PCOD9387638 Si02
#       6
#     8   8   4   8   8   8
#     4   8  12  18  29  44  63  90 126 169 216 264
#     4   9  16  24  35  53  77 104 136 178 224 266
#     4  11  24  39  56  80 108 137 168 199 230 268
#     4   9  17  30  48  68  90 118 152 188 226 270
#     4   7   9  13  22  37  56  80 116 163 210 255
#     4  10  21  37  57  80 104 130 161 197 238 283
#
# _framework density 19.953177
#
# number of rings (size 3 to 8) (size 9 to 14) (size 15 to 20)
#    0.000    3.182    0.000    3.273    0.000    5.818 
#    0.000    1.818    0.000    0.545    0.000    3.818 
#    0.000    0.000    0.000    0.000    0.000    0.909 
#
# Total GULP energy -245195.676908 kJ/mol
# GULP energy per Si atom -5572.629021 kJ/mol
# Density = 1.990776 g / cm^3
# Si number density = 19.953177 Si / 1000 Ang^3
#
#
#
# Elastic Constant Matrix: (Units=GPa)
#
#
# Indices 1 2 3 4 5 6 
#
# 1 100.5754 4.5241 121.0561 0.0000 0.0000 0.0000
# 2 4.5241 32.1996 2.3177 0.0000 0.0000 0.0000
# 3 121.0561 2.3177 247.0917 0.0000 0.0000 0.0000
# 4 0.0000 0.0000 0.0000 -43.1716 0.0000 0.0000
# 5 0.0000 0.0000 0.0000 0.0000 -5.7217 0.0000
# 6 0.0000 0.0000 0.0000 0.0000 0.0000 -1.1314
#
#
#
# Elastic Compliance Matrix: (Units=1/GPa)
#
#
# Indices 1 2 3 4 5 6 
#
# 1 0.024444 -0.002574 -0.011951 0.000000 0.000000 0.000000
# 2 -0.002574 0.031348 0.000967 0.000000 0.000000 0.000000
# 3 -0.011951 0.000967 0.009893 0.000000 0.000000 0.000000
# 4 0.000000 0.000000 0.000000 -0.023163 0.000000 0.000000
# 5 0.000000 0.000000 0.000000 0.000000 -0.174775 0.000000
# 6 0.000000 0.000000 0.000000 0.000000 0.000000 -0.883840
#
#
# Mechanical properties :
#
#
# Convention : Reuss Voigt Hill
#
# Bulk Modulus (GPa) = 25.92793 70.62915 48.27854
# Shear Modulus (GPa) = -5.12232 6.79300 0.83534
#
# Velocity S-wave (km/s) = -1.60398 1.84712 0.64773
# Velocity P-wave (km/s) = 3.09714 6.32641 4.98075
#
# Compressibility (1/GPa) = 0.03856845
#
# Stress axis : x y z
#
# Youngs Moduli (GPa) = 40.91033 31.89961 101.07865
#
# Poissons Ratio (x) = 0.08211 1.20803
# Poissons Ratio (y) = 0.10531 -0.09775
# Poissons Ratio (z) = 0.48894 -0.03085
#
# Static dielectric constant tensor:
#      x y z
#    x 1.702530 0.000000 0.000000 
#    y 0.000000 1.729000 0.000000 
#    z 0.000000 0.000000 1.383580 
# 
# From -- ./inp_files/13629.got.cif
#   From: 2010.05.17/outbox.cif.g08.bks.cpg/sg47_7_cif.got.tgz:13629.got - 2010.06.03 20:15:42.
