data_PCOD9387067
_publ_section_title
;
Structure prediction by ZEFSAII (Michael W. Deem and Ramdas Pophale) SiO2 
 PCOD9387067
Probable space group: P M M M
;
_chemical_formula_sum "Si O2"
_cell_formula_units_Z 48
_cell_length_a 7.504958
_cell_length_b 32.110483
_cell_length_c 9.878243
_cell_angle_alpha 90.000000
_cell_angle_beta 90.000000
_cell_angle_gamma 90.000000
_cell_volume 2380.536308
_symmetry_space_group_name_H-M "P M M M"
_symmetry_group_IT_number 47
_symmetry_cell_setting 'orthorhombic'
loop_
_space_group_symop_operation_xyz
x,y,z
-x,-y,z
x,-y,-z
-x,y,-z
-x,-y,-z
x,y,-z
-x,y,z
x,-y,z
loop_
_atom_site_type_symbol
_atom_site_label
_atom_site_fract_x
_atom_site_fract_y
_atom_site_fract_z
Si Si1 0.785930 0.710556 0.654189
Si Si2 0.288710 0.877040 0.152375
Si Si3 0.287117 0.195188 0.346143
Si Si4 0.214684 0.952555 0.652085
Si Si5 0.214296 0.455241 0.162400
Si Si6 0.218200 0.635725 0.842787
O O1 0.719033 0.706175 0.500000
O O2 0.744748 0.757480 0.699999
O O3 0.720595 0.674120 0.751947
O O4 0.000000 0.707052 0.649799
O O5 0.500000 0.869712 0.140659
O O6 0.215017 0.839381 0.243847
O O7 0.267336 0.919660 0.235186
O O8 0.215803 0.879068 0.000000
O O9 0.216451 0.190824 0.500000
O O10 0.500000 0.189512 0.354328
O O11 0.275189 0.940357 0.500000
O O12 0.000000 0.953311 0.649164
O O13 0.274982 0.000000 0.678077
O O14 0.282686 0.500000 0.214434
O O15 0.277424 0.409921 0.209913
O O16 0.000000 0.455731 0.181582
O O17 0.244114 0.454984 0.000000
O O18 0.000000 0.635386 0.841758
O O19 0.270760 0.640376 0.000000
#
# Coordination Sequence:
#
# PCOD9387067 Si02
#       6
#     8   8   8   8   8   8
#     4   9  17  28  42  61  84 109 138 175 219 262
#     4  10  21  35  51  74 102 128 155 191 236 281
#     4   9  18  33  50  65  85 117 154 187 220 263
#     4   9  19  36  56  77 101 130 164 198 229 265
#     4   7   9  14  26  45  69  98 132 166 198 238
#     4   8  13  21  34  53  77 105 136 169 206 251
#
# _framework density 20.163523000000001
#
# number of rings (size 3 to 8) (size 9 to 14) (size 15 to 20)
#    0.000    3.333    0.000    2.500    0.000    3.333 
#    0.000    4.167    0.000    0.500    0.000    3.500 
#    0.000    0.667    0.000    8.333    0.000    7.667 
#
# Total GULP energy -267495.906573 kJ/mol
# GULP energy per Si atom -5572.831387 kJ/mol
# Density = 2.011763 g / cm^3
# Si number density = 20.163523 Si / 1000 Ang^3
#
#
#
# Elastic Constant Matrix: (Units=GPa)
#
#
# Indices 1 2 3 4 5 6 
#
# 1 51.6818 -0.4269 5.3227 0.0000 0.0000 0.0000
# 2 -0.4269 196.1492 119.4499 0.0000 0.0000 0.0000
# 3 5.3227 119.4499 109.9563 0.0000 0.0000 0.0000
# 4 0.0000 0.0000 0.0000 29.0501 0.0000 0.0000
# 5 0.0000 0.0000 0.0000 0.0000 3.4865 0.0000
# 6 0.0000 0.0000 0.0000 0.0000 0.0000 21.8220
#
#
#
# Elastic Compliance Matrix: (Units=1/GPa)
#
#
# Indices 1 2 3 4 5 6 
#
# 1 0.019668 0.001840 -0.002951 0.000000 0.000000 0.000000
# 2 0.001840 0.015236 -0.016640 0.000000 0.000000 0.000000
# 3 -0.002951 -0.016640 0.027314 0.000000 0.000000 0.000000
# 4 0.000000 0.000000 0.000000 0.034423 0.000000 0.000000
# 5 0.000000 0.000000 0.000000 0.000000 0.286825 0.000000
# 6 0.000000 0.000000 0.000000 0.000000 0.000000 0.045825
#
#
# Mechanical properties :
#
#
# Convention : Reuss Voigt Hill
#
# Bulk Modulus (GPa) = 37.43081 67.38651 52.40866
# Shear Modulus (GPa) = 10.55525 26.43447 18.49486
#
# Velocity S-wave (km/s) = 2.29046 3.62471 3.03189
# Velocity P-wave (km/s) = 5.05953 7.14217 6.18908
#
# Compressibility (1/GPa) = 0.02671596
#
# Stress axis : x y z
#
# Youngs Moduli (GPa) = 50.84340 65.63616 36.61120
#
# Poissons Ratio (x) = -0.12074 0.10802
# Poissons Ratio (y) = -0.09353 0.60921
# Poissons Ratio (z) = 0.15001 1.09219
#
# Static dielectric constant tensor:
#      x y z
#    x 1.786070 0.000000 0.000000 
#    y 0.000000 1.725220 0.000000 
#    z 0.000000 0.000000 1.697420 
# 
# From -- ./inp_files/2489.got.cif
#   From: 2010.05.17/outbox.cif.g08.bks.cpg/sg47_2_cif.got.tgz:2489.got - 2010.06.03 20:15:42.
