data_PCOD9387753
_publ_section_title
;
Structure prediction by ZEFSAII (Michael W. Deem and Ramdas Pophale) SiO2 
 PCOD9387753
Probable space group: P M M M
;
_chemical_formula_sum "Si O2"
_cell_formula_units_Z 44
_cell_length_a 15.177717
_cell_length_b 14.190121
_cell_length_c 11.241342
_cell_angle_alpha 90.000000
_cell_angle_beta 90.000000
_cell_angle_gamma 90.000000
_cell_volume 2421.088753
_symmetry_space_group_name_H-M "P M M M"
_symmetry_group_IT_number 47
_symmetry_cell_setting 'orthorhombic'
loop_
_space_group_symop_operation_xyz
x,y,z
-x,-y,z
x,-y,-z
-x,y,-z
-x,-y,-z
x,y,-z
-x,y,z
x,-y,z
loop_
_atom_site_type_symbol
_atom_site_label
_atom_site_fract_x
_atom_site_fract_y
_atom_site_fract_z
Si Si1 0.392737 0.892737 0.500000
Si Si2 0.598760 0.256150 0.697136
Si Si3 0.150107 0.891038 0.136429
Si Si4 0.897434 0.236632 0.362733
Si Si5 0.362677 0.899164 0.863172
Si Si6 0.750107 0.607355 0.641865
O O1 0.500000 0.897669 0.500000
O O2 0.366121 0.826903 0.609811
O O3 0.359398 0.000000 0.500000
O O4 0.500000 0.283916 0.660031
O O5 0.596562 0.196227 0.816047
O O6 0.665774 0.341677 0.698521
O O7 0.116938 0.834212 0.251738
O O8 0.256672 0.891163 0.144736
O O9 0.120993 0.000000 0.144169
O O10 0.127747 0.857884 0.000000
O O11 0.877681 0.201872 0.500000
O O12 0.834240 0.325776 0.340172
O O13 0.000000 0.263532 0.362871
O O14 0.389198 0.000000 0.804291
O O15 0.385550 0.906508 0.000000
O O16 0.733518 0.605923 0.500000
O O17 0.762867 0.500000 0.681982
#
# Coordination Sequence:
#
# PCOD9387753 Si02
#       6
#     4   8   8   8   8   8
#     4   9  18  30  45  73 110 141 171 211 259 315
#     4  11  20  32  52  79 110 142 180 223 269 323
#     4   9  18  34  57  84 116 155 192 223 265 331
#     4  10  21  37  58  85 114 143 182 232 284 334
#     4   9  18  33  53  78 109 147 189 225 261 316
#     4  10  21  38  58  79 106 141 183 231 284 336
#
# _framework density 18.173641
#
# number of rings (size 3 to 8) (size 9 to 14) (size 15 to 20)
#    0.000    2.273    2.727    1.636    0.000    3.273 
#    0.000    5.455    0.000    2.182    0.000    2.545 
#    0.000    0.000    0.000    0.000    0.000    0.000 
#
# Total GULP energy -245053.081775 kJ/mol
# GULP energy per Si atom -5569.388222 kJ/mol
# Density = 1.813228 g / cm^3
# Si number density = 18.173641 Si / 1000 Ang^3
#
#
#
# Elastic Constant Matrix: (Units=GPa)
#
#
# Indices 1 2 3 4 5 6 
#
# 1 80.8446 45.6901 35.0436 0.0000 0.0000 0.0000
# 2 45.6901 113.3173 58.8574 0.0000 0.0000 0.0000
# 3 35.0436 58.8574 89.8164 0.0000 0.0000 0.0000
# 4 0.0000 0.0000 0.0000 12.7254 0.0000 0.0000
# 5 0.0000 0.0000 0.0000 0.0000 11.8376 0.0000
# 6 0.0000 0.0000 0.0000 0.0000 0.0000 -14.6161
#
#
#
# Elastic Compliance Matrix: (Units=1/GPa)
#
#
# Indices 1 2 3 4 5 6 
#
# 1 0.016594 -0.005045 -0.003168 0.000000 0.000000 0.000000
# 2 -0.005045 0.014912 -0.007804 0.000000 0.000000 0.000000
# 3 -0.003168 -0.007804 0.017484 0.000000 0.000000 0.000000
# 4 0.000000 0.000000 0.000000 0.078583 0.000000 0.000000
# 5 0.000000 0.000000 0.000000 0.000000 0.084476 0.000000
# 6 0.000000 0.000000 0.000000 0.000000 0.000000 -0.068418
#
#
# Mechanical properties :
#
#
# Convention : Reuss Voigt Hill
#
# Bulk Modulus (GPa) = 58.97684 62.57338 60.77511
# Shear Modulus (GPa) = 27.57586 11.61520 19.59553
#
# Velocity S-wave (km/s) = 3.89955 2.53083 3.28722
# Velocity P-wave (km/s) = 7.26620 6.56093 6.92255
#
# Compressibility (1/GPa) = 0.01695581
#
# Stress axis : x y z
#
# Youngs Moduli (GPa) = 60.26227 67.05896 57.19575
#
# Poissons Ratio (x) = 0.33832 0.18122
# Poissons Ratio (y) = 0.30403 0.44634
# Poissons Ratio (z) = 0.19093 0.52330
#
# Static dielectric constant tensor:
#      x y z
#    x 1.670040 0.000000 0.000000 
#    y 0.000000 1.601400 0.000000 
#    z 0.000000 0.000000 1.759990 
# 
# From -- ./inp_files/18411.got.cif
#   From: 2010.05.17/outbox.cif.g08.bks.cpg/sg47_10_cif.got.tgz:18411.got - 2010.06.03 20:15:42.
