data_PCOD9387201
_publ_section_title
;
Structure prediction by ZEFSAII (Michael W. Deem and Ramdas Pophale) SiO2 
 PCOD9387201
Probable space group: P M M M
;
_chemical_formula_sum "Si O2"
_cell_formula_units_Z 44
_cell_length_a 9.939097
_cell_length_b 14.456542
_cell_length_c 16.573884
_cell_angle_alpha 90.000000
_cell_angle_beta 90.000000
_cell_angle_gamma 90.000000
_cell_volume 2381.418079
_symmetry_space_group_name_H-M "P M M M"
_symmetry_group_IT_number 47
_symmetry_cell_setting 'orthorhombic'
loop_
_space_group_symop_operation_xyz
x,y,z
-x,-y,z
x,-y,-z
-x,y,-z
-x,-y,-z
x,y,-z
-x,y,z
x,-y,z
loop_
_atom_site_type_symbol
_atom_site_label
_atom_site_fract_x
_atom_site_fract_y
_atom_site_fract_z
Si Si1 0.647135 0.500000 0.405231
Si Si2 0.500000 0.388801 0.903129
Si Si3 0.000000 0.607576 0.905131
Si Si4 0.843766 0.136152 0.408158
Si Si5 0.659936 0.105125 0.748515
Si Si6 0.243610 0.291551 0.823974
Si Si7 0.152087 0.656764 0.355437
O O1 0.500000 0.500000 0.365410
O O2 0.630518 0.500000 0.500000
O O3 0.735167 0.412047 0.384305
O O4 0.500000 0.500000 0.895264
O O5 0.373391 0.344248 0.857668
O O6 0.500000 0.368157 0.000000
O O7 0.873663 0.670591 0.880919
O O8 0.000000 0.500000 0.870868
O O9 0.000000 0.595951 0.000000
O O10 0.809094 0.107668 0.500000
O O11 0.742444 0.107786 0.336465
O O12 0.843275 0.247438 0.403583
O O13 0.000000 0.108122 0.391889
O O14 0.500000 0.124493 0.735279
O O15 0.719979 0.183409 0.808397
O O16 0.671769 0.000000 0.779889
O O17 0.189912 0.322056 0.736497
O O18 0.000000 0.619680 0.361111
#
# Coordination Sequence:
#
# PCOD9387201 Si02
#       7
#     4   4   4   8   8   8   8
#     4  11  25  37  49  77 114 155 204 255 298 345
#     4  11  24  40  63  95 127 158 196 244 303 366
#     4  11  24  42  67  97 131 162 192 240 305 372
#     4   9  19  36  57  84 116 151 200 258 311 360
#     4  10  22  40  61  88 121 164 211 255 307 357
#     4  11  22  40  63  92 124 162 201 247 300 361
#     4  10  21  35  56  80 110 158 201 245 297 360
#
# _framework density 18.476386000000002
#
# number of rings (size 3 to 8) (size 9 to 14) (size 15 to 20)
#    0.000    1.727    1.818    1.909    5.091    4.727 
#    0.000    1.818    0.000    3.273    0.000    0.000 
#    0.000    0.000    0.000    0.000    0.000    0.000 
#
# Total GULP energy -245255.680824 kJ/mol
# GULP energy per Si atom -5573.992746 kJ/mol
# Density = 1.843433 g / cm^3
# Si number density = 18.476386 Si / 1000 Ang^3
#
#
#
# Elastic Constant Matrix: (Units=GPa)
#
#
# Indices 1 2 3 4 5 6 
#
# 1 161.7991 73.9073 30.0997 0.0000 0.0000 0.0000
# 2 73.9073 137.1808 41.3222 0.0000 0.0000 0.0000
# 3 30.0997 41.3222 73.6305 0.0000 0.0000 0.0000
# 4 0.0000 0.0000 0.0000 39.3104 0.0000 0.0000
# 5 0.0000 0.0000 0.0000 0.0000 35.8363 0.0000
# 6 0.0000 0.0000 0.0000 0.0000 0.0000 21.4389
#
#
#
# Elastic Compliance Matrix: (Units=1/GPa)
#
#
# Indices 1 2 3 4 5 6 
#
# 1 0.008266 -0.004134 -0.001059 0.000000 0.000000 0.000000
# 2 -0.004134 0.010841 -0.004394 0.000000 0.000000 0.000000
# 3 -0.001059 -0.004394 0.016480 0.000000 0.000000 0.000000
# 4 0.000000 0.000000 0.000000 0.025439 0.000000 0.000000
# 5 0.000000 0.000000 0.000000 0.000000 0.027905 0.000000
# 6 0.000000 0.000000 0.000000 0.000000 0.000000 0.046644
#
#
# Mechanical properties :
#
#
# Convention : Reuss Voigt Hill
#
# Bulk Modulus (GPa) = 60.92863 73.69653 67.31258
# Shear Modulus (GPa) = 31.20734 34.46922 32.83828
#
# Velocity S-wave (km/s) = 4.11425 4.32392 4.22039
# Velocity P-wave (km/s) = 7.45771 8.05617 7.76271
#
# Compressibility (1/GPa) = 0.01641265
#
# Stress axis : x y z
#
# Youngs Moduli (GPa) = 120.97707 92.24568 60.67974
#
# Poissons Ratio (x) = 0.38139 0.06425
# Poissons Ratio (y) = 0.50017 0.26661
# Poissons Ratio (z) = 0.12809 0.40530
#
# Static dielectric constant tensor:
#      x y z
#    x 1.719230 0.000000 0.000000 
#    y 0.000000 1.655200 0.000000 
#    z 0.000000 0.000000 1.617080 
# 
# From -- ./inp_files/26412.got.cif
#   From: 2010.05.17/outbox.cif.g08.bks.cpg/sg47_14_cif.got.tgz:26412.got - 2010.06.03 20:15:42.
