data_PCOD9387905
_publ_section_title
;
Structure prediction by ZEFSAII (Michael W. Deem and Ramdas Pophale) SiO2 
 PCOD9387905
Probable space group: P M M M
;
_chemical_formula_sum "Si O2"
_cell_formula_units_Z 37
_cell_length_a 12.617565
_cell_length_b 19.991449
_cell_length_c 8.347395
_cell_angle_alpha 90.000000
_cell_angle_beta 90.000000
_cell_angle_gamma 90.000000
_cell_volume 2105.575356
_symmetry_space_group_name_H-M "P M M M"
_symmetry_group_IT_number 47
_symmetry_cell_setting 'orthorhombic'
loop_
_space_group_symop_operation_xyz
x,y,z
-x,-y,z
x,-y,-z
-x,y,-z
-x,-y,-z
x,y,-z
-x,y,z
x,-y,z
loop_
_atom_site_type_symbol
_atom_site_label
_atom_site_fract_x
_atom_site_fract_y
_atom_site_fract_z
Si Si1 0.500000 0.379523 0.252466
Si Si2 0.124954 0.331835 0.500000
Si Si3 0.124725 0.758688 0.816153
Si Si4 0.500000 0.500000 0.000000
Si Si5 0.325161 0.580153 0.500000
Si Si6 0.500000 0.234438 0.685935
Si Si7 0.314026 0.856913 0.187149
Si Si8 0.376428 0.000000 0.691885
O O1 0.607603 0.390873 0.352624
O O2 0.500000 0.301401 0.207013
O O3 0.500000 0.440619 0.133516
O O4 0.145320 0.290105 0.335321
O O5 0.206070 0.393156 0.500000
O O6 0.000000 0.349663 0.500000
O O7 0.199552 0.822812 0.795455
O O8 0.000000 0.775045 0.809720
O O9 0.145507 0.732360 0.000000
O O10 0.330526 0.500000 0.500000
O O11 0.500000 0.255935 0.500000
O O12 0.398175 0.188954 0.719815
O O13 0.322180 0.932541 0.246729
O O14 0.343195 0.855287 0.000000
O O15 0.500000 0.000000 0.744754
O O16 0.375602 0.000000 0.500000
#
# Coordination Sequence:
#
# PCOD9387905 Si02
#       8
#     4   4   8   1   4   4   8   4
#     4  11  23  39  60  85 120 159 193 249 294 364
#     4  10  21  38  64  89 117 162 197 244 311 362
#     4   9  20  39  61  88 118 149 197 253 302 358
#     4  12  24  42  60  88 126 164 212 228 320 376
#     4  11  20  41  57  83 117 158 193 237 299 357
#     4  12  23  36  59  87 119 150 201 248 295 358
#     4  11  23  37  58  88 117 157 198 250 303 358
#     4  11  23  39  56  77 119 167 199 238 302 364
#
# _framework density 17.572393000000002
#
# number of rings (size 3 to 8) (size 9 to 14) (size 15 to 20)
#    0.000    1.405    3.243    2.919    4.541    0.649 
#    1.946    0.541    0.000    3.243    0.000    3.784 
#    0.000    0.000    0.000    0.000    0.000    0.000 
#
# Total GULP energy -206107.814314 kJ/mol
# GULP energy per Si atom -5570.481468 kJ/mol
# Density = 1.753240 g / cm^3
# Si number density = 17.572393 Si / 1000 Ang^3
#
#
#
# Elastic Constant Matrix: (Units=GPa)
#
#
# Indices 1 2 3 4 5 6 
#
# 1 62.4263 38.4345 22.1367 0.0000 0.0000 0.0000
# 2 38.4345 123.2571 24.1196 0.0000 0.0000 0.0000
# 3 22.1367 24.1196 77.3187 0.0000 0.0000 0.0000
# 4 0.0000 0.0000 0.0000 29.3709 0.0000 0.0000
# 5 0.0000 0.0000 0.0000 0.0000 -9.6784 0.0000
# 6 0.0000 0.0000 0.0000 0.0000 0.0000 15.2845
#
#
#
# Elastic Compliance Matrix: (Units=1/GPa)
#
#
# Indices 1 2 3 4 5 6 
#
# 1 0.021053 -0.005735 -0.004238 0.000000 0.000000 0.000000
# 2 -0.005735 0.010203 -0.001541 0.000000 0.000000 0.000000
# 3 -0.004238 -0.001541 0.014628 0.000000 0.000000 0.000000
# 4 0.000000 0.000000 0.000000 0.034047 0.000000 0.000000
# 5 0.000000 0.000000 0.000000 0.000000 -0.103323 0.000000
# 6 0.000000 0.000000 0.000000 0.000000 0.000000 0.065426
#
#
# Mechanical properties :
#
#
# Convention : Reuss Voigt Hill
#
# Bulk Modulus (GPa) = 43.75513 48.04264 45.89888
# Shear Modulus (GPa) = 68.79342 18.88281 43.83812
#
# Velocity S-wave (km/s) = 6.26367 3.28162 5.00013
# Velocity P-wave (km/s) = 8.79007 6.46204 7.71438
#
# Compressibility (1/GPa) = 0.02285446
#
# Stress axis : x y z
#
# Youngs Moduli (GPa) = 47.49912 98.00964 68.36394
#
# Poissons Ratio (x) = 0.56213 0.28975
# Poissons Ratio (y) = 0.27243 0.10533
# Poissons Ratio (z) = 0.20132 0.15101
#
# Static dielectric constant tensor:
#      x y z
#    x 1.582130 0.000000 0.000000 
#    y 0.000000 1.565550 0.000000 
#    z 0.000000 0.000000 1.467660 
# 
# From -- ./inp_files/3820.got.cif
#   From: 2010.05.17/outbox.cif.g08.bks.cpg/sg47_2_cif.got.tgz:3820.got - 2010.06.03 20:15:42.
