data_PCOD9387355
_publ_section_title
;
Structure prediction by ZEFSAII (Michael W. Deem and Ramdas Pophale) SiO2 
 PCOD9387355
Probable space group: P M M M
;
_chemical_formula_sum "Si O2"
_cell_formula_units_Z 44
_cell_length_a 9.658543
_cell_length_b 7.890540
_cell_length_c 28.844699
_cell_angle_alpha 90.000000
_cell_angle_beta 90.000000
_cell_angle_gamma 90.000000
_cell_volume 2198.286813
_symmetry_space_group_name_H-M "P M M M"
_symmetry_group_IT_number 47
_symmetry_cell_setting 'orthorhombic'
loop_
_space_group_symop_operation_xyz
x,y,z
-x,-y,z
x,-y,-z
-x,y,-z
-x,-y,-z
x,y,-z
-x,y,z
x,-y,z
loop_
_atom_site_type_symbol
_atom_site_label
_atom_site_fract_x
_atom_site_fract_y
_atom_site_fract_z
Si Si1 0.843307 0.202959 0.361268
Si Si2 0.658876 0.207817 0.000000
Si Si3 0.842127 0.298170 0.809140
Si Si4 0.342760 0.295330 0.447188
Si Si5 0.343415 0.202382 0.723034
Si Si6 0.158028 0.795607 0.086419
O O1 0.766630 0.236145 0.409568
O O2 0.748856 0.271341 0.319351
O O3 0.000000 0.270486 0.360271
O O4 0.851980 0.000000 0.355394
O O5 0.740761 0.263736 0.045910
O O6 0.500000 0.262534 0.000000
O O7 0.659483 0.000000 0.000000
O O8 0.846623 0.500000 0.804905
O O9 0.737364 0.231597 0.770799
O O10 0.800164 0.254020 0.861634
O O11 0.000000 0.232117 0.802060
O O12 0.312821 0.240012 0.500000
O O13 0.500000 0.239586 0.435367
O O14 0.342914 0.500000 0.447148
O O15 0.500000 0.270866 0.723537
O O16 0.353439 0.000000 0.716474
O O17 0.000000 0.735060 0.078951
O O18 0.155371 0.000000 0.084401
#
# Coordination Sequence:
#
# PCOD9387355 Si02
#       6
#     8   4   8   8   8   8
#     4  10  21  36  55  80 108 137 172 216 263 310
#     4   9  17  29  48  75 102 128 166 215 258 299
#     4  10  21  36  54  78 107 138 173 213 259 311
#     4   9  19  36  56  78 106 141 179 216 256 306
#     4  10  21  37  57  79 103 135 175 216 260 311
#     4   9  17  31  52  75 100 133 171 210 254 304
#
# _framework density 20.015588000000001
#
# number of rings (size 3 to 8) (size 9 to 14) (size 15 to 20)
#    0.000    2.455    0.000    2.455    0.000    6.909 
#    0.000    5.000    0.000    2.727    0.000    0.000 
#    0.000    0.000    0.000    0.000    0.000    0.000 
#
# Total GULP energy -245654.209963 kJ/mol
# GULP energy per Si atom -5583.050226 kJ/mol
# Density = 1.997003 g / cm^3
# Si number density = 20.015588 Si / 1000 Ang^3
#
#
#
# Elastic Constant Matrix: (Units=GPa)
#
#
# Indices 1 2 3 4 5 6 
#
# 1 185.7943 10.5705 140.7810 0.0000 0.0000 0.0000
# 2 10.5705 17.9517 -0.1069 0.0000 0.0000 0.0000
# 3 140.7810 -0.1069 161.9879 0.0000 0.0000 0.0000
# 4 0.0000 0.0000 0.0000 63.2157 0.0000 0.0000
# 5 0.0000 0.0000 0.0000 0.0000 47.5586 0.0000
# 6 0.0000 0.0000 0.0000 0.0000 0.0000 16.2773
#
#
#
# Elastic Compliance Matrix: (Units=1/GPa)
#
#
# Indices 1 2 3 4 5 6 
#
# 1 0.017510 -0.010401 -0.015225 0.000000 0.000000 0.000000
# 2 -0.010401 0.061884 0.009080 0.000000 0.000000 0.000000
# 3 -0.015225 0.009080 0.019411 0.000000 0.000000 0.000000
# 4 0.000000 0.000000 0.000000 0.015819 0.000000 0.000000
# 5 0.000000 0.000000 0.000000 0.000000 0.021027 0.000000
# 6 0.000000 0.000000 0.000000 0.000000 0.000000 0.061435
#
#
# Mechanical properties :
#
#
# Convention : Reuss Voigt Hill
#
# Bulk Modulus (GPa) = 15.21755 74.24698 44.73227
# Shear Modulus (GPa) = 19.83489 39.70959 29.77224
#
# Velocity S-wave (km/s) = 3.15139 4.45897 3.86093
# Velocity P-wave (km/s) = 4.56738 7.98029 6.50177
#
# Compressibility (1/GPa) = 0.06571360
#
# Stress axis : x y z
#
# Youngs Moduli (GPa) = 57.10976 16.15936 51.51778
#
# Poissons Ratio (x) = 0.16808 0.78434
# Poissons Ratio (y) = 0.59401 -0.46780
# Poissons Ratio (z) = 0.86948 -0.14673
#
# Static dielectric constant tensor:
#      x y z
#    x 1.703470 0.000000 0.000000 
#    y 0.000000 1.724580 0.000000 
#    z 0.000000 0.000000 1.671170 
# 
# From -- ./inp_files/2277.got.cif
#   From: 2010.05.17/outbox.cif.g08.bks.cpg/sg47_2_cif.got.tgz:2277.got - 2010.06.03 20:15:42.
