data_PCOD9387983
_publ_section_title
;
Structure prediction by ZEFSAII (Michael W. Deem and Ramdas Pophale) SiO2 
 PCOD9387983
Probable space group: P M M M
;
_chemical_formula_sum "Si O2"
_cell_formula_units_Z 48
_cell_length_a 7.886258
_cell_length_b 14.630586
_cell_length_c 19.283317
_cell_angle_alpha 90.000000
_cell_angle_beta 90.000000
_cell_angle_gamma 90.000000
_cell_volume 2224.920220
_symmetry_space_group_name_H-M "P M M M"
_symmetry_group_IT_number 47
_symmetry_cell_setting 'orthorhombic'
loop_
_space_group_symop_operation_xyz
x,y,z
-x,-y,z
x,-y,-z
-x,y,-z
-x,-y,-z
x,y,-z
-x,y,z
x,-y,z
loop_
_atom_site_type_symbol
_atom_site_label
_atom_site_fract_x
_atom_site_fract_y
_atom_site_fract_z
Si Si1 0.204994 0.898172 0.918853
Si Si2 0.794018 0.895522 0.348849
Si Si3 0.297186 0.711233 0.287601
Si Si4 0.805575 0.888746 0.500000
Si Si5 0.698254 0.293020 0.137844
Si Si6 0.293506 0.392417 0.576329
Si Si7 0.800399 0.600832 0.000000
O O1 0.273651 0.814481 0.875228
O O2 0.000000 0.894881 0.916270
O O3 0.258088 0.000000 0.896671
O O4 0.253352 0.886708 0.000000
O O5 0.736142 0.818974 0.296059
O O6 0.728068 0.865864 0.425604
O O7 0.000000 0.896047 0.351729
O O8 0.741019 0.000000 0.334709
O O9 0.500000 0.696516 0.287500
O O10 0.227452 0.680375 0.212903
O O11 0.228918 0.661199 0.356361
O O12 0.000000 0.855652 0.500000
O O13 0.812637 0.000000 0.500000
O O14 0.500000 0.311272 0.141497
O O15 0.760053 0.344663 0.069823
O O16 0.236093 0.358870 0.500000
O O17 0.500000 0.386570 0.576187
O O18 0.251515 0.500000 0.581670
O O19 0.719916 0.500000 0.000000
O O20 0.000000 0.591102 0.000000
#
# Coordination Sequence:
#
# PCOD9387983 Si02
#       7
#     8   8   8   4   8   8   4
#     4   9  18  34  58  85 112 147 190 233 276 325
#     4   9  18  33  52  75 107 151 197 234 274 328
#     4  10  22  35  52  84 118 146 180 228 282 330
#     4   7  12  26  47  69  96 135 188 240 275 313
#     4  11  23  38  57  86 122 152 183 228 282 341
#     4   8  15  31  55  79 104 139 183 227 272 326
#     4  11  25  45  68  89 110 143 187 232 278 333
#
# _framework density 21.573808
#
# number of rings (size 3 to 8) (size 9 to 14) (size 15 to 20)
#    0.000    2.667    0.833    2.750    1.167    4.000 
#    0.000    5.833    0.000    2.000    0.000    1.167 
#    0.000    0.000    0.000    0.000    0.000    0.000 
#
# Total GULP energy -267812.922775 kJ/mol
# GULP energy per Si atom -5579.435891 kJ/mol
# Density = 2.152471 g / cm^3
# Si number density = 21.573808 Si / 1000 Ang^3
#
#
#
# Elastic Constant Matrix: (Units=GPa)
#
#
# Indices 1 2 3 4 5 6 
#
# 1 23.2214 2.1479 18.3448 0.0000 0.0000 0.0000
# 2 2.1479 88.1671 84.8427 0.0000 0.0000 0.0000
# 3 18.3448 84.8427 197.6052 0.0000 0.0000 0.0000
# 4 0.0000 0.0000 0.0000 5.6277 0.0000 0.0000
# 5 0.0000 0.0000 0.0000 0.0000 -2.0874 0.0000
# 6 0.0000 0.0000 0.0000 0.0000 0.0000 8.3254
#
#
#
# Elastic Compliance Matrix: (Units=1/GPa)
#
#
# Indices 1 2 3 4 5 6 
#
# 1 0.047883 0.005302 -0.006722 0.000000 0.000000 0.000000
# 2 0.005302 0.019915 -0.009043 0.000000 0.000000 0.000000
# 3 -0.006722 -0.009043 0.009567 0.000000 0.000000 0.000000
# 4 0.000000 0.000000 0.000000 0.177693 0.000000 0.000000
# 5 0.000000 0.000000 0.000000 0.000000 -0.479059 0.000000
# 6 0.000000 0.000000 0.000000 0.000000 0.000000 0.120115
#
#
# Mechanical properties :
#
#
# Convention : Reuss Voigt Hill
#
# Bulk Modulus (GPa) = 17.71796 57.74048 37.72922
# Shear Modulus (GPa) = -77.94437 15.95034 -30.99701
#
# Velocity S-wave (km/s) = -6.01728 2.72203 -3.79461
# Velocity P-wave (km/s) = 6.32821 6.05818 1.29320
#
# Compressibility (1/GPa) = 0.05643992
#
# Stress axis : x y z
#
# Youngs Moduli (GPa) = 20.88406 50.21449 104.52527
#
# Poissons Ratio (x) = -0.26621 0.70257
# Poissons Ratio (y) = -0.11072 0.94518
# Poissons Ratio (z) = 0.14037 0.45407
#
# Static dielectric constant tensor:
#      x y z
#    x 1.778600 0.000000 0.000000 
#    y 0.000000 1.720340 0.000000 
#    z 0.000000 0.000000 1.878960 
# 
# From -- ./inp_files/26558.got.cif
#   From: 2010.05.17/outbox.cif.g08.bks.cpg/sg47_14_cif.got.tgz:26558.got - 2010.06.03 20:15:42.
