data_PCOD9387287
_publ_section_title
;
Structure prediction by ZEFSAII (Michael W. Deem and Ramdas Pophale) SiO2 
 PCOD9387287
Probable space group: P M M M
;
_chemical_formula_sum "Si O2"
_cell_formula_units_Z 44
_cell_length_a 31.021550
_cell_length_b 9.415408
_cell_length_c 7.665050
_cell_angle_alpha 90.000000
_cell_angle_beta 90.000000
_cell_angle_gamma 90.000000
_cell_volume 2238.812020
_symmetry_space_group_name_H-M "P M M M"
_symmetry_group_IT_number 47
_symmetry_cell_setting 'orthorhombic'
loop_
_space_group_symop_operation_xyz
x,y,z
-x,-y,z
x,-y,-z
-x,y,-z
-x,-y,-z
x,y,-z
-x,y,z
x,-y,z
loop_
_atom_site_type_symbol
_atom_site_label
_atom_site_fract_x
_atom_site_fract_y
_atom_site_fract_z
Si Si1 0.048419 0.337906 0.789581
Si Si2 0.702004 0.161872 0.790064
Si Si3 0.212719 0.660515 0.709030
Si Si4 0.867962 0.840179 0.707971
Si Si5 0.548952 0.672298 0.500000
Si Si6 0.616380 0.330300 0.206370
O O1 0.057235 0.500000 0.730651
O O2 0.086084 0.233304 0.735241
O O3 0.000000 0.298685 0.730782
O O4 0.047770 0.339942 0.000000
O O5 0.744532 0.248921 0.742234
O O6 0.658934 0.245377 0.736133
O O7 0.703429 0.000000 0.724015
O O8 0.700539 0.156250 0.000000
O O9 0.207926 0.650201 0.500000
O O10 0.216253 0.500000 0.778054
O O11 0.170666 0.742449 0.778502
O O12 0.861376 0.849858 0.500000
O O13 0.866701 0.000000 0.779384
O O14 0.546871 0.500000 0.500000
O O15 0.500000 0.726027 0.500000
O O16 0.576405 0.711371 0.671401
O O17 0.623843 0.500000 0.226928
O O18 0.608494 0.304545 0.000000
#
# Coordination Sequence:
#
# PCOD9387287 Si02
#       6
#     8   8   8   8   4   8
#     4   9  19  36  56  77 101 132 173 218 263 314
#     4  10  21  36  54  78 108 141 178 220 268 322
#     4  10  21  36  55  78 104 137 176 217 262 314
#     4  10  21  36  53  76 107 139 173 214 262 318
#     4   9  18  32  53  83 113 143 187 237 282 333
#     4   9  18  33  53  78 110 146 185 232 281 330
#
# _framework density 19.653279000000001
#
# number of rings (size 3 to 8) (size 9 to 14) (size 15 to 20)
#    0.000    2.455    0.000    2.182    1.273    5.455 
#    0.000    4.545    0.000    1.091    0.000    2.545 
#    0.000    0.000    0.000    0.000    0.000    0.000 
#
# Total GULP energy -245607.764875 kJ/mol
# GULP energy per Si atom -5581.994656 kJ/mol
# Density = 1.960855 g / cm^3
# Si number density = 19.653279 Si / 1000 Ang^3
#
#
#
# Elastic Constant Matrix: (Units=GPa)
#
#
# Indices 1 2 3 4 5 6 
#
# 1 190.3877 110.8001 30.7621 0.0000 0.0000 0.0000
# 2 110.8001 142.7066 30.6396 0.0000 0.0000 0.0000
# 3 30.7621 30.6396 47.5773 0.0000 0.0000 0.0000
# 4 0.0000 0.0000 0.0000 17.1554 0.0000 0.0000
# 5 0.0000 0.0000 0.0000 0.0000 36.0556 0.0000
# 6 0.0000 0.0000 0.0000 0.0000 0.0000 -32.3477
#
#
#
# Elastic Compliance Matrix: (Units=1/GPa)
#
#
# Indices 1 2 3 4 5 6 
#
# 1 0.009692 -0.007171 -0.001648 0.000000 0.000000 0.000000
# 2 -0.007171 0.013438 -0.004017 0.000000 0.000000 0.000000
# 3 -0.001648 -0.004017 0.024671 0.000000 0.000000 0.000000
# 4 0.000000 0.000000 0.000000 0.058291 0.000000 0.000000
# 5 0.000000 0.000000 0.000000 0.000000 0.027735 0.000000
# 6 0.000000 0.000000 0.000000 0.000000 0.000000 -0.030914
#
#
# Mechanical properties :
#
#
# Convention : Reuss Voigt Hill
#
# Bulk Modulus (GPa) = 45.19250 80.56392 62.87821
# Shear Modulus (GPa) = 36.77480 18.07064 27.42272
#
# Velocity S-wave (km/s) = 4.33041 3.03557 3.73946
# Velocity P-wave (km/s) = 6.93167 7.30533 7.12095
#
# Compressibility (1/GPa) = 0.02212757
#
# Stress axis : x y z
#
# Youngs Moduli (GPa) = 103.17451 74.41662 40.53299
#
# Poissons Ratio (x) = 0.53367 0.06682
# Poissons Ratio (y) = 0.73990 0.16283
# Poissons Ratio (z) = 0.17008 0.29894
#
# Static dielectric constant tensor:
#      x y z
#    x 1.653530 0.000000 0.000000 
#    y 0.000000 1.684810 0.000000 
#    z 0.000000 0.000000 1.725630 
# 
# From -- ./inp_files/1976.got.cif
#   From: 2010.05.17/outbox.cif.g08.bks.cpg/sg47_1_cif.got.tgz:1976.got - 2010.06.03 20:15:42.
