data_PCOD9387782
_publ_section_title
;
Structure prediction by ZEFSAII (Michael W. Deem and Ramdas Pophale) SiO2 
 PCOD9387782
Probable space group: P M M M
;
_chemical_formula_sum "Si O2"
_cell_formula_units_Z 56
_cell_length_a 11.065031
_cell_length_b 14.534977
_cell_length_c 17.816269
_cell_angle_alpha 90.000000
_cell_angle_beta 90.000000
_cell_angle_gamma 90.000000
_cell_volume 2865.390028
_symmetry_space_group_name_H-M "P M M M"
_symmetry_group_IT_number 47
_symmetry_cell_setting 'orthorhombic'
loop_
_space_group_symop_operation_xyz
x,y,z
-x,-y,z
x,-y,-z
-x,y,-z
-x,-y,-z
x,y,-z
-x,y,z
x,-y,z
loop_
_atom_site_type_symbol
_atom_site_label
_atom_site_fract_x
_atom_site_fract_y
_atom_site_fract_z
Si Si1 0.357645 0.225044 0.589164
Si Si2 0.871234 0.660672 0.084938
Si Si3 0.137251 0.110423 0.347912
Si Si4 0.643289 0.397245 0.311495
Si Si5 0.632154 0.643960 0.136526
Si Si6 0.367625 0.141022 0.089165
Si Si7 0.867225 0.851937 0.171574
O O1 0.358518 0.238503 0.500000
O O2 0.500000 0.203786 0.611038
O O3 0.254177 0.151450 0.610248
O O4 0.316899 0.317894 0.632120
O O5 0.750535 0.604133 0.098082
O O6 0.870132 0.746354 0.142375
O O7 0.000000 0.612405 0.093366
O O8 0.866465 0.698678 0.000000
O O9 0.146401 0.140782 0.260762
O O10 0.000000 0.137758 0.373959
O O11 0.141942 0.000000 0.351073
O O12 0.500000 0.405221 0.325366
O O13 0.696207 0.500000 0.319823
O O14 0.653559 0.363897 0.225593
O O15 0.500000 0.604321 0.120320
O O16 0.627931 0.749730 0.108407
O O17 0.500000 0.104853 0.111980
O O18 0.249786 0.105531 0.131786
O O19 0.355230 0.128845 0.000000
O O20 0.000000 0.890647 0.151986
#
# Coordination Sequence:
#
# PCOD9387782 Si02
#       7
#     8   8   8   8   8   8   8
#     4  10  21  37  60  89 115 142 180 222 265 321
#     4   9  16  25  41  67  97 131 171 217 272 323
#     4  10  22  39  58  82 113 148 184 224 275 333
#     4   9  18  33  54  82 115 146 177 220 273 324
#     4   9  15  24  42  66  92 127 171 212 251 302
#     4   9  16  25  41  68 101 138 179 223 274 326
#     4   9  16  27  45  68  94 127 172 220 261 309
#
# _framework density 19.543586000000001
#
# number of rings (size 3 to 8) (size 9 to 14) (size 15 to 20)
#    0.000    2.714    0.000    3.429    0.000    4.571 
#    0.000    2.857    0.000    5.143    0.000   21.000 
#    0.000    0.000    0.000    0.000    0.000    0.000 
#
# Total GULP energy -311744.076689 kJ/mol
# GULP energy per Si atom -5566.858512 kJ/mol
# Density = 1.949910 g / cm^3
# Si number density = 19.543586 Si / 1000 Ang^3
#
#
#
# Elastic Constant Matrix: (Units=GPa)
#
#
# Indices 1 2 3 4 5 6 
#
# 1 188.0231 15.1021 38.7317 0.0000 0.0000 0.0000
# 2 15.1021 66.7026 7.2376 0.0000 0.0000 0.0000
# 3 38.7317 7.2376 31.2282 0.0000 0.0000 0.0000
# 4 0.0000 0.0000 0.0000 -18.0161 0.0000 0.0000
# 5 0.0000 0.0000 0.0000 0.0000 15.2706 0.0000
# 6 0.0000 0.0000 0.0000 0.0000 0.0000 6.1739
#
#
#
# Elastic Compliance Matrix: (Units=1/GPa)
#
#
# Indices 1 2 3 4 5 6 
#
# 1 0.007173 -0.000676 -0.008740 0.000000 0.000000 0.000000
# 2 -0.000676 0.015442 -0.002741 0.000000 0.000000 0.000000
# 3 -0.008740 -0.002741 0.043498 0.000000 0.000000 0.000000
# 4 0.000000 0.000000 0.000000 -0.055506 0.000000 0.000000
# 5 0.000000 0.000000 0.000000 0.000000 0.065485 0.000000
# 6 0.000000 0.000000 0.000000 0.000000 0.000000 0.161971
#
#
# Mechanical properties :
#
#
# Convention : Reuss Voigt Hill
#
# Bulk Modulus (GPa) = 23.92359 45.34407 34.63383
# Shear Modulus (GPa) = 18.09553 15.67783 16.88668
#
# Velocity S-wave (km/s) = 3.04617 2.83538 2.94267
# Velocity P-wave (km/s) = 4.96386 5.82847 5.41346
#
# Compressibility (1/GPa) = 0.04179974
#
# Stress axis : x y z
#
# Youngs Moduli (GPa) = 139.40800 64.75712 22.98966
#
# Poissons Ratio (x) = 0.04376 0.20093
# Poissons Ratio (y) = 0.09420 0.06301
# Poissons Ratio (z) = 1.21845 0.17749
#
# Static dielectric constant tensor:
#      x y z
#    x 1.785160 0.000000 0.000000 
#    y 0.000000 1.699540 0.000000 
#    z 0.000000 0.000000 1.650410 
# 
# From -- ./inp_files/22803.got.cif
#   From: 2010.05.17/outbox.cif.g08.bks.cpg/sg47_12_cif.got.tgz:22803.got - 2010.06.03 20:15:42.
