data_PCOD9387177
_publ_section_title
;
Structure prediction by ZEFSAII (Michael W. Deem and Ramdas Pophale) SiO2 
 PCOD9387177
Probable space group: P M M M
;
_chemical_formula_sum "Si O2"
_cell_formula_units_Z 56
_cell_length_a 22.529178
_cell_length_b 8.831160
_cell_length_c 15.130353
_cell_angle_alpha 90.000000
_cell_angle_beta 90.000000
_cell_angle_gamma 90.000000
_cell_volume 3010.316507
_symmetry_space_group_name_H-M "P M M M"
_symmetry_group_IT_number 47
_symmetry_cell_setting 'orthorhombic'
loop_
_space_group_symop_operation_xyz
x,y,z
-x,-y,z
x,-y,-z
-x,y,-z
-x,-y,-z
x,y,-z
-x,y,z
x,-y,z
loop_
_atom_site_type_symbol
_atom_site_label
_atom_site_fract_x
_atom_site_fract_y
_atom_site_fract_z
Si Si1 0.500000 0.673796 0.107419
Si Si2 0.709237 0.681906 0.750216
Si Si3 0.933266 0.181911 0.103846
Si Si4 0.375031 0.180852 0.604325
Si Si5 0.624763 0.819341 0.104507
Si Si6 0.067052 0.684372 0.600926
Si Si7 0.500000 0.673957 0.607416
Si Si8 0.846378 0.317166 0.245004
O O1 0.500000 0.500000 0.137361
O O2 0.560351 0.757300 0.133558
O O3 0.500000 0.673840 0.000000
O O4 0.706651 0.500000 0.748901
O O5 0.675263 0.745835 0.664750
O O6 0.674676 0.743327 0.835726
O O7 0.777957 0.730454 0.752270
O O8 0.882431 0.257543 0.161129
O O9 0.000000 0.230439 0.131582
O O10 0.930338 0.000000 0.113127
O O11 0.926966 0.216744 0.000000
O O12 0.367263 0.217371 0.500000
O O13 0.439396 0.243438 0.633652
O O14 0.374362 0.000000 0.613664
O O15 0.626182 0.000000 0.114993
O O16 0.632360 0.784701 0.000000
O O17 0.078274 0.731938 0.500000
O O18 0.067302 0.500000 0.601376
O O19 0.116512 0.735779 0.669420
O O20 0.000000 0.731564 0.625844
O O21 0.500000 0.500000 0.637027
O O22 0.500000 0.674858 0.500000
O O23 0.847213 0.500000 0.243987
#
# Coordination Sequence:
#
# PCOD9387177 Si02
#       8
#     4   8   8   8   8   8   4   8
#     4   9  17  32  57  86 112 137 169 218 279 332
#     4  11  24  38  53  78 111 148 189 228 271 326
#     4   9  19  36  57  81 109 142 179 219 268 325
#     4  10  21  38  59  82 110 144 184 230 276 326
#     4  10  21  38  59  81 107 141 182 227 274 327
#     4   8  14  27  50  79 107 134 167 210 261 314
#     4   9  17  32  57  86 112 139 175 224 283 336
#     4  10  21  35  53  79 109 142 181 225 268 312
#
# _framework density 18.602694
#
# number of rings (size 3 to 8) (size 9 to 14) (size 15 to 20)
#    0.000    2.429    0.000    3.000    0.000    7.429 
#    0.000    7.857    0.000    0.429    0.000    2.000 
#    0.000    0.000    0.000    0.000    0.000    0.000 
#
# Total GULP energy -312640.713209 kJ/mol
# GULP energy per Si atom -5582.869879 kJ/mol
# Density = 1.856035 g / cm^3
# Si number density = 18.602694 Si / 1000 Ang^3
#
#
#
# Elastic Constant Matrix: (Units=GPa)
#
#
# Indices 1 2 3 4 5 6 
#
# 1 211.5562 57.5945 98.7982 0.0000 0.0000 0.0000
# 2 57.5945 49.4536 42.5975 0.0000 0.0000 0.0000
# 3 98.7982 42.5975 97.9902 0.0000 0.0000 0.0000
# 4 0.0000 0.0000 0.0000 25.0589 0.0000 0.0000
# 5 0.0000 0.0000 0.0000 0.0000 -38.4587 0.0000
# 6 0.0000 0.0000 0.0000 0.0000 0.0000 20.6868
#
#
#
# Elastic Compliance Matrix: (Units=1/GPa)
#
#
# Indices 1 2 3 4 5 6 
#
# 1 0.009523 -0.004508 -0.007642 0.000000 0.000000 0.000000
# 2 -0.004508 0.034459 -0.010434 0.000000 0.000000 0.000000
# 3 -0.007642 -0.010434 0.022446 0.000000 0.000000 0.000000
# 4 0.000000 0.000000 0.000000 0.039906 0.000000 0.000000
# 5 0.000000 0.000000 0.000000 0.000000 -0.026002 0.000000
# 6 0.000000 0.000000 0.000000 0.000000 0.000000 0.048340
#
#
# Mechanical properties :
#
#
# Convention : Reuss Voigt Hill
#
# Bulk Modulus (GPa) = 47.03834 84.10893 65.57364
# Shear Modulus (GPa) = 27.63549 12.12471 19.88010
#
# Velocity S-wave (km/s) = 3.85848 2.55575 3.27259
# Velocity P-wave (km/s) = 6.72244 7.34987 7.04315
#
# Compressibility (1/GPa) = 0.02125925
#
# Stress axis : x y z
#
# Youngs Moduli (GPa) = 105.00973 29.01982 44.55218
#
# Poissons Ratio (x) = 0.13083 0.34045
# Poissons Ratio (y) = 0.47342 0.46487
# Poissons Ratio (z) = 0.80244 0.30280
#
# Static dielectric constant tensor:
#      x y z
#    x 1.616130 0.000000 0.000000 
#    y 0.000000 1.622850 0.000000 
#    z 0.000000 0.000000 1.652080 
# 
# From -- ./inp_files/25233.got.cif
#   From: 2010.05.17/outbox.cif.g08.bks.cpg/sg47_13_cif.got.tgz:25233.got - 2010.06.03 20:15:42.
