data_PCOD9387080
_publ_section_title
;
Structure prediction by ZEFSAII (Michael W. Deem and Ramdas Pophale) SiO2 
 PCOD9387080
Probable space group: P M M M
;
_chemical_formula_sum "Si O2"
_cell_formula_units_Z 48
_cell_length_a 9.582671
_cell_length_b 7.547209
_cell_length_c 35.967848
_cell_angle_alpha 90.000000
_cell_angle_beta 90.000000
_cell_angle_gamma 90.000000
_cell_volume 2601.281839
_symmetry_space_group_name_H-M "P M M M"
_symmetry_group_IT_number 47
_symmetry_cell_setting 'orthorhombic'
loop_
_space_group_symop_operation_xyz
x,y,z
-x,-y,z
x,-y,-z
-x,y,-z
-x,-y,-z
x,y,-z
-x,y,z
x,-y,z
loop_
_atom_site_type_symbol
_atom_site_label
_atom_site_fract_x
_atom_site_fract_y
_atom_site_fract_z
Si Si1 0.669660 0.000000 0.672265
Si Si2 0.843019 0.289202 0.112758
Si Si3 0.161521 0.284322 0.458668
Si Si4 0.341685 0.786825 0.041710
Si Si5 0.665873 0.289414 0.183679
Si Si6 0.669221 0.000000 0.243268
Si Si7 0.666850 0.291482 0.386750
O O1 0.721841 0.000000 0.714522
O O2 0.709773 0.828090 0.648194
O O3 0.500000 0.000000 0.673910
O O4 0.852601 0.500000 0.117759
O O5 0.764220 0.261130 0.074005
O O6 0.750519 0.226469 0.147483
O O7 0.000000 0.216250 0.112426
O O8 0.206758 0.226151 0.500000
O O9 0.164548 0.500000 0.458991
O O10 0.256091 0.229578 0.424199
O O11 0.000000 0.231815 0.453519
O O12 0.500000 0.724678 0.049911
O O13 0.346286 0.000000 0.040538
O O14 0.303762 0.725418 0.000000
O O15 0.500000 0.263899 0.177116
O O16 0.687925 0.500000 0.189623
O O17 0.707736 0.172728 0.219205
O O18 0.500000 0.000000 0.245209
O O19 0.500000 0.273748 0.391662
O O20 0.697017 0.500000 0.380759
#
# Coordination Sequence:
#
# PCOD9387080 Si02
#       7
#     4   8   8   8   8   4   8
#     4   9  18  32  48  72 103 125 155 204 248 294
#     4  10  21  35  51  74 104 135 165 202 250 300
#     4   8  14  26  45  68  94 126 164 204 244 285
#     4   9  19  35  53  74 101 134 172 211 247 286
#     4   9  18  33  53  77 102 128 164 208 250 296
#     4   9  18  32  53  78  99 126 162 202 250 299
#     4   9  17  29  47  70  96 129 163 197 243 293
#
# _framework density 18.452439999999999
#
# number of rings (size 3 to 8) (size 9 to 14) (size 15 to 20)
#    0.000    3.000    0.000    1.500    1.167    3.000 
#    0.000    8.333    0.000    4.500    0.000    4.667 
#    0.000    0.000    0.000    0.000    0.000    0.000 
#
# Total GULP energy -267566.244904 kJ/mol
# GULP energy per Si atom -5574.296769 kJ/mol
# Density = 1.841044 g / cm^3
# Si number density = 18.452440 Si / 1000 Ang^3
#
#
#
# Elastic Constant Matrix: (Units=GPa)
#
#
# Indices 1 2 3 4 5 6 
#
# 1 60.9464 34.4266 83.0994 0.0000 0.0000 0.0000
# 2 34.4266 67.1714 55.9436 0.0000 0.0000 0.0000
# 3 83.0994 55.9436 203.6099 0.0000 0.0000 0.0000
# 4 0.0000 0.0000 0.0000 42.4329 0.0000 0.0000
# 5 0.0000 0.0000 0.0000 0.0000 -6.8473 0.0000
# 6 0.0000 0.0000 0.0000 0.0000 0.0000 7.2713
#
#
#
# Elastic Compliance Matrix: (Units=1/GPa)
#
#
# Indices 1 2 3 4 5 6 
#
# 1 0.040923 -0.009160 -0.014185 0.000000 0.000000 0.000000
# 2 -0.009160 0.021355 -0.002129 0.000000 0.000000 0.000000
# 3 -0.014185 -0.002129 0.011286 0.000000 0.000000 0.000000
# 4 0.000000 0.000000 0.000000 0.023567 0.000000 0.000000
# 5 0.000000 0.000000 0.000000 0.000000 -0.146043 0.000000
# 6 0.000000 0.000000 0.000000 0.000000 0.000000 0.137527
#
#
# Mechanical properties :
#
#
# Convention : Reuss Voigt Hill
#
# Bulk Modulus (GPa) = 44.21680 75.40741 59.81210
# Shear Modulus (GPa) = 33.99014 19.12193 26.55604
#
# Velocity S-wave (km/s) = 4.29656 3.22263 3.79774
# Velocity P-wave (km/s) = 6.97341 7.40281 7.19132
#
# Compressibility (1/GPa) = 0.02261584
#
# Stress axis : x y z
#
# Youngs Moduli (GPa) = 24.43587 46.82734 88.60667
#
# Poissons Ratio (x) = 0.42893 1.25692
# Poissons Ratio (y) = 0.22383 0.18865
# Poissons Ratio (z) = 0.34663 0.09970
#
# Static dielectric constant tensor:
#      x y z
#    x 1.622520 0.000000 0.000000 
#    y 0.000000 1.677510 0.000000 
#    z 0.000000 0.000000 1.620370 
# 
# From -- ./inp_files/34069.got.cif
#   From: 2010.05.17/outbox.cif.g08.bks.cpg/sg47_18_cif.got.tgz:34069.got - 2010.06.03 20:15:42.
