data_PCOD9387779
_publ_section_title
;
Structure prediction by ZEFSAII (Michael W. Deem and Ramdas Pophale) SiO2 
 PCOD9387779
Probable space group: P M M M
;
_chemical_formula_sum "Si O2"
_cell_formula_units_Z 48
_cell_length_a 16.418460
_cell_length_b 9.046835
_cell_length_c 17.320919
_cell_angle_alpha 90.000000
_cell_angle_beta 90.000000
_cell_angle_gamma 90.000000
_cell_volume 2572.764411
_symmetry_space_group_name_H-M "P M M M"
_symmetry_group_IT_number 47
_symmetry_cell_setting 'orthorhombic'
loop_
_space_group_symop_operation_xyz
x,y,z
-x,-y,z
x,-y,-z
-x,y,-z
-x,-y,-z
x,y,-z
-x,y,z
x,-y,z
loop_
_atom_site_type_symbol
_atom_site_label
_atom_site_fract_x
_atom_site_fract_y
_atom_site_fract_z
Si Si1 0.174775 0.824120 0.644075
Si Si2 0.500000 0.172517 0.907365
Si Si3 0.165698 0.178644 0.824161
Si Si4 0.657020 0.670644 0.655851
Si Si5 0.096411 0.665861 0.500000
Si Si6 0.000000 0.820077 0.089018
Si Si7 0.337830 0.328430 0.158598
Si Si8 0.500000 0.168622 0.592019
O O1 0.154605 0.783938 0.733163
O O2 0.266024 0.767063 0.631509
O O3 0.122401 0.749058 0.577705
O O4 0.169276 0.000000 0.637562
O O5 0.583106 0.249102 0.877319
O O6 0.500000 0.000000 0.883680
O O7 0.500000 0.180014 0.000000
O O8 0.083935 0.225238 0.869117
O O9 0.249887 0.250678 0.854668
O O10 0.173929 0.000000 0.829564
O O11 0.666781 0.500000 0.632497
O O12 0.651240 0.674911 0.748736
O O13 0.577813 0.743380 0.620855
O O14 0.131659 0.500000 0.500000
O O15 0.000000 0.656587 0.500000
O O16 0.000000 0.000000 0.090876
O O17 0.000000 0.773074 0.000000
O O18 0.334947 0.500000 0.133851
O O19 0.500000 0.163594 0.500000
O O20 0.500000 0.000000 0.621818
#
# Coordination Sequence:
#
# PCOD9387779 Si02
#       8
#     8   4   8   8   4   4   8   4
#     4  10  21  37  60  85 114 151 194 243 290 339
#     4  11  24  39  58  86 118 153 194 241 294 351
#     4   9  19  36  60  88 118 155 199 242 289 347
#     4  10  21  38  59  82 112 150 192 233 285 344
#     4  11  25  41  57  82 115 150 191 239 297 355
#     4   9  18  34  59  90 121 152 190 239 289 339
#     4  10  21  38  60  86 116 151 191 237 290 348
#     4  11  24  37  52  78 112 147 192 241 283 326
#
# _framework density 18.656974000000002
#
# number of rings (size 3 to 8) (size 9 to 14) (size 15 to 20)
#    0.000    2.000    0.000    2.750    2.333    7.333 
#    0.000    2.083    0.000    0.500    0.000    0.000 
#    0.000    0.000    0.000    0.000    0.000    0.000 
#
# Total GULP energy -267963.856729 kJ/mol
# GULP energy per Si atom -5582.580349 kJ/mol
# Density = 1.861451 g / cm^3
# Si number density = 18.656974 Si / 1000 Ang^3
#
#
#
# Elastic Constant Matrix: (Units=GPa)
#
#
# Indices 1 2 3 4 5 6 
#
# 1 172.5152 60.0908 82.2630 0.0000 0.0000 0.0000
# 2 60.0908 88.2092 50.0447 0.0000 0.0000 0.0000
# 3 82.2630 50.0447 66.1032 0.0000 0.0000 0.0000
# 4 0.0000 0.0000 0.0000 21.2721 0.0000 0.0000
# 5 0.0000 0.0000 0.0000 0.0000 8.8395 0.0000
# 6 0.0000 0.0000 0.0000 0.0000 0.0000 28.7955
#
#
#
# Elastic Compliance Matrix: (Units=1/GPa)
#
#
# Indices 1 2 3 4 5 6 
#
# 1 0.014276 0.000621 -0.018236 0.000000 0.000000 0.000000
# 2 0.000621 0.019899 -0.015837 0.000000 0.000000 0.000000
# 3 -0.018236 -0.015837 0.049812 0.000000 0.000000 0.000000
# 4 0.000000 0.000000 0.000000 0.047010 0.000000 0.000000
# 5 0.000000 0.000000 0.000000 0.000000 0.113129 0.000000
# 6 0.000000 0.000000 0.000000 0.000000 0.000000 0.034728
#
#
# Mechanical properties :
#
#
# Convention : Reuss Voigt Hill
#
# Bulk Modulus (GPa) = 58.54240 79.06940 68.80590
# Shear Modulus (GPa) = 14.22665 20.74336 17.48501
#
# Velocity S-wave (km/s) = 2.76440 3.33803 3.06467
# Velocity P-wave (km/s) = 6.45257 7.57160 7.03437
#
# Compressibility (1/GPa) = 0.01708164
#
# Stress axis : x y z
#
# Youngs Moduli (GPa) = 70.04695 50.25363 20.07550
#
# Poissons Ratio (x) = -0.03119 0.36610
# Poissons Ratio (y) = -0.04348 0.31794
# Poissons Ratio (z) = 1.27738 0.79589
#
# Static dielectric constant tensor:
#      x y z
#    x 1.594110 0.000000 0.000000 
#    y 0.000000 1.637940 0.000000 
#    z 0.000000 0.000000 1.632660 
# 
# From -- ./inp_files/21182.got.cif
#   From: 2010.05.17/outbox.cif.g08.bks.cpg/sg47_11_cif.got.tgz:21182.got - 2010.06.03 20:15:42.
