data_PCOD9387382
_publ_section_title
;
Structure prediction by ZEFSAII (Michael W. Deem and Ramdas Pophale) SiO2 
 PCOD9387382
Probable space group: P M M M
;
_chemical_formula_sum "Si O2"
_cell_formula_units_Z 56
_cell_length_a 7.512664
_cell_length_b 16.002213
_cell_length_c 21.240661
_cell_angle_alpha 90.000000
_cell_angle_beta 90.000000
_cell_angle_gamma 90.000000
_cell_volume 2553.536325
_symmetry_space_group_name_H-M "P M M M"
_symmetry_group_IT_number 47
_symmetry_cell_setting 'orthorhombic'
loop_
_space_group_symop_operation_xyz
x,y,z
-x,-y,z
x,-y,-z
-x,y,-z
-x,-y,-z
x,y,-z
-x,y,z
x,-y,z
loop_
_atom_site_type_symbol
_atom_site_label
_atom_site_fract_x
_atom_site_fract_y
_atom_site_fract_z
Si Si1 0.709939 0.721869 0.932134
Si Si2 0.786628 0.732153 0.430710
Si Si3 0.293178 0.327654 0.797208
Si Si4 0.286175 0.591816 0.327066
Si Si5 0.214976 0.910195 0.897962
Si Si6 0.782481 0.090972 0.621164
Si Si7 0.784807 0.140980 0.239987
O O1 0.500000 0.702604 0.932649
O O2 0.785179 0.682393 0.867542
O O3 0.723897 0.822674 0.926597
O O4 0.785640 0.696398 0.000000
O O5 0.721390 0.706856 0.500000
O O6 0.750689 0.664589 0.376875
O O7 0.720716 0.825094 0.413270
O O8 0.000000 0.738621 0.433515
O O9 0.500000 0.351235 0.805314
O O10 0.215353 0.385909 0.742732
O O11 0.284748 0.234886 0.767469
O O12 0.500000 0.589193 0.321783
O O13 0.223675 0.500000 0.347382
O O14 0.265056 0.905478 0.824129
O O15 0.000000 0.908927 0.902405
O O16 0.275662 0.000000 0.923634
O O17 0.730157 0.100597 0.694473
O O18 0.000000 0.091465 0.619071
O O19 0.725275 0.000000 0.597033
O O20 0.000000 0.145284 0.240817
#
# Coordination Sequence:
#
# PCOD9387382 Si02
#       7
#     8   8   8   8   8   8   8
#     4   9  18  31  46  65  91 126 163 198 245 303
#     4  10  21  36  54  79 110 140 171 210 253 297
#     4   9  17  31  51  72  96 125 160 204 250 295
#     4  10  21  37  58  81 103 131 168 209 257 313
#     4   9  17  27  40  62  92 124 162 209 253 291
#     4   9  16  27  47  74 103 135 170 207 247 292
#     4   9  15  26  46  69  94 126 165 206 249 293
#
# _framework density 21.930371000000001
#
# number of rings (size 3 to 8) (size 9 to 14) (size 15 to 20)
#    0.000    2.714    1.429    0.429    0.000    3.714 
#    0.000    4.286    0.000    3.000    0.000    4.000 
#    0.000    0.000    0.000    8.429    0.000    8.857 
#
# Total GULP energy -312352.385430 kJ/mol
# GULP energy per Si atom -5577.721168 kJ/mol
# Density = 2.188046 g / cm^3
# Si number density = 21.930371 Si / 1000 Ang^3
#
#
#
# Elastic Constant Matrix: (Units=GPa)
#
#
# Indices 1 2 3 4 5 6 
#
# 1 54.8595 4.6419 9.1551 0.0000 0.0000 0.0000
# 2 4.6419 109.2927 68.3695 0.0000 0.0000 0.0000
# 3 9.1551 68.3695 157.2293 0.0000 0.0000 0.0000
# 4 0.0000 0.0000 0.0000-2230.1054 0.0000 0.0000
# 5 0.0000 0.0000 0.0000 0.0000 51.3940 0.0000
# 6 0.0000 0.0000 0.0000 0.0000 0.0000 7.7915
#
#
#
# Elastic Compliance Matrix: (Units=1/GPa)
#
#
# Indices 1 2 3 4 5 6 
#
# 1 0.018409 -0.000153 -0.001005 0.000000 0.000000 0.000000
# 2 -0.000153 0.012570 -0.005457 0.000000 0.000000 0.000000
# 3 -0.001005 -0.005457 0.008792 0.000000 0.000000 0.000000
# 4 0.000000 0.000000 0.000000 -0.000448 0.000000 0.000000
# 5 0.000000 0.000000 0.000000 0.000000 0.019458 0.000000
# 6 0.000000 0.000000 0.000000 0.000000 0.000000 0.128346
#
#
# Mechanical properties :
#
#
# Convention : Reuss Voigt Hill
#
# Bulk Modulus (GPa) = 37.67904 53.96829 45.82366
# Shear Modulus (GPa) = 23.90024 -418.23632 -197.16804
#
# Velocity S-wave (km/s) = 3.30483 -13.82480 -9.49218
# Velocity P-wave (km/s) = 5.63747 15.17139 9.95967
#
# Compressibility (1/GPa) = 0.02653996
#
# Stress axis : x y z
#
# Youngs Moduli (GPa) = 54.32091 79.55493 113.74496
#
# Poissons Ratio (x) = 0.01217 0.11436
# Poissons Ratio (y) = 0.00831 0.62071
# Poissons Ratio (z) = 0.05462 0.43413
#
# Static dielectric constant tensor:
#      x y z
#    x 1.868240 0.000000 0.000000 
#    y 0.000000 1.781530 0.000000 
#    z 0.000000 0.000000 1.827240 
# 
# From -- ./inp_files/7236.got.cif
#   From: 2010.05.17/outbox.cif.g08.bks.cpg/sg47_4_cif.got.tgz:7236.got - 2010.06.03 20:15:42.
