data_PCOD9387299
_publ_section_title
;
Structure prediction by ZEFSAII (Michael W. Deem and Ramdas Pophale) SiO2 
 PCOD9387299
Probable space group: P M M M
;
_chemical_formula_sum "Si O2"
_cell_formula_units_Z 64
_cell_length_a 8.947452
_cell_length_b 29.852008
_cell_length_c 14.603006
_cell_angle_alpha 90.000000
_cell_angle_beta 90.000000
_cell_angle_gamma 90.000000
_cell_volume 3900.454268
_symmetry_space_group_name_H-M "P M M M"
_symmetry_group_IT_number 47
_symmetry_cell_setting 'orthorhombic'
loop_
_space_group_symop_operation_xyz
x,y,z
-x,-y,z
x,-y,-z
-x,y,-z
-x,-y,-z
x,y,-z
-x,y,z
x,-y,z
loop_
_atom_site_type_symbol
_atom_site_label
_atom_site_fract_x
_atom_site_fract_y
_atom_site_fract_z
Si Si1 0.821855 0.450544 0.721535
Si Si2 0.178966 0.227512 0.221732
Si Si3 0.175484 0.683626 0.891569
Si Si4 0.319607 0.268971 0.606786
Si Si5 0.677889 0.410838 0.894075
Si Si6 0.318823 0.853149 0.108037
Si Si7 0.324782 0.629076 0.390381
Si Si8 0.322391 0.951878 0.889402
O O1 0.777047 0.500000 0.687258
O O2 0.757183 0.443166 0.822872
O O3 0.761332 0.410124 0.660211
O O4 0.000000 0.448381 0.724373
O O5 0.218113 0.272557 0.164886
O O6 0.244014 0.235262 0.322826
O O7 0.248848 0.185431 0.169419
O O8 0.000000 0.223735 0.223650
O O9 0.271749 0.639805 0.870024
O O10 0.000000 0.673581 0.874223
O O11 0.191671 0.692910 0.000000
O O12 0.282460 0.261179 0.500000
O O13 0.500000 0.267057 0.614653
O O14 0.273323 0.320208 0.630864
O O15 0.500000 0.414804 0.886615
O O16 0.721100 0.418656 0.000000
O O17 0.500000 0.851906 0.113746
O O18 0.266151 0.902937 0.139169
O O19 0.280922 0.847166 0.000000
O O20 0.312950 0.624091 0.500000
O O21 0.500000 0.626022 0.365744
O O22 0.500000 0.952314 0.869261
O O23 0.259617 0.000000 0.856762
O O24 0.309846 0.951777 0.000000
#
# Coordination Sequence:
#
# PCOD9387299 Si02
#       8
#     8   8   8   8   8   8   8   8
#     4  11  24  38  52  73 100 128 155 183 220 269
#     4  11  21  30  44  68  98 129 158 191 232 277
#     4   9  18  32  48  67  94 127 158 186 222 271
#     4   9  19  36  55  73  93 118 151 191 232 276
#     4  10  21  36  54  74  93 117 154 198 237 271
#     4   9  17  28  43  65  94 130 169 204 239 279
#     4   9  19  37  60  82 100 119 146 183 228 275
#     4   7  10  19  37  60  85 116 159 208 247 275
#
# _framework density 16.408345000000001
#
# number of rings (size 3 to 8) (size 9 to 14) (size 15 to 20)
#    0.000    2.625    0.000    4.125    0.000    7.000 
#    0.000    5.000    0.000    0.375    0.000    1.750 
#    0.000    0.500    0.000    5.750    0.000    1.875 
#
# Total GULP energy -356830.183588 kJ/mol
# GULP energy per Si atom -5575.471619 kJ/mol
# Density = 1.637100 g / cm^3
# Si number density = 16.408345 Si / 1000 Ang^3
#
#
#
# Elastic Constant Matrix: (Units=GPa)
#
#
# Indices 1 2 3 4 5 6 
#
# 1 25.4586 35.3503 25.4422 0.0000 0.0000 0.0000
# 2 35.3503 110.5198 58.4990 0.0000 0.0000 0.0000
# 3 25.4422 58.4990 55.1727 0.0000 0.0000 0.0000
# 4 0.0000 0.0000 0.0000 15.2569 0.0000 0.0000
# 5 0.0000 0.0000 0.0000 0.0000 15.6317 0.0000
# 6 0.0000 0.0000 0.0000 0.0000 0.0000 -22.3554
#
#
#
# Elastic Compliance Matrix: (Units=1/GPa)
#
#
# Indices 1 2 3 4 5 6 
#
# 1 0.081433 -0.014062 -0.022642 0.000000 0.000000 0.000000
# 2 -0.014062 0.023049 -0.017954 0.000000 0.000000 0.000000
# 3 -0.022642 -0.017954 0.047603 0.000000 0.000000 0.000000
# 4 0.000000 0.000000 0.000000 0.065544 0.000000 0.000000
# 5 0.000000 0.000000 0.000000 0.000000 0.063973 0.000000
# 6 0.000000 0.000000 0.000000 0.000000 0.000000 -0.044732
#
#
# Mechanical properties :
#
#
# Convention : Reuss Voigt Hill
#
# Bulk Modulus (GPa) = 23.38185 47.74824 35.56504
# Shear Modulus (GPa) = 13.87187 6.49729 10.18458
#
# Velocity S-wave (km/s) = 2.91076 1.99207 2.49408
# Velocity P-wave (km/s) = 5.05743 5.86978 5.47868
#
# Compressibility (1/GPa) = 0.04276821
#
# Stress axis : x y z
#
# Youngs Moduli (GPa) = 12.28010 43.38496 21.00725
#
# Poissons Ratio (x) = 0.61009 0.47564
# Poissons Ratio (y) = 0.17269 0.37717
# Poissons Ratio (z) = 0.27804 0.77895
#
# Static dielectric constant tensor:
#      x y z
#    x 1.544170 0.000000 0.000000 
#    y 0.000000 1.568370 0.000000 
#    z 0.000000 0.000000 1.545400 
# 
# From -- ./inp_files/14370.got.cif
#   From: 2010.05.17/outbox.cif.g08.bks.cpg/sg47_8_cif.got.tgz:14370.got - 2010.06.03 20:15:42.
