data_PCOD9387431
_publ_section_title
;
Structure prediction by ZEFSAII (Michael W. Deem and Ramdas Pophale) SiO2 
 PCOD9387431
Probable space group: P M M M
;
_chemical_formula_sum "Si O2"
_cell_formula_units_Z 40
_cell_length_a 9.140671
_cell_length_b 9.317654
_cell_length_c 26.122442
_cell_angle_alpha 90.000000
_cell_angle_beta 90.000000
_cell_angle_gamma 90.000000
_cell_volume 2224.838190
_symmetry_space_group_name_H-M "P M M M"
_symmetry_group_IT_number 47
_symmetry_cell_setting 'orthorhombic'
loop_
_space_group_symop_operation_xyz
x,y,z
-x,-y,z
x,-y,-z
-x,y,-z
-x,-y,-z
x,y,-z
-x,y,z
x,-y,z
loop_
_atom_site_type_symbol
_atom_site_label
_atom_site_fract_x
_atom_site_fract_y
_atom_site_fract_z
Si Si1 0.824044 0.831231 0.754732
Si Si2 0.174507 0.169091 0.059508
Si Si3 0.824091 0.333097 0.349216
Si Si4 0.324256 0.168300 0.558472
Si Si5 0.325240 0.668526 0.848798
O O1 0.781981 0.755438 0.701471
O O2 0.746455 0.753664 0.801813
O O3 0.000000 0.817391 0.760582
O O4 0.788879 0.000000 0.753493
O O5 0.262138 0.265468 0.098965
O O6 0.000000 0.189593 0.066570
O O7 0.204591 0.000000 0.068727
O O8 0.208421 0.199685 0.000000
O O9 0.783796 0.500000 0.343549
O O10 0.751938 0.264311 0.399116
O O11 0.000000 0.324327 0.353894
O O12 0.282782 0.206062 0.500000
O O13 0.500000 0.181471 0.562298
O O14 0.287925 0.000000 0.566436
O O15 0.500000 0.684089 0.847475
O O16 0.288990 0.500000 0.845089
#
# Coordination Sequence:
#
# PCOD9387431 Si02
#       5
#     8   8   8   8   8
#     4  10  21  38  60  82 104 136 180 225 268 318
#     4   9  19  37  60  84 109 140 181 225 267 315
#     4  10  21  36  55  81 111 141 175 218 269 322
#     4   9  19  36  56  78 106 142 183 223 264 314
#     4  11  24  38  53  79 114 147 179 218 266 319
#
# _framework density 17.978836000000001
#
# number of rings (size 3 to 8) (size 9 to 14) (size 15 to 20)
#    0.000    2.200    0.000    3.600    0.000    9.600 
#    0.000    6.000    0.000    0.000    0.000    0.000 
#    0.000    0.000    0.000    0.000    0.000    0.000 
#
# Total GULP energy -223404.679206 kJ/mol
# GULP energy per Si atom -5585.116980 kJ/mol
# Density = 1.793791 g / cm^3
# Si number density = 17.978836 Si / 1000 Ang^3
#
#
#
# Elastic Constant Matrix: (Units=GPa)
#
#
# Indices 1 2 3 4 5 6 
#
# 1 32.2817 69.3358 62.7840 0.0000 0.0000 0.0000
# 2 69.3358 164.8227 127.9877 0.0000 0.0000 0.0000
# 3 62.7840 127.9877 158.1024 0.0000 0.0000 0.0000
# 4 0.0000 0.0000 0.0000 -119.3978 0.0000 0.0000
# 5 0.0000 0.0000 0.0000 0.0000 105.9738 0.0000
# 6 0.0000 0.0000 0.0000 0.0000 0.0000 32.4849
#
#
#
# Elastic Compliance Matrix: (Units=1/GPa)
#
#
# Indices 1 2 3 4 5 6 
#
# 1 0.570768 -0.172597 -0.086936 0.000000 0.000000 0.000000
# 2 -0.172597 0.068529 0.013064 0.000000 0.000000 0.000000
# 3 -0.086936 0.013064 0.030272 0.000000 0.000000 0.000000
# 4 0.000000 0.000000 0.000000 -0.008375 0.000000 0.000000
# 5 0.000000 0.000000 0.000000 0.000000 0.009436 0.000000
# 6 0.000000 0.000000 0.000000 0.000000 0.000000 0.030783
#
#
# Mechanical properties :
#
#
# Convention : Reuss Voigt Hill
#
# Bulk Modulus (GPa) = 5.66151 97.26908 51.46530
# Shear Modulus (GPa) = 3.98970 10.15215 7.07092
#
# Velocity S-wave (km/s) = 1.49128 2.37886 1.98531
# Velocity P-wave (km/s) = 2.47408 7.85906 5.82605
#
# Compressibility (1/GPa) = 0.17663140
#
# Stress axis : x y z
#
# Youngs Moduli (GPa) = 1.75203 14.59242 33.03363
#
# Poissons Ratio (x) = 2.51861 2.87180
# Poissons Ratio (y) = 0.30239 -0.43156
# Poissons Ratio (z) = 0.15231 -0.19064
#
# Static dielectric constant tensor:
#      x y z
#    x 1.595730 0.000000 0.000000 
#    y 0.000000 1.596640 0.000000 
#    z 0.000000 0.000000 1.586850 
# 
# From -- ./inp_files/1350.got.cif
#   From: 2010.05.17/outbox.cif.g08.bks.cpg/sg47_1_cif.got.tgz:1350.got - 2010.06.03 20:15:42.
