data_PCOD9387660
_publ_section_title
;
Structure prediction by ZEFSAII (Michael W. Deem and Ramdas Pophale) SiO2 
 PCOD9387660
Probable space group: P M M M
;
_chemical_formula_sum "Si O2"
_cell_formula_units_Z 52
_cell_length_a 9.149915
_cell_length_b 14.596887
_cell_length_c 20.798945
_cell_angle_alpha 90.000000
_cell_angle_beta 90.000000
_cell_angle_gamma 90.000000
_cell_volume 2777.912820
_symmetry_space_group_name_H-M "P M M M"
_symmetry_group_IT_number 47
_symmetry_cell_setting 'orthorhombic'
loop_
_space_group_symop_operation_xyz
x,y,z
-x,-y,z
x,-y,-z
-x,y,-z
-x,-y,-z
x,y,-z
-x,y,z
x,-y,z
loop_
_atom_site_type_symbol
_atom_site_label
_atom_site_fract_x
_atom_site_fract_y
_atom_site_fract_z
Si Si1 0.676940 0.607839 0.211396
Si Si2 0.335930 0.500000 0.577726
Si Si3 0.168965 0.888502 0.071229
Si Si4 0.667646 0.110245 0.800787
Si Si5 0.824980 0.312410 0.573345
Si Si6 0.174379 0.762042 0.704946
Si Si7 0.671266 0.388715 0.068986
O O1 0.500000 0.617068 0.213822
O O2 0.709303 0.500000 0.221193
O O3 0.753649 0.672893 0.262307
O O4 0.729072 0.636548 0.139302
O O5 0.500000 0.500000 0.604853
O O6 0.345658 0.500000 0.500000
O O7 0.250078 0.592254 0.593309
O O8 0.267256 0.859009 0.130600
O O9 0.000000 0.860234 0.079714
O O10 0.169356 0.000000 0.071575
O O11 0.219663 0.860389 0.000000
O O12 0.500000 0.140033 0.795407
O O13 0.760534 0.152947 0.743562
O O14 0.673073 0.000000 0.798995
O O15 0.780402 0.289440 0.500000
O O16 0.790348 0.240071 0.629025
O O17 0.000000 0.325804 0.572911
O O18 0.000000 0.758873 0.712182
O O19 0.500000 0.362416 0.068343
O O20 0.674146 0.500000 0.069147
O O21 0.736946 0.359187 0.000000
#
# Coordination Sequence:
#
# PCOD9387660 Si02
#       7
#     8   4   8   8   8   8   8
#     4   9  18  32  50  74 105 139 172 213 264 311
#     4   9  17  29  49  79 109 137 170 207 254 311
#     4   8  14  27  50  79 109 140 173 213 265 321
#     4  10  21  37  57  80 107 140 179 224 271 321
#     4   9  19  36  55  75 103 139 178 218 260 313
#     4  11  23  36  54  78 104 138 177 217 266 323
#     4   7  10  20  41  66  90 122 168 214 251 289
#
# _framework density 18.719089
#
# number of rings (size 3 to 8) (size 9 to 14) (size 15 to 20)
#    0.000    3.000    0.000    3.000    1.077    3.692 
#    0.000    2.308    0.000    3.692    0.000    5.385 
#    0.000    0.000    0.000    0.000    0.000    0.000 
#
# Total GULP energy -289848.514318 kJ/mol
# GULP energy per Si atom -5574.009891 kJ/mol
# Density = 1.867648 g / cm^3
# Si number density = 18.719089 Si / 1000 Ang^3
#
#
#
# Elastic Constant Matrix: (Units=GPa)
#
#
# Indices 1 2 3 4 5 6 
#
# 1 41.1077 16.3350 46.7628 0.0000 0.0000 0.0000
# 2 16.3350 42.9496 23.6504 0.0000 0.0000 0.0000
# 3 46.7628 23.6504 139.6873 0.0000 0.0000 0.0000
# 4 0.0000 0.0000 0.0000 46.7441 0.0000 0.0000
# 5 0.0000 0.0000 0.0000 0.0000 16.9543 0.0000
# 6 0.0000 0.0000 0.0000 0.0000 0.0000 22.3094
#
#
#
# Elastic Compliance Matrix: (Units=1/GPa)
#
#
# Indices 1 2 3 4 5 6 
#
# 1 0.042312 -0.009145 -0.012616 0.000000 0.000000 0.000000
# 2 -0.009145 0.027654 -0.001620 0.000000 0.000000 0.000000
# 3 -0.012616 -0.001620 0.011657 0.000000 0.000000 0.000000
# 4 0.000000 0.000000 0.000000 0.021393 0.000000 0.000000
# 5 0.000000 0.000000 0.000000 0.000000 0.058982 0.000000
# 6 0.000000 0.000000 0.000000 0.000000 0.000000 0.044824
#
#
# Mechanical properties :
#
#
# Convention : Reuss Voigt Hill
#
# Bulk Modulus (GPa) = 28.68752 44.13790 36.41271
# Shear Modulus (GPa) = 18.85326 26.33467 22.59396
#
# Velocity S-wave (km/s) = 3.17703 3.75485 3.47796
# Velocity P-wave (km/s) = 5.36811 6.51374 5.96847
#
# Compressibility (1/GPa) = 0.03485836
#
# Stress axis : x y z
#
# Youngs Moduli (GPa) = 23.63369 36.16159 85.78699
#
# Poissons Ratio (x) = 0.33071 1.08233
# Poissons Ratio (y) = 0.21614 0.13901
# Poissons Ratio (z) = 0.29817 0.05860
#
# Static dielectric constant tensor:
#      x y z
#    x 1.627960 0.000000 0.000000 
#    y 0.000000 1.659020 0.000000 
#    z 0.000000 0.000000 1.696410 
# 
# From -- ./inp_files/29554.got.cif
#   From: 2010.05.17/outbox.cif.g08.bks.cpg/sg47_15_cif.got.tgz:29554.got - 2010.06.03 20:15:42.
