data_PCOD9387923
_publ_section_title
;
Structure prediction by ZEFSAII (Michael W. Deem and Ramdas Pophale) SiO2 
 PCOD9387923
Probable space group: P M M M
;
_chemical_formula_sum "Si O2"
_cell_formula_units_Z 37
_cell_length_a 7.491330
_cell_length_b 10.462860
_cell_length_c 23.165241
_cell_angle_alpha 90.000000
_cell_angle_beta 90.000000
_cell_angle_gamma 90.000000
_cell_volume 1815.708662
_symmetry_space_group_name_H-M "P M M M"
_symmetry_group_IT_number 47
_symmetry_cell_setting 'orthorhombic'
loop_
_space_group_symop_operation_xyz
x,y,z
-x,-y,z
x,-y,-z
-x,y,-z
-x,-y,-z
x,y,-z
-x,y,z
x,-y,z
loop_
_atom_site_type_symbol
_atom_site_label
_atom_site_fract_x
_atom_site_fract_y
_atom_site_fract_z
Si Si1 0.200203 0.223201 0.500000
Si Si2 0.716691 0.644625 0.380144
Si Si3 0.214377 0.855745 0.843653
Si Si4 0.286670 0.144111 0.710135
Si Si5 0.217858 0.354673 0.066034
Si Si6 0.500000 0.000000 0.500000
O O1 0.226439 0.308900 0.443116
O O2 0.000000 0.171034 0.500000
O O3 0.345223 0.111811 0.500000
O O4 0.500000 0.644968 0.378862
O O5 0.775712 0.500000 0.368187
O O6 0.780802 0.747950 0.333140
O O7 0.253572 0.824272 0.777054
O O8 0.281127 0.749988 0.888330
O O9 0.000000 0.859514 0.849495
O O10 0.281472 0.000000 0.854713
O O11 0.500000 0.137964 0.702007
O O12 0.216864 0.000000 0.699145
O O13 0.273016 0.500000 0.079910
O O14 0.000000 0.353967 0.066898
O O15 0.270896 0.326169 0.000000
#
# Coordination Sequence:
#
# PCOD9387923 Si02
#       6
#     4   8   8   8   8   1
#     4  12  26  42  68  97 124 163 205 248 301 357
#     4  10  21  39  62  86 119 159 194 241 301 353
#     4   9  17  29  45  69  99 128 165 220 276 320
#     4   9  19  34  54  75 105 148 190 227 275 341
#     4   8  14  25  42  65  93 126 164 208 265 331
#     4  12  26  48  66  94 136 160 200 256 294 362
#
# _framework density 20.377718000000002
#
# number of rings (size 3 to 8) (size 9 to 14) (size 15 to 20)
#    0.000    2.595    1.081    1.135    1.514    3.892 
#    0.000    2.162    0.000    0.649    0.000    4.541 
#    0.000    0.000    0.000    0.000    0.000    0.000 
#
# Total GULP energy -206311.127009 kJ/mol
# GULP energy per Si atom -5575.976406 kJ/mol
# Density = 2.033134 g / cm^3
# Si number density = 20.377718 Si / 1000 Ang^3
#
#
#
# Elastic Constant Matrix: (Units=GPa)
#
#
# Indices 1 2 3 4 5 6 
#
# 1 82.0317 24.8060 4.2183 0.0000 0.0000 0.0000
# 2 24.8060 199.3599 158.3618 0.0000 0.0000 0.0000
# 3 4.2183 158.3618 174.6610 0.0000 0.0000 0.0000
# 4 0.0000 0.0000 0.0000 -130.5496 0.0000 0.0000
# 5 0.0000 0.0000 0.0000 0.0000 21.7165 0.0000
# 6 0.0000 0.0000 0.0000 0.0000 0.0000 -5.5822
#
#
#
# Elastic Compliance Matrix: (Units=1/GPa)
#
#
# Indices 1 2 3 4 5 6 
#
# 1 0.013507 -0.005081 0.004280 0.000000 0.000000 0.000000
# 2 -0.005081 0.019840 -0.017866 0.000000 0.000000 0.000000
# 3 0.004280 -0.017866 0.021821 0.000000 0.000000 0.000000
# 4 0.000000 0.000000 0.000000 -0.007660 0.000000 0.000000
# 5 0.000000 0.000000 0.000000 0.000000 0.046048 0.000000
# 6 0.000000 0.000000 0.000000 0.000000 0.000000 -0.179142
#
#
# Mechanical properties :
#
#
# Convention : Reuss Voigt Hill
#
# Bulk Modulus (GPa) = 56.06969 92.31389 74.19179
# Shear Modulus (GPa) = -118.17629 -4.97195 -61.57412
#
# Velocity S-wave (km/s) = -7.62357 -1.56371 -5.50291
# Velocity P-wave (km/s) = 7.06518 6.49149 1.97197
#
# Compressibility (1/GPa) = 0.01783495
#
# Stress axis : x y z
#
# Youngs Moduli (GPa) = 74.03730 50.40315 45.82818
#
# Poissons Ratio (x) = 0.25609 -0.19617
# Poissons Ratio (y) = 0.37617 0.81876
# Poissons Ratio (z) = -0.31691 0.90050
#
# Static dielectric constant tensor:
#      x y z
#    x 1.773940 0.000000 0.000000 
#    y 0.000000 1.709180 0.000000 
#    z 0.000000 0.000000 1.679210 
# 
# From -- ./inp_files/1501.got.cif
#   From: 2010.05.17/outbox.cif.g08.bks.cpg/sg47_1_cif.got.tgz:1501.got - 2010.06.03 20:15:42.
