data_PCOD9387213
_publ_section_title
;
Structure prediction by ZEFSAII (Michael W. Deem and Ramdas Pophale) SiO2 
 PCOD9387213
Probable space group: P M M M
;
_chemical_formula_sum "Si O2"
_cell_formula_units_Z 56
_cell_length_a 9.373328
_cell_length_b 21.813177
_cell_length_c 14.543260
_cell_angle_alpha 90.000000
_cell_angle_beta 90.000000
_cell_angle_gamma 90.000000
_cell_volume 2973.544939
_symmetry_space_group_name_H-M "P M M M"
_symmetry_group_IT_number 47
_symmetry_cell_setting 'orthorhombic'
loop_
_space_group_symop_operation_xyz
x,y,z
-x,-y,z
x,-y,-z
-x,y,-z
-x,-y,-z
x,y,-z
-x,y,z
x,-y,z
loop_
_atom_site_type_symbol
_atom_site_label
_atom_site_fract_x
_atom_site_fract_y
_atom_site_fract_z
Si Si1 0.329992 0.239430 0.110944
Si Si2 0.331857 0.926299 0.604917
Si Si3 0.834311 0.158057 0.743770
Si Si4 0.162787 0.363380 0.109130
Si Si5 0.838822 0.500000 0.856008
Si Si6 0.840396 0.727704 0.607725
Si Si7 0.344559 0.381795 0.608138
Si Si8 0.158340 0.500000 0.638670
O O1 0.500000 0.240299 0.129728
O O2 0.251503 0.186056 0.169333
O O3 0.257317 0.304964 0.137355
O O4 0.311801 0.231207 0.000000
O O5 0.286771 0.907920 0.500000
O O6 0.500000 0.910114 0.613756
O O7 0.243600 0.896130 0.687706
O O8 0.320768 0.000000 0.609029
O O9 0.835691 0.212396 0.668568
O O10 0.000000 0.144026 0.767088
O O11 0.223633 0.432594 0.122180
O O12 0.000000 0.361169 0.149184
O O13 0.149075 0.356601 0.000000
O O14 0.851019 0.500000 0.747608
O O15 0.000000 0.500000 0.896818
O O16 0.812702 0.741638 0.500000
O O17 0.731043 0.678062 0.645978
O O18 0.000000 0.700723 0.612052
O O19 0.359383 0.369297 0.500000
O O20 0.500000 0.393782 0.648636
O O21 0.245080 0.440118 0.613576
O O22 0.000000 0.500000 0.600317
#
# Coordination Sequence:
#
# PCOD9387213 Si02
#       8
#     8   8   8   8   4   8   8   4
#     4  10  22  39  57  80 112 150 193 241 293 349
#     4   9  19  37  61  91 129 169 202 230 267 322
#     4  11  22  35  58  88 118 152 192 237 283 331
#     4   9  17  33  56  77  99 131 173 224 284 347
#     4   9  19  32  49  74 100 127 166 217 276 345
#     4   9  19  35  53  76 107 140 175 218 272 332
#     4  10  21  36  51  67  90 124 170 221 268 319
#     4  11  22  33  47  67  94 127 166 213 265 328
#
# _framework density 18.832739
#
# number of rings (size 3 to 8) (size 9 to 14) (size 15 to 20)
#    0.000    2.286    0.000    2.786    2.000    5.714 
#    0.000    3.214    0.000    2.143    0.000    3.000 
#    0.000    0.000    0.000    0.000    0.000    0.000 
#
# Total GULP energy -312127.777220 kJ/mol
# GULP energy per Si atom -5573.710308 kJ/mol
# Density = 1.878987 g / cm^3
# Si number density = 18.832739 Si / 1000 Ang^3
#
#
#
# Elastic Constant Matrix: (Units=GPa)
#
#
# Indices 1 2 3 4 5 6 
#
# 1 111.6918 47.7321 41.1541 0.0000 0.0000 0.0000
# 2 47.7321 70.6545 27.8624 0.0000 0.0000 0.0000
# 3 41.1541 27.8624 88.3786 0.0000 0.0000 0.0000
# 4 0.0000 0.0000 0.0000 44.3748 0.0000 0.0000
# 5 0.0000 0.0000 0.0000 0.0000 20.7855 0.0000
# 6 0.0000 0.0000 0.0000 0.0000 0.0000 32.4519
#
#
#
# Elastic Compliance Matrix: (Units=1/GPa)
#
#
# Indices 1 2 3 4 5 6 
#
# 1 0.013698 -0.007695 -0.003953 0.000000 0.000000 0.000000
# 2 -0.007695 0.020486 -0.002875 0.000000 0.000000 0.000000
# 3 -0.003953 -0.002875 0.014062 0.000000 0.000000 0.000000
# 4 0.000000 0.000000 0.000000 0.022535 0.000000 0.000000
# 5 0.000000 0.000000 0.000000 0.000000 0.048110 0.000000
# 6 0.000000 0.000000 0.000000 0.000000 0.000000 0.030815
#
#
# Mechanical properties :
#
#
# Convention : Reuss Voigt Hill
#
# Bulk Modulus (GPa) = 52.08335 56.02469 54.05402
# Shear Modulus (GPa) = 27.00472 29.78753 28.39612
#
# Velocity S-wave (km/s) = 3.79083 3.98136 3.88726
# Velocity P-wave (km/s) = 6.84663 7.13779 6.99373
#
# Compressibility (1/GPa) = 0.01919999
#
# Stress axis : x y z
#
# Youngs Moduli (GPa) = 73.00179 48.81388 71.11413
#
# Poissons Ratio (x) = 0.37565 0.28109
# Poissons Ratio (y) = 0.56178 0.20445
# Poissons Ratio (z) = 0.28855 0.14034
#
# Static dielectric constant tensor:
#      x y z
#    x 1.699680 0.000000 0.000000 
#    y 0.000000 1.646190 0.000000 
#    z 0.000000 0.000000 1.673950 
# 
# From -- ./inp_files/21616.got.cif
#   From: 2010.05.17/outbox.cif.g08.bks.cpg/sg47_11_cif.got.tgz:21616.got - 2010.06.03 20:15:42.
