data_PCOD9387743
_publ_section_title
;
Structure prediction by ZEFSAII (Michael W. Deem and Ramdas Pophale) SiO2 
 PCOD9387743
Probable space group: P M M M
;
_chemical_formula_sum "Si O2"
_cell_formula_units_Z 48
_cell_length_a 16.708743
_cell_length_b 17.034056
_cell_length_c 8.193747
_cell_angle_alpha 90.000000
_cell_angle_beta 90.000000
_cell_angle_gamma 90.000000
_cell_volume 2332.085130
_symmetry_space_group_name_H-M "P M M M"
_symmetry_group_IT_number 47
_symmetry_cell_setting 'orthorhombic'
loop_
_space_group_symop_operation_xyz
x,y,z
-x,-y,z
x,-y,-z
-x,y,-z
-x,-y,-z
x,y,-z
-x,y,z
x,-y,z
loop_
_atom_site_type_symbol
_atom_site_label
_atom_site_fract_x
_atom_site_fract_y
_atom_site_fract_z
Si Si1 0.316734 0.347838 0.684220
Si Si2 0.906193 0.410432 0.000000
Si Si3 0.149476 0.410119 0.671368
Si Si4 0.251542 0.825328 0.303992
Si Si5 0.089892 0.092369 0.301209
Si Si6 0.595305 0.408649 0.000000
Si Si7 0.412605 0.907347 0.698042
O O1 0.352923 0.343893 0.500000
O O2 0.245002 0.410450 0.678672
O O3 0.270321 0.266287 0.715477
O O4 0.373028 0.368071 0.834754
O O5 0.880660 0.370359 0.834023
O O6 0.870159 0.500000 0.000000
O O7 0.000000 0.418241 0.000000
O O8 0.125570 0.372041 0.500000
O O9 0.118838 0.500000 0.669912
O O10 0.249841 0.839944 0.500000
O O11 0.166440 0.857615 0.242035
O O12 0.331493 0.868249 0.238749
O O13 0.088847 0.097028 0.500000
O O14 0.000000 0.115661 0.245818
O O15 0.101641 0.000000 0.260877
O O16 0.621783 0.500000 0.000000
O O17 0.500000 0.406883 0.000000
O O18 0.412643 0.898262 0.500000
O O19 0.500000 0.876940 0.755389
O O20 0.409758 0.000000 0.731580
#
# Coordination Sequence:
#
# PCOD9387743 Si02
#       7
#     8   4   8   8   8   4   8
#     4  10  21  37  58  84 112 143 182 229 282 339
#     4   9  17  29  47  71  97 126 162 207 256 304
#     4   9  17  30  49  71  96 130 171 213 259 315
#     4   9  16  26  43  70 105 143 185 234 285 336
#     4   8  13  22  39  67 107 154 199 243 291 343
#     4  11  25  43  63  87 114 146 184 228 281 346
#     4   8  13  21  35  59  93 132 173 217 264 316
#
# _framework density 20.582438
#
# number of rings (size 3 to 8) (size 9 to 14) (size 15 to 20)
#    0.000    3.000    0.000    2.500    0.000    5.000 
#    0.000    5.000    0.000    3.000    0.000    2.333 
#    0.000    5.333    0.000    0.333    0.000    0.000 
#
# Total GULP energy -267214.154873 kJ/mol
# GULP energy per Si atom -5566.961560 kJ/mol
# Density = 2.053559 g / cm^3
# Si number density = 20.582438 Si / 1000 Ang^3
#
#
#
# Elastic Constant Matrix: (Units=GPa)
#
#
# Indices 1 2 3 4 5 6 
#
# 1 140.9013 61.0463 45.5726 0.0000 0.0000 0.0000
# 2 61.0463 59.0976 19.2073 0.0000 0.0000 0.0000
# 3 45.5726 19.2073 118.6118 0.0000 0.0000 0.0000
# 4 0.0000 0.0000 0.0000 4.9973 0.0000 0.0000
# 5 0.0000 0.0000 0.0000 0.0000 27.4096 0.0000
# 6 0.0000 0.0000 0.0000 0.0000 0.0000 12.5282
#
#
#
# Elastic Compliance Matrix: (Units=1/GPa)
#
#
# Indices 1 2 3 4 5 6 
#
# 1 0.013899 -0.013323 -0.003183 0.000000 0.000000 0.000000
# 2 -0.013323 0.030631 0.000158 0.000000 0.000000 0.000000
# 3 -0.003183 0.000158 0.009628 0.000000 0.000000 0.000000
# 4 0.000000 0.000000 0.000000 0.200107 0.000000 0.000000
# 5 0.000000 0.000000 0.000000 0.000000 0.036484 0.000000
# 6 0.000000 0.000000 0.000000 0.000000 0.000000 0.079820
#
#
# Mechanical properties :
#
#
# Convention : Reuss Voigt Hill
#
# Bulk Modulus (GPa) = 46.58829 63.36255 54.97542
# Shear Modulus (GPa) = 12.18272 21.83933 17.01102
#
# Velocity S-wave (km/s) = 2.43554 3.26093 2.87798
# Velocity P-wave (km/s) = 5.53111 6.71043 6.14911
#
# Compressibility (1/GPa) = 0.02146462
#
# Stress axis : x y z
#
# Youngs Moduli (GPa) = 71.94955 32.64615 103.86312
#
# Poissons Ratio (x) = 0.43493 0.33057
# Poissons Ratio (y) = 0.95855 -0.01646
# Poissons Ratio (z) = 0.22900 -0.00517
#
# Static dielectric constant tensor:
#      x y z
#    x 1.741360 0.000000 0.000000 
#    y 0.000000 1.773960 0.000000 
#    z 0.000000 0.000000 1.780540 
# 
# From -- ./inp_files/6441.got.cif
#   From: 2010.05.17/outbox.cif.g08.bks.cpg/sg47_4_cif.got.tgz:6441.got - 2010.06.03 20:15:42.
