data_PCOD9387162
_publ_section_title
;
Structure prediction by ZEFSAII (Michael W. Deem and Ramdas Pophale) SiO2 
 PCOD9387162
Probable space group: P M M M
;
_chemical_formula_sum "Si O2"
_cell_formula_units_Z 56
_cell_length_a 14.861808
_cell_length_b 8.135825
_cell_length_c 24.621261
_cell_angle_alpha 90.000000
_cell_angle_beta 90.000000
_cell_angle_gamma 90.000000
_cell_volume 2977.032232
_symmetry_space_group_name_H-M "P M M M"
_symmetry_group_IT_number 47
_symmetry_cell_setting 'orthorhombic'
loop_
_space_group_symop_operation_xyz
x,y,z
-x,-y,z
x,-y,-z
-x,y,-z
-x,-y,-z
x,y,-z
-x,y,z
x,-y,z
loop_
_atom_site_type_symbol
_atom_site_label
_atom_site_fract_x
_atom_site_fract_y
_atom_site_fract_z
Si Si1 0.394683 0.198186 0.060438
Si Si2 0.750253 0.306127 0.144968
Si Si3 0.753791 0.697063 0.437941
Si Si4 0.102575 0.801688 0.649720
Si Si5 0.397312 0.801416 0.644914
Si Si6 0.746467 0.803105 0.268312
Si Si7 0.103794 0.700636 0.939260
O O1 0.500000 0.238624 0.065536
O O2 0.337212 0.272385 0.108659
O O3 0.386913 0.000000 0.062349
O O4 0.364495 0.252777 0.000000
O O5 0.763324 0.500000 0.150420
O O6 0.744282 0.237196 0.205249
O O7 0.832196 0.237962 0.108378
O O8 0.755690 0.756321 0.500000
O O9 0.754760 0.500000 0.438040
O O10 0.839713 0.756672 0.403422
O O11 0.664187 0.753884 0.406352
O O12 0.163765 0.742678 0.700468
O O13 0.000000 0.739762 0.649569
O O14 0.098645 0.000000 0.652481
O O15 0.500000 0.740572 0.642998
O O16 0.340384 0.743316 0.697576
O O17 0.400808 0.000000 0.646853
O O18 0.746623 0.000000 0.273506
O O19 0.107088 0.500000 0.939239
O O20 0.000000 0.747476 0.931290
O O21 0.131898 0.753779 0.000000
#
# Coordination Sequence:
#
# PCOD9387162 Si02
#       7
#     8   8   8   8   8   8   8
#     4   9  19  36  55  73  96 130 169 207 254 312
#     4  11  21  31  49  78 105 130 165 209 255 301
#     4  10  21  35  52  80 116 145 169 204 254 312
#     4   9  19  37  59  79 101 136 181 223 260 298
#     4   9  19  37  59  78  98 133 180 223 260 299
#     4   9  19  35  52  73 103 136 170 210 256 305
#     4   8  15  29  47  67  95 130 163 196 240 295
#
# _framework density 18.810679
#
# number of rings (size 3 to 8) (size 9 to 14) (size 15 to 20)
#    0.000    2.714    0.000    3.000    0.000    6.857 
#    0.000    5.000    0.000    1.286    0.000    5.000 
#    0.000    0.000    0.000    0.000    0.000    0.000 
#
# Total GULP energy -312305.741768 kJ/mol
# GULP energy per Si atom -5576.888246 kJ/mol
# Density = 1.876786 g / cm^3
# Si number density = 18.810679 Si / 1000 Ang^3
#
#
#
# Elastic Constant Matrix: (Units=GPa)
#
#
# Indices 1 2 3 4 5 6 
#
# 1 153.9011 10.1237 89.4903 0.0000 0.0000 0.0000
# 2 10.1237 5.1674 2.6089 0.0000 0.0000 0.0000
# 3 89.4903 2.6089 177.4575 0.0000 0.0000 0.0000
# 4 0.0000 0.0000 0.0000 36.0909 0.0000 0.0000
# 5 0.0000 0.0000 0.0000 0.0000 15.8215 0.0000
# 6 0.0000 0.0000 0.0000 0.0000 0.0000 7.7608
#
#
#
# Elastic Compliance Matrix: (Units=1/GPa)
#
#
# Indices 1 2 3 4 5 6 
#
# 1 0.010679 -0.018338 -0.005115 0.000000 0.000000 0.000000
# 2 -0.018338 0.226459 0.005918 0.000000 0.000000 0.000000
# 3 -0.005115 0.005918 0.008128 0.000000 0.000000 0.000000
# 4 0.000000 0.000000 0.000000 0.027708 0.000000 0.000000
# 5 0.000000 0.000000 0.000000 0.000000 0.063205 0.000000
# 6 0.000000 0.000000 0.000000 0.000000 0.000000 0.128853
#
#
# Mechanical properties :
#
#
# Convention : Reuss Voigt Hill
#
# Bulk Modulus (GPa) = 4.75748 60.10796 32.43272
# Shear Modulus (GPa) = 8.76937 27.55485 18.16211
#
# Velocity S-wave (km/s) = 2.16149 3.83149 3.11065
# Velocity P-wave (km/s) = 2.96041 7.18313 5.49369
#
# Compressibility (1/GPa) = 0.21019512
#
# Stress axis : x y z
#
# Youngs Moduli (GPa) = 93.64611 4.41581 123.03401
#
# Poissons Ratio (x) = 0.08098 0.62938
# Poissons Ratio (y) = 1.71728 -0.72816
# Poissons Ratio (z) = 0.47904 -0.02613
#
# Static dielectric constant tensor:
#      x y z
#    x 1.656220 0.000000 0.000000 
#    y 0.000000 1.666580 0.000000 
#    z 0.000000 0.000000 1.638860 
# 
# From -- ./inp_files/11211.got.cif
#   From: 2010.05.17/outbox.cif.g08.bks.cpg/sg47_6_cif.got.tgz:11211.got - 2010.06.03 20:15:42.
