data_PCOD9387369
_publ_section_title
;
Structure prediction by ZEFSAII (Michael W. Deem and Ramdas Pophale) SiO2 
 PCOD9387369
Probable space group: P M M M
;
_chemical_formula_sum "Si O2"
_cell_formula_units_Z 40
_cell_length_a 28.432409
_cell_length_b 9.261925
_cell_length_c 7.738229
_cell_angle_alpha 90.000000
_cell_angle_beta 90.000000
_cell_angle_gamma 90.000000
_cell_volume 2037.776246
_symmetry_space_group_name_H-M "P M M M"
_symmetry_group_IT_number 47
_symmetry_cell_setting 'orthorhombic'
loop_
_space_group_symop_operation_xyz
x,y,z
-x,-y,z
x,-y,-z
-x,y,-z
-x,-y,-z
x,y,-z
-x,y,z
x,-y,z
loop_
_atom_site_type_symbol
_atom_site_label
_atom_site_fract_x
_atom_site_fract_y
_atom_site_fract_z
Si Si1 0.815080 0.336375 0.292735
Si Si2 0.553535 0.324589 0.500000
Si Si3 0.279300 0.164475 0.208085
Si Si4 0.374471 0.326767 0.796627
Si Si5 0.000000 0.663816 0.793816
Si Si6 0.905782 0.836348 0.292776
O O1 0.820249 0.345279 0.500000
O O2 0.813351 0.500000 0.224827
O O3 0.767077 0.251847 0.258079
O O4 0.860240 0.249014 0.225015
O O5 0.551692 0.500000 0.500000
O O6 0.500000 0.271250 0.500000
O O7 0.583035 0.283810 0.329431
O O8 0.326857 0.246665 0.260372
O O9 0.277736 0.000000 0.273262
O O10 0.280356 0.159633 0.000000
O O11 0.367598 0.500000 0.781744
O O12 0.383485 0.295674 0.000000
O O13 0.953360 0.749280 0.740782
O O14 0.000000 0.500000 0.724135
O O15 0.000000 0.655982 0.000000
O O16 0.900628 0.845840 0.500000
O O17 0.908336 0.000000 0.225015
#
# Coordination Sequence:
#
# PCOD9387369 Si02
#       6
#     8   4   8   8   4   8
#     4  10  21  36  56  82 110 141 178 221 270 325
#     4   9  18  32  53  83 113 143 187 238 285 336
#     4  10  21  36  54  78 109 145 183 224 274 329
#     4   9  18  33  53  78 110 147 187 233 284 337
#     4  11  24  39  56  80 108 141 182 225 272 326
#     4  10  21  38  59  82 108 140 180 224 273 329
#
# _framework density 19.629241
#
# number of rings (size 3 to 8) (size 9 to 14) (size 15 to 20)
#    0.000    2.200    0.000    2.400    1.400    6.800 
#    0.000    2.000    0.000    1.200    0.000    2.800 
#    0.000    0.000    0.000    0.000    0.000    0.000 
#
# Total GULP energy -223372.102812 kJ/mol
# GULP energy per Si atom -5584.302570 kJ/mol
# Density = 1.958456 g / cm^3
# Si number density = 19.629241 Si / 1000 Ang^3
#
#
#
# Elastic Constant Matrix: (Units=GPa)
#
#
# Indices 1 2 3 4 5 6 
#
# 1 223.0014 108.3889 42.2807 0.0000 0.0000 0.0000
# 2 108.3889 151.4653 34.1215 0.0000 0.0000 0.0000
# 3 42.2807 34.1215 50.0666 0.0000 0.0000 0.0000
# 4 0.0000 0.0000 0.0000 16.7744 0.0000 0.0000
# 5 0.0000 0.0000 0.0000 0.0000 62.9225 0.0000
# 6 0.0000 0.0000 0.0000 0.0000 0.0000 -96.0710
#
#
#
# Elastic Compliance Matrix: (Units=1/GPa)
#
#
# Indices 1 2 3 4 5 6 
#
# 1 0.007251 -0.004500 -0.003056 0.000000 0.000000 0.000000
# 2 -0.004500 0.010593 -0.003419 0.000000 0.000000 0.000000
# 3 -0.003056 -0.003419 0.024884 0.000000 0.000000 0.000000
# 4 0.000000 0.000000 0.000000 0.059615 0.000000 0.000000
# 5 0.000000 0.000000 0.000000 0.000000 0.015893 0.000000
# 6 0.000000 0.000000 0.000000 0.000000 0.000000 -0.010409
#
#
# Mechanical properties :
#
#
# Convention : Reuss Voigt Hill
#
# Bulk Modulus (GPa) = 48.12926 88.23505 68.18215
# Shear Modulus (GPa) = 36.57553 12.70799 24.64176
#
# Velocity S-wave (km/s) = 4.32130 2.54717 3.54695
# Velocity P-wave (km/s) = 7.03353 7.32797 7.18226
#
# Compressibility (1/GPa) = 0.02077738
#
# Stress axis : x y z
#
# Youngs Moduli (GPa) = 137.90859 94.40348 40.18582
#
# Poissons Ratio (x) = 0.42486 0.12282
# Poissons Ratio (y) = 0.62065 0.13738
# Poissons Ratio (z) = 0.42151 0.32274
#
# Static dielectric constant tensor:
#      x y z
#    x 1.644090 0.000000 0.000000 
#    y 0.000000 1.688150 0.000000 
#    z 0.000000 0.000000 1.718950 
# 
# From -- ./inp_files/1794.got.cif
#   From: 2010.05.17/outbox.cif.g08.bks.cpg/sg47_1_cif.got.tgz:1794.got - 2010.06.03 20:15:42.
