data_PCOD9387588
_publ_section_title
;
Structure prediction by ZEFSAII (Michael W. Deem and Ramdas Pophale) SiO2 
 PCOD9387588
Probable space group: P M M M
;
_chemical_formula_sum "Si O2"
_cell_formula_units_Z 48
_cell_length_a 9.160230
_cell_length_b 18.603089
_cell_length_c 14.879535
_cell_angle_alpha 90.000000
_cell_angle_beta 90.000000
_cell_angle_gamma 90.000000
_cell_volume 2535.600340
_symmetry_space_group_name_H-M "P M M M"
_symmetry_group_IT_number 47
_symmetry_cell_setting 'orthorhombic'
loop_
_space_group_symop_operation_xyz
x,y,z
-x,-y,z
x,-y,-z
-x,y,-z
-x,-y,-z
x,y,-z
-x,y,z
x,-y,z
loop_
_atom_site_type_symbol
_atom_site_label
_atom_site_fract_x
_atom_site_fract_y
_atom_site_fract_z
Si Si1 0.325864 0.417018 0.182614
Si Si2 0.175676 0.151226 0.106603
Si Si3 0.837025 0.413748 0.000000
Si Si4 0.330000 0.000000 0.890529
Si Si5 0.337644 0.789537 0.607244
Si Si6 0.160265 0.080723 0.390831
Si Si7 0.170759 0.719415 0.755525
O O1 0.500000 0.413892 0.179334
O O2 0.285043 0.500000 0.204193
O O3 0.258813 0.354904 0.242207
O O4 0.255555 0.397019 0.087035
O O5 0.215955 0.219254 0.170679
O O6 0.000000 0.142693 0.113304
O O7 0.250659 0.075439 0.134748
O O8 0.209575 0.164848 0.000000
O O9 0.852271 0.500000 0.000000
O O10 0.000000 0.381657 0.000000
O O11 0.500000 0.000000 0.862590
O O12 0.326174 0.000000 0.000000
O O13 0.331360 0.780866 0.500000
O O14 0.500000 0.769407 0.638077
O O15 0.298686 0.871552 0.631008
O O16 0.209568 0.749134 0.657774
O O17 0.154486 0.078904 0.500000
O O18 0.000000 0.108542 0.360514
O O19 0.174403 0.000000 0.357636
O O20 0.000000 0.705954 0.769449
#
# Coordination Sequence:
#
# PCOD9387588 Si02
#       7
#     8   8   4   4   8   8   8
#     4  10  21  37  57  83 117 153 186 226 280 339
#     4   9  19  36  56  79 110 148 188 231 278 329
#     4   9  17  31  53  81 113 150 189 224 263 321
#     4   9  17  31  53  79 106 143 190 235 279 324
#     4  10  21  37  56  78 108 145 184 231 286 341
#     4   8  14  27  49  75 102 134 174 221 273 330
#     4  11  23  37  58  86 113 147 190 235 283 337
#
# _framework density 18.930427999999999
#
# number of rings (size 3 to 8) (size 9 to 14) (size 15 to 20)
#    0.000    2.500    0.000    2.500    1.167    5.667 
#    1.500    1.667    0.000    0.500    0.000    3.500 
#    0.000    0.000    0.000    0.000    0.000    0.000 
#
# Total GULP energy -267414.945175 kJ/mol
# GULP energy per Si atom -5571.144691 kJ/mol
# Density = 1.888734 g / cm^3
# Si number density = 18.930428 Si / 1000 Ang^3
#
#
#
# Elastic Constant Matrix: (Units=GPa)
#
#
# Indices 1 2 3 4 5 6 
#
# 1 65.9335 47.5687 16.4190 0.0000 0.0000 0.0000
# 2 47.5687 93.8680 18.8066 0.0000 0.0000 0.0000
# 3 16.4190 18.8066 30.0276 0.0000 0.0000 0.0000
# 4 0.0000 0.0000 0.0000 19.2592 0.0000 0.0000
# 5 0.0000 0.0000 0.0000 0.0000 19.0326 0.0000
# 6 0.0000 0.0000 0.0000 0.0000 0.0000 32.8804
#
#
#
# Elastic Compliance Matrix: (Units=1/GPa)
#
#
# Indices 1 2 3 4 5 6 
#
# 1 0.024987 -0.011349 -0.006555 0.000000 0.000000 0.000000
# 2 -0.011349 0.017337 -0.004652 0.000000 0.000000 0.000000
# 3 -0.006555 -0.004652 0.039801 0.000000 0.000000 0.000000
# 4 0.000000 0.000000 0.000000 0.051923 0.000000 0.000000
# 5 0.000000 0.000000 0.000000 0.000000 0.052541 0.000000
# 6 0.000000 0.000000 0.000000 0.000000 0.000000 0.030413
#
#
# Mechanical properties :
#
#
# Convention : Reuss Voigt Hill
#
# Bulk Modulus (GPa) = 27.01852 39.49085 33.25469
# Shear Modulus (GPa) = 18.21808 21.37009 19.79408
#
# Velocity S-wave (km/s) = 3.10557 3.36352 3.23712
# Velocity P-wave (km/s) = 5.21181 5.99922 5.61933
#
# Compressibility (1/GPa) = 0.03701164
#
# Stress axis : x y z
#
# Youngs Moduli (GPa) = 40.02049 57.68091 25.12523
#
# Poissons Ratio (x) = 0.65464 0.16469
# Poissons Ratio (y) = 0.45420 0.11689
# Poissons Ratio (z) = 0.26233 0.26836
#
# Static dielectric constant tensor:
#      x y z
#    x 1.661810 0.000000 0.000000 
#    y 0.000000 1.694850 0.000000 
#    z 0.000000 0.000000 1.871150 
# 
# From -- ./inp_files/21080.got.cif
#   From: 2010.05.17/outbox.cif.g08.bks.cpg/sg47_11_cif.got.tgz:21080.got - 2010.06.03 20:15:42.
