data_PCOD9387084
_publ_section_title
;
Structure prediction by ZEFSAII (Michael W. Deem and Ramdas Pophale) SiO2 
 PCOD9387084
Probable space group: P M M M
;
_chemical_formula_sum "Si O2"
_cell_formula_units_Z 64
_cell_length_a 20.604438
_cell_length_b 20.111050
_cell_length_c 9.045936
_cell_angle_alpha 90.000000
_cell_angle_beta 90.000000
_cell_angle_gamma 90.000000
_cell_volume 3748.426762
_symmetry_space_group_name_H-M "P M M M"
_symmetry_group_IT_number 47
_symmetry_cell_setting 'orthorhombic'
loop_
_space_group_symop_operation_xyz
x,y,z
-x,-y,z
x,-y,-z
-x,y,-z
-x,-y,-z
x,y,-z
-x,y,z
x,-y,z
loop_
_atom_site_type_symbol
_atom_site_label
_atom_site_fract_x
_atom_site_fract_y
_atom_site_fract_z
Si Si1 0.924278 0.826359 0.176463
Si Si2 0.575440 0.171169 0.322691
Si Si3 0.817086 0.423099 0.677558
Si Si4 0.424819 0.326377 0.322618
Si Si5 0.681940 0.921783 0.823895
Si Si6 0.925113 0.684071 0.677169
Si Si7 0.320639 0.577645 0.823481
Si Si8 0.180348 0.078694 0.324348
O O1 0.910974 0.752887 0.240168
O O2 0.876287 0.878434 0.251577
O O3 0.000000 0.841452 0.209672
O O4 0.916049 0.826954 0.000000
O O5 0.582659 0.163655 0.500000
O O6 0.500000 0.157098 0.286458
O O7 0.587964 0.248804 0.287142
O O8 0.624720 0.123204 0.240140
O O9 0.808485 0.419214 0.500000
O O10 0.832440 0.500000 0.714250
O O11 0.874795 0.373388 0.719083
O O12 0.749482 0.405337 0.755150
O O13 0.418514 0.333447 0.500000
O O14 0.500000 0.340472 0.284232
O O15 0.375512 0.375107 0.242664
O O16 0.750258 0.904067 0.747504
O O17 0.669523 0.000000 0.792872
O O18 0.687395 0.913648 0.000000
O O19 0.919911 0.694820 0.500000
O O20 0.000000 0.665391 0.708451
O O21 0.333521 0.500000 0.786304
O O22 0.318373 0.583695 0.000000
O O23 0.182667 0.090054 0.500000
O O24 0.169504 0.000000 0.298527
#
# Coordination Sequence:
#
# PCOD9387084 Si02
#       8
#     8   8   8   8   8   8   8   8
#     4  10  21  36  54  77 106 139 173 210 254 306
#     4   9  19  36  56  78 105 137 174 215 257 304
#     4   9  18  33  53  76 102 134 172 213 257 304
#     4   9  19  36  56  77 101 131 169 211 254 302
#     4  10  21  36  54  78 108 139 172 212 257 306
#     4   9  18  33  53  77 105 136 171 213 258 303
#     4  10  21  35  51  74 104 136 170 209 253 303
#     4  10  21  37  57  79 103 134 173 215 258 306
#
# _framework density 17.073829
#
# number of rings (size 3 to 8) (size 9 to 14) (size 15 to 20)
#    0.000    2.500    0.000    2.250    0.000    6.500 
#    0.000    7.500    0.000    0.000    0.000    3.500 
#    0.000    0.000    0.000    0.000    0.000    0.000 
#
# Total GULP energy -357129.439318 kJ/mol
# GULP energy per Si atom -5580.147489 kJ/mol
# Density = 1.703497 g / cm^3
# Si number density = 17.073829 Si / 1000 Ang^3
#
#
#
# Elastic Constant Matrix: (Units=GPa)
#
#
# Indices 1 2 3 4 5 6 
#
# 1 159.3235 120.3851 79.4754 0.0000 0.0000 0.0000
# 2 120.3851 107.6118 67.8215 0.0000 0.0000 0.0000
# 3 79.4754 67.8215 57.2469 0.0000 0.0000 0.0000
# 4 0.0000 0.0000 0.0000 26.0812 0.0000 0.0000
# 5 0.0000 0.0000 0.0000 0.0000 22.6546 0.0000
# 6 0.0000 0.0000 0.0000 0.0000 0.0000 43.9058
#
#
#
# Elastic Compliance Matrix: (Units=1/GPa)
#
#
# Indices 1 2 3 4 5 6 
#
# 1 0.042099 -0.040503 -0.010461 0.000000 0.000000 0.000000
# 2 -0.040503 0.075649 -0.033392 0.000000 0.000000 0.000000
# 3 -0.010461 -0.033392 0.071551 0.000000 0.000000 0.000000
# 4 0.000000 0.000000 0.000000 0.038342 0.000000 0.000000
# 5 0.000000 0.000000 0.000000 0.000000 0.044141 0.000000
# 6 0.000000 0.000000 0.000000 0.000000 0.000000 0.022776
#
#
# Mechanical properties :
#
#
# Convention : Reuss Voigt Hill
#
# Bulk Modulus (GPa) = 48.57553 95.50516 72.04035
# Shear Modulus (GPa) = 10.63532 22.29499 16.46516
#
# Velocity S-wave (km/s) = 2.49851 3.61750 3.10877
# Velocity P-wave (km/s) = 6.06922 8.57359 7.42772
#
# Compressibility (1/GPa) = 0.02058650
#
# Stress axis : x y z
#
# Youngs Moduli (GPa) = 23.75353 13.21900 13.97608
#
# Poissons Ratio (x) = 0.53541 0.14620
# Poissons Ratio (y) = 0.96210 0.46669
# Poissons Ratio (z) = 0.24848 0.44141
#
# Static dielectric constant tensor:
#      x y z
#    x 1.550520 0.000000 0.000000 
#    y 0.000000 1.557300 0.000000 
#    z 0.000000 0.000000 1.564790 
# 
# From -- ./inp_files/9968.got.cif
#   From: 2010.05.17/outbox.cif.g08.bks.cpg/sg47_5_cif.got.tgz:9968.got - 2010.06.03 20:15:42.
