data_PCOD9387414
_publ_section_title
;
Structure prediction by ZEFSAII (Michael W. Deem and Ramdas Pophale) SiO2 
 PCOD9387414
Probable space group: P M M M
;
_chemical_formula_sum "Si O2"
_cell_formula_units_Z 52
_cell_length_a 7.783719
_cell_length_b 13.612145
_cell_length_c 21.568943
_cell_angle_alpha 90.000000
_cell_angle_beta 90.000000
_cell_angle_gamma 90.000000
_cell_volume 2285.296626
_symmetry_space_group_name_H-M "P M M M"
_symmetry_group_IT_number 47
_symmetry_cell_setting 'orthorhombic'
loop_
_space_group_symop_operation_xyz
x,y,z
-x,-y,z
x,-y,-z
-x,y,-z
-x,-y,-z
x,y,-z
-x,y,z
x,-y,z
loop_
_atom_site_type_symbol
_atom_site_label
_atom_site_fract_x
_atom_site_fract_y
_atom_site_fract_z
Si Si1 0.200737 0.319337 0.762693
Si Si2 0.699852 0.616213 0.500000
Si Si3 0.299993 0.691200 0.371590
Si Si4 0.201700 0.821823 0.067192
Si Si5 0.699073 0.392504 0.891826
Si Si6 0.792213 0.112080 0.428163
Si Si7 0.210361 0.893374 0.199074
O O1 0.221476 0.348657 0.691673
O O2 0.290607 0.379437 0.817154
O O3 0.263757 0.206050 0.766661
O O4 0.000000 0.321350 0.779255
O O5 0.696439 0.500000 0.500000
O O6 0.500000 0.652245 0.500000
O O7 0.779180 0.651070 0.564462
O O8 0.500000 0.664341 0.369422
O O9 0.279777 0.808083 0.381152
O O10 0.216541 0.704883 0.079977
O O11 0.269000 0.876799 0.127946
O O12 0.000000 0.846196 0.064973
O O13 0.278046 0.845024 0.000000
O O14 0.500000 0.389985 0.910489
O O15 0.770640 0.500000 0.908517
O O16 0.742418 0.134307 0.500000
O O17 0.000000 0.115991 0.425373
O O18 0.740472 0.000000 0.415075
O O19 0.000000 0.893576 0.200430
O O20 0.266790 0.000000 0.222283
#
# Coordination Sequence:
#
# PCOD9387414 Si02
#       7
#     8   4   8   8   8   8   8
#     4  10  21  36  55  80 108 140 178 222 271 324
#     4   9  20  38  56  75 102 136 173 215 266 327
#     4  11  21  35  56  81 107 139 178 222 274 328
#     4   9  18  32  52  81 113 143 178 221 269 319
#     4  10  21  37  56  77 103 139 182 227 274 323
#     4   9  18  33  53  76 104 139 175 213 262 318
#     4   8  15  30  52  77 106 141 180 219 257 302
#
# _framework density 22.754159999999999
#
# number of rings (size 3 to 8) (size 9 to 14) (size 15 to 20)
#    0.000    2.538    0.769    2.769    0.000    3.692 
#    0.000    6.923    0.000   14.308    0.000    4.308 
#    0.000    0.000    0.000    0.000    0.000    0.000 
#
# Total GULP energy -290242.293446 kJ/mol
# GULP energy per Si atom -5581.582566 kJ/mol
# Density = 2.270237 g / cm^3
# Si number density = 22.754160 Si / 1000 Ang^3
#
#
#
# Elastic Constant Matrix: (Units=GPa)
#
#
# Indices 1 2 3 4 5 6 
#
# 1 36.1203 -6.4365 -4.6187 0.0000 0.0000 0.0000
# 2 -6.4365 43.7162 -20.7488 0.0000 0.0000 0.0000
# 3 -4.6187 -20.7488 78.0370 0.0000 0.0000 0.0000
# 4 0.0000 0.0000 0.0000 -1.4605 0.0000 0.0000
# 5 0.0000 0.0000 0.0000 0.0000 1.0364 0.0000
# 6 0.0000 0.0000 0.0000 0.0000 0.0000 4.6289
#
#
#
# Elastic Compliance Matrix: (Units=1/GPa)
#
#
# Indices 1 2 3 4 5 6 
#
# 1 0.029147 0.005848 0.003280 0.000000 0.000000 0.000000
# 2 0.005848 0.027352 0.007619 0.000000 0.000000 0.000000
# 3 0.003280 0.007619 0.015034 0.000000 0.000000 0.000000
# 4 0.000000 0.000000 0.000000 -0.684689 0.000000 0.000000
# 5 0.000000 0.000000 0.000000 0.000000 0.964897 0.000000
# 6 0.000000 0.000000 0.000000 0.000000 0.000000 0.216034
#
#
# Mechanical properties :
#
#
# Convention : Reuss Voigt Hill
#
# Bulk Modulus (GPa) = 9.52143 10.47394 9.99769
# Shear Modulus (GPa) = 8.78286 13.48611 11.13448
#
# Velocity S-wave (km/s) = 1.96679 2.43716 2.21450
# Velocity P-wave (km/s) = 3.05798 3.54016 3.30787
#
# Compressibility (1/GPa) = 0.10502627
#
# Stress axis : x y z
#
# Youngs Moduli (GPa) = 34.30910 36.56064 66.51489
#
# Poissons Ratio (x) = -0.21381 -0.21817
# Poissons Ratio (y) = -0.20064 -0.50675
# Poissons Ratio (z) = -0.11253 -0.27854
#
# Static dielectric constant tensor:
#      x y z
#    x 1.864460 0.000000 0.000000 
#    y 0.000000 1.846580 0.000000 
#    z 0.000000 0.000000 1.869080 
# 
# From -- ./inp_files/12543.got.cif
#   From: 2010.05.17/outbox.cif.g08.bks.cpg/sg47_7_cif.got.tgz:12543.got - 2010.06.03 20:15:42.
