data_PCOD9387573
_publ_section_title
;
Structure prediction by ZEFSAII (Michael W. Deem and Ramdas Pophale) SiO2 
 PCOD9387573
Probable space group: P M M M
;
_chemical_formula_sum "Si O2"
_cell_formula_units_Z 52
_cell_length_a 8.996331
_cell_length_b 20.634581
_cell_length_c 14.707577
_cell_angle_alpha 90.000000
_cell_angle_beta 90.000000
_cell_angle_gamma 90.000000
_cell_volume 2730.248715
_symmetry_space_group_name_H-M "P M M M"
_symmetry_group_IT_number 47
_symmetry_cell_setting 'orthorhombic'
loop_
_space_group_symop_operation_xyz
x,y,z
-x,-y,z
x,-y,-z
-x,y,-z
-x,-y,-z
x,y,-z
-x,y,z
x,-y,z
loop_
_atom_site_type_symbol
_atom_site_label
_atom_site_fract_x
_atom_site_fract_y
_atom_site_fract_z
Si Si1 0.326022 0.569567 0.110425
Si Si2 0.318705 0.711485 0.104245
Si Si3 0.177269 0.075680 0.189764
Si Si4 0.667575 0.078331 0.000000
Si Si5 0.322612 0.805490 0.266831
Si Si6 0.672305 0.428113 0.610499
Si Si7 0.171252 0.296678 0.609539
O O1 0.500000 0.568716 0.137651
O O2 0.260166 0.500000 0.139245
O O3 0.264373 0.640004 0.135435
O O4 0.324602 0.570207 0.000000
O O5 0.500000 0.708529 0.103460
O O6 0.276340 0.765779 0.176040
O O7 0.272144 0.724062 0.000000
O O8 0.246923 0.094648 0.092048
O O9 0.246021 0.124758 0.262183
O O10 0.000000 0.081335 0.186159
O O11 0.214403 0.000000 0.206406
O O12 0.500000 0.105703 0.000000
O O13 0.657400 0.000000 0.000000
O O14 0.500000 0.812397 0.266833
O O15 0.268933 0.760399 0.348649
O O16 0.675174 0.428614 0.500000
O O17 0.500000 0.419498 0.637444
O O18 0.721387 0.500000 0.640080
O O19 0.767154 0.366768 0.640133
O O20 0.179427 0.295306 0.500000
O O21 0.000000 0.288788 0.636652
#
# Coordination Sequence:
#
# PCOD9387573 Si02
#       7
#     8   8   8   4   8   8   8
#     4   7   9  16  33  55  82 122 168 208 245 287
#     4   8  15  27  42  66 101 136 171 212 259 310
#     4  10  21  37  56  79 110 146 182 222 269 326
#     4   9  17  31  53  81 111 143 180 219 262 315
#     4  11  22  34  54  81 109 142 179 225 276 327
#     4   8  14  27  50  79 108 137 173 223 281 335
#     4  10  21  37  56  77 106 146 189 232 278 333
#
# _framework density 19.045881999999999
#
# number of rings (size 3 to 8) (size 9 to 14) (size 15 to 20)
#    0.000    3.000    0.000    3.462    1.077    3.077 
#    0.000    2.308    0.000    3.231    0.000    3.231 
#    0.000    0.000    0.000    9.692    0.000   10.769 
#
# Total GULP energy -289939.012504 kJ/mol
# GULP energy per Si atom -5575.750240 kJ/mol
# Density = 1.900253 g / cm^3
# Si number density = 19.045882 Si / 1000 Ang^3
#
#
#
# Elastic Constant Matrix: (Units=GPa)
#
#
# Indices 1 2 3 4 5 6 
#
# 1 53.6434 50.9441 16.1084 0.0000 0.0000 0.0000
# 2 50.9441 124.9227 20.8069 0.0000 0.0000 0.0000
# 3 16.1084 20.8069 42.6221 0.0000 0.0000 0.0000
# 4 0.0000 0.0000 0.0000 61.4771 0.0000 0.0000
# 5 0.0000 0.0000 0.0000 0.0000 17.0578 0.0000
# 6 0.0000 0.0000 0.0000 0.0000 0.0000 23.5957
#
#
#
# Elastic Compliance Matrix: (Units=1/GPa)
#
#
# Indices 1 2 3 4 5 6 
#
# 1 0.031863 -0.011961 -0.006203 0.000000 0.000000 0.000000
# 2 -0.011961 0.013203 -0.001925 0.000000 0.000000 0.000000
# 3 -0.006203 -0.001925 0.026746 0.000000 0.000000 0.000000
# 4 0.000000 0.000000 0.000000 0.016266 0.000000 0.000000
# 5 0.000000 0.000000 0.000000 0.000000 0.058624 0.000000
# 6 0.000000 0.000000 0.000000 0.000000 0.000000 0.042381
#
#
# Mechanical properties :
#
#
# Convention : Reuss Voigt Hill
#
# Bulk Modulus (GPa) = 31.61113 44.10076 37.85594
# Shear Modulus (GPa) = 20.85009 29.31470 25.08240
#
# Velocity S-wave (km/s) = 3.31226 3.92747 3.63291
# Velocity P-wave (km/s) = 5.59120 6.61604 6.12509
#
# Compressibility (1/GPa) = 0.03163443
#
# Stress axis : x y z
#
# Youngs Moduli (GPa) = 31.38401 75.73883 37.38847
#
# Poissons Ratio (x) = 0.90590 0.23193
# Poissons Ratio (y) = 0.37538 0.07197
# Poissons Ratio (z) = 0.19469 0.14580
#
# Static dielectric constant tensor:
#      x y z
#    x 1.650180 0.000000 0.000000 
#    y 0.000000 1.704180 0.000000 
#    z 0.000000 0.000000 1.685590 
# 
# From -- ./inp_files/21453.got.cif
#   From: 2010.05.17/outbox.cif.g08.bks.cpg/sg47_11_cif.got.tgz:21453.got - 2010.06.03 20:15:42.
