data_PCOD9387479
_publ_section_title
;
Structure prediction by ZEFSAII (Michael W. Deem and Ramdas Pophale) SiO2 
 PCOD9387479
Probable space group: P M M M
;
_chemical_formula_sum "Si O2"
_cell_formula_units_Z 48
_cell_length_a 18.893927
_cell_length_b 14.334837
_cell_length_c 9.293517
_cell_angle_alpha 90.000000
_cell_angle_beta 90.000000
_cell_angle_gamma 90.000000
_cell_volume 2517.068819
_symmetry_space_group_name_H-M "P M M M"
_symmetry_group_IT_number 47
_symmetry_cell_setting 'orthorhombic'
loop_
_space_group_symop_operation_xyz
x,y,z
-x,-y,z
x,-y,-z
-x,y,-z
-x,-y,-z
x,y,-z
-x,y,z
x,-y,z
loop_
_atom_site_type_symbol
_atom_site_label
_atom_site_fract_x
_atom_site_fract_y
_atom_site_fract_z
Si Si1 0.080637 0.110283 0.327841
Si Si2 0.084465 0.607507 0.341793
Si Si3 0.584267 0.290603 0.669823
Si Si4 0.828070 0.257616 0.169204
Si Si5 0.414047 0.104375 0.834303
Si Si6 0.297900 0.393867 0.826863
O O1 0.084968 0.122811 0.500000
O O2 0.142977 0.167088 0.251401
O O3 0.000000 0.140467 0.285076
O O4 0.085894 0.000000 0.297895
O O5 0.108785 0.643357 0.500000
O O6 0.106030 0.500000 0.330971
O O7 0.113227 0.665915 0.210510
O O8 0.000000 0.610669 0.343089
O O9 0.597405 0.294440 0.500000
O O10 0.500000 0.300472 0.693928
O O11 0.606656 0.189685 0.733537
O O12 0.628385 0.368617 0.752609
O O13 0.756938 0.312057 0.216575
O O14 0.823378 0.239310 0.000000
O O15 0.500000 0.102333 0.834118
O O16 0.390307 0.000000 0.791660
O O17 0.391860 0.121285 0.000000
O O18 0.275492 0.500000 0.789499
O O19 0.303994 0.390009 0.000000
#
# Coordination Sequence:
#
# PCOD9387479 Si02
#       6
#     8   8   8   8   8   8
#     4   9  19  37  60  85 115 153 194 231 268 318
#     4   9  18  32  50  74 105 142 182 218 255 309
#     4  10  21  36  56  84 113 139 176 232 292 345
#     4  11  22  35  54  81 111 141 178 227 277 323
#     4   8  14  27  50  79 109 141 174 206 247 308
#     4  10  23  42  59  76 104 145 189 229 276 340
#
# _framework density 19.069801999999999
#
# number of rings (size 3 to 8) (size 9 to 14) (size 15 to 20)
#    0.000    2.500    0.000    3.500    0.000    7.333 
#    0.000    5.833    0.000    1.000    0.000    0.000 
#    0.000    0.000    0.000    0.000    0.000    0.000 
#
# Total GULP energy -267563.470764 kJ/mol
# GULP energy per Si atom -5574.238974 kJ/mol
# Density = 1.902640 g / cm^3
# Si number density = 19.069802 Si / 1000 Ang^3
#
#
#
# Elastic Constant Matrix: (Units=GPa)
#
#
# Indices 1 2 3 4 5 6 
#
# 1 56.0743 44.3952 34.9612 0.0000 0.0000 0.0000
# 2 44.3952 94.6872 33.2884 0.0000 0.0000 0.0000
# 3 34.9612 33.2884 29.2424 0.0000 0.0000 0.0000
# 4 0.0000 0.0000 0.0000 28.6044 0.0000 0.0000
# 5 0.0000 0.0000 0.0000 0.0000 22.7851 0.0000
# 6 0.0000 0.0000 0.0000 0.0000 0.0000 36.6784
#
#
#
# Elastic Compliance Matrix: (Units=1/GPa)
#
#
# Indices 1 2 3 4 5 6 
#
# 1 0.071923 -0.005821 -0.079362 0.000000 0.000000 0.000000
# 2 -0.005821 0.018079 -0.013620 0.000000 0.000000 0.000000
# 3 -0.079362 -0.013620 0.144584 0.000000 0.000000 0.000000
# 4 0.000000 0.000000 0.000000 0.034960 0.000000 0.000000
# 5 0.000000 0.000000 0.000000 0.000000 0.043888 0.000000
# 6 0.000000 0.000000 0.000000 0.000000 0.000000 0.027264
#
#
# Mechanical properties :
#
#
# Convention : Reuss Voigt Hill
#
# Bulk Modulus (GPa) = 27.04260 45.03260 36.03760
# Shear Modulus (GPa) = 9.08049 22.10419 15.59234
#
# Velocity S-wave (km/s) = 2.18450 3.40828 2.86255
# Velocity P-wave (km/s) = 4.53590 6.25735 5.46483
#
# Compressibility (1/GPa) = 0.03697869
#
# Stress axis : x y z
#
# Youngs Moduli (GPa) = 13.90378 55.31294 6.91640
#
# Poissons Ratio (x) = 0.32200 0.54890
# Poissons Ratio (y) = 0.08094 0.09420
# Poissons Ratio (z) = 1.10343 0.75339
#
# Static dielectric constant tensor:
#      x y z
#    x 1.676240 0.000000 0.000000 
#    y 0.000000 1.686120 0.000000 
#    z 0.000000 0.000000 1.646780 
# 
# From -- ./inp_files/6365.got.cif
#   From: 2010.05.17/outbox.cif.g08.bks.cpg/sg47_4_cif.got.tgz:6365.got - 2010.06.03 20:15:42.
