data_PCOD9387888
_publ_section_title
;
Structure prediction by ZEFSAII (Michael W. Deem and Ramdas Pophale) SiO2 
 PCOD9387888
Probable space group: P M M M
;
_chemical_formula_sum "Si O2"
_cell_formula_units_Z 48
_cell_length_a 18.163645
_cell_length_b 8.340048
_cell_length_c 15.870743
_cell_angle_alpha 90.000000
_cell_angle_beta 90.000000
_cell_angle_gamma 90.000000
_cell_volume 2404.190155
_symmetry_space_group_name_H-M "P M M M"
_symmetry_group_IT_number 47
_symmetry_cell_setting 'orthorhombic'
loop_
_space_group_symop_operation_xyz
x,y,z
-x,-y,z
x,-y,-z
-x,y,-z
-x,-y,-z
x,y,-z
-x,y,z
x,-y,z
loop_
_atom_site_type_symbol
_atom_site_label
_atom_site_fract_x
_atom_site_fract_y
_atom_site_fract_z
Si Si1 0.701242 0.693647 0.594956
Si Si2 0.154282 0.808743 0.677690
Si Si3 0.355541 0.189591 0.906122
Si Si4 0.914893 0.807306 0.000000
Si Si5 0.417980 0.692486 0.268382
Si Si6 0.000000 0.195683 0.597173
Si Si7 0.804401 0.311809 0.861365
O O1 0.676338 0.730638 0.500000
O O2 0.707620 0.500000 0.602049
O O3 0.781014 0.767661 0.612568
O O4 0.643950 0.751244 0.666201
O O5 0.074770 0.754266 0.643912
O O6 0.176921 0.727054 0.765104
O O7 0.151374 0.000000 0.690883
O O8 0.396849 0.266972 0.827340
O O9 0.268876 0.220368 0.890790
O O10 0.369532 0.000000 0.904207
O O11 0.374982 0.250094 0.000000
O O12 0.872032 0.741376 0.919209
O O13 0.000000 0.759284 0.000000
O O14 0.910872 0.000000 0.000000
O O15 0.500000 0.753215 0.287613
O O16 0.418820 0.500000 0.276473
O O17 0.000000 0.248660 0.500000
O O18 0.000000 0.000000 0.596485
O O19 0.790077 0.500000 0.871520
#
# Coordination Sequence:
#
# PCOD9387888 Si02
#       7
#     8   8   8   4   8   4   8
#     4  10  21  38  61  90 124 162 207 258 311 371
#     4  11  22  38  62  89 120 161 208 254 306 367
#     4  11  23  40  64  91 121 160 205 253 307 367
#     4  11  25  43  63  89 124 163 208 255 305 365
#     4  10  22  40  62  90 126 167 208 253 309 373
#     4   9  20  38  59  86 119 156 199 247 300 359
#     4  12  24  39  61  89 122 160 204 253 306 364
#
# _framework density 19.965143000000001
#
# number of rings (size 3 to 8) (size 9 to 14) (size 15 to 20)
#    0.000    1.333    2.500    3.250    1.167    3.667 
#    0.000    4.583    0.000    3.000    0.000    2.333 
#    0.000    0.000    0.000    0.000    0.000    0.000 
#
# Total GULP energy -268326.953363 kJ/mol
# GULP energy per Si atom -5590.144862 kJ/mol
# Density = 1.991970 g / cm^3
# Si number density = 19.965143 Si / 1000 Ang^3
#
#
#
# Elastic Constant Matrix: (Units=GPa)
#
#
# Indices 1 2 3 4 5 6 
#
# 1 108.8293 -2.7203 25.7485 0.0000 0.0000 0.0000
# 2 -2.7203 13.9203 -2.1531 0.0000 0.0000 0.0000
# 3 25.7485 -2.1531 101.8730 0.0000 0.0000 0.0000
# 4 0.0000 0.0000 0.0000 36.4867 0.0000 0.0000
# 5 0.0000 0.0000 0.0000 0.0000 15.1271 0.0000
# 6 0.0000 0.0000 0.0000 0.0000 0.0000 21.0680
#
#
#
# Elastic Compliance Matrix: (Units=1/GPa)
#
#
# Indices 1 2 3 4 5 6 
#
# 1 0.009806 0.001538 -0.002446 0.000000 0.000000 0.000000
# 2 0.001538 0.072314 0.001140 0.000000 0.000000 0.000000
# 3 -0.002446 0.001140 0.010458 0.000000 0.000000 0.000000
# 4 0.000000 0.000000 0.000000 0.027407 0.000000 0.000000
# 5 0.000000 0.000000 0.000000 0.000000 0.066106 0.000000
# 6 0.000000 0.000000 0.000000 0.000000 0.000000 0.047465
#
#
# Mechanical properties :
#
#
# Convention : Reuss Voigt Hill
#
# Bulk Modulus (GPa) = 10.74787 29.59700 20.17244
# Shear Modulus (GPa) = 18.93164 28.11952 23.52558
#
# Velocity S-wave (km/s) = 3.08268 3.75698 3.43641
# Velocity P-wave (km/s) = 4.25036 5.80313 5.08635
#
# Compressibility (1/GPa) = 0.09304168
#
# Stress axis : x y z
#
# Youngs Moduli (GPa) = 101.98003 13.82854 95.61650
#
# Poissons Ratio (x) = -0.02127 0.23387
# Poissons Ratio (y) = -0.15684 -0.10897
# Poissons Ratio (z) = 0.24944 -0.01576
#
# Static dielectric constant tensor:
#      x y z
#    x 1.682740 0.000000 0.000000 
#    y 0.000000 1.692190 0.000000 
#    z 0.000000 0.000000 1.699910 
# 
# From -- ./inp_files/9199.got.cif
#   From: 2010.05.17/outbox.cif.g08.bks.cpg/sg47_5_cif.got.tgz:9199.got - 2010.06.03 20:15:42.
