data_PCOD9387285
_publ_section_title
;
Structure prediction by ZEFSAII (Michael W. Deem and Ramdas Pophale) SiO2 
 PCOD9387285
Probable space group: P M M M
;
_chemical_formula_sum "Si O2"
_cell_formula_units_Z 32
_cell_length_a 8.620296
_cell_length_b 14.755725
_cell_length_c 13.160131
_cell_angle_alpha 90.000000
_cell_angle_beta 90.000000
_cell_angle_gamma 90.000000
_cell_volume 1673.951781
_symmetry_space_group_name_H-M "P M M M"
_symmetry_group_IT_number 47
_symmetry_cell_setting 'orthorhombic'
loop_
_space_group_symop_operation_xyz
x,y,z
-x,-y,z
x,-y,-z
-x,y,-z
-x,-y,-z
x,y,-z
-x,y,z
x,-y,z
loop_
_atom_site_type_symbol
_atom_site_label
_atom_site_fract_x
_atom_site_fract_y
_atom_site_fract_z
Si Si1 0.822267 0.000000 0.876448
Si Si2 0.677772 0.101134 0.378112
Si Si3 0.180338 0.719370 0.694034
Si Si4 0.810656 0.394610 0.500000
Si Si5 0.315122 0.197156 0.115351
O O1 0.741453 0.903808 0.852131
O O2 0.000000 0.000000 0.840199
O O3 0.824146 0.000000 0.000000
O O4 0.672064 0.099000 0.500000
O O5 0.500000 0.121303 0.343630
O O6 0.794207 0.179555 0.348733
O O7 0.720300 0.000000 0.343929
O O8 0.242798 0.654458 0.604068
O O9 0.260285 0.727897 0.803783
O O10 0.000000 0.698748 0.708625
O O11 0.769233 0.500000 0.500000
O O12 0.000000 0.387328 0.500000
O O13 0.500000 0.195640 0.112753
O O14 0.257392 0.213415 0.000000
#
# Coordination Sequence:
#
# PCOD9387285 Si02
#       5
#     4   8   8   4   8
#     4   9  17  31  51  76 107 146 195 241 271 304
#     4   9  18  32  49  71 106 150 186 218 262 322
#     4  11  21  34  56  83 109 141 184 234 279 323
#     4   9  20  40  62  85 112 140 174 224 290 351
#     4  10  21  36  53  75 109 153 193 227 271 326
#
# _framework density 19.116441999999999
#
# number of rings (size 3 to 8) (size 9 to 14) (size 15 to 20)
#    0.000    2.250    1.250    2.625    1.750    3.500 
#    0.000    1.250    0.000    6.750    0.000    5.250 
#    0.000    0.000    0.000    0.000    0.000    0.000 
#
# Total GULP energy -178484.750698 kJ/mol
# GULP energy per Si atom -5577.648459 kJ/mol
# Density = 1.907293 g / cm^3
# Si number density = 19.116442 Si / 1000 Ang^3
#
#
#
# Elastic Constant Matrix: (Units=GPa)
#
#
# Indices 1 2 3 4 5 6 
#
# 1 44.7840 13.5291 19.0899 0.0000 0.0000 0.0000
# 2 13.5291 81.4813 62.0462 0.0000 0.0000 0.0000
# 3 19.0899 62.0462 149.9701 0.0000 0.0000 0.0000
# 4 0.0000 0.0000 0.0000 19.5984 0.0000 0.0000
# 5 0.0000 0.0000 0.0000 0.0000 28.9476 0.0000
# 6 0.0000 0.0000 0.0000 0.0000 0.0000 93.4196
#
#
#
# Elastic Compliance Matrix: (Units=1/GPa)
#
#
# Indices 1 2 3 4 5 6 
#
# 1 0.023932 -0.002415 -0.002047 0.000000 0.000000 0.000000
# 2 -0.002415 0.018161 -0.007206 0.000000 0.000000 0.000000
# 3 -0.002047 -0.007206 0.009910 0.000000 0.000000 0.000000
# 4 0.000000 0.000000 0.000000 0.051025 0.000000 0.000000
# 5 0.000000 0.000000 0.000000 0.000000 0.034545 0.000000
# 6 0.000000 0.000000 0.000000 0.000000 0.000000 0.010704
#
#
# Mechanical properties :
#
#
# Convention : Reuss Voigt Hill
#
# Bulk Modulus (GPa) = 34.88427 51.72955 43.30691
# Shear Modulus (GPa) = 27.59857 40.49780 34.04818
#
# Velocity S-wave (km/s) = 3.80374 4.60769 4.22488
# Velocity P-wave (km/s) = 6.13018 7.44491 6.81931
#
# Compressibility (1/GPa) = 0.02866622
#
# Stress axis : x y z
#
# Youngs Moduli (GPa) = 41.78590 55.06260 100.90784
#
# Poissons Ratio (x) = 0.13295 0.20659
# Poissons Ratio (y) = 0.10090 0.72718
# Poissons Ratio (z) = 0.08555 0.39680
#
# Static dielectric constant tensor:
#      x y z
#    x 1.679370 0.000000 0.000000 
#    y 0.000000 1.623700 0.000000 
#    z 0.000000 0.000000 1.777360 
# 
# From -- ./inp_files/20403.got.cif
#   From: 2010.05.17/outbox.cif.g08.bks.cpg/sg47_11_cif.got.tgz:20403.got - 2010.06.03 20:15:42.
