data_PCOD9387842
_publ_section_title
;
Structure prediction by ZEFSAII (Michael W. Deem and Ramdas Pophale) SiO2 
 PCOD9387842
Probable space group: P M M M
;
_chemical_formula_sum "Si O2"
_cell_formula_units_Z 48
_cell_length_a 33.633218
_cell_length_b 8.005776
_cell_length_c 9.304489
_cell_angle_alpha 90.000000
_cell_angle_beta 90.000000
_cell_angle_gamma 90.000000
_cell_volume 2505.326796
_symmetry_space_group_name_H-M "P M M M"
_symmetry_group_IT_number 47
_symmetry_cell_setting 'orthorhombic'
loop_
_space_group_symop_operation_xyz
x,y,z
-x,-y,z
x,-y,-z
-x,y,-z
-x,-y,-z
x,y,-z
-x,y,z
x,-y,z
loop_
_atom_site_type_symbol
_atom_site_label
_atom_site_fract_x
_atom_site_fract_y
_atom_site_fract_z
Si Si1 0.655298 0.299802 0.662712
Si Si2 0.045837 0.000000 0.675525
Si Si3 0.100371 0.307955 0.324926
Si Si4 0.421356 0.298543 0.163750
Si Si5 0.732617 0.801405 0.837335
Si Si6 0.809975 0.701386 0.335540
Si Si7 0.500000 0.199801 0.664024
O O1 0.655254 0.233372 0.500000
O O2 0.650820 0.500000 0.654133
O O3 0.617963 0.235249 0.754655
O O4 0.696660 0.265882 0.741468
O O5 0.069102 0.167661 0.721459
O O6 0.046301 0.000000 0.500000
O O7 0.000000 0.000000 0.721143
O O8 0.100058 0.311934 0.500000
O O9 0.092724 0.500000 0.277770
O O10 0.145399 0.255626 0.285623
O O11 0.418720 0.500000 0.157238
O O12 0.460739 0.255770 0.251925
O O13 0.423428 0.235961 0.000000
O O14 0.774755 0.761428 0.765042
O O15 0.728257 0.000000 0.842987
O O16 0.730548 0.734195 0.000000
O O17 0.804355 0.762181 0.500000
O O18 0.808820 0.500000 0.340093
O O19 0.500000 0.264167 0.500000
O O20 0.500000 0.000000 0.659179
#
# Coordination Sequence:
#
# PCOD9387842 Si02
#       7
#     8   4   8   8   8   8   4
#     4  10  21  38  60  83 106 137 178 219 261 314
#     4   9  16  24  38  64  97 137 179 215 265 328
#     4   8  15  27  42  64  95 130 172 221 268 320
#     4  10  21  38  61  86 110 140 179 222 270 321
#     4  11  24  37  50  75 109 141 174 214 263 318
#     4   9  18  33  53  75  98 131 177 222 265 316
#     4  11  24  39  56  82 114 147 182 221 268 320
#
# _framework density 19.159177
#
# number of rings (size 3 to 8) (size 9 to 14) (size 15 to 20)
#    0.000    2.333    0.000    3.500    1.167    8.333 
#    0.000    1.667    0.000    0.000    0.000    0.000 
#    0.000    1.333    0.000    3.667    0.000    3.667 
#
# Total GULP energy -267910.030520 kJ/mol
# GULP energy per Si atom -5581.458969 kJ/mol
# Density = 1.911557 g / cm^3
# Si number density = 19.159177 Si / 1000 Ang^3
#
#
#
# Elastic Constant Matrix: (Units=GPa)
#
#
# Indices 1 2 3 4 5 6 
#
# 1 173.1882 43.3195 82.0910 0.0000 0.0000 0.0000
# 2 43.3195 40.3366 26.3798 0.0000 0.0000 0.0000
# 3 82.0910 26.3798 129.0882 0.0000 0.0000 0.0000
# 4 0.0000 0.0000 0.0000 17.5852 0.0000 0.0000
# 5 0.0000 0.0000 0.0000 0.0000 -38.1376 0.0000
# 6 0.0000 0.0000 0.0000 0.0000 0.0000 50.4286
#
#
#
# Elastic Compliance Matrix: (Units=1/GPa)
#
#
# Indices 1 2 3 4 5 6 
#
# 1 0.009918 -0.007534 -0.004768 0.000000 0.000000 0.000000
# 2 -0.007534 0.034338 -0.002226 0.000000 0.000000 0.000000
# 3 -0.004768 -0.002226 0.011234 0.000000 0.000000 0.000000
# 4 0.000000 0.000000 0.000000 0.056866 0.000000 0.000000
# 5 0.000000 0.000000 0.000000 0.000000 -0.026221 0.000000
# 6 0.000000 0.000000 0.000000 0.000000 0.000000 0.019830
#
#
# Mechanical properties :
#
#
# Convention : Reuss Voigt Hill
#
# Bulk Modulus (GPa) = 37.82929 71.79926 54.81427
# Shear Modulus (GPa) = 34.76257 18.69674 26.72966
#
# Velocity S-wave (km/s) = 4.26421 3.12727 3.73920
# Velocity P-wave (km/s) = 6.63568 7.11310 6.87853
#
# Compressibility (1/GPa) = 0.02643455
#
# Stress axis : x y z
#
# Youngs Moduli (GPa) = 100.82224 29.12206 89.01854
#
# Poissons Ratio (x) = 0.21940 0.42443
# Poissons Ratio (y) = 0.75957 0.19818
# Poissons Ratio (z) = 0.48071 0.06483
#
# Static dielectric constant tensor:
#      x y z
#    x 1.638280 0.000000 0.000000 
#    y 0.000000 1.679480 0.000000 
#    z 0.000000 0.000000 1.664210 
# 
# From -- ./inp_files/13860.got.cif
#   From: 2010.05.17/outbox.cif.g08.bks.cpg/sg47_7_cif.got.tgz:13860.got - 2010.06.03 20:15:42.
