data_PCOD9387845
_publ_section_title
;
Structure prediction by ZEFSAII (Michael W. Deem and Ramdas Pophale) SiO2 
 PCOD9387845
Probable space group: P M M M
;
_chemical_formula_sum "Si O2"
_cell_formula_units_Z 44
_cell_length_a 7.641839
_cell_length_b 8.092472
_cell_length_c 32.957735
_cell_angle_alpha 90.000000
_cell_angle_beta 90.000000
_cell_angle_gamma 90.000000
_cell_volume 2038.151423
_symmetry_space_group_name_H-M "P M M M"
_symmetry_group_IT_number 47
_symmetry_cell_setting 'orthorhombic'
loop_
_space_group_symop_operation_xyz
x,y,z
-x,-y,z
x,-y,-z
-x,y,-z
-x,-y,-z
x,y,-z
-x,y,z
x,-y,z
loop_
_atom_site_type_symbol
_atom_site_label
_atom_site_fract_x
_atom_site_fract_y
_atom_site_fract_z
Si Si1 0.710720 0.000000 0.268879
Si Si2 0.199821 0.697921 0.870463
Si Si3 0.295043 0.687435 0.219722
Si Si4 0.709835 0.809495 0.500000
Si Si5 0.205885 0.801671 0.956352
Si Si6 0.211087 0.000000 0.363709
Si Si7 0.792412 0.681413 0.411579
O O1 0.779899 0.832590 0.247673
O O2 0.747448 0.000000 0.316430
O O3 0.500000 0.000000 0.262909
O O4 0.195431 0.500000 0.871220
O O5 0.281950 0.742186 0.827370
O O6 0.283147 0.749606 0.913214
O O7 0.000000 0.762391 0.869726
O O8 0.500000 0.673476 0.229567
O O9 0.220195 0.500000 0.223573
O O10 0.500000 0.811016 0.500000
O O11 0.769458 0.721114 0.459044
O O12 0.772444 0.000000 0.500000
O O13 0.000000 0.750125 0.955712
O O14 0.210109 0.000000 0.957060
O O15 0.278317 0.743175 0.000000
O O16 0.279401 0.164775 0.385945
O O17 0.000000 0.000000 0.368455
O O18 0.718625 0.500000 0.402179
O O19 0.000000 0.674967 0.403483
#
# Coordination Sequence:
#
# PCOD9387845 Si02
#       7
#     4   8   8   4   8   4   8
#     4  10  22  38  57  79 101 133 175 211 256 321
#     4   9  17  28  45  71  96 120 158 204 245 290
#     4   9  19  36  54  73 100 131 163 204 255 309
#     4  11  22  35  56  87 121 154 193 238 275 311
#     4   8  14  24  38  60  92 126 156 189 235 290
#     4  10  22  39  57  82 113 141 177 226 272 318
#     4  10  21  38  60  84 113 153 193 226 270 325
#
# _framework density 21.588187999999999
#
# number of rings (size 3 to 8) (size 9 to 14) (size 15 to 20)
#    0.000    2.636    0.909    1.091    1.273    4.364 
#    0.000    1.818    0.000    0.545    0.000    3.818 
#    0.000    0.000    0.000    0.000    0.000    0.000 
#
# Total GULP energy -245396.636271 kJ/mol
# GULP energy per Si atom -5577.196279 kJ/mol
# Density = 2.153905 g / cm^3
# Si number density = 21.588188 Si / 1000 Ang^3
#
#
#
# Elastic Constant Matrix: (Units=GPa)
#
#
# Indices 1 2 3 4 5 6 
#
# 1 40.6914 12.6113 -8.7193 0.0000 0.0000 0.0000
# 2 12.6113 148.6388 102.2181 0.0000 0.0000 0.0000
# 3 -8.7193 102.2181 181.1111 0.0000 0.0000 0.0000
# 4 0.0000 0.0000 0.0000 38.5049 0.0000 0.0000
# 5 0.0000 0.0000 0.0000 0.0000 31.6516 0.0000
# 6 0.0000 0.0000 0.0000 0.0000 0.0000 1.2865
#
#
#
# Elastic Compliance Matrix: (Units=1/GPa)
#
#
# Indices 1 2 3 4 5 6 
#
# 1 0.027106 -0.005225 0.004254 0.000000 0.000000 0.000000
# 2 -0.005225 0.012003 -0.007026 0.000000 0.000000 0.000000
# 3 0.004254 -0.007026 0.009692 0.000000 0.000000 0.000000
# 4 0.000000 0.000000 0.000000 0.025971 0.000000 0.000000
# 5 0.000000 0.000000 0.000000 0.000000 0.031594 0.000000
# 6 0.000000 0.000000 0.000000 0.000000 0.000000 0.777285
#
#
# Mechanical properties :
#
#
# Convention : Reuss Voigt Hill
#
# Bulk Modulus (GPa) = 30.48178 64.74019 47.61098
# Shear Modulus (GPa) = 5.49100 31.91067 18.70084
#
# Velocity S-wave (km/s) = 1.59657 3.84885 2.94641
# Velocity P-wave (km/s) = 4.18916 7.05729 5.80320
#
# Compressibility (1/GPa) = 0.03280649
#
# Stress axis : x y z
#
# Youngs Moduli (GPa) = 36.89178 83.31455 103.18188
#
# Poissons Ratio (x) = 0.43535 -0.43896
# Poissons Ratio (y) = 0.19278 0.72494
# Poissons Ratio (z) = -0.15694 0.58535
#
# Static dielectric constant tensor:
#      x y z
#    x 1.811380 0.000000 0.000000 
#    y 0.000000 1.802990 0.000000 
#    z 0.000000 0.000000 1.760820 
# 
# From -- ./inp_files/33998.got.cif
#   From: 2010.05.17/outbox.cif.g08.bks.cpg/sg47_17_cif.got.tgz:33998.got - 2010.06.03 20:15:42.
