data_PCOD9387208
_publ_section_title
;
Structure prediction by ZEFSAII (Michael W. Deem and Ramdas Pophale) SiO2 
 PCOD9387208
Probable space group: P M M M
;
_chemical_formula_sum "Si O2"
_cell_formula_units_Z 37
_cell_length_a 18.740469
_cell_length_b 12.318450
_cell_length_c 7.532654
_cell_angle_alpha 90.000000
_cell_angle_beta 90.000000
_cell_angle_gamma 90.000000
_cell_volume 1738.939769
_symmetry_space_group_name_H-M "P M M M"
_symmetry_group_IT_number 47
_symmetry_cell_setting 'orthorhombic'
loop_
_space_group_symop_operation_xyz
x,y,z
-x,-y,z
x,-y,-z
-x,y,-z
-x,-y,-z
x,y,-z
-x,y,z
x,-y,z
loop_
_atom_site_type_symbol
_atom_site_label
_atom_site_fract_x
_atom_site_fract_y
_atom_site_fract_z
Si Si1 0.917925 0.500000 0.212959
Si Si2 0.421733 0.626445 0.716519
Si Si3 0.351309 0.000000 0.804372
Si Si4 0.000000 0.873657 0.282308
Si Si5 0.136489 0.738307 0.290996
Si Si6 0.293928 0.229016 0.705475
Si Si7 0.500000 0.000000 0.000000
O O1 0.880898 0.388990 0.272711
O O2 0.000000 0.500000 0.276300
O O3 0.918358 0.500000 0.000000
O O4 0.422048 0.631929 0.500000
O O5 0.500000 0.666851 0.775556
O O6 0.415598 0.500000 0.763655
O O7 0.355228 0.694521 0.785337
O O8 0.324823 0.891693 0.711467
O O9 0.316362 0.000000 0.000000
O O10 0.435673 0.000000 0.847191
O O11 0.929539 0.809138 0.219804
O O12 0.000000 0.870459 0.500000
O O13 0.000000 0.000000 0.231019
O O14 0.139295 0.765512 0.500000
O O15 0.214864 0.762833 0.215500
O O16 0.286691 0.263967 0.500000
#
# Coordination Sequence:
#
# PCOD9387208 Si02
#       7
#     4   8   4   4   8   8   1
#     4  11  23  39  59  83 120 161 208 253 293 356
#     4   8  15  28  47  75 110 141 170 217 283 341
#     4  10  23  41  59  80 116 159 195 238 292 356
#     4   9  18  33  55  82 114 151 190 241 302 363
#     4  10  21  36  60  89 117 152 196 251 311 361
#     4  10  21  35  59  89 115 145 193 252 298 349
#     4   8  24  44  62  80 110 174 206 232 296 358
#
# _framework density 21.277332999999999
#
# number of rings (size 3 to 8) (size 9 to 14) (size 15 to 20)
#    0.324    2.162    1.081    1.297    4.541    1.297 
#    0.000    0.541    0.000    0.649    0.000    2.270 
#    0.000    0.000    0.000    0.000    0.000    0.000 
#
# Total GULP energy -206167.488863 kJ/mol
# GULP energy per Si atom -5572.094294 kJ/mol
# Density = 2.122891 g / cm^3
# Si number density = 21.277333 Si / 1000 Ang^3
#
#
#
# Elastic Constant Matrix: (Units=GPa)
#
#
# Indices 1 2 3 4 5 6 
#
# 1 262.3991 115.6975 7.9436 0.0000 0.0000 0.0000
# 2 115.6975 126.2294 -17.2942 0.0000 0.0000 0.0000
# 3 7.9436 -17.2942 53.4352 0.0000 0.0000 0.0000
# 4 0.0000 0.0000 0.0000 -176.9144 0.0000 0.0000
# 5 0.0000 0.0000 0.0000 0.0000 -30.3211 0.0000
# 6 0.0000 0.0000 0.0000 0.0000 0.0000 4.4799
#
#
#
# Elastic Compliance Matrix: (Units=1/GPa)
#
#
# Indices 1 2 3 4 5 6 
#
# 1 0.006884 -0.006749 -0.003208 0.000000 0.000000 0.000000
# 2 -0.006749 0.014906 0.005828 0.000000 0.000000 0.000000
# 3 -0.003208 0.005828 0.021077 0.000000 0.000000 0.000000
# 4 0.000000 0.000000 0.000000 -0.005652 0.000000 0.000000
# 5 0.000000 0.000000 0.000000 0.000000 -0.032980 0.000000
# 6 0.000000 0.000000 0.000000 0.000000 0.000000 0.223218
#
#
# Mechanical properties :
#
#
# Convention : Reuss Voigt Hill
#
# Bulk Modulus (GPa) = 28.89362 72.75083 50.82223
# Shear Modulus (GPa) = 20.22268 -18.16998 1.02635
#
# Velocity S-wave (km/s) = 3.08625 -2.92543 0.69528
# Velocity P-wave (km/s) = 5.12923 4.78070 4.95803
#
# Compressibility (1/GPa) = 0.03460971
#
# Stress axis : x y z
#
# Youngs Moduli (GPa) = 145.26723 67.08530 47.44453
#
# Poissons Ratio (x) = 0.45276 0.15218
# Poissons Ratio (y) = 0.98041 -0.27649
# Poissons Ratio (z) = 0.46596 -0.39095
#
# Static dielectric constant tensor:
#      x y z
#    x 1.784870 0.000000 0.000000 
#    y 0.000000 2.043270 0.000000 
#    z 0.000000 0.000000 1.791970 
# 
# From -- ./inp_files/8718.got.cif
#   From: 2010.05.17/outbox.cif.g08.bks.cpg/sg47_5_cif.got.tgz:8718.got - 2010.06.03 20:15:42.
