data_PCOD9387561
_publ_section_title
;
Structure prediction by ZEFSAII (Michael W. Deem and Ramdas Pophale) SiO2 
 PCOD9387561
Probable space group: P M M M
;
_chemical_formula_sum "Si O2"
_cell_formula_units_Z 48
_cell_length_a 33.660058
_cell_length_b 9.584362
_cell_length_c 8.113718
_cell_angle_alpha 90.000000
_cell_angle_beta 90.000000
_cell_angle_gamma 90.000000
_cell_volume 2617.568031
_symmetry_space_group_name_H-M "P M M M"
_symmetry_group_IT_number 47
_symmetry_cell_setting 'orthorhombic'
loop_
_space_group_symop_operation_xyz
x,y,z
-x,-y,z
x,-y,-z
-x,y,-z
-x,-y,-z
x,y,-z
-x,y,z
x,-y,z
loop_
_atom_site_type_symbol
_atom_site_label
_atom_site_fract_x
_atom_site_fract_y
_atom_site_fract_z
Si Si1 0.762909 0.657599 0.696290
Si Si2 0.311403 0.841140 0.198275
Si Si3 0.401308 0.830176 0.189833
Si Si4 0.000000 0.339729 0.297921
Si Si5 0.075045 0.159767 0.698409
Si Si6 0.545902 0.829702 0.500000
Si Si7 0.162550 0.840791 0.803410
O O1 0.763877 0.650029 0.500000
O O2 0.762892 0.500000 0.764047
O O3 0.723356 0.740521 0.745425
O O4 0.801589 0.742804 0.751025
O O5 0.356102 0.793208 0.239705
O O6 0.305442 0.000000 0.260784
O O7 0.310330 0.847791 0.000000
O O8 0.431490 0.784869 0.332731
O O9 0.402070 0.000000 0.185242
O O10 0.409274 0.784207 0.000000
O O11 0.039421 0.257732 0.243262
O O12 0.000000 0.500000 0.245007
O O13 0.000000 0.338977 0.500000
O O14 0.072878 0.155869 0.500000
O O15 0.119152 0.208072 0.745430
O O16 0.070285 0.000000 0.758845
O O17 0.500000 0.786478 0.500000
O O18 0.546747 0.000000 0.500000
O O19 0.168281 0.000000 0.739821
O O20 0.162153 0.846800 0.000000
#
# Coordination Sequence:
#
# PCOD9387561 Si02
#       7
#     8   8   8   4   8   4   8
#     4  11  24  37  50  74 105 134 167 208 255 308
#     4   9  18  33  53  75  98 130 173 215 255 304
#     4   8  15  27  42  64  95 129 169 215 259 309
#     4   9  17  29  48  75 102 128 162 205 250 295
#     4   9  17  31  52  75  99 128 163 203 247 296
#     4   9  16  24  38  64  97 135 175 211 259 318
#     4  10  21  37  56  77 101 132 171 211 253 304
#
# _framework density 18.337630999999998
#
# number of rings (size 3 to 8) (size 9 to 14) (size 15 to 20)
#    0.000    2.667    0.000    2.750    1.167    6.667 
#    0.000    3.750    0.000    2.500    0.000    0.000 
#    0.000    1.333    0.000    3.667    0.000    3.667 
#
# Total GULP energy -267663.151274 kJ/mol
# GULP energy per Si atom -5576.315652 kJ/mol
# Density = 1.829589 g / cm^3
# Si number density = 18.337631 Si / 1000 Ang^3
#
#
#
# Elastic Constant Matrix: (Units=GPa)
#
#
# Indices 1 2 3 4 5 6 
#
# 1 197.6174 83.7668 62.6981 0.0000 0.0000 0.0000
# 2 83.7668 68.8141 26.9491 0.0000 0.0000 0.0000
# 3 62.6981 26.9491 46.2233 0.0000 0.0000 0.0000
# 4 0.0000 0.0000 0.0000 12.4796 0.0000 0.0000
# 5 0.0000 0.0000 0.0000 0.0000 80.3024 0.0000
# 6 0.0000 0.0000 0.0000 0.0000 0.0000 -4.7408
#
#
#
# Elastic Compliance Matrix: (Units=1/GPa)
#
#
# Indices 1 2 3 4 5 6 
#
# 1 0.014165 -0.012594 -0.011871 0.000000 0.000000 0.000000
# 2 -0.012594 0.030029 -0.000425 0.000000 0.000000 0.000000
# 3 -0.011871 -0.000425 0.037984 0.000000 0.000000 0.000000
# 4 0.000000 0.000000 0.000000 0.080131 0.000000 0.000000
# 5 0.000000 0.000000 0.000000 0.000000 0.012453 0.000000
# 6 0.000000 0.000000 0.000000 0.000000 0.000000 -0.210933
#
#
# Mechanical properties :
#
#
# Convention : Reuss Voigt Hill
#
# Bulk Modulus (GPa) = 30.86594 73.27587 52.07091
# Shear Modulus (GPa) = 204.85289 26.89094 115.87192
#
# Velocity S-wave (km/s) = 10.58084 3.83356 7.95771
# Velocity P-wave (km/s) = 12.88957 7.72276 10.62501
#
# Compressibility (1/GPa) = 0.03239817
#
# Stress axis : x y z
#
# Youngs Moduli (GPa) = 70.59633 33.30140 26.32687
#
# Poissons Ratio (x) = 0.41940 0.31253
# Poissons Ratio (y) = 0.88909 0.01118
# Poissons Ratio (z) = 0.83806 0.01414
#
# Static dielectric constant tensor:
#      x y z
#    x 1.622760 0.000000 0.000000 
#    y 0.000000 1.626430 0.000000 
#    z 0.000000 0.000000 1.649680 
# 
# From -- ./inp_files/2796.got.cif
#   From: 2010.05.17/outbox.cif.g08.bks.cpg/sg47_2_cif.got.tgz:2796.got - 2010.06.03 20:15:42.
