data_PCOD9387733
_publ_section_title
;
Structure prediction by ZEFSAII (Michael W. Deem and Ramdas Pophale) SiO2 
 PCOD9387733
Probable space group: P M M M
;
_chemical_formula_sum "Si O2"
_cell_formula_units_Z 44
_cell_length_a 7.905291
_cell_length_b 13.657631
_cell_length_c 16.988622
_cell_angle_alpha 90.000000
_cell_angle_beta 90.000000
_cell_angle_gamma 90.000000
_cell_volume 1834.219851
_symmetry_space_group_name_H-M "P M M M"
_symmetry_group_IT_number 47
_symmetry_cell_setting 'orthorhombic'
loop_
_space_group_symop_operation_xyz
x,y,z
-x,-y,z
x,-y,-z
-x,y,-z
-x,-y,-z
x,y,-z
-x,y,z
x,-y,z
loop_
_atom_site_type_symbol
_atom_site_label
_atom_site_fract_x
_atom_site_fract_y
_atom_site_fract_z
Si Si1 0.197508 0.888168 0.843399
Si Si2 0.300483 0.119090 0.329825
Si Si3 0.201244 0.619657 0.415520
Si Si4 0.798430 0.610269 0.751854
Si Si5 0.694209 0.299703 0.084842
Si Si6 0.294053 0.116410 0.500000
O O1 0.214896 0.853342 0.752359
O O2 0.294284 0.816420 0.901062
O O3 0.000000 0.885245 0.863807
O O4 0.257836 0.000000 0.846787
O O5 0.500000 0.140708 0.323565
O O6 0.233510 0.154961 0.414996
O O7 0.285508 0.000000 0.333250
O O8 0.277226 0.650924 0.500000
O O9 0.215187 0.500000 0.413072
O O10 0.270859 0.654148 0.330639
O O11 0.000000 0.640452 0.418792
O O12 0.730778 0.500000 0.757878
O O13 0.771876 0.658159 0.835945
O O14 0.000000 0.605907 0.740250
O O15 0.500000 0.330763 0.083935
O O16 0.771369 0.325646 0.000000
O O17 0.500000 0.122833 0.500000
O O18 0.254195 0.000000 0.500000
#
# Coordination Sequence:
#
# PCOD9387733 Si02
#       6
#     8   8   8   8   8   4
#     4  10  21  37  58  83 109 138 177 231 293 349
#     4   8  13  24  45  72 102 137 175 214 260 318
#     4   7  10  20  44  80 117 149 181 217 261 316
#     4   9  18  34  59  90 121 153 188 228 276 330
#     4  11  25  42  59  80 108 146 191 238 287 342
#     4   7  10  18  37  67  99 133 174 213 252 307
#
# _framework density 23.988401
#
# number of rings (size 3 to 8) (size 9 to 14) (size 15 to 20)
#    0.000    3.182    0.000    3.818    0.000    3.636 
#    0.000    4.091    2.000    3.273    0.000    2.545 
#    0.000    0.000    0.000    0.000    0.000    0.000 
#
# Total GULP energy -245554.566452 kJ/mol
# GULP energy per Si atom -5580.785601 kJ/mol
# Density = 2.393380 g / cm^3
# Si number density = 23.988401 Si / 1000 Ang^3
#
#
#
# Elastic Constant Matrix: (Units=GPa)
#
#
# Indices 1 2 3 4 5 6 
#
# 1 27.3483 -4.6081 15.9580 0.0000 0.0000 0.0000
# 2 -4.6081 52.9460 52.5102 0.0000 0.0000 0.0000
# 3 15.9580 52.5102 221.2306 0.0000 0.0000 0.0000
# 4 0.0000 0.0000 0.0000 22.4985 0.0000 0.0000
# 5 0.0000 0.0000 0.0000 0.0000 27.3380 0.0000
# 6 0.0000 0.0000 0.0000 0.0000 0.0000 48.9508
#
#
#
# Elastic Compliance Matrix: (Units=1/GPa)
#
#
# Indices 1 2 3 4 5 6 
#
# 1 0.040890 0.008480 -0.004962 0.000000 0.000000 0.000000
# 2 0.008480 0.026461 -0.006892 0.000000 0.000000 0.000000
# 3 -0.004962 -0.006892 0.006514 0.000000 0.000000 0.000000
# 4 0.000000 0.000000 0.000000 0.044447 0.000000 0.000000
# 5 0.000000 0.000000 0.000000 0.000000 0.036579 0.000000
# 6 0.000000 0.000000 0.000000 0.000000 0.000000 0.020429
#
#
# Mechanical properties :
#
#
# Convention : Reuss Voigt Hill
#
# Bulk Modulus (GPa) = 14.89955 47.69388 31.29672
# Shear Modulus (GPa) = 24.45698 35.60179 30.02938
#
# Velocity S-wave (km/s) = 3.19648 3.85661 3.54196
# Velocity P-wave (km/s) = 4.45510 6.30528 5.45914
#
# Compressibility (1/GPa) = 0.06711612
#
# Stress axis : x y z
#
# Youngs Moduli (GPa) = 24.45591 37.79175 153.51449
#
# Poissons Ratio (x) = -0.32049 0.76179
# Poissons Ratio (y) = -0.20739 1.05807
# Poissons Ratio (z) = 0.12136 0.26047
#
# Static dielectric constant tensor:
#      x y z
#    x 1.845430 0.000000 0.000000 
#    y 0.000000 1.986290 0.000000 
#    z 0.000000 0.000000 1.972680 
# 
# From -- ./inp_files/26382.got.cif
#   From: 2010.05.17/outbox.cif.g08.bks.cpg/sg47_14_cif.got.tgz:26382.got - 2010.06.03 20:15:42.
