data_PCOD9387524
_publ_section_title
;
Structure prediction by ZEFSAII (Michael W. Deem and Ramdas Pophale) SiO2 
 PCOD9387524
Probable space group: P M M M
;
_chemical_formula_sum "Si O2"
_cell_formula_units_Z 64
_cell_length_a 20.486666
_cell_length_b 8.943390
_cell_length_c 20.797517
_cell_angle_alpha 90.000000
_cell_angle_beta 90.000000
_cell_angle_gamma 90.000000
_cell_volume 3810.526136
_symmetry_space_group_name_H-M "P M M M"
_symmetry_group_IT_number 47
_symmetry_cell_setting 'orthorhombic'
loop_
_space_group_symop_operation_xyz
x,y,z
-x,-y,z
x,-y,-z
-x,y,-z
-x,-y,-z
x,y,-z
-x,y,z
x,-y,z
loop_
_atom_site_type_symbol
_atom_site_label
_atom_site_fract_x
_atom_site_fract_y
_atom_site_fract_z
Si Si1 0.571499 0.678467 0.893802
Si Si2 0.075364 0.680267 0.809605
Si Si3 0.705107 0.178478 0.890451
Si Si4 0.150624 0.180204 0.928736
Si Si5 0.074663 0.820049 0.425033
Si Si6 0.570591 0.178006 0.752720
Si Si7 0.288097 0.822340 0.736958
Si Si8 0.840466 0.678732 0.685234
O O1 0.500000 0.725676 0.920480
O O2 0.574938 0.500000 0.898629
O O3 0.639381 0.747677 0.917800
O O4 0.570393 0.730773 0.819175
O O5 0.077566 0.500000 0.813144
O O6 0.109080 0.747221 0.872445
O O7 0.115767 0.726496 0.746620
O O8 0.000000 0.726650 0.804676
O O9 0.773258 0.224457 0.922065
O O10 0.713213 0.210982 0.813830
O O11 0.697884 0.000000 0.896865
O O12 0.148499 0.000000 0.921986
O O13 0.126821 0.219830 0.000000
O O14 0.085146 0.781528 0.500000
O O15 0.126438 0.746463 0.377878
O O16 0.000000 0.775414 0.407995
O O17 0.078253 0.000000 0.419798
O O18 0.500000 0.202601 0.720822
O O19 0.637491 0.213402 0.716287
O O20 0.574791 0.000000 0.769086
O O21 0.232250 0.735639 0.699684
O O22 0.276867 0.000000 0.729945
O O23 0.841316 0.500000 0.681578
#
# Coordination Sequence:
#
# PCOD9387524 Si02
#       8
#     8   8   8   8   8   8   8   8
#     4   9  16  24  38  63  91 118 151 191 234 283
#     4  10  22  38  53  72  99 129 160 196 243 298
#     4   9  17  30  47  66  90 120 155 196 244 296
#     4  10  21  37  55  73  92 117 157 208 256 301
#     4   9  19  36  56  77 102 134 170 205 243 288
#     4   8  14  25  40  60  90 127 162 197 241 288
#     4   9  16  27  45  68  95 128 165 202 243 290
#     4  11  21  32  50  76 106 136 166 202 241 284
#
# _framework density 16.795580999999999
#
# number of rings (size 3 to 8) (size 9 to 14) (size 15 to 20)
#    0.000    2.625    1.250    2.250    0.000    5.500 
#    0.000    1.875    0.000    0.375    0.000    2.625 
#    0.000    0.500    0.000    5.750    0.000    1.750 
#
# Total GULP energy -356684.670130 kJ/mol
# GULP energy per Si atom -5573.197971 kJ/mol
# Density = 1.675735 g / cm^3
# Si number density = 16.795581 Si / 1000 Ang^3
#
#
#
# Elastic Constant Matrix: (Units=GPa)
#
#
# Indices 1 2 3 4 5 6 
#
# 1 142.3032 32.2158 51.6081 0.0000 0.0000 0.0000
# 2 32.2158 18.7268 23.1525 0.0000 0.0000 0.0000
# 3 51.6081 23.1525 63.5402 0.0000 0.0000 0.0000
# 4 0.0000 0.0000 0.0000 11.2913 0.0000 0.0000
# 5 0.0000 0.0000 0.0000 0.0000 122.1231 0.0000
# 6 0.0000 0.0000 0.0000 0.0000 0.0000 25.2477
#
#
#
# Elastic Compliance Matrix: (Units=1/GPa)
#
#
# Indices 1 2 3 4 5 6 
#
# 1 0.012061 -0.015719 -0.004069 0.000000 0.000000 0.000000
# 2 -0.015719 0.117662 -0.030106 0.000000 0.000000 0.000000
# 3 -0.004069 -0.030106 0.030013 0.000000 0.000000 0.000000
# 4 0.000000 0.000000 0.000000 0.088563 0.000000 0.000000
# 5 0.000000 0.000000 0.000000 0.000000 0.008188 0.000000
# 6 0.000000 0.000000 0.000000 0.000000 0.000000 0.039608
#
#
# Mechanical properties :
#
#
# Convention : Reuss Voigt Hill
#
# Bulk Modulus (GPa) = 16.68097 48.72478 32.70288
# Shear Modulus (GPa) = 12.02309 39.57200 25.79754
#
# Velocity S-wave (km/s) = 2.67844 4.85923 3.92340
# Velocity P-wave (km/s) = 4.41800 7.78179 6.32752
#
# Compressibility (1/GPa) = 0.05994855
#
# Stress axis : x y z
#
# Youngs Moduli (GPa) = 82.90857 8.49891 33.31925
#
# Poissons Ratio (x) = 0.13359 0.13557
# Poissons Ratio (y) = 1.30324 1.00311
# Poissons Ratio (z) = 0.33734 0.25587
#
# Static dielectric constant tensor:
#      x y z
#    x 1.603070 0.000000 0.000000 
#    y 0.000000 1.560060 0.000000 
#    z 0.000000 0.000000 1.545280 
# 
# From -- ./inp_files/27004.got.cif
#   From: 2010.05.17/outbox.cif.g08.bks.cpg/sg47_14_cif.got.tgz:27004.got - 2010.06.03 20:15:42.
