data_PCOD9387670
_publ_section_title
;
Structure prediction by ZEFSAII (Michael W. Deem and Ramdas Pophale) SiO2 
 PCOD9387670
Probable space group: P M M M
;
_chemical_formula_sum "Si O2"
_cell_formula_units_Z 44
_cell_length_a 9.925900
_cell_length_b 8.083809
_cell_length_c 29.187613
_cell_angle_alpha 90.000000
_cell_angle_beta 90.000000
_cell_angle_gamma 90.000000
_cell_volume 2341.987207
_symmetry_space_group_name_H-M "P M M M"
_symmetry_group_IT_number 47
_symmetry_cell_setting 'orthorhombic'
loop_
_space_group_symop_operation_xyz
x,y,z
-x,-y,z
x,-y,-z
-x,y,-z
-x,-y,-z
x,y,-z
-x,y,z
x,-y,z
loop_
_atom_site_type_symbol
_atom_site_label
_atom_site_fract_x
_atom_site_fract_y
_atom_site_fract_z
Si Si1 0.154598 0.199680 0.866702
Si Si2 0.653714 0.197329 0.418004
Si Si3 0.346387 0.300238 0.684566
Si Si4 0.846725 0.303266 0.500000
Si Si5 0.344638 0.798027 0.948513
Si Si6 0.154410 0.699660 0.234253
O O1 0.247902 0.260198 0.908044
O O2 0.203335 0.250182 0.816230
O O3 0.000000 0.258293 0.871544
O O4 0.152910 0.000000 0.868481
O O5 0.500000 0.260869 0.426596
O O6 0.693640 0.249770 0.366717
O O7 0.760125 0.253449 0.455670
O O8 0.647482 0.000000 0.419785
O O9 0.500000 0.242095 0.691864
O O10 0.347071 0.500000 0.686192
O O11 0.247810 0.239849 0.724446
O O12 0.856474 0.500000 0.500000
O O13 0.000000 0.235239 0.500000
O O14 0.500000 0.748633 0.941191
O O15 0.342348 0.000000 0.948087
O O16 0.303912 0.746986 0.000000
O O17 0.152325 0.500000 0.236050
O O18 0.000000 0.758955 0.239065
#
# Coordination Sequence:
#
# PCOD9387670 Si02
#       6
#     8   8   8   4   8   8
#     4   9  17  28  43  65  90 115 148 190 232 275
#     4  10  21  37  57  81 108 137 169 207 253 301
#     4   9  18  33  52  73  97 127 164 202 239 284
#     4  11  24  39  56  80 108 139 176 213 248 292
#     4   8  14  25  41  62  88 116 146 183 229 278
#     4   9  18  32  48  66  92 126 159 192 234 284
#
# _framework density 18.787462999999999
#
# number of rings (size 3 to 8) (size 9 to 14) (size 15 to 20)
#    0.000    2.818    0.000    1.636    0.000    5.455 
#    0.000    3.636    0.000    0.545    0.000    3.818 
#    0.000    0.000    0.000    0.000    0.000    0.000 
#
# Total GULP energy -245369.828378 kJ/mol
# GULP energy per Si atom -5576.587009 kJ/mol
# Density = 1.874470 g / cm^3
# Si number density = 18.787463 Si / 1000 Ang^3
#
#
#
# Elastic Constant Matrix: (Units=GPa)
#
#
# Indices 1 2 3 4 5 6 
#
# 1 107.7121 10.6040 131.3759 0.0000 0.0000 0.0000
# 2 10.6040 11.4207 12.4568 0.0000 0.0000 0.0000
# 3 131.3759 12.4568 214.6985 0.0000 0.0000 0.0000
# 4 0.0000 0.0000 0.0000 26.2895 0.0000 0.0000
# 5 0.0000 0.0000 0.0000 0.0000 85.7910 0.0000
# 6 0.0000 0.0000 0.0000 0.0000 0.0000 12.4746
#
#
#
# Elastic Compliance Matrix: (Units=1/GPa)
#
#
# Indices 1 2 3 4 5 6 
#
# 1 0.037749 -0.010521 -0.022488 0.000000 0.000000 0.000000
# 2 -0.010521 0.096408 0.000844 0.000000 0.000000 0.000000
# 3 -0.022488 0.000844 0.018370 0.000000 0.000000 0.000000
# 4 0.000000 0.000000 0.000000 0.038038 0.000000 0.000000
# 5 0.000000 0.000000 0.000000 0.000000 0.011656 0.000000
# 6 0.000000 0.000000 0.000000 0.000000 0.000000 0.080163
#
#
# Mechanical properties :
#
#
# Convention : Reuss Voigt Hill
#
# Bulk Modulus (GPa) = 11.33836 71.41162 41.37499
# Shear Modulus (GPa) = 13.29393 36.87067 25.08230
#
# Velocity S-wave (km/s) = 2.66295 4.43483 3.65780
# Velocity P-wave (km/s) = 3.93742 8.01975 6.31742
#
# Compressibility (1/GPa) = 0.08819618
#
# Stress axis : x y z
#
# Youngs Moduli (GPa) = 26.49101 10.37261 54.43800
#
# Poissons Ratio (x) = 0.10913 1.22422
# Poissons Ratio (y) = 0.27870 -0.04595
# Poissons Ratio (z) = 0.59574 -0.00876
#
# Static dielectric constant tensor:
#      x y z
#    x 1.658870 0.000000 0.000000 
#    y 0.000000 1.668680 0.000000 
#    z 0.000000 0.000000 1.631530 
# 
# From -- ./inp_files/1972.got.cif
#   From: 2010.05.17/outbox.cif.g08.bks.cpg/sg47_1_cif.got.tgz:1972.got - 2010.06.03 20:15:42.
