data_PCOD9387058
_publ_section_title
;
Structure prediction by ZEFSAII (Michael W. Deem and Ramdas Pophale) SiO2 
 PCOD9387058
Probable space group: P M M M
;
_chemical_formula_sum "Si O2"
_cell_formula_units_Z 52
_cell_length_a 8.748974
_cell_length_b 14.619890
_cell_length_c 21.049860
_cell_angle_alpha 90.000000
_cell_angle_beta 90.000000
_cell_angle_gamma 90.000000
_cell_volume 2692.467332
_symmetry_space_group_name_H-M "P M M M"
_symmetry_group_IT_number 47
_symmetry_cell_setting 'orthorhombic'
loop_
_space_group_symop_operation_xyz
x,y,z
-x,-y,z
x,-y,-z
-x,y,-z
-x,-y,-z
x,y,-z
-x,y,z
x,-y,z
loop_
_atom_site_type_symbol
_atom_site_label
_atom_site_fract_x
_atom_site_fract_y
_atom_site_fract_z
Si Si1 0.679250 0.107405 0.254554
Si Si2 0.679310 0.391400 0.193437
Si Si3 0.316194 0.714757 0.068972
Si Si4 0.816594 0.893426 0.500000
Si Si5 0.317071 0.216255 0.618785
Si Si6 0.182333 0.605534 0.669061
Si Si7 0.818540 0.895236 0.882371
O O1 0.500000 0.125665 0.240013
O O2 0.725169 0.167378 0.314644
O O3 0.775412 0.123532 0.191152
O O4 0.692622 0.000000 0.271113
O O5 0.500000 0.367326 0.203477
O O6 0.687235 0.500000 0.181708
O O7 0.738704 0.339258 0.131295
O O8 0.767247 0.372350 0.258604
O O9 0.500000 0.708411 0.069992
O O10 0.266029 0.819363 0.076796
O O11 0.263434 0.679679 0.000000
O O12 0.754734 0.840708 0.561571
O O13 0.000000 0.891283 0.500000
O O14 0.767499 0.000000 0.500000
O O15 0.500000 0.214321 0.613378
O O16 0.258645 0.320012 0.623579
O O17 0.229319 0.500000 0.656860
O O18 0.000000 0.611101 0.663981
O O19 0.000000 0.888270 0.891266
O O20 0.771546 0.000000 0.895997
#
# Coordination Sequence:
#
# PCOD9387058 Si02
#       7
#     8   8   8   4   8   8   8
#     4   9  18  33  54  80 108 138 174 219 272 326
#     4   9  18  34  56  81 109 140 176 222 275 330
#     4  10  21  35  51  73 101 136 178 221 269 327
#     4  11  25  43  62  87 122 161 195 226 266 321
#     4  11  22  37  60  87 116 151 190 232 275 321
#     4  10  21  37  58  85 116 148 184 229 280 332
#     4  10  21  35  51  73 101 134 174 222 274 325
#
# _framework density 19.313141999999999
#
# number of rings (size 3 to 8) (size 9 to 14) (size 15 to 20)
#    0.000    2.077    0.000    3.000    0.000    9.538 
#    0.000    5.000    0.000    2.308    0.000    3.231 
#    0.000    0.000    0.000    0.000    0.000    0.000 
#
# Total GULP energy -290450.079244 kJ/mol
# GULP energy per Si atom -5585.578447 kJ/mol
# Density = 1.926918 g / cm^3
# Si number density = 19.313142 Si / 1000 Ang^3
#
#
#
# Elastic Constant Matrix: (Units=GPa)
#
#
# Indices 1 2 3 4 5 6 
#
# 1 19.3119 24.9027 16.6207 0.0000 0.0000 0.0000
# 2 24.9027 105.5358 63.8317 0.0000 0.0000 0.0000
# 3 16.6207 63.8317 61.2814 0.0000 0.0000 0.0000
# 4 0.0000 0.0000 0.0000 20.7734 0.0000 0.0000
# 5 0.0000 0.0000 0.0000 0.0000 52.6007 0.0000
# 6 0.0000 0.0000 0.0000 0.0000 0.0000 24.8010
#
#
#
# Elastic Compliance Matrix: (Units=1/GPa)
#
#
# Indices 1 2 3 4 5 6 
#
# 1 0.075027 -0.014584 -0.005157 0.000000 0.000000 0.000000
# 2 -0.014584 0.028445 -0.025673 0.000000 0.000000 0.000000
# 3 -0.005157 -0.025673 0.044458 0.000000 0.000000 0.000000
# 4 0.000000 0.000000 0.000000 0.048138 0.000000 0.000000
# 5 0.000000 0.000000 0.000000 0.000000 0.019011 0.000000
# 6 0.000000 0.000000 0.000000 0.000000 0.000000 0.040321
#
#
# Mechanical properties :
#
#
# Convention : Reuss Voigt Hill
#
# Bulk Modulus (GPa) = 17.51297 44.09325 30.80311
# Shear Modulus (GPa) = 13.68875 25.01997 19.35436
#
# Velocity S-wave (km/s) = 2.66518 3.60320 3.16908
# Velocity P-wave (km/s) = 4.30796 6.33963 5.41985
#
# Compressibility (1/GPa) = 0.05710055
#
# Stress axis : x y z
#
# Youngs Moduli (GPa) = 13.32856 35.15589 22.49296
#
# Poissons Ratio (x) = 0.51272 0.11601
# Poissons Ratio (y) = 0.19439 0.57746
# Poissons Ratio (z) = 0.06874 0.90256
#
# Static dielectric constant tensor:
#      x y z
#    x 1.651360 0.000000 0.000000 
#    y 0.000000 1.685200 0.000000 
#    z 0.000000 0.000000 1.664750 
# 
# From -- ./inp_files/10950.got.cif
#   From: 2010.05.17/outbox.cif.g08.bks.cpg/sg47_6_cif.got.tgz:10950.got - 2010.06.03 20:15:42.
