data_PCOD9387337
_publ_section_title
;
Structure prediction by ZEFSAII (Michael W. Deem and Ramdas Pophale) SiO2 
 PCOD9387337
Probable space group: P M M M
;
_chemical_formula_sum "Si O2"
_cell_formula_units_Z 40
_cell_length_a 10.635366
_cell_length_b 23.018109
_cell_length_c 9.135944
_cell_angle_alpha 90.000000
_cell_angle_beta 90.000000
_cell_angle_gamma 90.000000
_cell_volume 2236.534033
_symmetry_space_group_name_H-M "P M M M"
_symmetry_group_IT_number 47
_symmetry_cell_setting 'orthorhombic'
loop_
_space_group_symop_operation_xyz
x,y,z
-x,-y,z
x,-y,-z
-x,y,-z
-x,-y,-z
x,y,-z
-x,y,z
x,-y,z
loop_
_atom_site_type_symbol
_atom_site_label
_atom_site_fract_x
_atom_site_fract_y
_atom_site_fract_z
Si Si1 0.153604 0.500000 0.169526
Si Si2 0.847922 0.616841 0.667299
Si Si3 0.000000 0.929813 0.836251
Si Si4 0.638889 0.813496 0.324391
Si Si5 0.146532 0.261741 0.824528
Si Si6 0.256636 0.065897 0.325238
O O1 0.195593 0.558221 0.252742
O O2 0.000000 0.500000 0.170802
O O3 0.191998 0.500000 0.000000
O O4 0.802118 0.621093 0.500000
O O5 0.821837 0.674784 0.759045
O O6 0.000000 0.612930 0.660984
O O7 0.126128 0.915879 0.749902
O O8 0.000000 0.000000 0.846462
O O9 0.000000 0.904992 0.000000
O O10 0.653114 0.805849 0.500000
O O11 0.500000 0.791940 0.282028
O O12 0.753077 0.782189 0.243550
O O13 0.647343 0.882571 0.294320
O O14 0.000000 0.248291 0.785268
O O15 0.154438 0.262383 0.000000
O O16 0.237768 0.064066 0.500000
O O17 0.290538 0.000000 0.278541
#
# Coordination Sequence:
#
# PCOD9387337 Si02
#       6
#     4   8   4   8   8   8
#     4   9  15  23  39  67 106 145 176 213 262 313
#     4   9  16  27  45  71 103 139 178 219 264 312
#     4   9  17  29  47  73 103 131 161 200 247 302
#     4  10  22  38  55  77 104 136 175 218 267 322
#     4  10  21  36  54  77 105 139 180 223 267 316
#     4   9  18  33  53  76 102 132 167 210 262 318
#
# _framework density 17.884816000000001
#
# number of rings (size 3 to 8) (size 9 to 14) (size 15 to 20)
#    0.000    2.600    0.000    1.800    1.400    7.600 
#    0.000    2.000    0.000    0.000    0.000    4.900 
#    0.000    5.600    0.000    0.000    0.000    0.000 
#
# Total GULP energy -222952.693472 kJ/mol
# GULP energy per Si atom -5573.817337 kJ/mol
# Density = 1.784411 g / cm^3
# Si number density = 17.884816 Si / 1000 Ang^3
#
#
#
# Elastic Constant Matrix: (Units=GPa)
#
#
# Indices 1 2 3 4 5 6 
#
# 1 82.2782 58.0275 45.3351 0.0000 0.0000 0.0000
# 2 58.0275 116.6088 55.0458 0.0000 0.0000 0.0000
# 3 45.3351 55.0458 69.3872 0.0000 0.0000 0.0000
# 4 0.0000 0.0000 0.0000 14.2996 0.0000 0.0000
# 5 0.0000 0.0000 0.0000 0.0000 12.1375 0.0000
# 6 0.0000 0.0000 0.0000 0.0000 0.0000 1.1849
#
#
#
# Elastic Compliance Matrix: (Units=1/GPa)
#
#
# Indices 1 2 3 4 5 6 
#
# 1 0.021746 -0.006578 -0.008990 0.000000 0.000000 0.000000
# 2 -0.006578 0.015699 -0.008157 0.000000 0.000000 0.000000
# 3 -0.008990 -0.008157 0.026757 0.000000 0.000000 0.000000
# 4 0.000000 0.000000 0.000000 0.069932 0.000000 0.000000
# 5 0.000000 0.000000 0.000000 0.000000 0.082389 0.000000
# 6 0.000000 0.000000 0.000000 0.000000 0.000000 0.843962
#
#
# Mechanical properties :
#
#
# Convention : Reuss Voigt Hill
#
# Bulk Modulus (GPa) = 59.69080 65.01011 62.35045
# Shear Modulus (GPa) = 4.49027 12.84879 8.66953
#
# Velocity S-wave (km/s) = 1.58622 2.68324 2.20408
# Velocity P-wave (km/s) = 6.06650 6.78439 6.43546
#
# Compressibility (1/GPa) = 0.01675300
#
# Stress axis : x y z
#
# Youngs Moduli (GPa) = 45.98458 63.69645 37.37384
#
# Poissons Ratio (x) = 0.41898 0.33599
# Poissons Ratio (y) = 0.30247 0.30486
# Poissons Ratio (z) = 0.41341 0.51957
#
# Static dielectric constant tensor:
#      x y z
#    x 1.582080 0.000000 0.000000 
#    y 0.000000 1.630280 0.000000 
#    z 0.000000 0.000000 1.606530 
# 
# From -- ./inp_files/4064.got.cif
#   From: 2010.05.17/outbox.cif.g08.bks.cpg/sg47_3_cif.got.tgz:4064.got - 2010.06.03 20:15:42.
