data_PCOD9387416
_publ_section_title
;
Structure prediction by ZEFSAII (Michael W. Deem and Ramdas Pophale) SiO2 
 PCOD9387416
Probable space group: P M M M
;
_chemical_formula_sum "Si O2"
_cell_formula_units_Z 44
_cell_length_a 28.863249
_cell_length_b 9.408823
_cell_length_c 8.931538
_cell_angle_alpha 90.000000
_cell_angle_beta 90.000000
_cell_angle_gamma 90.000000
_cell_volume 2425.530639
_symmetry_space_group_name_H-M "P M M M"
_symmetry_group_IT_number 47
_symmetry_cell_setting 'orthorhombic'
loop_
_space_group_symop_operation_xyz
x,y,z
-x,-y,z
x,-y,-z
-x,y,-z
-x,-y,-z
x,y,-z
-x,y,z
x,-y,z
loop_
_atom_site_type_symbol
_atom_site_label
_atom_site_fract_x
_atom_site_fract_y
_atom_site_fract_z
Si Si1 0.447142 0.665699 0.319751
Si Si2 0.270487 0.666439 0.819543
Si Si3 0.185051 0.167210 0.678609
Si Si4 0.914094 0.168137 0.821521
Si Si5 0.000000 0.667824 0.321200
Si Si6 0.362926 0.835519 0.180520
O O1 0.444393 0.675494 0.500000
O O2 0.500000 0.702711 0.276191
O O3 0.439294 0.500000 0.279362
O O4 0.408645 0.763853 0.246803
O O5 0.273455 0.500000 0.781915
O O6 0.226325 0.739500 0.744583
O O7 0.317339 0.747789 0.773462
O O8 0.266291 0.678761 0.000000
O O9 0.182045 0.183622 0.500000
O O10 0.135860 0.205013 0.752640
O O11 0.193814 0.000000 0.711742
O O12 0.954795 0.258558 0.748252
O O13 0.922166 0.000000 0.792233
O O14 0.913473 0.188652 0.000000
O O15 0.000000 0.500000 0.288737
O O16 0.000000 0.687255 0.500000
O O17 0.358898 0.000000 0.225937
O O18 0.365418 0.830135 0.000000
#
# Coordination Sequence:
#
# PCOD9387416 Si02
#       6
#     8   8   8   8   4   8
#     4   9  19  36  56  78 106 141 180 221 267 321
#     4  10  21  37  57  80 107 142 182 222 268 322
#     4  10  21  37  58  84 112 143 180 222 270 323
#     4  10  21  38  61  86 111 144 186 228 272 324
#     4  11  24  39  56  82 116 151 186 227 274 322
#     4  10  21  36  55  80 109 141 179 224 271 320
#
# _framework density 18.140359
#
# number of rings (size 3 to 8) (size 9 to 14) (size 15 to 20)
#    0.000    2.091    0.000    3.273    0.000    8.727 
#    0.000    2.727    0.000    0.000    0.000    0.000 
#    0.000    0.000    0.000    0.000    0.000    0.000 
#
# Total GULP energy -245798.444262 kJ/mol
# GULP energy per Si atom -5586.328279 kJ/mol
# Density = 1.809907 g / cm^3
# Si number density = 18.140359 Si / 1000 Ang^3
#
#
#
# Elastic Constant Matrix: (Units=GPa)
#
#
# Indices 1 2 3 4 5 6 
#
# 1 202.4118 138.0464 69.3965 0.0000 0.0000 0.0000
# 2 138.0464 142.1836 67.3203 0.0000 0.0000 0.0000
# 3 69.3965 67.3203 42.4532 0.0000 0.0000 0.0000
# 4 0.0000 0.0000 0.0000 30.9597 0.0000 0.0000
# 5 0.0000 0.0000 0.0000 0.0000 50.3351 0.0000
# 6 0.0000 0.0000 0.0000 0.0000 0.0000 58.1453
#
#
#
# Elastic Compliance Matrix: (Units=1/GPa)
#
#
# Indices 1 2 3 4 5 6 
#
# 1 0.014960 -0.011823 -0.005706 0.000000 0.000000 0.000000
# 2 -0.011823 0.037568 -0.040247 0.000000 0.000000 0.000000
# 3 -0.005706 -0.040247 0.096706 0.000000 0.000000 0.000000
# 4 0.000000 0.000000 0.000000 0.032300 0.000000 0.000000
# 5 0.000000 0.000000 0.000000 0.000000 0.019867 0.000000
# 6 0.000000 0.000000 0.000000 0.000000 0.000000 0.017198
#
#
# Mechanical properties :
#
#
# Convention : Reuss Voigt Hill
#
# Bulk Modulus (GPa) = 29.69064 104.06389 66.87726
# Shear Modulus (GPa) = 14.47677 35.37371 24.92524
#
# Velocity S-wave (km/s) = 2.82803 4.42067 3.71080
# Velocity P-wave (km/s) = 5.20253 9.14040 7.43684
#
# Compressibility (1/GPa) = 0.03368065
#
# Stress axis : x y z
#
# Youngs Moduli (GPa) = 66.84318 26.61805 10.34063
#
# Poissons Ratio (x) = 0.31471 0.05901
# Poissons Ratio (y) = 0.79030 0.41618
# Poissons Ratio (z) = 0.38143 1.07131
#
# Static dielectric constant tensor:
#      x y z
#    x 1.583600 0.000000 0.000000 
#    y 0.000000 1.606760 0.000000 
#    z 0.000000 0.000000 1.606200 
# 
# From -- ./inp_files/13626.got.cif
#   From: 2010.05.17/outbox.cif.g08.bks.cpg/sg47_7_cif.got.tgz:13626.got - 2010.06.03 20:15:42.
