data_PCOD9387506
_publ_section_title
;
Structure prediction by ZEFSAII (Michael W. Deem and Ramdas Pophale) SiO2 
 PCOD9387506
Probable space group: P M M M
;
_chemical_formula_sum "Si O2"
_cell_formula_units_Z 32
_cell_length_a 25.542807
_cell_length_b 7.369709
_cell_length_c 8.073825
_cell_angle_alpha 90.000000
_cell_angle_beta 90.000000
_cell_angle_gamma 90.000000
_cell_volume 1519.841481
_symmetry_space_group_name_H-M "P M M M"
_symmetry_group_IT_number 47
_symmetry_cell_setting 'orthorhombic'
loop_
_space_group_symop_operation_xyz
x,y,z
-x,-y,z
x,-y,-z
-x,y,-z
-x,-y,-z
x,y,-z
-x,y,z
x,-y,z
loop_
_atom_site_type_symbol
_atom_site_label
_atom_site_fract_x
_atom_site_fract_y
_atom_site_fract_z
Si Si1 0.641312 0.794163 0.196990
Si Si2 0.441082 0.500000 0.303184
Si Si3 0.939784 0.778707 0.000000
Si Si4 0.246777 0.207770 0.300992
Si Si5 0.868699 0.222027 0.308230
O O1 0.593048 0.673311 0.252480
O O2 0.697826 0.713171 0.247121
O O3 0.637882 0.000000 0.265154
O O4 0.640587 0.802676 0.000000
O O5 0.500000 0.500000 0.233414
O O6 0.444683 0.500000 0.500000
O O7 0.909720 0.722623 0.832218
O O8 0.000000 0.720802 0.000000
O O9 0.939175 0.000000 0.000000
O O10 0.246601 0.203430 0.500000
O O11 0.189860 0.283878 0.256864
O O12 0.247644 0.000000 0.236613
O O13 0.879398 0.276470 0.500000
O O14 0.867302 0.000000 0.310567
#
# Coordination Sequence:
#
# PCOD9387506 Si02
#       5
#     8   4   4   8   8
#     4  10  21  36  58  87 114 144 183 231 287 342
#     4  11  25  43  61  81 111 153 193 230 273 326
#     4   9  16  22  30  48  78 121 169 216 265 321
#     4   8  14  26  45  69  96 127 168 219 272 327
#     4   8  14  23  35  53  80 118 164 216 270 322
#
# _framework density 21.054829000000002
#
# number of rings (size 3 to 8) (size 9 to 14) (size 15 to 20)
#    0.000    3.000    0.000    2.625    1.750    3.500 
#    0.000    5.000    0.000    0.000    0.000    0.000 
#    0.000    0.000    0.000    2.250    0.000   19.000 
#
# Total GULP energy -178500.692053 kJ/mol
# GULP energy per Si atom -5578.146627 kJ/mol
# Density = 2.100691 g / cm^3
# Si number density = 21.054829 Si / 1000 Ang^3
#
#
#
# Elastic Constant Matrix: (Units=GPa)
#
#
# Indices 1 2 3 4 5 6 
#
# 1 245.5369 48.4414 88.8345 0.0000 0.0000 0.0000
# 2 48.4414 88.0179 17.6148 0.0000 0.0000 0.0000
# 3 88.8345 17.6148 81.4232 0.0000 0.0000 0.0000
# 4 0.0000 0.0000 0.0000 5.4074 0.0000 0.0000
# 5 0.0000 0.0000 0.0000 0.0000 45.0689 0.0000
# 6 0.0000 0.0000 0.0000 0.0000 0.0000 74.1428
#
#
#
# Elastic Compliance Matrix: (Units=1/GPa)
#
#
# Indices 1 2 3 4 5 6 
#
# 1 0.007222 -0.002506 -0.007337 0.000000 0.000000 0.000000
# 2 -0.002506 0.012745 -0.000023 0.000000 0.000000 0.000000
# 3 -0.007337 -0.000023 0.020291 0.000000 0.000000 0.000000
# 4 0.000000 0.000000 0.000000 0.184932 0.000000 0.000000
# 5 0.000000 0.000000 0.000000 0.000000 0.022188 0.000000
# 6 0.000000 0.000000 0.000000 0.000000 0.000000 0.013487
#
#
# Mechanical properties :
#
#
# Convention : Reuss Voigt Hill
#
# Bulk Modulus (GPa) = 48.71852 80.52883 64.62367
# Shear Modulus (GPa) = 17.39501 42.26296 29.82898
#
# Velocity S-wave (km/s) = 2.87745 4.48513 3.76803
# Velocity P-wave (km/s) = 5.85053 8.07168 7.04914
#
# Compressibility (1/GPa) = 0.02052608
#
# Stress axis : x y z
#
# Youngs Moduli (GPa) = 138.47485 78.46081 49.28307
#
# Poissons Ratio (x) = 0.19664 0.36157
# Poissons Ratio (y) = 0.34704 0.00113
# Poissons Ratio (z) = 1.01594 0.00180
#
# Static dielectric constant tensor:
#      x y z
#    x 1.753810 0.000000 0.000000 
#    y 0.000000 2.580020 0.000000 
#    z 0.000000 0.000000 1.717500 
# 
# From -- ./inp_files/12023.got.cif
#   From: 2010.05.17/outbox.cif.g08.bks.cpg/sg47_7_cif.got.tgz:12023.got - 2010.06.03 20:15:42.
