data_PCOD9387843
_publ_section_title
;
Structure prediction by ZEFSAII (Michael W. Deem and Ramdas Pophale) SiO2 
 PCOD9387843
Probable space group: P M M M
;
_chemical_formula_sum "Si O2"
_cell_formula_units_Z 56
_cell_length_a 21.916817
_cell_length_b 7.552094
_cell_length_c 15.058011
_cell_angle_alpha 90.000000
_cell_angle_beta 90.000000
_cell_angle_gamma 90.000000
_cell_volume 2492.369789
_symmetry_space_group_name_H-M "P M M M"
_symmetry_group_IT_number 47
_symmetry_cell_setting 'orthorhombic'
loop_
_space_group_symop_operation_xyz
x,y,z
-x,-y,z
x,-y,-z
-x,y,-z
-x,-y,-z
x,y,-z
-x,y,z
x,-y,z
loop_
_atom_site_type_symbol
_atom_site_label
_atom_site_fract_x
_atom_site_fract_y
_atom_site_fract_z
Si Si1 0.568017 0.787796 0.787655
Si Si2 0.741565 0.710883 0.401371
Si Si3 0.932773 0.216810 0.214627
Si Si4 0.698141 0.709604 0.212112
Si Si5 0.573348 0.795645 0.593294
Si Si6 0.181657 0.211146 0.900005
Si Si7 0.885185 0.786470 0.402195
O O1 0.500000 0.726795 0.817559
O O2 0.633081 0.756260 0.832959
O O3 0.581830 0.710733 0.689135
O O4 0.562789 0.000000 0.779370
O O5 0.726449 0.783715 0.500000
O O6 0.730337 0.500000 0.404386
O O7 0.708761 0.783522 0.312859
O O8 0.813971 0.739554 0.389655
O O9 0.876533 0.279591 0.154832
O O10 0.921674 0.274682 0.316244
O O11 0.000000 0.270189 0.183709
O O12 0.931338 0.000000 0.214820
O O13 0.699639 0.500000 0.220163
O O14 0.755898 0.761297 0.153226
O O15 0.594136 0.712724 0.500000
O O16 0.500000 0.804296 0.588921
O O17 0.594783 0.000000 0.594835
O O18 0.173245 0.000000 0.905894
O O19 0.184962 0.282188 0.000000
O O20 0.904273 0.721842 0.500000
O O21 0.889319 0.000000 0.403705
#
# Coordination Sequence:
#
# PCOD9387843 Si02
#       7
#     8   8   8   8   8   8   8
#     4   9  18  32  51  76 106 140 177 219 268 323
#     4   9  18  32  49  71 103 144 187 227 267 312
#     4   9  17  30  51  82 117 146 175 219 272 322
#     4  11  22  35  55  80 108 144 182 225 274 323
#     4   7  10  19  37  62  93 129 169 211 252 295
#     4  10  21  38  60  83 107 138 179 226 274 328
#     4   9  16  27  47  75 107 144 184 225 267 311
#
# _framework density 22.468575000000001
#
# number of rings (size 3 to 8) (size 9 to 14) (size 15 to 20)
#    0.000    2.857    1.429    1.714    0.000    2.286 
#    0.000    2.857    0.000    2.143    0.000   10.000 
#    0.000    0.000    0.000    0.000    0.000    0.000 
#
# Total GULP energy -312145.899475 kJ/mol
# GULP energy per Si atom -5574.033919 kJ/mol
# Density = 2.241744 g / cm^3
# Si number density = 22.468575 Si / 1000 Ang^3
#
#
#
# Elastic Constant Matrix: (Units=GPa)
#
#
# Indices 1 2 3 4 5 6 
#
# 1 186.0857 -1.5596 79.8766 0.0000 0.0000 0.0000
# 2 -1.5596 59.9458 11.4781 0.0000 0.0000 0.0000
# 3 79.8766 11.4781 104.3759 0.0000 0.0000 0.0000
# 4 0.0000 0.0000 0.0000 -0.6066 0.0000 0.0000
# 5 0.0000 0.0000 0.0000 0.0000 39.5209 0.0000
# 6 0.0000 0.0000 0.0000 0.0000 0.0000 79.6684
#
#
#
# Elastic Compliance Matrix: (Units=1/GPa)
#
#
# Indices 1 2 3 4 5 6 
#
# 1 0.008121 0.001431 -0.006372 0.000000 0.000000 0.000000
# 2 0.001431 0.017293 -0.002997 0.000000 0.000000 0.000000
# 3 -0.006372 -0.002997 0.014787 0.000000 0.000000 0.000000
# 4 0.000000 0.000000 0.000000 -1.648632 0.000000 0.000000
# 5 0.000000 0.000000 0.000000 0.000000 0.025303 0.000000
# 6 0.000000 0.000000 0.000000 0.000000 0.000000 0.012552
#
#
# Mechanical properties :
#
#
# Convention : Reuss Voigt Hill
#
# Bulk Modulus (GPa) = 41.11016 58.88863 49.99939
# Shear Modulus (GPa) = -3.23292 41.09071 18.92890
#
# Velocity S-wave (km/s) = -1.20083 4.28110 2.90567
# Velocity P-wave (km/s) = 4.05140 7.12062 5.79297
#
# Compressibility (1/GPa) = 0.02432489
#
# Stress axis : x y z
#
# Youngs Moduli (GPa) = 123.13462 57.82738 67.62692
#
# Poissons Ratio (x) = -0.08278 0.43095
# Poissons Ratio (y) = -0.17626 0.20269
# Poissons Ratio (z) = 0.78466 0.17332
#
# Static dielectric constant tensor:
#      x y z
#    x 1.857550 0.000000 0.000000 
#    y 0.000000 1.858030 0.000000 
#    z 0.000000 0.000000 1.888000 
# 
# From -- ./inp_files/25153.got.cif
#   From: 2010.05.17/outbox.cif.g08.bks.cpg/sg47_13_cif.got.tgz:25153.got - 2010.06.03 20:15:42.
