data_PCOD9387483
_publ_section_title
;
Structure prediction by ZEFSAII (Michael W. Deem and Ramdas Pophale) SiO2 
 PCOD9387483
Probable space group: P M M M
;
_chemical_formula_sum "Si O2"
_cell_formula_units_Z 48
_cell_length_a 19.078878
_cell_length_b 14.289178
_cell_length_c 10.098393
_cell_angle_alpha 90.000000
_cell_angle_beta 90.000000
_cell_angle_gamma 90.000000
_cell_volume 2753.038883
_symmetry_space_group_name_H-M "P M M M"
_symmetry_group_IT_number 47
_symmetry_cell_setting 'orthorhombic'
loop_
_space_group_symop_operation_xyz
x,y,z
-x,-y,z
x,-y,-z
-x,y,-z
-x,-y,-z
x,y,-z
-x,y,z
x,-y,z
loop_
_atom_site_type_symbol
_atom_site_label
_atom_site_fract_x
_atom_site_fract_y
_atom_site_fract_z
Si Si1 0.082736 0.112357 0.500000
Si Si2 0.368555 0.602294 0.659634
Si Si3 0.202783 0.393678 0.340830
Si Si4 0.302547 0.888944 0.155726
Si Si5 0.083391 0.891941 0.000000
Si Si6 0.157293 0.200035 0.246206
Si Si7 0.581215 0.805219 0.657043
O O1 0.122929 0.153421 0.374332
O O2 0.000000 0.137726 0.500000
O O3 0.086751 0.000000 0.500000
O O4 0.373588 0.598168 0.500000
O O5 0.392146 0.500000 0.710181
O O6 0.285937 0.613514 0.690444
O O7 0.409053 0.695975 0.697144
O O8 0.196290 0.380519 0.500000
O O9 0.180672 0.500000 0.309870
O O10 0.162210 0.311244 0.267772
O O11 0.235658 0.836667 0.217557
O O12 0.368892 0.863173 0.246421
O O13 0.290175 0.000000 0.160682
O O14 0.311147 0.863018 0.000000
O O15 0.111382 0.836427 0.125466
O O16 0.000000 0.895634 0.000000
O O17 0.109837 0.000000 0.000000
O O18 0.601050 0.814037 0.500000
O O19 0.500000 0.831764 0.668638
#
# Coordination Sequence:
#
# PCOD9387483 Si02
#       7
#     4   8   8   8   4   8   8
#     4  11  24  38  57  91 126 154 192 241 297 357
#     4   8  14  27  49  79 113 145 180 225 281 340
#     4   9  17  32  57  89 119 150 191 241 296 348
#     4  11  24  40  58  81 111 153 201 239 282 348
#     4  11  24  42  63  87 122 162 194 235 297 359
#     4  12  21  38  63  89 119 155 197 245 295 347
#     4  10  21  36  56  84 116 147 187 245 301 343
#
# _framework density 17.435279000000001
#
# number of rings (size 3 to 8) (size 9 to 14) (size 15 to 20)
#    0.000    1.833    3.333    3.000    1.167    2.667 
#    0.000    3.750    0.000    4.500    0.000    1.167 
#    0.000    0.000    0.000    0.000    0.000    0.000 
#
# Total GULP energy -267723.660174 kJ/mol
# GULP energy per Si atom -5577.576254 kJ/mol
# Density = 1.739560 g / cm^3
# Si number density = 17.435279 Si / 1000 Ang^3
#
#
#
# Elastic Constant Matrix: (Units=GPa)
#
#
# Indices 1 2 3 4 5 6 
#
# 1 75.8262 48.4526 53.8558 0.0000 0.0000 0.0000
# 2 48.4526 110.8618 53.5121 0.0000 0.0000 0.0000
# 3 53.8558 53.5121 114.4650 0.0000 0.0000 0.0000
# 4 0.0000 0.0000 0.0000 15.1119 0.0000 0.0000
# 5 0.0000 0.0000 0.0000 0.0000 28.9535 0.0000
# 6 0.0000 0.0000 0.0000 0.0000 0.0000 26.7858
#
#
#
# Elastic Compliance Matrix: (Units=1/GPa)
#
#
# Indices 1 2 3 4 5 6 
#
# 1 0.022636 -0.006137 -0.007781 0.000000 0.000000 0.000000
# 2 -0.006137 0.013313 -0.003336 0.000000 0.000000 0.000000
# 3 -0.007781 -0.003336 0.013957 0.000000 0.000000 0.000000
# 4 0.000000 0.000000 0.000000 0.066173 0.000000 0.000000
# 5 0.000000 0.000000 0.000000 0.000000 0.034538 0.000000
# 6 0.000000 0.000000 0.000000 0.000000 0.000000 0.037333
#
#
# Mechanical properties :
#
#
# Convention : Reuss Voigt Hill
#
# Bulk Modulus (GPa) = 64.94822 68.08820 66.51821
# Shear Modulus (GPa) = 21.96909 23.85908 22.91408
#
# Velocity S-wave (km/s) = 3.55355 3.70325 3.62917
# Velocity P-wave (km/s) = 7.35995 7.57774 7.46964
#
# Compressibility (1/GPa) = 0.01539688
#
# Stress axis : x y z
#
# Youngs Moduli (GPa) = 44.17647 75.11486 71.64876
#
# Poissons Ratio (x) = 0.46101 0.55752
# Poissons Ratio (y) = 0.27113 0.23903
# Poissons Ratio (z) = 0.34375 0.25059
#
# Static dielectric constant tensor:
#      x y z
#    x 1.586180 0.000000 0.000000 
#    y 0.000000 1.607750 0.000000 
#    z 0.000000 0.000000 1.617490 
# 
# From -- ./inp_files/9207.got.cif
#   From: 2010.05.17/outbox.cif.g08.bks.cpg/sg47_5_cif.got.tgz:9207.got - 2010.06.03 20:15:42.
