data_PCOD9387076
_publ_section_title
;
Structure prediction by ZEFSAII (Michael W. Deem and Ramdas Pophale) SiO2 
 PCOD9387076
Probable space group: P M M M
;
_chemical_formula_sum "Si O2"
_cell_formula_units_Z 44
_cell_length_a 7.687422
_cell_length_b 29.544899
_cell_length_c 9.449821
_cell_angle_alpha 90.000000
_cell_angle_beta 90.000000
_cell_angle_gamma 90.000000
_cell_volume 2146.282152
_symmetry_space_group_name_H-M "P M M M"
_symmetry_group_IT_number 47
_symmetry_cell_setting 'orthorhombic'
loop_
_space_group_symop_operation_xyz
x,y,z
-x,-y,z
x,-y,-z
-x,y,-z
-x,-y,-z
x,y,-z
-x,y,z
x,-y,z
loop_
_atom_site_type_symbol
_atom_site_label
_atom_site_fract_x
_atom_site_fract_y
_atom_site_fract_z
Si Si1 0.787419 0.088835 0.336563
Si Si2 0.790749 0.549601 0.161958
Si Si3 0.213169 0.177554 0.837196
Si Si4 0.787281 0.000000 0.163684
Si Si5 0.206338 0.263365 0.661399
Si Si6 0.294121 0.637648 0.340878
O O1 0.730682 0.087794 0.500000
O O2 0.733454 0.134299 0.255371
O O3 0.732419 0.044741 0.248546
O O4 0.000000 0.088640 0.338265
O O5 0.730749 0.500000 0.215128
O O6 0.743254 0.592961 0.252594
O O7 0.000000 0.548181 0.158460
O O8 0.729353 0.554524 0.000000
O O9 0.273712 0.223617 0.761355
O O10 0.000000 0.177697 0.838941
O O11 0.269518 0.174395 0.000000
O O12 0.000000 0.000000 0.162199
O O13 0.731098 0.000000 0.000000
O O14 0.277435 0.261596 0.500000
O O15 0.230930 0.314221 0.718233
O O16 0.000000 0.255917 0.650470
O O17 0.220243 0.633080 0.500000
O O18 0.500000 0.641732 0.350675
#
# Coordination Sequence:
#
# PCOD9387076 Si02
#       6
#     8   8   8   4   8   8
#     4   9  15  22  32  47  70 102 140 180 224 276
#     4   9  19  36  56  77 101 130 165 203 241 283
#     4   9  16  25  38  57  79 104 140 187 233 275
#     4   9  15  21  29  43  67 101 140 181 224 271
#     4   9  17  30  47  65  87 118 155 193 234 280
#     4  10  21  35  51  74 103 132 162 198 241 289
#
# _framework density 20.500564000000001
#
# number of rings (size 3 to 8) (size 9 to 14) (size 15 to 20)
#    0.000    2.818    0.000    2.455    0.000    8.364 
#    0.000    4.545    0.000    0.000    0.000    0.000 
#    0.000    0.000    0.000    0.818    0.000   17.818 
#
# Total GULP energy -245504.086928 kJ/mol
# GULP energy per Si atom -5579.638339 kJ/mol
# Density = 2.045390 g / cm^3
# Si number density = 20.500564 Si / 1000 Ang^3
#
#
#
# Elastic Constant Matrix: (Units=GPa)
#
#
# Indices 1 2 3 4 5 6 
#
# 1 32.8795 1.6334 5.2003 0.0000 0.0000 0.0000
# 2 1.6334 235.5632 131.5550 0.0000 0.0000 0.0000
# 3 5.2003 131.5550 154.7406 0.0000 0.0000 0.0000
# 4 0.0000 0.0000 0.0000 25.5122 0.0000 0.0000
# 5 0.0000 0.0000 0.0000 0.0000 9.1542 0.0000
# 6 0.0000 0.0000 0.0000 0.0000 0.0000 -39.4306
#
#
#
# Elastic Compliance Matrix: (Units=1/GPa)
#
#
# Indices 1 2 3 4 5 6 
#
# 1 0.030635 0.000690 -0.001616 0.000000 0.000000 0.000000
# 2 0.000690 0.008098 -0.006908 0.000000 0.000000 0.000000
# 3 -0.001616 -0.006908 0.012390 0.000000 0.000000 0.000000
# 4 0.000000 0.000000 0.000000 0.039197 0.000000 0.000000
# 5 0.000000 0.000000 0.000000 0.000000 0.109239 0.000000
# 6 0.000000 0.000000 0.000000 0.000000 0.000000 -0.025361
#
#
# Mechanical properties :
#
#
# Convention : Reuss Voigt Hill
#
# Bulk Modulus (GPa) = 28.20469 77.77342 52.98906
# Shear Modulus (GPa) = 24.79108 18.03347 21.41228
#
# Velocity S-wave (km/s) = 3.48125 2.96912 3.23534
# Velocity P-wave (km/s) = 5.47236 7.05505 6.31350
#
# Compressibility (1/GPa) = 0.03545509
#
# Stress axis : x y z
#
# Youngs Moduli (GPa) = 32.64193 123.48210 80.71156
#
# Poissons Ratio (x) = -0.08524 0.13046
# Poissons Ratio (y) = -0.02253 0.55757
# Poissons Ratio (z) = 0.05276 0.85303
#
# Static dielectric constant tensor:
#      x y z
#    x 1.749350 0.000000 0.000000 
#    y 0.000000 1.718130 0.000000 
#    z 0.000000 0.000000 1.712940 
# 
# From -- ./inp_files/1984.got.cif
#   From: 2010.05.17/outbox.cif.g08.bks.cpg/sg47_1_cif.got.tgz:1984.got - 2010.06.03 20:15:42.
