data_PCOD9387436
_publ_section_title
;
Structure prediction by ZEFSAII (Michael W. Deem and Ramdas Pophale) SiO2 
 PCOD9387436
Probable space group: P M M M
;
_chemical_formula_sum "Si O2"
_cell_formula_units_Z 40
_cell_length_a 9.372824
_cell_length_b 26.147465
_cell_length_c 9.168783
_cell_angle_alpha 90.000000
_cell_angle_beta 90.000000
_cell_angle_gamma 90.000000
_cell_volume 2247.044880
_symmetry_space_group_name_H-M "P M M M"
_symmetry_group_IT_number 47
_symmetry_cell_setting 'orthorhombic'
loop_
_space_group_symop_operation_xyz
x,y,z
-x,-y,z
x,-y,-z
-x,y,-z
-x,-y,-z
x,y,-z
-x,y,z
x,-y,z
loop_
_atom_site_type_symbol
_atom_site_label
_atom_site_fract_x
_atom_site_fract_y
_atom_site_fract_z
Si Si1 0.668648 0.908051 0.325435
Si Si2 0.170444 0.699724 0.829576
Si Si3 0.330045 0.500000 0.173722
Si Si4 0.670977 0.790999 0.328378
Si Si5 0.832034 0.000000 0.173677
Si Si6 0.829810 0.406589 0.326703
O O1 0.686502 0.913956 0.500000
O O2 0.500000 0.914780 0.294642
O O3 0.708188 0.849514 0.288059
O O4 0.758813 0.950097 0.242153
O O5 0.250142 0.748704 0.765649
O O6 0.207525 0.648725 0.739482
O O7 0.000000 0.707137 0.816065
O O8 0.204005 0.692264 0.000000
O O9 0.500000 0.500000 0.198407
O O10 0.258032 0.549477 0.246417
O O11 0.304405 0.500000 0.000000
O O12 0.705102 0.784037 0.500000
O O13 0.500000 0.786092 0.313342
O O14 0.000000 0.000000 0.206308
O O15 0.812683 0.000000 0.000000
O O16 0.804068 0.407752 0.500000
O O17 0.000000 0.414701 0.303142
#
# Coordination Sequence:
#
# PCOD9387436 Si02
#       6
#     8   8   4   8   4   8
#     4   9  19  37  59  80 103 136 180 224 265 316
#     4  10  21  36  55  81 112 145 180 219 265 316
#     4  11  24  39  56  82 114 145 178 219 270 324
#     4   9  19  36  57  81 108 139 177 221 268 317
#     4  11  24  37  50  76 112 143 174 217 268 320
#     4  10  21  38  60  83 107 141 185 226 266 317
#
# _framework density 17.801158000000001
#
# number of rings (size 3 to 8) (size 9 to 14) (size 15 to 20)
#    0.000    2.200    0.000    3.600    0.000    9.600 
#    0.000    6.000    0.000    0.000    0.000    0.000 
#    0.000    0.000    0.000    0.000    0.000    0.000 
#
# Total GULP energy -223393.303873 kJ/mol
# GULP energy per Si atom -5584.832597 kJ/mol
# Density = 1.776064 g / cm^3
# Si number density = 17.801158 Si / 1000 Ang^3
#
#
#
# Elastic Constant Matrix: (Units=GPa)
#
#
# Indices 1 2 3 4 5 6 
#
# 1 68.2478 94.3545 76.2742 0.0000 0.0000 0.0000
# 2 94.3545 179.7869 105.0097 0.0000 0.0000 0.0000
# 3 76.2742 105.0097 108.3671 0.0000 0.0000 0.0000
# 4 0.0000 0.0000 0.0000-1795.6057 0.0000 0.0000
# 5 0.0000 0.0000 0.0000 0.0000 32.9381 0.0000
# 6 0.0000 0.0000 0.0000 0.0000 0.0000 37.6591
#
#
#
# Elastic Compliance Matrix: (Units=1/GPa)
#
#
# Indices 1 2 3 4 5 6 
#
# 1 0.108622 -0.028458 -0.048877 0.000000 0.000000 0.000000
# 2 -0.028458 0.020271 0.000387 0.000000 0.000000 0.000000
# 3 -0.048877 0.000387 0.043255 0.000000 0.000000 0.000000
# 4 0.000000 0.000000 0.000000 -0.000557 0.000000 0.000000
# 5 0.000000 0.000000 0.000000 0.000000 0.030360 0.000000
# 6 0.000000 0.000000 0.000000 0.000000 0.000000 0.026554
#
#
# Mechanical properties :
#
#
# Convention : Reuss Voigt Hill
#
# Bulk Modulus (GPa) = 54.78903 100.85318 77.82110
# Shear Modulus (GPa) = 12.87045 -339.61748 -163.37351
#
# Velocity S-wave (km/s) = 2.69181 -13.82744 -9.59042
# Velocity P-wave (km/s) = 6.36445 14.07666 8.87824
#
# Compressibility (1/GPa) = 0.01825183
#
# Stress axis : x y z
#
# Youngs Moduli (GPa) = 9.20621 49.33073 23.11864
#
# Poissons Ratio (x) = 1.40387 1.12998
# Poissons Ratio (y) = 0.26199 -0.00895
# Poissons Ratio (z) = 0.44997 -0.01909
#
# Static dielectric constant tensor:
#      x y z
#    x 1.587720 0.000000 0.000000 
#    y 0.000000 1.580460 0.000000 
#    z 0.000000 0.000000 1.589000 
# 
# From -- ./inp_files/1714.got.cif
#   From: 2010.05.17/outbox.cif.g08.bks.cpg/sg47_1_cif.got.tgz:1714.got - 2010.06.03 20:15:42.
