data_PCOD9387220
_publ_section_title
;
Structure prediction by ZEFSAII (Michael W. Deem and Ramdas Pophale) SiO2 
 PCOD9387220
Probable space group: P M M M
;
_chemical_formula_sum "Si O2"
_cell_formula_units_Z 52
_cell_length_a 23.538693
_cell_length_b 15.194074
_cell_length_c 8.609150
_cell_angle_alpha 90.000000
_cell_angle_beta 90.000000
_cell_angle_gamma 90.000000
_cell_volume 3079.050818
_symmetry_space_group_name_H-M "P M M M"
_symmetry_group_IT_number 47
_symmetry_cell_setting 'orthorhombic'
loop_
_space_group_symop_operation_xyz
x,y,z
-x,-y,z
x,-y,-z
-x,y,-z
-x,-y,-z
x,y,-z
-x,y,z
x,-y,z
loop_
_atom_site_type_symbol
_atom_site_label
_atom_site_fract_x
_atom_site_fract_y
_atom_site_fract_z
Si Si1 0.568833 0.593407 0.182660
Si Si2 0.332708 0.105203 0.320431
Si Si3 0.066665 0.402012 0.311272
Si Si4 0.210911 0.102437 0.185294
Si Si5 0.565570 0.785310 0.188288
Si Si6 0.000000 0.102905 0.186713
Si Si7 0.106938 0.212303 0.313510
O O1 0.500000 0.593661 0.186703
O O2 0.588148 0.500000 0.252150
O O3 0.584845 0.688337 0.246838
O O4 0.584528 0.592611 0.000000
O O5 0.327762 0.131648 0.500000
O O6 0.274723 0.129080 0.232108
O O7 0.388993 0.145899 0.247350
O O8 0.337147 0.000000 0.313035
O O9 0.068974 0.403051 0.500000
O O10 0.085519 0.500000 0.258619
O O11 0.099355 0.314053 0.259960
O O12 0.000000 0.392063 0.269523
O O13 0.164782 0.166358 0.260044
O O14 0.202225 0.000000 0.236052
O O15 0.204836 0.104521 0.000000
O O16 0.500000 0.801675 0.236159
O O17 0.565498 0.783448 0.000000
O O18 0.055121 0.154043 0.248450
O O19 0.000000 0.000000 0.234965
O O20 0.000000 0.105023 0.000000
O O21 0.103638 0.211817 0.500000
#
# Coordination Sequence:
#
# PCOD9387220 Si02
#       7
#     8   8   8   8   8   4   8
#     4   7  10  19  38  65  95 124 154 188 227 276
#     4  10  21  36  52  70  94 127 168 210 248 290
#     4   8  14  27  48  74 103 133 166 202 242 291
#     4  10  21  37  55  73  96 129 165 202 249 304
#     4   9  17  29  48  75 103 130 161 199 246 298
#     4  11  23  35  46  67 104 142 169 199 244 293
#     4  11  20  32  53  79 102 129 166 207 249 290
#
# _framework density 16.888321999999999
#
# number of rings (size 3 to 8) (size 9 to 14) (size 15 to 20)
#    0.000    2.692    0.769    3.923    0.000    4.923 
#    0.000    1.538    0.000    3.692    0.000    2.154 
#    0.000    0.000    0.000    0.000    0.000    0.000 
#
# Total GULP energy -289591.530023 kJ/mol
# GULP energy per Si atom -5569.067885 kJ/mol
# Density = 1.684988 g / cm^3
# Si number density = 16.888322 Si / 1000 Ang^3
#
#
#
# Elastic Constant Matrix: (Units=GPa)
#
#
# Indices 1 2 3 4 5 6 
#
# 1 89.6701 64.6652 22.2657 0.0000 0.0000 0.0000
# 2 64.6652 112.4090 31.5946 0.0000 0.0000 0.0000
# 3 22.2657 31.5946 29.5625 0.0000 0.0000 0.0000
# 4 0.0000 0.0000 0.0000 8.4127 0.0000 0.0000
# 5 0.0000 0.0000 0.0000 0.0000 29.5522 0.0000
# 6 0.0000 0.0000 0.0000 0.0000 0.0000 0.2625
#
#
#
# Elastic Compliance Matrix: (Units=1/GPa)
#
#
# Indices 1 2 3 4 5 6 
#
# 1 0.019357 -0.010059 -0.003828 0.000000 0.000000 0.000000
# 2 -0.010059 0.017943 -0.011600 0.000000 0.000000 0.000000
# 3 -0.003828 -0.011600 0.049108 0.000000 0.000000 0.000000
# 4 0.000000 0.000000 0.000000 0.118867 0.000000 0.000000
# 5 0.000000 0.000000 0.000000 0.000000 0.033838 0.000000
# 6 0.000000 0.000000 0.000000 0.000000 0.000000 3.810016
#
#
# Mechanical properties :
#
#
# Convention : Reuss Voigt Hill
#
# Bulk Modulus (GPa) = 28.22305 52.07695 40.15000
# Shear Modulus (GPa) = 1.21598 15.18656 8.20127
#
# Velocity S-wave (km/s) = 0.84946 3.00198 2.20606
# Velocity P-wave (km/s) = 4.20832 6.55125 5.50585
#
# Compressibility (1/GPa) = 0.03543203
#
# Stress axis : x y z
#
# Youngs Moduli (GPa) = 51.66145 55.73089 20.36343
#
# Poissons Ratio (x) = 0.56062 0.07796
# Poissons Ratio (y) = 0.51968 0.23622
# Poissons Ratio (z) = 0.19777 0.64650
#
# Static dielectric constant tensor:
#      x y z
#    x 1.532610 0.000000 0.000000 
#    y 0.000000 1.615600 0.000000 
#    z 0.000000 0.000000 1.581990 
# 
# From -- ./inp_files/12549.got.cif
#   From: 2010.05.17/outbox.cif.g08.bks.cpg/sg47_7_cif.got.tgz:12549.got - 2010.06.03 20:15:42.
