data_PCOD9387686
_publ_section_title
;
Structure prediction by ZEFSAII (Michael W. Deem and Ramdas Pophale) SiO2 
 PCOD9387686
Probable space group: P M M M
;
_chemical_formula_sum "Si O2"
_cell_formula_units_Z 56
_cell_length_a 22.753710
_cell_length_b 14.362680
_cell_length_c 8.868953
_cell_angle_alpha 90.000000
_cell_angle_beta 90.000000
_cell_angle_gamma 90.000000
_cell_volume 2898.411583
_symmetry_space_group_name_H-M "P M M M"
_symmetry_group_IT_number 47
_symmetry_cell_setting 'orthorhombic'
loop_
_space_group_symop_operation_xyz
x,y,z
-x,-y,z
x,-y,-z
-x,y,-z
-x,-y,-z
x,y,-z
-x,y,z
x,-y,z
loop_
_atom_site_type_symbol
_atom_site_label
_atom_site_fract_x
_atom_site_fract_y
_atom_site_fract_z
Si Si1 0.884192 0.612072 0.172311
Si Si2 0.872436 0.889554 0.326022
Si Si3 0.000000 0.681300 0.334928
Si Si4 0.431400 0.394970 0.318648
Si Si5 0.666135 0.270448 0.177402
Si Si6 0.249563 0.109633 0.181216
Si Si7 0.763587 0.388246 0.671493
Si Si8 0.000000 0.891362 0.274674
O O1 0.889276 0.500000 0.170941
O O2 0.828993 0.636092 0.275948
O O3 0.942920 0.652695 0.242294
O O4 0.875198 0.643142 0.000000
O O5 0.882700 0.855739 0.500000
O O6 0.811248 0.855080 0.256567
O O7 0.931333 0.883241 0.221191
O O8 0.863524 0.000000 0.339273
O O9 0.000000 0.636208 0.500000
O O10 0.000000 0.791804 0.353608
O O11 0.427377 0.394009 0.500000
O O12 0.500000 0.384247 0.277844
O O13 0.412513 0.500000 0.269533
O O14 0.391131 0.313196 0.255277
O O15 0.694884 0.172471 0.228564
O O16 0.717518 0.343549 0.215754
O O17 0.655373 0.264545 0.000000
O O18 0.257948 0.000000 0.215067
O O19 0.243110 0.118453 0.000000
O O20 0.752050 0.357194 0.500000
O O21 0.758541 0.500000 0.675216
O O22 0.000000 0.000000 0.333196
#
# Coordination Sequence:
#
# PCOD9387686 Si02
#       8
#     8   8   4   8   8   8   8   4
#     4  10  22  41  60  77 103 139 178 226 282 335
#     4   9  17  32  54  75  97 131 177 229 284 338
#     4  12  24  35  55  83 106 137 181 226 275 338
#     4   9  19  37  60  87 121 158 191 224 267 320
#     4  11  22  34  55  86 117 150 188 229 274 325
#     4   9  20  38  55  75 109 149 188 233 281 329
#     4  10  21  37  57  81 110 143 179 222 274 333
#     4  10  22  39  56  78 109 141 179 233 292 348
#
# _framework density 19.320927999999999
#
# number of rings (size 3 to 8) (size 9 to 14) (size 15 to 20)
#    0.000    2.143    0.000    3.214    2.000    7.571 
#    0.000    1.786    0.000    4.286    0.000    3.000 
#    0.000    0.000    0.000    0.000    0.000    0.000 
#
# Total GULP energy -311935.260262 kJ/mol
# GULP energy per Si atom -5570.272505 kJ/mol
# Density = 1.927695 g / cm^3
# Si number density = 19.320928 Si / 1000 Ang^3
#
#
#
# Elastic Constant Matrix: (Units=GPa)
#
#
# Indices 1 2 3 4 5 6 
#
# 1 112.2294 50.6953 15.6121 0.0000 0.0000 0.0000
# 2 50.6953 76.5564 22.1099 0.0000 0.0000 0.0000
# 3 15.6121 22.1099 21.8634 0.0000 0.0000 0.0000
# 4 0.0000 0.0000 0.0000 12.2136 0.0000 0.0000
# 5 0.0000 0.0000 0.0000 0.0000 29.4549 0.0000
# 6 0.0000 0.0000 0.0000 0.0000 0.0000 55.5514
#
#
#
# Elastic Compliance Matrix: (Units=1/GPa)
#
#
# Indices 1 2 3 4 5 6 
#
# 1 0.012723 -0.008195 -0.000798 0.000000 0.000000 0.000000
# 2 -0.008195 0.023729 -0.018145 0.000000 0.000000 0.000000
# 3 -0.000798 -0.018145 0.064658 0.000000 0.000000 0.000000
# 4 0.000000 0.000000 0.000000 0.081876 0.000000 0.000000
# 5 0.000000 0.000000 0.000000 0.000000 0.033950 0.000000
# 6 0.000000 0.000000 0.000000 0.000000 0.000000 0.018001
#
#
# Mechanical properties :
#
#
# Convention : Reuss Voigt Hill
#
# Bulk Modulus (GPa) = 21.35175 43.05376 32.20275
# Shear Modulus (GPa) = 16.40286 27.59278 21.99782
#
# Velocity S-wave (km/s) = 2.91687 3.78316 3.37790
# Velocity P-wave (km/s) = 4.73490 6.43544 5.64952
#
# Compressibility (1/GPa) = 0.04683457
#
# Stress axis : x y z
#
# Youngs Moduli (GPa) = 78.59832 42.14241 15.46593
#
# Poissons Ratio (x) = 0.34534 0.01234
# Poissons Ratio (y) = 0.64408 0.28063
# Poissons Ratio (z) = 0.06273 0.76468
#
# Static dielectric constant tensor:
#      x y z
#    x 1.669340 0.000000 0.000000 
#    y 0.000000 1.702010 0.000000 
#    z 0.000000 0.000000 1.702290 
# 
# From -- ./inp_files/11363.got.cif
#   From: 2010.05.17/outbox.cif.g08.bks.cpg/sg47_6_cif.got.tgz:11363.got - 2010.06.03 20:15:42.
