data_PCOD9387435
_publ_section_title
;
Structure prediction by ZEFSAII (Michael W. Deem and Ramdas Pophale) SiO2 
 PCOD9387435
Probable space group: P M M M
;
_chemical_formula_sum "Si O2"
_cell_formula_units_Z 64
_cell_length_a 25.914438
_cell_length_b 7.758050
_cell_length_c 15.267701
_cell_angle_alpha 90.000000
_cell_angle_beta 90.000000
_cell_angle_gamma 90.000000
_cell_volume 3069.502669
_symmetry_space_group_name_H-M "P M M M"
_symmetry_group_IT_number 47
_symmetry_cell_setting 'orthorhombic'
loop_
_space_group_symop_operation_xyz
x,y,z
-x,-y,z
x,-y,-z
-x,y,-z
-x,-y,-z
x,y,-z
-x,y,z
x,-y,z
loop_
_atom_site_type_symbol
_atom_site_label
_atom_site_fract_x
_atom_site_fract_y
_atom_site_fract_z
Si Si1 0.750747 0.211120 0.226065
Si Si2 0.195385 0.207913 0.405135
Si Si3 0.841884 0.793315 0.099651
Si Si4 0.943841 0.291662 0.789557
Si Si5 0.558526 0.291530 0.899254
Si Si6 0.636235 0.198009 0.249812
Si Si7 0.557726 0.706010 0.400994
Si Si8 0.923541 0.298656 0.595359
O O1 0.772819 0.260588 0.320944
O O2 0.791531 0.271426 0.152697
O O3 0.691887 0.275136 0.224643
O O4 0.750935 0.000000 0.220204
O O5 0.218654 0.252332 0.500000
O O6 0.138378 0.285460 0.401465
O O7 0.189659 0.000000 0.401736
O O8 0.894063 0.759977 0.154565
O O9 0.836877 0.000000 0.094692
O O10 0.845043 0.726562 0.000000
O O11 0.942605 0.500000 0.785535
O O12 0.941016 0.226101 0.688843
O O13 0.000000 0.239969 0.826411
O O14 0.500000 0.239962 0.876741
O O15 0.560677 0.500000 0.893319
O O16 0.599271 0.215663 0.833299
O O17 0.568227 0.243779 0.000000
O O18 0.603064 0.260923 0.332436
O O19 0.646918 0.000000 0.269833
O O20 0.567855 0.770780 0.500000
O O21 0.500000 0.768818 0.373673
O O22 0.553985 0.500000 0.406045
O O23 0.939115 0.224291 0.500000
O O24 0.938521 0.500000 0.594133
#
# Coordination Sequence:
#
# PCOD9387435 Si02
#       8
#     8   8   8   8   8   8   8   8
#     4   9  19  35  52  75 107 141 174 212 266 323
#     4   9  16  29  52  75  96 130 173 211 249 298
#     4  10  21  39  61  79  99 135 183 227 266 315
#     4  10  21  36  55  81 112 142 171 212 269 325
#     4   9  19  37  58  77 102 140 181 219 265 324
#     4  11  22  33  52  84 115 141 175 224 280 331
#     4   9  19  37  58  78 107 152 198 233 269 317
#     4   9  17  30  50  77 107 137 169 205 248 301
#
# _framework density 20.850282
#
# number of rings (size 3 to 8) (size 9 to 14) (size 15 to 20)
#    0.000    2.500    1.250    1.500    0.000    4.500 
#    0.000    8.750    0.000    1.500    0.000    2.625 
#    0.000    0.000    0.000    0.000    0.000    0.000 
#
# Total GULP energy -356941.406419 kJ/mol
# GULP energy per Si atom -5577.209475 kJ/mol
# Density = 2.080283 g / cm^3
# Si number density = 20.850282 Si / 1000 Ang^3
#
#
#
# Elastic Constant Matrix: (Units=GPa)
#
#
# Indices 1 2 3 4 5 6 
#
# 1 175.4712 6.5594 108.1069 0.0000 0.0000 0.0000
# 2 6.5594 26.7099 9.2443 0.0000 0.0000 0.0000
# 3 108.1069 9.2443 153.6006 0.0000 0.0000 0.0000
# 4 0.0000 0.0000 0.0000 26.0056 0.0000 0.0000
# 5 0.0000 0.0000 0.0000 0.0000 634.1177 0.0000
# 6 0.0000 0.0000 0.0000 0.0000 0.0000 7.3928
#
#
#
# Elastic Compliance Matrix: (Units=1/GPa)
#
#
# Indices 1 2 3 4 5 6 
#
# 1 0.010062 -0.000020 -0.007081 0.000000 0.000000 0.000000
# 2 -0.000020 0.038236 -0.002287 0.000000 0.000000 0.000000
# 3 -0.007081 -0.002287 0.011631 0.000000 0.000000 0.000000
# 4 0.000000 0.000000 0.000000 0.038453 0.000000 0.000000
# 5 0.000000 0.000000 0.000000 0.000000 0.001577 0.000000
# 6 0.000000 0.000000 0.000000 0.000000 0.000000 0.135267
#
#
# Mechanical properties :
#
#
# Convention : Reuss Voigt Hill
#
# Bulk Modulus (GPa) = 24.29917 67.06698 45.68308
# Shear Modulus (GPa) = 18.67621 148.96128 83.81875
#
# Velocity S-wave (km/s) = 2.99612 8.46158 6.34725
# Velocity P-wave (km/s) = 4.86296 11.30046 8.69910
#
# Compressibility (1/GPa) = 0.04115366
#
# Stress axis : x y z
#
# Youngs Moduli (GPa) = 99.38348 26.15348 85.97351
#
# Poissons Ratio (x) = 0.00053 0.60875
# Poissons Ratio (y) = 0.00203 0.19660
# Poissons Ratio (z) = 0.70370 0.05981
#
# Static dielectric constant tensor:
#      x y z
#    x 1.746940 0.000000 0.000000 
#    y 0.000000 1.796220 0.000000 
#    z 0.000000 0.000000 1.749270 
# 
# From -- ./inp_files/25566.got.cif
#   From: 2010.05.17/outbox.cif.g08.bks.cpg/sg47_13_cif.got.tgz:25566.got - 2010.06.03 20:15:42.
