data_PCOD9387620
_publ_section_title
;
Structure prediction by ZEFSAII (Michael W. Deem and Ramdas Pophale) SiO2 
 PCOD9387620
Probable space group: P M M M
;
_chemical_formula_sum "Si O2"
_cell_formula_units_Z 64
_cell_length_a 7.606681
_cell_length_b 16.304932
_cell_length_c 23.954157
_cell_angle_alpha 90.000000
_cell_angle_beta 90.000000
_cell_angle_gamma 90.000000
_cell_volume 2970.948252
_symmetry_space_group_name_H-M "P M M M"
_symmetry_group_IT_number 47
_symmetry_cell_setting 'orthorhombic'
loop_
_space_group_symop_operation_xyz
x,y,z
-x,-y,z
x,-y,-z
-x,y,-z
-x,-y,-z
x,y,-z
-x,y,z
x,-y,z
loop_
_atom_site_type_symbol
_atom_site_label
_atom_site_fract_x
_atom_site_fract_y
_atom_site_fract_z
Si Si1 0.206976 0.247406 0.363872
Si Si2 0.294018 0.411752 0.180141
Si Si3 0.712351 0.592199 0.435518
Si Si4 0.704458 0.749470 0.236511
Si Si5 0.214381 0.907979 0.435320
Si Si6 0.787503 0.653766 0.937980
Si Si7 0.293699 0.911530 0.819314
Si Si8 0.787536 0.845621 0.062063
O O1 0.230442 0.331781 0.397901
O O2 0.289153 0.252830 0.302889
O O3 0.275174 0.168575 0.398390
O O4 0.000000 0.234683 0.355458
O O5 0.500000 0.415001 0.195658
O O6 0.215325 0.500000 0.194417
O O7 0.214748 0.332664 0.210414
O O8 0.281907 0.396671 0.113986
O O9 0.768754 0.604276 0.500000
O O10 0.500000 0.591828 0.435088
O O11 0.769443 0.500000 0.418007
O O12 0.500000 0.749905 0.218146
O O13 0.784385 0.832935 0.212037
O O14 0.267603 0.897367 0.500000
O O15 0.000000 0.906918 0.434832
O O16 0.268182 0.000000 0.417062
O O17 0.737603 0.749694 0.931176
O O18 0.000000 0.650162 0.936468
O O19 0.731489 0.627132 0.000000
O O20 0.500000 0.915077 0.804507
O O21 0.280249 0.895566 0.885451
O O22 0.215054 0.000000 0.805438
O O23 0.000000 0.849156 0.063241
O O24 0.730961 0.872364 0.000000
#
# Coordination Sequence:
#
# PCOD9387620 Si02
#       8
#     8   8   8   8   8   8   8   8
#     4  11  22  34  55  86 114 143 185 234 276 316
#     4  10  21  37  57  78  99 132 180 225 266 317
#     4   9  19  37  60  85 115 152 188 220 265 328
#     4  10  22  40  55  72 105 146 184 225 272 319
#     4   8  15  30  52  79 113 148 177 210 260 320
#     4   9  18  33  54  80 109 138 167 206 264 329
#     4  10  21  37  57  79 103 137 183 229 272 321
#     4   9  18  33  54  80 109 139 171 212 268 333
#
# _framework density 21.541941999999999
#
# number of rings (size 3 to 8) (size 9 to 14) (size 15 to 20)
#    0.000    2.500    1.250    2.250    0.000    4.500 
#    0.000    5.625    0.000    1.125    0.000    4.375 
#    0.000    0.000    0.000    0.000    0.000    0.000 
#
# Total GULP energy -357293.128050 kJ/mol
# GULP energy per Si atom -5582.705126 kJ/mol
# Density = 2.149291 g / cm^3
# Si number density = 21.541942 Si / 1000 Ang^3
#
#
#
# Elastic Constant Matrix: (Units=GPa)
#
#
# Indices 1 2 3 4 5 6 
#
# 1 45.3391 4.9683 -11.9480 0.0000 0.0000 0.0000
# 2 4.9683 205.5925 89.8113 0.0000 0.0000 0.0000
# 3 -11.9480 89.8113 93.3703 0.0000 0.0000 0.0000
# 4 0.0000 0.0000 0.0000 -15.1850 0.0000 0.0000
# 5 0.0000 0.0000 0.0000 0.0000 0.6740 0.0000
# 6 0.0000 0.0000 0.0000 0.0000 0.0000 -9.9265
#
#
#
# Elastic Compliance Matrix: (Units=1/GPa)
#
#
# Indices 1 2 3 4 5 6 
#
# 1 0.024075 -0.003324 0.006278 0.000000 0.000000 0.000000
# 2 -0.003324 0.008848 -0.008936 0.000000 0.000000 0.000000
# 3 0.006278 -0.008936 0.020109 0.000000 0.000000 0.000000
# 4 0.000000 0.000000 0.000000 -0.065854 0.000000 0.000000
# 5 0.000000 0.000000 0.000000 0.000000 1.483718 0.000000
# 6 0.000000 0.000000 0.000000 0.000000 0.000000 -0.100741
#
#
# Mechanical properties :
#
#
# Convention : Reuss Voigt Hill
#
# Bulk Modulus (GPa) = 24.35016 56.66278 40.50647
# Shear Modulus (GPa) = 3.58215 12.54385 8.06300
#
# Velocity S-wave (km/s) = 1.29092 2.41570 1.93676
# Velocity P-wave (km/s) = 3.68105 5.84307 4.88321
#
# Compressibility (1/GPa) = 0.04106749
#
# Stress axis : x y z
#
# Youngs Moduli (GPa) = 41.53713 113.01972 49.72899
#
# Poissons Ratio (x) = 0.37573 -0.31222
# Poissons Ratio (y) = 0.13809 0.44439
# Poissons Ratio (z) = -0.26079 1.00996
#
# Static dielectric constant tensor:
#      x y z
#    x 1.803070 0.000000 0.000000 
#    y 0.000000 1.814790 0.000000 
#    z 0.000000 0.000000 1.730580 
# 
# From -- ./inp_files/7914.got.cif
#   From: 2010.05.17/outbox.cif.g08.bks.cpg/sg47_4_cif.got.tgz:7914.got - 2010.06.03 20:15:42.
