data_PCOD9387071
_publ_section_title
;
Structure prediction by ZEFSAII (Michael W. Deem and Ramdas Pophale) SiO2 
 PCOD9387071
Probable space group: P M M M
;
_chemical_formula_sum "Si O2"
_cell_formula_units_Z 40
_cell_length_a 7.732578
_cell_length_b 26.400491
_cell_length_c 9.897843
_cell_angle_alpha 90.000000
_cell_angle_beta 90.000000
_cell_angle_gamma 90.000000
_cell_volume 2020.583835
_symmetry_space_group_name_H-M "P M M M"
_symmetry_group_IT_number 47
_symmetry_cell_setting 'orthorhombic'
loop_
_space_group_symop_operation_xyz
x,y,z
-x,-y,z
x,-y,-z
-x,y,-z
-x,-y,-z
x,y,-z
-x,y,z
x,-y,z
loop_
_atom_site_type_symbol
_atom_site_label
_atom_site_fract_x
_atom_site_fract_y
_atom_site_fract_z
Si Si1 0.795096 0.261205 0.153484
Si Si2 0.208144 0.943670 0.654000
Si Si3 0.212215 0.648847 0.344675
Si Si4 0.789161 0.442208 0.846275
Si Si5 0.294909 0.851363 0.152271
O O1 0.728058 0.302440 0.258841
O O2 0.771859 0.203303 0.199720
O O3 0.000000 0.270546 0.143312
O O4 0.723604 0.265609 0.000000
O O5 0.268961 0.935101 0.500000
O O6 0.256090 0.898280 0.751875
O O7 0.000000 0.945221 0.650069
O O8 0.268102 0.000000 0.697085
O O9 0.268876 0.649557 0.500000
O O10 0.267121 0.598775 0.263002
O O11 0.000000 0.649088 0.346416
O O12 0.734379 0.500000 0.818627
O O13 0.000000 0.442097 0.845622
O O14 0.736925 0.428768 0.000000
O O15 0.500000 0.846577 0.144187
O O16 0.225682 0.859922 0.000000
#
# Coordination Sequence:
#
# PCOD9387071 Si02
#       5
#     8   8   8   8   8
#     4   9  17  30  47  64  86 120 158 193 232 280
#     4   9  19  36  56  77 101 130 164 199 235 280
#     4   9  16  24  36  57  83 111 147 191 234 274
#     4   8  13  21  33  50  76 112 149 182 222 276
#     4  10  21  35  51  74 102 129 160 200 244 288
#
# _framework density 19.796257000000001
#
# number of rings (size 3 to 8) (size 9 to 14) (size 15 to 20)
#    0.000    3.000    0.000    2.400    0.000    6.000 
#    0.000    7.000    0.000    0.000    0.000    0.000 
#    0.000    0.800    0.000    9.200    0.000   11.800 
#
# Total GULP energy -223074.187147 kJ/mol
# GULP energy per Si atom -5576.854679 kJ/mol
# Density = 1.975120 g / cm^3
# Si number density = 19.796257 Si / 1000 Ang^3
#
#
#
# Elastic Constant Matrix: (Units=GPa)
#
#
# Indices 1 2 3 4 5 6 
#
# 1 27.7900 -0.5044 5.8910 0.0000 0.0000 0.0000
# 2 -0.5044 185.9782 139.3299 0.0000 0.0000 0.0000
# 3 5.8910 139.3299 146.0304 0.0000 0.0000 0.0000
# 4 0.0000 0.0000 0.0000 21.1941 0.0000 0.0000
# 5 0.0000 0.0000 0.0000 0.0000 -53.3579 0.0000
# 6 0.0000 0.0000 0.0000 0.0000 0.0000 -39.0027
#
#
#
# Elastic Compliance Matrix: (Units=1/GPa)
#
#
# Indices 1 2 3 4 5 6 
#
# 1 0.037251 0.004302 -0.005607 0.000000 0.000000 0.000000
# 2 0.004302 0.019350 -0.018636 0.000000 0.000000 0.000000
# 3 -0.005607 -0.018636 0.024855 0.000000 0.000000 0.000000
# 4 0.000000 0.000000 0.000000 0.047183 0.000000 0.000000
# 5 0.000000 0.000000 0.000000 0.000000 -0.018741 0.000000
# 6 0.000000 0.000000 0.000000 0.000000 0.000000 -0.025639
#
#
# Mechanical properties :
#
#
# Convention : Reuss Voigt Hill
#
# Bulk Modulus (GPa) = 24.05382 72.13686 48.09534
# Shear Modulus (GPa) = 36.23248 0.10549 18.16898
#
# Velocity S-wave (km/s) = 4.28281 0.23109 3.03281
# Velocity P-wave (km/s) = 6.05257 6.04896 6.05077
#
# Compressibility (1/GPa) = 0.04157344
#
# Stress axis : x y z
#
# Youngs Moduli (GPa) = 26.84503 51.67965 40.23391
#
# Poissons Ratio (x) = -0.22231 0.22559
# Poissons Ratio (y) = -0.11548 0.74979
# Poissons Ratio (z) = 0.15052 0.96308
#
# Static dielectric constant tensor:
#      x y z
#    x 1.721670 0.000000 0.000000 
#    y 0.000000 1.682650 0.000000 
#    z 0.000000 0.000000 1.686400 
# 
# From -- ./inp_files/1383.got.cif
#   From: 2010.05.17/outbox.cif.g08.bks.cpg/sg47_1_cif.got.tgz:1383.got - 2010.06.03 20:15:42.
