data_PCOD9387410
_publ_section_title
;
Structure prediction by ZEFSAII (Michael W. Deem and Ramdas Pophale) SiO2 
 PCOD9387410
Probable space group: P M M M
;
_chemical_formula_sum "Si O2"
_cell_formula_units_Z 40
_cell_length_a 9.012507
_cell_length_b 7.722566
_cell_length_c 30.497554
_cell_angle_alpha 90.000000
_cell_angle_beta 90.000000
_cell_angle_gamma 90.000000
_cell_volume 2122.620003
_symmetry_space_group_name_H-M "P M M M"
_symmetry_group_IT_number 47
_symmetry_cell_setting 'orthorhombic'
loop_
_space_group_symop_operation_xyz
x,y,z
-x,-y,z
x,-y,-z
-x,y,-z
-x,-y,-z
x,y,-z
-x,y,z
x,-y,z
loop_
_atom_site_type_symbol
_atom_site_label
_atom_site_fract_x
_atom_site_fract_y
_atom_site_fract_z
Si Si1 0.678664 0.000000 0.284693
Si Si2 0.823369 0.705835 0.773646
Si Si3 0.665940 0.293282 0.862625
Si Si4 0.319287 0.301906 0.549667
Si Si5 0.681015 0.000000 0.386284
Si Si6 0.829961 0.791605 0.951655
O O1 0.742002 0.170107 0.260667
O O2 0.724744 0.000000 0.335690
O O3 0.500000 0.000000 0.281985
O O4 0.789544 0.500000 0.767526
O O5 0.768751 0.761745 0.822181
O O6 0.000000 0.726614 0.770480
O O7 0.500000 0.220743 0.858253
O O8 0.657053 0.500000 0.858932
O O9 0.732556 0.256816 0.910213
O O10 0.275241 0.251865 0.500000
O O11 0.500000 0.300511 0.550015
O O12 0.272851 0.500000 0.557607
O O13 0.269151 0.168004 0.586400
O O14 0.500000 0.000000 0.386783
O O15 0.000000 0.730875 0.945634
O O16 0.833710 0.000000 0.952953
O O17 0.778274 0.731832 0.000000
#
# Coordination Sequence:
#
# PCOD9387410 Si02
#       6
#     4   8   8   8   4   8
#     4  11  23  36  55  84 115 149 184 226 289 346
#     4  10  22  41  62  81 105 142 189 236 279 332
#     4  10  21  36  55  80 107 134 168 216 274 328
#     4   8  13  22  38  61  93 138 186 223 258 309
#     4   9  17  27  40  65 102 141 179 218 267 328
#     4   9  19  35  53  75 105 141 178 213 253 309
#
# _framework density 18.844633999999999
#
# number of rings (size 3 to 8) (size 9 to 14) (size 15 to 20)
#    0.000    2.600    0.000    3.000    1.400    5.600 
#    0.000    5.000    0.000    0.000    0.000    0.000 
#    0.000    6.400    0.000   17.600    0.000   14.400 
#
# Total GULP energy -223083.819642 kJ/mol
# GULP energy per Si atom -5577.095491 kJ/mol
# Density = 1.880174 g / cm^3
# Si number density = 18.844634 Si / 1000 Ang^3
#
#
#
# Elastic Constant Matrix: (Units=GPa)
#
#
# Indices 1 2 3 4 5 6 
#
# 1 62.1526 41.4172 57.9346 0.0000 0.0000 0.0000
# 2 41.4172 79.2565 78.6332 0.0000 0.0000 0.0000
# 3 57.9346 78.6332 185.4948 0.0000 0.0000 0.0000
# 4 0.0000 0.0000 0.0000 12.8944 0.0000 0.0000
# 5 0.0000 0.0000 0.0000 0.0000 -57.9451 0.0000
# 6 0.0000 0.0000 0.0000 0.0000 0.0000 19.8074
#
#
#
# Elastic Compliance Matrix: (Units=1/GPa)
#
#
# Indices 1 2 3 4 5 6 
#
# 1 0.026406 -0.009694 -0.004138 0.000000 0.000000 0.000000
# 2 -0.009694 0.025334 -0.007712 0.000000 0.000000 0.000000
# 3 -0.004138 -0.007712 0.009953 0.000000 0.000000 0.000000
# 4 0.000000 0.000000 0.000000 0.077553 0.000000 0.000000
# 5 0.000000 0.000000 0.000000 0.000000 -0.017258 0.000000
# 6 0.000000 0.000000 0.000000 0.000000 0.000000 0.050486
#
#
# Mechanical properties :
#
#
# Convention : Reuss Voigt Hill
#
# Bulk Modulus (GPa) = 53.74665 75.87487 64.81076
# Shear Modulus (GPa) = 22.54654 4.87927 13.71291
#
# Velocity S-wave (km/s) = 3.46272 1.61085 2.70049
# Velocity P-wave (km/s) = 6.67608 6.61896 6.64758
#
# Compressibility (1/GPa) = 0.01860581
#
# Stress axis : x y z
#
# Youngs Moduli (GPa) = 37.86976 39.47260 100.47684
#
# Poissons Ratio (x) = 0.38263 0.41578
# Poissons Ratio (y) = 0.36709 0.77486
# Poissons Ratio (z) = 0.15671 0.30441
#
# Static dielectric constant tensor:
#      x y z
#    x 1.651890 0.000000 0.000000 
#    y 0.000000 1.671800 0.000000 
#    z 0.000000 0.000000 1.639070 
# 
# From -- ./inp_files/33053.got.cif
#   From: 2010.05.17/outbox.cif.g08.bks.cpg/sg47_17_cif.got.tgz:33053.got - 2010.06.03 20:15:42.
