data_PCOD9387501
_publ_section_title
;
Structure prediction by ZEFSAII (Michael W. Deem and Ramdas Pophale) SiO2 
 PCOD9387501
Probable space group: P M M M
;
_chemical_formula_sum "Si O2"
_cell_formula_units_Z 40
_cell_length_a 17.291095
_cell_length_b 7.594887
_cell_length_c 14.761645
_cell_angle_alpha 90.000000
_cell_angle_beta 90.000000
_cell_angle_gamma 90.000000
_cell_volume 1938.556978
_symmetry_space_group_name_H-M "P M M M"
_symmetry_group_IT_number 47
_symmetry_cell_setting 'orthorhombic'
loop_
_space_group_symop_operation_xyz
x,y,z
-x,-y,z
x,-y,-z
-x,y,-z
-x,-y,-z
x,y,-z
-x,y,z
x,-y,z
loop_
_atom_site_type_symbol
_atom_site_label
_atom_site_fract_x
_atom_site_fract_y
_atom_site_fract_z
Si Si1 0.090895 0.787455 0.900579
Si Si2 0.591825 0.000000 0.397544
Si Si3 0.325803 0.294664 0.285319
Si Si4 0.410333 0.213180 0.103420
Si Si5 0.152140 0.703062 0.291610
Si Si6 0.000000 0.715550 0.605792
O O1 0.133290 0.710667 0.814723
O O2 0.000000 0.742103 0.894315
O O3 0.096321 0.000000 0.896088
O O4 0.119106 0.732066 0.000000
O O5 0.619386 0.828617 0.343772
O O6 0.500000 0.000000 0.400161
O O7 0.622535 0.000000 0.500000
O O8 0.330242 0.500000 0.310570
O O9 0.352890 0.279360 0.180758
O O10 0.238453 0.225644 0.301617
O O11 0.500000 0.265136 0.122043
O O12 0.408192 0.000000 0.105992
O O13 0.391727 0.266976 0.000000
O O14 0.156641 0.500000 0.320883
O O15 0.078139 0.779939 0.344440
O O16 0.000000 0.500000 0.612997
O O17 0.000000 0.760658 0.500000
#
# Coordination Sequence:
#
# PCOD9387501 Si02
#       6
#     8   4   8   8   8   4
#     4   9  18  32  52  79 114 159 205 248 296 350
#     4  11  26  48  71  94 122 159 207 258 313 384
#     4  11  24  40  63  97 133 164 202 259 317 371
#     4   9  18  35  61  92 126 165 208 251 299 364
#     4  10  21  36  57  87 118 152 198 250 302 357
#     4   9  18  36  60  81 108 150 197 245 302 364
#
# _framework density 20.633904999999999
#
# number of rings (size 3 to 8) (size 9 to 14) (size 15 to 20)
#    0.000    2.200    2.000    1.800    1.400    4.400 
#    0.000    9.000    0.000    0.600    0.000    0.000 
#    0.000    0.000    0.000    0.000    0.000    0.000 
#
# Total GULP energy -223321.658315 kJ/mol
# GULP energy per Si atom -5583.041458 kJ/mol
# Density = 2.058694 g / cm^3
# Si number density = 20.633905 Si / 1000 Ang^3
#
#
#
# Elastic Constant Matrix: (Units=GPa)
#
#
# Indices 1 2 3 4 5 6 
#
# 1 117.2906 25.0747 60.5752 0.0000 0.0000 0.0000
# 2 25.0747 69.7456 21.1235 0.0000 0.0000 0.0000
# 3 60.5752 21.1235 113.9917 0.0000 0.0000 0.0000
# 4 0.0000 0.0000 0.0000 7.5900 0.0000 0.0000
# 5 0.0000 0.0000 0.0000 0.0000 -20.5535 0.0000
# 6 0.0000 0.0000 0.0000 0.0000 0.0000 7.3009
#
#
#
# Elastic Compliance Matrix: (Units=1/GPa)
#
#
# Indices 1 2 3 4 5 6 
#
# 1 0.012167 -0.002560 -0.005991 0.000000 0.000000 0.000000
# 2 -0.002560 0.015729 -0.001554 0.000000 0.000000 0.000000
# 3 -0.005991 -0.001554 0.012244 0.000000 0.000000 0.000000
# 4 0.000000 0.000000 0.000000 0.131753 0.000000 0.000000
# 5 0.000000 0.000000 0.000000 0.000000 -0.048654 0.000000
# 6 0.000000 0.000000 0.000000 0.000000 0.000000 0.136970
#
#
# Mechanical properties :
#
#
# Convention : Reuss Voigt Hill
#
# Bulk Modulus (GPa) = 50.17684 57.17496 53.67590
# Shear Modulus (GPa) = 17.41767 11.81776 14.61772
#
# Velocity S-wave (km/s) = 2.90854 2.39578 2.66453
# Velocity P-wave (km/s) = 5.97076 5.95167 5.96122
#
# Compressibility (1/GPa) = 0.01992951
#
# Stress axis : x y z
#
# Youngs Moduli (GPa) = 82.18719 63.57731 81.66976
#
# Poissons Ratio (x) = 0.16274 0.48931
# Poissons Ratio (y) = 0.21038 0.12695
# Poissons Ratio (z) = 0.49241 0.09882
#
# Static dielectric constant tensor:
#      x y z
#    x 1.743170 0.000000 0.000000 
#    y 0.000000 1.764880 0.000000 
#    z 0.000000 0.000000 1.710620 
# 
# From -- ./inp_files/23344.got.cif
#   From: 2010.05.17/outbox.cif.g08.bks.cpg/sg47_12_cif.got.tgz:23344.got - 2010.06.03 20:15:42.
