data_PCOD9387389
_publ_section_title
;
Structure prediction by ZEFSAII (Michael W. Deem and Ramdas Pophale) SiO2 
 PCOD9387389
Probable space group: P M M M
;
_chemical_formula_sum "Si O2"
_cell_formula_units_Z 46
_cell_length_a 12.681022
_cell_length_b 16.353925
_cell_length_c 12.261114
_cell_angle_alpha 90.000000
_cell_angle_beta 90.000000
_cell_angle_gamma 90.000000
_cell_volume 2542.764784
_symmetry_space_group_name_H-M "P M M M"
_symmetry_group_IT_number 47
_symmetry_cell_setting 'orthorhombic'
loop_
_space_group_symop_operation_xyz
x,y,z
-x,-y,z
x,-y,-z
-x,y,-z
-x,-y,-z
x,y,-z
-x,y,z
x,-y,z
loop_
_atom_site_type_symbol
_atom_site_label
_atom_site_fract_x
_atom_site_fract_y
_atom_site_fract_z
Si Si1 0.878321 0.901363 0.124111
Si Si2 0.123558 0.666494 0.377458
Si Si3 0.270333 0.812198 0.295035
Si Si4 0.620441 0.302910 0.124222
Si Si5 0.000000 0.658481 0.000000
Si Si6 0.824496 0.406776 0.842405
Si Si7 0.625927 0.096886 0.500000
O O1 0.801422 0.866285 0.214526
O O2 0.000000 0.875496 0.142925
O O3 0.875866 0.000000 0.125984
O O4 0.851289 0.874811 0.000000
O O5 0.145333 0.638047 0.500000
O O6 0.194302 0.745095 0.350067
O O7 0.151216 0.601452 0.285053
O O8 0.000000 0.687234 0.370040
O O9 0.350476 0.763974 0.215435
O O10 0.325627 0.862649 0.391086
O O11 0.500000 0.330804 0.138704
O O12 0.707144 0.374194 0.136008
O O13 0.629942 0.270318 0.000000
O O14 0.092858 0.650287 0.905884
O O15 0.840799 0.500000 0.878018
O O16 0.500000 0.108770 0.500000
O O17 0.648075 0.000000 0.500000
#
# Coordination Sequence:
#
# PCOD9387389 Si02
#       7
#     8   8   8   8   2   8   4
#     4   9  18  33  54  83 118 151 182 221 275 344
#     4  10  21  36  54  80 112 146 185 227 273 330
#     4  11  20  37  57  81 108 148 185 234 282 336
#     4  10  22  38  57  83 113 149 191 234 282 336
#     4  12  21  36  56  88 120 148 183 228 287 346
#     4  11  22  36  58  83 116 153 187 234 281 336
#     4  11  24  40  59  81 104 139 191 245 293 337
#
# _framework density 18.090544999999999
#
# number of rings (size 3 to 8) (size 9 to 14) (size 15 to 20)
#    0.000    1.652    2.609    3.391    0.000    0.696 
#    0.000    1.739    0.000    2.087    0.000    9.739 
#    0.000    0.000    0.000    0.000    0.000    0.000 
#
# Total GULP energy -256272.489470 kJ/mol
# GULP energy per Si atom -5571.141075 kJ/mol
# Density = 1.804937 g / cm^3
# Si number density = 18.090545 Si / 1000 Ang^3
#
#
#
# Elastic Constant Matrix: (Units=GPa)
#
#
# Indices 1 2 3 4 5 6 
#
# 1 114.9994 14.2402 48.5898 0.0000 0.0000 0.0000
# 2 14.2402 31.6479 23.4658 0.0000 0.0000 0.0000
# 3 48.5898 23.4658 156.0509 0.0000 0.0000 0.0000
# 4 0.0000 0.0000 0.0000 -30.0114 0.0000 0.0000
# 5 0.0000 0.0000 0.0000 0.0000 34.1894 0.0000
# 6 0.0000 0.0000 0.0000 0.0000 0.0000 -39.8974
#
#
#
# Elastic Compliance Matrix: (Units=1/GPa)
#
#
# Indices 1 2 3 4 5 6 
#
# 1 0.010187 -0.002512 -0.002794 0.000000 0.000000 0.000000
# 2 -0.002512 0.036182 -0.004659 0.000000 0.000000 0.000000
# 3 -0.002794 -0.004659 0.007979 0.000000 0.000000 0.000000
# 4 0.000000 0.000000 0.000000 -0.033321 0.000000 0.000000
# 5 0.000000 0.000000 0.000000 0.000000 0.029249 0.000000
# 6 0.000000 0.000000 0.000000 0.000000 0.000000 -0.025064
#
#
# Mechanical properties :
#
#
# Convention : Reuss Voigt Hill
#
# Bulk Modulus (GPa) = 29.05420 52.80998 40.93209
# Shear Modulus (GPa) = 88.31586 7.28296 47.79941
#
# Velocity S-wave (km/s) = 6.99462 2.00863 5.14584
# Velocity P-wave (km/s) = 9.01822 5.88514 7.61456
#
# Compressibility (1/GPa) = 0.03441843
#
# Stress axis : x y z
#
# Youngs Moduli (GPa) = 98.16026 27.63792 125.33252
#
# Poissons Ratio (x) = 0.06943 0.35022
# Poissons Ratio (y) = 0.24658 0.58388
# Poissons Ratio (z) = 0.27429 0.12876
#
# Static dielectric constant tensor:
#      x y z
#    x 1.597490 0.000000 0.000000 
#    y 0.000000 1.637130 0.000000 
#    z 0.000000 0.000000 1.632170 
# 
# From -- ./inp_files/16347.got.cif
#   From: 2010.05.17/outbox.cif.g08.bks.cpg/sg47_9_cif.got.tgz:16347.got - 2010.06.03 20:15:42.
