data_PCOD9387776
_publ_section_title
;
Structure prediction by ZEFSAII (Michael W. Deem and Ramdas Pophale) SiO2 
 PCOD9387776
Probable space group: P M M M
;
_chemical_formula_sum "Si O2"
_cell_formula_units_Z 52
_cell_length_a 8.401532
_cell_length_b 19.886361
_cell_length_c 15.975625
_cell_angle_alpha 90.000000
_cell_angle_beta 90.000000
_cell_angle_gamma 90.000000
_cell_volume 2669.141898
_symmetry_space_group_name_H-M "P M M M"
_symmetry_group_IT_number 47
_symmetry_cell_setting 'orthorhombic'
loop_
_space_group_symop_operation_xyz
x,y,z
-x,-y,z
x,-y,-z
-x,y,-z
-x,-y,-z
x,y,-z
-x,y,z
x,-y,z
loop_
_atom_site_type_symbol
_atom_site_label
_atom_site_fract_x
_atom_site_fract_y
_atom_site_fract_z
Si Si1 0.810873 0.423015 0.500000
Si Si2 0.314947 0.575078 0.100374
Si Si3 0.815249 0.699288 0.809660
Si Si4 0.192307 0.165351 0.096059
Si Si5 0.307473 0.922647 0.752141
Si Si6 0.312949 0.685924 0.626592
Si Si7 0.694268 0.163188 0.591434
O O1 0.746830 0.500000 0.500000
O O2 0.760952 0.377719 0.579587
O O3 0.000000 0.427654 0.500000
O O4 0.500000 0.587504 0.123863
O O5 0.271741 0.500000 0.129323
O O6 0.205296 0.632704 0.136008
O O7 0.308166 0.575590 0.000000
O O8 0.757822 0.763356 0.863145
O O9 0.718693 0.687537 0.725134
O O10 0.000000 0.710581 0.787981
O O11 0.249572 0.109029 0.160817
O O12 0.000000 0.164803 0.093940
O O13 0.248508 0.158165 0.000000
O O14 0.500000 0.920763 0.751904
O O15 0.251418 0.878297 0.672593
O O16 0.257142 0.000000 0.743557
O O17 0.500000 0.683544 0.608926
O O18 0.252933 0.759085 0.596281
O O19 0.739921 0.135357 0.500000
O O20 0.500000 0.163484 0.594613
#
# Coordination Sequence:
#
# PCOD9387776 Si02
#       7
#     4   8   8   8   8   8   8
#     4  11  25  43  61  87 124 159 196 246 300 354
#     4   9  19  36  56  79 109 145 185 231 286 346
#     4  11  22  36  57  85 115 148 193 246 297 352
#     4  10  22  39  58  82 115 158 204 248 298 358
#     4  10  21  37  59  89 122 153 191 243 298 354
#     4  11  21  37  62  87 113 151 197 242 288 347
#     4   9  17  33  59  89 117 147 187 233 284 345
#
# _framework density 19.481916999999999
#
# number of rings (size 3 to 8) (size 9 to 14) (size 15 to 20)
#    0.000    1.923    2.308    2.077    0.000    4.308 
#    0.000    3.846    0.000    0.000    0.000    1.077 
#    0.000    0.000    0.000    0.000    0.000    0.000 
#
# Total GULP energy -290207.439710 kJ/mol
# GULP energy per Si atom -5580.912302 kJ/mol
# Density = 1.943757 g / cm^3
# Si number density = 19.481917 Si / 1000 Ang^3
#
#
#
# Elastic Constant Matrix: (Units=GPa)
#
#
# Indices 1 2 3 4 5 6 
#
# 1 13.7605 23.3986 15.5538 0.0000 0.0000 0.0000
# 2 23.3986 150.2737 79.4753 0.0000 0.0000 0.0000
# 3 15.5538 79.4753 147.1640 0.0000 0.0000 0.0000
# 4 0.0000 0.0000 0.0000 26.5487 0.0000 0.0000
# 5 0.0000 0.0000 0.0000 0.0000 19.8168 0.0000
# 6 0.0000 0.0000 0.0000 0.0000 0.0000 22.4594
#
#
#
# Elastic Compliance Matrix: (Units=1/GPa)
#
#
# Indices 1 2 3 4 5 6 
#
# 1 0.099790 -0.013942 -0.003017 0.000000 0.000000 0.000000
# 2 -0.013942 0.011263 -0.004609 0.000000 0.000000 0.000000
# 3 -0.003017 -0.004609 0.009603 0.000000 0.000000 0.000000
# 4 0.000000 0.000000 0.000000 0.037667 0.000000 0.000000
# 5 0.000000 0.000000 0.000000 0.000000 0.050462 0.000000
# 6 0.000000 0.000000 0.000000 0.000000 0.000000 0.044525
#
#
# Mechanical properties :
#
#
# Convention : Reuss Voigt Hill
#
# Bulk Modulus (GPa) = 12.90011 60.89483 36.89747
# Shear Modulus (GPa) = 15.51419 26.61636 21.06528
#
# Velocity S-wave (km/s) = 2.82501 3.70024 3.29184
# Velocity P-wave (km/s) = 4.15654 7.04135 5.78176
#
# Compressibility (1/GPa) = 0.07751872
#
# Stress axis : x y z
#
# Youngs Moduli (GPa) = 10.02109 88.78682 104.13302
#
# Poissons Ratio (x) = 1.23787 0.31421
# Poissons Ratio (y) = 0.13971 0.47995
# Poissons Ratio (z) = 0.03024 0.40922
#
# Static dielectric constant tensor:
#      x y z
#    x 1.690050 0.000000 0.000000 
#    y 0.000000 1.673530 0.000000 
#    z 0.000000 0.000000 1.685690 
# 
# From -- ./inp_files/21451.got.cif
#   From: 2010.05.17/outbox.cif.g08.bks.cpg/sg47_11_cif.got.tgz:21451.got - 2010.06.03 20:15:42.
