data_PCOD9387116
_publ_section_title
;
Structure prediction by ZEFSAII (Michael W. Deem and Ramdas Pophale) SiO2 
 PCOD9387116
Probable space group: P M M M
;
_chemical_formula_sum "Si O2"
_cell_formula_units_Z 48
_cell_length_a 17.884460
_cell_length_b 15.839430
_cell_length_c 9.099673
_cell_angle_alpha 90.000000
_cell_angle_beta 90.000000
_cell_angle_gamma 90.000000
_cell_volume 2577.752203
_symmetry_space_group_name_H-M "P M M M"
_symmetry_group_IT_number 47
_symmetry_cell_setting 'orthorhombic'
loop_
_space_group_symop_operation_xyz
x,y,z
-x,-y,z
x,-y,-z
-x,y,-z
-x,-y,-z
x,y,-z
-x,y,z
x,-y,z
loop_
_atom_site_type_symbol
_atom_site_label
_atom_site_fract_x
_atom_site_fract_y
_atom_site_fract_z
Si Si1 0.500000 0.855431 0.828038
Si Si2 0.189397 0.402425 0.823385
Si Si3 0.339736 0.398879 0.333968
Si Si4 0.196772 0.099216 0.823206
Si Si5 0.500000 0.682030 0.325664
Si Si6 0.085717 0.751888 0.179180
Si Si7 0.651982 0.899853 0.335598
O O1 0.500000 0.757407 0.788718
O O2 0.424516 0.887818 0.752078
O O3 0.500000 0.874198 0.000000
O O4 0.176207 0.500000 0.773372
O O5 0.271743 0.374211 0.771008
O O6 0.129196 0.333021 0.773249
O O7 0.188044 0.403772 0.000000
O O8 0.321206 0.371275 0.500000
O O9 0.342774 0.500000 0.331345
O O10 0.422805 0.367180 0.300734
O O11 0.131541 0.163928 0.778869
O O12 0.274320 0.129394 0.749984
O O13 0.182501 0.000000 0.785922
O O14 0.204958 0.102796 0.000000
O O15 0.500000 0.707872 0.500000
O O16 0.000000 0.753451 0.229261
O O17 0.084962 0.750718 0.000000
O O18 0.646255 0.862929 0.500000
O O19 0.661864 0.000000 0.348922
#
# Coordination Sequence:
#
# PCOD9387116 Si02
#       7
#     4   8   8   8   4   8   8
#     4  12  25  36  51  78 111 144 179 222 266 310
#     4   9  18  32  51  76 106 139 177 221 268 319
#     4   9  18  34  55  76 101 137 179 222 267 315
#     4   9  18  33  54  80 108 139 177 222 271 321
#     4  10  21  35  51  76 107 141 181 220 262 316
#     4   9  18  32  52  79 108 138 175 221 271 324
#     4  10  21  38  58  78 104 140 180 222 268 318
#
# _framework density 18.620875999999999
#
# number of rings (size 3 to 8) (size 9 to 14) (size 15 to 20)
#    0.000    2.500    0.000    1.750    2.333    4.333 
#    0.000    3.333    0.000    4.500    0.000    4.667 
#    0.000    0.000    0.000    0.000    0.000    0.000 
#
# Total GULP energy -267553.502606 kJ/mol
# GULP energy per Si atom -5574.031304 kJ/mol
# Density = 1.857849 g / cm^3
# Si number density = 18.620876 Si / 1000 Ang^3
#
#
#
# Elastic Constant Matrix: (Units=GPa)
#
#
# Indices 1 2 3 4 5 6 
#
# 1 177.0232 70.2011 44.4808 0.0000 0.0000 0.0000
# 2 70.2011 74.8761 29.0426 0.0000 0.0000 0.0000
# 3 44.4808 29.0426 39.3937 0.0000 0.0000 0.0000
# 4 0.0000 0.0000 0.0000 14.7575 0.0000 0.0000
# 5 0.0000 0.0000 0.0000 0.0000 -46.8431 0.0000
# 6 0.0000 0.0000 0.0000 0.0000 0.0000 42.1677
#
#
#
# Elastic Compliance Matrix: (Units=1/GPa)
#
#
# Indices 1 2 3 4 5 6 
#
# 1 0.009938 -0.006953 -0.006095 0.000000 0.000000 0.000000
# 2 -0.006953 0.023569 -0.009525 0.000000 0.000000 0.000000
# 3 -0.006095 -0.009525 0.039289 0.000000 0.000000 0.000000
# 4 0.000000 0.000000 0.000000 0.067762 0.000000 0.000000
# 5 0.000000 0.000000 0.000000 0.000000 -0.021348 0.000000
# 6 0.000000 0.000000 0.000000 0.000000 0.000000 0.023715
#
#
# Mechanical properties :
#
#
# Convention : Reuss Voigt Hill
#
# Bulk Modulus (GPa) = 36.16685 64.30466 50.23576
# Shear Modulus (GPa) = 25.34375 11.85432 18.59904
#
# Velocity S-wave (km/s) = 3.69323 2.52586 3.16385
# Velocity P-wave (km/s) = 6.13608 6.56622 6.35479
#
# Compressibility (1/GPa) = 0.02764963
#
# Stress axis : x y z
#
# Youngs Moduli (GPa) = 100.62472 42.42866 25.45257
#
# Poissons Ratio (x) = 0.29502 0.15513
# Poissons Ratio (y) = 0.69968 0.24243
# Poissons Ratio (z) = 0.61331 0.40412
#
# Static dielectric constant tensor:
#      x y z
#    x 1.662280 0.000000 0.000000 
#    y 0.000000 1.678420 0.000000 
#    z 0.000000 0.000000 1.653050 
# 
# From -- ./inp_files/6476.got.cif
#   From: 2010.05.17/outbox.cif.g08.bks.cpg/sg47_4_cif.got.tgz:6476.got - 2010.06.03 20:15:42.
