data_PCOD9387856
_publ_section_title
;
Structure prediction by ZEFSAII (Michael W. Deem and Ramdas Pophale) SiO2 
 PCOD9387856
Probable space group: P M M M
;
_chemical_formula_sum "Si O2"
_cell_formula_units_Z 33
_cell_length_a 7.942012
_cell_length_b 7.651367
_cell_length_c 26.993830
_cell_angle_alpha 90.000000
_cell_angle_beta 90.000000
_cell_angle_gamma 90.000000
_cell_volume 1640.340776
_symmetry_space_group_name_H-M "P M M M"
_symmetry_group_IT_number 47
_symmetry_cell_setting 'orthorhombic'
loop_
_space_group_symop_operation_xyz
x,y,z
-x,-y,z
x,-y,-z
-x,y,-z
-x,-y,-z
x,y,-z
-x,y,z
x,-y,z
loop_
_atom_site_type_symbol
_atom_site_label
_atom_site_fract_x
_atom_site_fract_y
_atom_site_fract_z
Si Si1 0.181140 0.709821 0.122625
Si Si2 0.000000 0.500000 0.500000
Si Si3 0.000000 0.216157 0.409979
Si Si4 0.307536 0.792577 0.661736
Si Si5 0.306373 0.289522 0.227714
Si Si6 0.500000 0.206565 0.055401
O O1 0.174242 0.500000 0.125967
O O2 0.213254 0.775004 0.178673
O O3 0.335412 0.747741 0.086878
O O4 0.000000 0.773989 0.104358
O O5 0.000000 0.656964 0.457007
O O6 0.167205 0.260897 0.377786
O O7 0.000000 0.000000 0.418851
O O8 0.500000 0.719800 0.656629
O O9 0.244778 0.758566 0.717717
O O10 0.322068 0.000000 0.656310
O O11 0.500000 0.228581 0.224542
O O12 0.306617 0.500000 0.225704
O O13 0.500000 0.000000 0.050653
O O14 0.500000 0.284053 0.000000
#
# Coordination Sequence:
#
# PCOD9387856 Si02
#       6
#     8   1   4   8   8   4
#     4  10  21  38  60  88 119 154 200 250 305 368
#     4  12  26  44  70  94 116 174 210 256 320 354
#     4  10  23  43  63  90 125 159 211 262 300 366
#     4   9  19  36  58  86 123 162 197 242 302 360
#     4   9  17  31  54  85 122 157 190 239 295 362
#     4  11  25  43  61  81 113 159 207 259 310 363
#
# _framework density 20.117771999999999
#
# number of rings (size 3 to 8) (size 9 to 14) (size 15 to 20)
#    0.000    2.303    1.212    0.545    3.394    2.909 
#    0.000    3.636    0.000    2.909    0.000    0.000 
#    0.000    0.000    0.000    0.000    0.000    0.000 
#
# Total GULP energy -183753.639583 kJ/mol
# GULP energy per Si atom -5568.292109 kJ/mol
# Density = 2.007198 g / cm^3
# Si number density = 20.117772 Si / 1000 Ang^3
#
#
#
# Elastic Constant Matrix: (Units=GPa)
#
#
# Indices 1 2 3 4 5 6 
#
# 1 149.5213 27.1587 113.3818 0.0000 0.0000 0.0000
# 2 27.1587 54.0349 34.3565 0.0000 0.0000 0.0000
# 3 113.3818 34.3565 194.0969 0.0000 0.0000 0.0000
# 4 0.0000 0.0000 0.0000 32.4940 0.0000 0.0000
# 5 0.0000 0.0000 0.0000 0.0000 -6.4366 0.0000
# 6 0.0000 0.0000 0.0000 0.0000 0.0000 14.4346
#
#
#
# Elastic Compliance Matrix: (Units=1/GPa)
#
#
# Indices 1 2 3 4 5 6 
#
# 1 0.012159 -0.001798 -0.006785 0.000000 0.000000 0.000000
# 2 -0.001798 0.021119 -0.002688 0.000000 0.000000 0.000000
# 3 -0.006785 -0.002688 0.009591 0.000000 0.000000 0.000000
# 4 0.000000 0.000000 0.000000 0.030775 0.000000 0.000000
# 5 0.000000 0.000000 0.000000 0.000000 -0.155361 0.000000
# 6 0.000000 0.000000 0.000000 0.000000 0.000000 0.069278
#
#
# Mechanical properties :
#
#
# Convention : Reuss Voigt Hill
#
# Bulk Modulus (GPa) = 49.19127 83.04970 66.12048
# Shear Modulus (GPa) = 296.23225 22.94880 159.59052
#
# Velocity S-wave (km/s) = 12.14779 3.38112 8.91630
# Velocity P-wave (km/s) = 14.87491 7.52423 11.78722
#
# Compressibility (1/GPa) = 0.02032881
#
# Stress axis : x y z
#
# Youngs Moduli (GPa) = 82.24111 47.35010 104.26237
#
# Poissons Ratio (x) = 0.08512 0.70739
# Poissons Ratio (y) = 0.14784 0.28028
# Poissons Ratio (z) = 0.55798 0.12729
#
# Static dielectric constant tensor:
#      x y z
#    x 1.730880 0.000000 0.000000 
#    y 0.000000 1.741770 0.000000 
#    z 0.000000 0.000000 1.701010 
# 
# From -- ./inp_files/31637.got.cif
#   From: 2010.05.17/outbox.cif.g08.bks.cpg/sg47_16_cif.got.tgz:31637.got - 2010.06.03 20:15:42.
