data_PCOD9387376
_publ_section_title
;
Structure prediction by ZEFSAII (Michael W. Deem and Ramdas Pophale) SiO2 
 PCOD9387376
Probable space group: P M M M
;
_chemical_formula_sum "Si O2"
_cell_formula_units_Z 56
_cell_length_a 8.583638
_cell_length_b 14.773423
_cell_length_c 22.451378
_cell_angle_alpha 90.000000
_cell_angle_beta 90.000000
_cell_angle_gamma 90.000000
_cell_volume 2847.052847
_symmetry_space_group_name_H-M "P M M M"
_symmetry_group_IT_number 47
_symmetry_cell_setting 'orthorhombic'
loop_
_space_group_symop_operation_xyz
x,y,z
-x,-y,z
x,-y,-z
-x,y,-z
-x,-y,-z
x,y,-z
-x,y,z
x,-y,z
loop_
_atom_site_type_symbol
_atom_site_label
_atom_site_fract_x
_atom_site_fract_y
_atom_site_fract_z
Si Si1 0.322023 0.891946 0.620950
Si Si2 0.326153 0.391105 0.742465
Si Si3 0.180975 0.174136 0.500000
Si Si4 0.687855 0.895185 0.247105
Si Si5 0.810145 0.601604 0.930548
Si Si6 0.180501 0.263149 0.831920
Si Si7 0.322335 0.362415 0.500000
Si Si8 0.829054 0.394466 0.374357
O O1 0.500000 0.856994 0.611969
O O2 0.218306 0.873876 0.562757
O O3 0.260836 0.862914 0.686314
O O4 0.333886 0.000000 0.626395
O O5 0.500000 0.361754 0.760044
O O6 0.319732 0.500000 0.747909
O O7 0.200508 0.342004 0.782778
O O8 0.292292 0.361548 0.674627
O O9 0.303061 0.255444 0.500000
O O10 0.000000 0.202936 0.500000
O O11 0.500000 0.895781 0.249397
O O12 0.740909 0.825535 0.196321
O O13 0.738815 0.000000 0.237418
O O14 0.759546 0.500000 0.910511
O O15 0.754488 0.685611 0.890576
O O16 0.000000 0.601617 0.927006
O O17 0.768603 0.611128 0.000000
O O18 0.000000 0.241863 0.841974
O O19 0.500000 0.392216 0.500000
O O20 0.235462 0.391226 0.559526
O O21 0.846536 0.500000 0.359809
O O22 0.000000 0.350836 0.370488
#
# Coordination Sequence:
#
# PCOD9387376 Si02
#       8
#     8   8   4   8   8   8   4   8
#     4   9  19  38  60  77  97 131 175 221 276 343
#     4  10  21  36  54  78 110 148 186 222 268 334
#     4  12  25  36  51  77 107 133 167 222 281 336
#     4   9  20  39  60  80 107 147 192 236 283 341
#     4   8  15  30  53  83 120 159 195 228 269 328
#     4  11  21  32  55  87 117 147 183 235 289 331
#     4  12  25  38  53  71  97 135 175 216 265 330
#     4  10  21  38  57  75  98 129 170 224 277 322
#
# _framework density 19.669461999999999
#
# number of rings (size 3 to 8) (size 9 to 14) (size 15 to 20)
#    0.000    2.143    0.000    4.714    2.000    5.143 
#    0.000    1.429    0.000    2.143    0.000    8.000 
#    0.000    0.000    0.000    0.000    0.000    0.000 
#
# Total GULP energy -312189.316542 kJ/mol
# GULP energy per Si atom -5574.809224 kJ/mol
# Density = 1.962469 g / cm^3
# Si number density = 19.669462 Si / 1000 Ang^3
#
#
#
# Elastic Constant Matrix: (Units=GPa)
#
#
# Indices 1 2 3 4 5 6 
#
# 1 39.8426 13.3539 8.8275 0.0000 0.0000 0.0000
# 2 13.3539 88.0694 45.9106 0.0000 0.0000 0.0000
# 3 8.8275 45.9106 104.1709 0.0000 0.0000 0.0000
# 4 0.0000 0.0000 0.0000 42.6572 0.0000 0.0000
# 5 0.0000 0.0000 0.0000 0.0000 19.2067 0.0000
# 6 0.0000 0.0000 0.0000 0.0000 0.0000 24.9888
#
#
#
# Elastic Compliance Matrix: (Units=1/GPa)
#
#
# Indices 1 2 3 4 5 6 
#
# 1 0.026473 -0.003693 -0.000616 0.000000 0.000000 0.000000
# 2 -0.003693 0.015257 -0.006411 0.000000 0.000000 0.000000
# 3 -0.000616 -0.006411 0.012477 0.000000 0.000000 0.000000
# 4 0.000000 0.000000 0.000000 0.023443 0.000000 0.000000
# 5 0.000000 0.000000 0.000000 0.000000 0.052065 0.000000
# 6 0.000000 0.000000 0.000000 0.000000 0.000000 0.040018
#
#
# Mechanical properties :
#
#
# Convention : Reuss Voigt Hill
#
# Bulk Modulus (GPa) = 30.51821 40.91852 35.71837
# Shear Modulus (GPa) = 24.74085 28.30328 26.52206
#
# Velocity S-wave (km/s) = 3.55044 3.79746 3.67602
# Velocity P-wave (km/s) = 5.68829 6.33055 6.01799
#
# Compressibility (1/GPa) = 0.03276732
#
# Stress axis : x y z
#
# Youngs Moduli (GPa) = 37.77434 65.54474 80.14565
#
# Poissons Ratio (x) = 0.24206 0.04934
# Poissons Ratio (y) = 0.13951 0.51382
# Poissons Ratio (z) = 0.02326 0.42021
#
# Static dielectric constant tensor:
#      x y z
#    x 1.709020 0.000000 0.000000 
#    y 0.000000 1.724520 0.000000 
#    z 0.000000 0.000000 1.748010 
# 
# From -- ./inp_files/29770.got.cif
#   From: 2010.05.17/outbox.cif.g08.bks.cpg/sg47_15_cif.got.tgz:29770.got - 2010.06.03 20:15:42.
