data_PCOD9387878
_publ_section_title
;
Structure prediction by ZEFSAII (Michael W. Deem and Ramdas Pophale) SiO2 
 PCOD9387878
Probable space group: P M M M
;
_chemical_formula_sum "Si O2"
_cell_formula_units_Z 32
_cell_length_a 8.565057
_cell_length_b 7.667137
_cell_length_c 24.029533
_cell_angle_alpha 90.000000
_cell_angle_beta 90.000000
_cell_angle_gamma 90.000000
_cell_volume 1578.006587
_symmetry_space_group_name_H-M "P M M M"
_symmetry_group_IT_number 47
_symmetry_cell_setting 'orthorhombic'
loop_
_space_group_symop_operation_xyz
x,y,z
-x,-y,z
x,-y,-z
-x,y,-z
-x,-y,-z
x,y,-z
-x,y,z
x,-y,z
loop_
_atom_site_type_symbol
_atom_site_label
_atom_site_fract_x
_atom_site_fract_y
_atom_site_fract_z
Si Si1 0.186750 0.500000 0.436204
Si Si2 0.819567 0.208850 0.880990
Si Si3 0.184101 0.211362 0.760843
Si Si4 0.313875 0.202484 0.642755
Si Si5 0.177759 0.294288 0.000000
O O1 0.242614 0.500000 0.500000
O O2 0.244256 0.670206 0.403215
O O3 0.000000 0.500000 0.436166
O O4 0.754619 0.271709 0.821468
O O5 0.745848 0.248105 0.940884
O O6 0.000000 0.273928 0.883629
O O7 0.825937 0.000000 0.877400
O O8 0.265916 0.268390 0.704352
O O9 0.000000 0.254252 0.758062
O O10 0.196739 0.000000 0.760666
O O11 0.500000 0.204171 0.638754
O O12 0.260705 0.000000 0.636692
O O13 0.162718 0.500000 0.000000
O O14 0.000000 0.215145 0.000000
#
# Coordination Sequence:
#
# PCOD9387878 Si02
#       5
#     4   8   8   8   4
#     4  11  25  43  63  89 119 152 191 232 273 325
#     4   8  13  22  37  56  82 122 168 213 265 322
#     4   8  14  27  48  73 101 134 177 227 275 326
#     4  10  21  38  61  88 119 154 190 232 282 334
#     4   9  15  21  29  49  86 123 158 210 270 323
#
# _framework density 20.278749000000001
#
# number of rings (size 3 to 8) (size 9 to 14) (size 15 to 20)
#    0.000    3.000    0.000    3.000    0.000    4.500 
#    2.250    2.500    0.000    0.000    0.000    0.875 
#    0.000    7.000    0.000    0.000    0.000    0.000 
#
# Total GULP energy -178250.021666 kJ/mol
# GULP energy per Si atom -5570.313177 kJ/mol
# Density = 2.023259 g / cm^3
# Si number density = 20.278749 Si / 1000 Ang^3
#
#
#
# Elastic Constant Matrix: (Units=GPa)
#
#
# Indices 1 2 3 4 5 6 
#
# 1 15.8526 11.7668 39.6297 0.0000 0.0000 0.0000
# 2 11.7668 69.7487 68.3364 0.0000 0.0000 0.0000
# 3 39.6297 68.3364 249.7022 0.0000 0.0000 0.0000
# 4 0.0000 0.0000 0.0000 49.7243 0.0000 0.0000
# 5 0.0000 0.0000 0.0000 0.0000 -22.4732 0.0000
# 6 0.0000 0.0000 0.0000 0.0000 0.0000 13.9218
#
#
#
# Elastic Compliance Matrix: (Units=1/GPa)
#
#
# Indices 1 2 3 4 5 6 
#
# 1 0.104751 -0.001891 -0.016108 0.000000 0.000000 0.000000
# 2 -0.001891 0.019624 -0.005070 0.000000 0.000000 0.000000
# 3 -0.016108 -0.005070 0.007949 0.000000 0.000000 0.000000
# 4 0.000000 0.000000 0.000000 0.020111 0.000000 0.000000
# 5 0.000000 0.000000 0.000000 0.000000 -0.044498 0.000000
# 6 0.000000 0.000000 0.000000 0.000000 0.000000 0.071830
#
#
# Mechanical properties :
#
#
# Convention : Reuss Voigt Hill
#
# Bulk Modulus (GPa) = 11.60266 63.86327 37.73296
# Shear Modulus (GPa) = 19.63608 22.60596 21.12102
#
# Velocity S-wave (km/s) = 3.11514 3.34243 3.23078
# Velocity P-wave (km/s) = 4.32120 6.81592 5.70656
#
# Compressibility (1/GPa) = 0.08618712
#
# Stress axis : x y z
#
# Youngs Moduli (GPa) = 9.54641 50.95818 125.80506
#
# Poissons Ratio (x) = 0.09634 2.02641
# Poissons Ratio (y) = 0.01805 0.63789
# Poissons Ratio (z) = 0.15377 0.25838
#
# Static dielectric constant tensor:
#      x y z
#    x 1.689350 0.000000 0.000000 
#    y 0.000000 1.735630 0.000000 
#    z 0.000000 0.000000 1.778470 
# 
# From -- ./inp_files/31615.got.cif
#   From: 2010.05.17/outbox.cif.g08.bks.cpg/sg47_16_cif.got.tgz:31615.got - 2010.06.03 20:15:42.
