data_PCOD9387527
_publ_section_title
;
Structure prediction by ZEFSAII (Michael W. Deem and Ramdas Pophale) SiO2 
 PCOD9387527
Probable space group: P M M M
;
_chemical_formula_sum "Si O2"
_cell_formula_units_Z 48
_cell_length_a 15.970502
_cell_length_b 7.908056
_cell_length_c 19.581240
_cell_angle_alpha 90.000000
_cell_angle_beta 90.000000
_cell_angle_gamma 90.000000
_cell_volume 2473.024928
_symmetry_space_group_name_H-M "P M M M"
_symmetry_group_IT_number 47
_symmetry_cell_setting 'orthorhombic'
loop_
_space_group_symop_operation_xyz
x,y,z
-x,-y,z
x,-y,-z
-x,y,-z
-x,-y,-z
x,y,-z
-x,y,z
x,-y,z
loop_
_atom_site_type_symbol
_atom_site_label
_atom_site_fract_x
_atom_site_fract_y
_atom_site_fract_z
Si Si1 0.500000 0.706904 0.422043
Si Si2 0.341637 0.701767 0.665668
Si Si3 0.727629 0.202626 0.922046
Si Si4 0.090432 0.703558 0.919809
Si Si5 0.595423 0.797850 0.186957
Si Si6 0.000000 0.194335 0.582934
Si Si7 0.817911 0.795668 0.578313
O O1 0.500000 0.500000 0.422342
O O2 0.500000 0.763539 0.500000
O O3 0.582444 0.764020 0.382198
O O4 0.346752 0.500000 0.668496
O O5 0.358531 0.766944 0.741461
O O6 0.254835 0.749177 0.630181
O O7 0.820367 0.237150 0.892069
O O8 0.653718 0.269422 0.874075
O O9 0.719255 0.000000 0.925810
O O10 0.723617 0.269363 0.000000
O O11 0.090699 0.500000 0.917585
O O12 0.000000 0.761267 0.891076
O O13 0.090811 0.754581 0.000000
O O14 0.500000 0.730557 0.188657
O O15 0.589455 0.000000 0.177951
O O16 0.909774 0.270409 0.600641
O O17 0.000000 0.188347 0.500000
O O18 0.000000 0.000000 0.608023
O O19 0.800096 0.738326 0.500000
O O20 0.823747 0.000000 0.575608
#
# Coordination Sequence:
#
# PCOD9387527 Si02
#       7
#     4   8   8   8   8   4   8
#     4   9  18  32  49  71 100 131 164 204 251 299
#     4  11  21  34  52  74 103 139 174 211 257 308
#     4   9  18  32  52  79 105 130 166 212 258 303
#     4   8  14  26  46  73 104 135 163 195 243 299
#     4  10  21  37  55  73  99 135 172 212 258 311
#     4   7  12  26  49  75 103 135 168 203 248 299
#     4   9  17  31  53  80 107 136 172 212 253 301
#
# _framework density 19.409428999999999
#
# number of rings (size 3 to 8) (size 9 to 14) (size 15 to 20)
#    0.000    2.833    0.833    2.500    0.000    2.333 
#    0.000    3.750    1.833    3.500    0.000    3.500 
#    0.000    0.000    0.000    0.000    0.000    0.000 
#
# Total GULP energy -267449.555434 kJ/mol
# GULP energy per Si atom -5571.865738 kJ/mol
# Density = 1.936525 g / cm^3
# Si number density = 19.409429 Si / 1000 Ang^3
#
#
#
# Elastic Constant Matrix: (Units=GPa)
#
#
# Indices 1 2 3 4 5 6 
#
# 1 205.5544 6.6355 82.8782 0.0000 0.0000 0.0000
# 2 6.6355 18.3955 2.2195 0.0000 0.0000 0.0000
# 3 82.8782 2.2195 91.7293 0.0000 0.0000 0.0000
# 4 0.0000 0.0000 0.0000 4.9256 0.0000 0.0000
# 5 0.0000 0.0000 0.0000 0.0000 -45.5953 0.0000
# 6 0.0000 0.0000 0.0000 0.0000 0.0000 -34.9889
#
#
#
# Elastic Compliance Matrix: (Units=1/GPa)
#
#
# Indices 1 2 3 4 5 6 
#
# 1 0.007722 -0.001949 -0.006930 0.000000 0.000000 0.000000
# 2 -0.001949 0.055012 0.000430 0.000000 0.000000 0.000000
# 3 -0.006930 0.000430 0.017152 0.000000 0.000000 0.000000
# 4 0.000000 0.000000 0.000000 0.203019 0.000000 0.000000
# 5 0.000000 0.000000 0.000000 0.000000 -0.021932 0.000000
# 6 0.000000 0.000000 0.000000 0.000000 0.000000 -0.028581
#
#
# Mechanical properties :
#
#
# Convention : Reuss Voigt Hill
#
# Bulk Modulus (GPa) = 15.87580 55.46063 35.66821
# Shear Modulus (GPa) = 18.49888 -0.20196 9.14846
#
# Velocity S-wave (km/s) = 3.09056 -0.32292 2.17339
# Velocity P-wave (km/s) = 4.57522 5.33826 4.97140
#
# Compressibility (1/GPa) = 0.06298896
#
# Stress axis : x y z
#
# Youngs Moduli (GPa) = 129.50436 18.17771 58.30186
#
# Poissons Ratio (x) = 0.03543 0.40400
# Poissons Ratio (y) = 0.25244 -0.02508
# Poissons Ratio (z) = 0.89740 -0.00782
#
# Static dielectric constant tensor:
#      x y z
#    x 1.725040 0.000000 0.000000 
#    y 0.000000 1.703450 0.000000 
#    z 0.000000 0.000000 1.657460 
# 
# From -- ./inp_files/28043.got.cif
#   From: 2010.05.17/outbox.cif.g08.bks.cpg/sg47_15_cif.got.tgz:28043.got - 2010.06.03 20:15:42.
