data_PCOD9387881
_publ_section_title
;
Structure prediction by ZEFSAII (Michael W. Deem and Ramdas Pophale) SiO2 
 PCOD9387881
Probable space group: P M M M
;
_chemical_formula_sum "Si O2"
_cell_formula_units_Z 56
_cell_length_a 20.144192
_cell_length_b 7.766862
_cell_length_c 16.384573
_cell_angle_alpha 90.000000
_cell_angle_beta 90.000000
_cell_angle_gamma 90.000000
_cell_volume 2563.483749
_symmetry_space_group_name_H-M "P M M M"
_symmetry_group_IT_number 47
_symmetry_cell_setting 'orthorhombic'
loop_
_space_group_symop_operation_xyz
x,y,z
-x,-y,z
x,-y,-z
-x,y,-z
-x,-y,-z
x,y,-z
-x,y,z
x,-y,z
loop_
_atom_site_type_symbol
_atom_site_label
_atom_site_fract_x
_atom_site_fract_y
_atom_site_fract_z
Si Si1 0.571724 0.206836 0.097558
Si Si2 0.426894 0.290081 0.405112
Si Si3 0.855901 0.701621 0.911497
Si Si4 0.924224 0.707841 0.746473
Si Si5 0.284686 0.197573 0.855852
Si Si6 0.293505 0.297786 0.677521
Si Si7 0.835976 0.205256 0.410128
O O1 0.500000 0.274499 0.127792
O O2 0.641455 0.273412 0.131763
O O3 0.571100 0.000000 0.112152
O O4 0.573388 0.232210 0.000000
O O5 0.419797 0.239522 0.500000
O O6 0.500000 0.235081 0.376241
O O7 0.425678 0.500000 0.403951
O O8 0.364371 0.230568 0.353289
O O9 0.873792 0.500000 0.913913
O O10 0.889613 0.774518 0.829642
O O11 0.776549 0.713736 0.900065
O O12 0.874101 0.777454 0.000000
O O13 0.924483 0.500000 0.751643
O O14 0.883725 0.749578 0.664841
O O15 0.000000 0.768394 0.741321
O O16 0.271166 0.204988 0.759585
O O17 0.285935 0.000000 0.884722
O O18 0.299345 0.500000 0.696933
O O19 0.236981 0.276846 0.609979
O O20 0.858467 0.265138 0.500000
O O21 0.830664 0.000000 0.412024
#
# Coordination Sequence:
#
# PCOD9387881 Si02
#       7
#     8   8   8   8   8   8   8
#     4   8  15  29  48  71 102 143 192 242 290 342
#     4   8  15  29  49  74 104 140 186 239 293 348
#     4  10  21  38  61  89 121 157 195 237 287 344
#     4  10  22  41  65  93 124 158 195 234 281 344
#     4  11  21  33  53  81 113 151 196 244 293 344
#     4  11  21  34  55  82 113 151 196 244 294 347
#     4  11  24  41  62  89 121 158 198 242 294 347
#
# _framework density 21.845271
#
# number of rings (size 3 to 8) (size 9 to 14) (size 15 to 20)
#    0.000    2.143    1.429    3.000    0.000    4.000 
#    0.000    2.857    0.000    2.571    0.000   12.000 
#    0.000    0.000    0.000    0.000    0.000    0.000 
#
# Total GULP energy -312662.991238 kJ/mol
# GULP energy per Si atom -5583.267701 kJ/mol
# Density = 2.179555 g / cm^3
# Si number density = 21.845271 Si / 1000 Ang^3
#
#
#
# Elastic Constant Matrix: (Units=GPa)
#
#
# Indices 1 2 3 4 5 6 
#
# 1 124.1865 2.7214 60.8385 0.0000 0.0000 0.0000
# 2 2.7214 38.7074 2.9689 0.0000 0.0000 0.0000
# 3 60.8385 2.9689 135.3190 0.0000 0.0000 0.0000
# 4 0.0000 0.0000 0.0000 30.0119 0.0000 0.0000
# 5 0.0000 0.0000 0.0000 0.0000 10.1965 0.0000
# 6 0.0000 0.0000 0.0000 0.0000 0.0000 2.5960
#
#
#
# Elastic Compliance Matrix: (Units=1/GPa)
#
#
# Indices 1 2 3 4 5 6 
#
# 1 0.010332 -0.000371 -0.004637 0.000000 0.000000 0.000000
# 2 -0.000371 0.025892 -0.000401 0.000000 0.000000 0.000000
# 3 -0.004637 -0.000401 0.009484 0.000000 0.000000 0.000000
# 4 0.000000 0.000000 0.000000 0.033320 0.000000 0.000000
# 5 0.000000 0.000000 0.000000 0.000000 0.098073 0.000000
# 6 0.000000 0.000000 0.000000 0.000000 0.000000 0.385214
#
#
# Mechanical properties :
#
#
# Convention : Reuss Voigt Hill
#
# Bulk Modulus (GPa) = 28.66238 47.91893 38.29065
# Shear Modulus (GPa) = 8.55048 24.00648 16.27848
#
# Velocity S-wave (km/s) = 1.98056 3.31861 2.73274
# Velocity P-wave (km/s) = 4.28710 6.05537 5.24627
#
# Compressibility (1/GPa) = 0.03488893
#
# Stress axis : x y z
#
# Youngs Moduli (GPa) = 96.78415 38.62245 105.44518
#
# Poissons Ratio (x) = 0.01432 0.48897
# Poissons Ratio (y) = 0.03588 0.04232
# Poissons Ratio (z) = 0.44881 0.01550
#
# Static dielectric constant tensor:
#      x y z
#    x 1.780280 0.000000 0.000000 
#    y 0.000000 1.803160 0.000000 
#    z 0.000000 0.000000 1.796200 
# 
# From -- ./inp_files/7208.got.cif
#   From: 2010.05.17/outbox.cif.g08.bks.cpg/sg47_4_cif.got.tgz:7208.got - 2010.06.03 20:15:42.
