data_PCOD9387393
_publ_section_title
;
Structure prediction by ZEFSAII (Michael W. Deem and Ramdas Pophale) SiO2 
 PCOD9387393
Probable space group: P M M M
;
_chemical_formula_sum "Si O2"
_cell_formula_units_Z 48
_cell_length_a 29.956976
_cell_length_b 10.238902
_cell_length_c 8.538692
_cell_angle_alpha 90.000000
_cell_angle_beta 90.000000
_cell_angle_gamma 90.000000
_cell_volume 2619.043466
_symmetry_space_group_name_H-M "P M M M"
_symmetry_group_IT_number 47
_symmetry_cell_setting 'orthorhombic'
loop_
_space_group_symop_operation_xyz
x,y,z
-x,-y,z
x,-y,-z
-x,y,-z
-x,-y,-z
x,y,-z
-x,y,z
x,-y,z
loop_
_atom_site_type_symbol
_atom_site_label
_atom_site_fract_x
_atom_site_fract_y
_atom_site_fract_z
Si Si1 0.199864 0.152645 0.810489
Si Si2 0.052127 0.500000 0.812165
Si Si3 0.893987 0.251738 0.688306
Si Si4 0.449041 0.849858 0.189023
Si Si5 0.050337 0.000000 0.690504
Si Si6 0.376331 0.649029 0.687283
Si Si7 0.277301 0.649698 0.189061
O O1 0.155471 0.225368 0.751790
O O2 0.242055 0.240507 0.759151
O O3 0.201001 0.000000 0.758306
O O4 0.199399 0.151080 0.000000
O O5 0.079831 0.623720 0.751660
O O6 0.000000 0.500000 0.758506
O O7 0.051687 0.500000 0.000000
O O8 0.892303 0.257850 0.500000
O O9 0.923018 0.127193 0.738881
O O10 0.500000 0.818346 0.237287
O O11 0.413118 0.749915 0.254103
O O12 0.439748 0.000000 0.236347
O O13 0.447721 0.845853 0.000000
O O14 0.049056 0.000000 0.500000
O O15 0.000000 0.000000 0.748755
O O16 0.374623 0.652088 0.500000
O O17 0.387151 0.500000 0.737258
O O18 0.327072 0.679220 0.752312
O O19 0.265897 0.500000 0.239074
O O20 0.277525 0.650054 0.000000
#
# Coordination Sequence:
#
# PCOD9387393 Si02
#       7
#     8   4   8   8   4   8   8
#     4  10  21  37  57  83 116 150 186 231 282 337
#     4  11  25  43  61  85 117 151 189 233 280 333
#     4  11  22  38  60  87 117 150 188 231 280 335
#     4   9  19  36  57  81 110 147 192 238 282 334
#     4   9  18  34  57  83 113 147 183 225 272 325
#     4  10  21  36  54  81 116 150 186 233 286 338
#     4   9  19  36  57  79 106 148 195 235 279 332
#
# _framework density 18.327300999999999
#
# number of rings (size 3 to 8) (size 9 to 14) (size 15 to 20)
#    0.000    2.167    0.833    2.250    1.167    4.667 
#    0.000    4.167    0.000    2.000    0.000    0.000 
#    0.000    0.000    0.000    0.000    0.000    0.000 
#
# Total GULP energy -267884.606547 kJ/mol
# GULP energy per Si atom -5580.929303 kJ/mol
# Density = 1.828559 g / cm^3
# Si number density = 18.327301 Si / 1000 Ang^3
#
#
#
# Elastic Constant Matrix: (Units=GPa)
#
#
# Indices 1 2 3 4 5 6 
#
# 1 184.1397 131.4926 31.6808 0.0000 0.0000 0.0000
# 2 131.4926 175.0380 32.3850 0.0000 0.0000 0.0000
# 3 31.6808 32.3850 17.8381 0.0000 0.0000 0.0000
# 4 0.0000 0.0000 0.0000 16.1359 0.0000 0.0000
# 5 0.0000 0.0000 0.0000 0.0000 1.8933 0.0000
# 6 0.0000 0.0000 0.0000 0.0000 0.0000 41.8984
#
#
#
# Elastic Compliance Matrix: (Units=1/GPa)
#
#
# Indices 1 2 3 4 5 6 
#
# 1 0.012377 -0.007877 -0.007682 0.000000 0.000000 0.000000
# 2 -0.007877 0.013615 -0.010729 0.000000 0.000000 0.000000
# 3 -0.007682 -0.010729 0.089182 0.000000 0.000000 0.000000
# 4 0.000000 0.000000 0.000000 0.061974 0.000000 0.000000
# 5 0.000000 0.000000 0.000000 0.000000 0.528177 0.000000
# 6 0.000000 0.000000 0.000000 0.000000 0.000000 0.023867
#
#
# Mechanical properties :
#
#
# Convention : Reuss Voigt Hill
#
# Bulk Modulus (GPa) = 15.97481 85.34804 50.66143
# Shear Modulus (GPa) = 6.22949 24.08269 15.15609
#
# Velocity S-wave (km/s) = 1.84564 3.62889 2.87882
# Velocity P-wave (km/s) = 3.64379 8.01426 6.22517
#
# Compressibility (1/GPa) = 0.06259854
#
# Stress axis : x y z
#
# Youngs Moduli (GPa) = 80.79619 73.44734 11.21304
#
# Poissons Ratio (x) = 0.57851 0.08613
# Poissons Ratio (y) = 0.63639 0.12031
# Poissons Ratio (z) = 0.62065 0.78805
#
# Static dielectric constant tensor:
#      x y z
#    x 1.603760 0.000000 0.000000 
#    y 0.000000 1.627090 0.000000 
#    z 0.000000 0.000000 1.621890 
# 
# From -- ./inp_files/2809.got.cif
#   From: 2010.05.17/outbox.cif.g08.bks.cpg/sg47_2_cif.got.tgz:2809.got - 2010.06.03 20:15:42.
