data_PCOD9387210
_publ_section_title
;
Structure prediction by ZEFSAII (Michael W. Deem and Ramdas Pophale) SiO2 
 PCOD9387210
Probable space group: P M M M
;
_chemical_formula_sum "Si O2"
_cell_formula_units_Z 56
_cell_length_a 15.587034
_cell_length_b 14.008322
_cell_length_c 14.108772
_cell_angle_alpha 90.000000
_cell_angle_beta 90.000000
_cell_angle_gamma 90.000000
_cell_volume 3080.624848
_symmetry_space_group_name_H-M "P M M M"
_symmetry_group_IT_number 47
_symmetry_cell_setting 'orthorhombic'
loop_
_space_group_symop_operation_xyz
x,y,z
-x,-y,z
x,-y,-z
-x,y,-z
-x,-y,-z
x,y,-z
-x,y,z
x,-y,z
loop_
_atom_site_type_symbol
_atom_site_label
_atom_site_fract_x
_atom_site_fract_y
_atom_site_fract_z
Si Si1 0.215664 0.386055 0.886057
Si Si2 0.591867 0.308642 0.384456
Si Si3 0.100054 0.283003 0.259805
Si Si4 0.407725 0.388286 0.885197
Si Si5 0.148061 0.111377 0.609741
Si Si6 0.228190 0.612338 0.606079
Si Si7 0.644929 0.895826 0.611943
O O1 0.204987 0.500000 0.859270
O O2 0.149131 0.314765 0.835879
O O3 0.312729 0.353526 0.858995
O O4 0.207785 0.382924 0.000000
O O5 0.592860 0.308936 0.500000
O O6 0.500000 0.350539 0.356700
O O7 0.677932 0.361656 0.354905
O O8 0.600652 0.199287 0.350771
O O9 0.111453 0.178354 0.307526
O O10 0.150120 0.347845 0.335232
O O11 0.000000 0.303488 0.251016
O O12 0.500000 0.345235 0.855147
O O13 0.408722 0.500000 0.858086
O O14 0.407951 0.385824 0.000000
O O15 0.124785 0.137961 0.500000
O O16 0.252050 0.117283 0.616824
O O17 0.124627 0.000000 0.621475
O O18 0.223635 0.653456 0.500000
O O19 0.222684 0.500000 0.601626
O O20 0.623668 0.899350 0.500000
O O21 0.622680 0.000000 0.652660
#
# Coordination Sequence:
#
# PCOD9387210 Si02
#       7
#     8   8   8   8   8   8   8
#     4   9  19  36  56  79 110 146 182 222 266 312
#     4   9  16  27  45  68  96 134 176 211 251 309
#     4  12  24  36  54  78 103 134 177 227 274 321
#     4   7  10  21  46  77 104 131 165 207 258 312
#     4   9  18  35  59  83 107 136 171 217 277 339
#     4  10  21  36  50  67  99 139 177 219 264 311
#     4   8  13  24  45  71  98 128 162 203 253 307
#
# _framework density 18.178132000000002
#
# number of rings (size 3 to 8) (size 9 to 14) (size 15 to 20)
#    0.000    2.857    1.429    3.000    0.000    3.429 
#    0.000    5.714    0.000    2.143    0.000    1.000 
#    0.000    0.000    0.000    3.571    0.000    0.286 
#
# Total GULP energy -311787.879388 kJ/mol
# GULP energy per Si atom -5567.640703 kJ/mol
# Density = 1.813676 g / cm^3
# Si number density = 18.178132 Si / 1000 Ang^3
#
#
#
# Elastic Constant Matrix: (Units=GPa)
#
#
# Indices 1 2 3 4 5 6 
#
# 1 142.5160 37.6094 33.9930 0.0000 0.0000 0.0000
# 2 37.6094 58.3186 18.9174 0.0000 0.0000 0.0000
# 3 33.9930 18.9174 77.1214 0.0000 0.0000 0.0000
# 4 0.0000 0.0000 0.0000 14.6786 0.0000 0.0000
# 5 0.0000 0.0000 0.0000 0.0000 20.4405 0.0000
# 6 0.0000 0.0000 0.0000 0.0000 0.0000 -30.5655
#
#
#
# Elastic Compliance Matrix: (Units=1/GPa)
#
#
# Indices 1 2 3 4 5 6 
#
# 1 0.008963 -0.004888 -0.002752 0.000000 0.000000 0.000000
# 2 -0.004888 0.021295 -0.003069 0.000000 0.000000 0.000000
# 3 -0.002752 -0.003069 0.014932 0.000000 0.000000 0.000000
# 4 0.000000 0.000000 0.000000 0.068126 0.000000 0.000000
# 5 0.000000 0.000000 0.000000 0.000000 0.048922 0.000000
# 6 0.000000 0.000000 0.000000 0.000000 0.000000 -0.032717
#
#
# Mechanical properties :
#
#
# Convention : Reuss Voigt Hill
#
# Bulk Modulus (GPa) = 42.06437 50.99950 46.53194
# Shear Modulus (GPa) = 31.47361 13.40647 22.44004
#
# Velocity S-wave (km/s) = 4.16552 2.71865 3.51729
# Velocity P-wave (km/s) = 6.80630 6.16207 6.49218
#
# Compressibility (1/GPa) = 0.02377309
#
# Stress axis : x y z
#
# Youngs Moduli (GPa) = 111.57098 46.95998 66.96889
#
# Poissons Ratio (x) = 0.22952 0.18428
# Poissons Ratio (y) = 0.54531 0.20554
# Poissons Ratio (z) = 0.30701 0.14413
#
# Static dielectric constant tensor:
#      x y z
#    x 1.661070 0.000000 0.000000 
#    y 0.000000 1.644480 0.000000 
#    z 0.000000 0.000000 1.683020 
# 
# From -- ./inp_files/23795.got.cif
#   From: 2010.05.17/outbox.cif.g08.bks.cpg/sg47_12_cif.got.tgz:23795.got - 2010.06.03 20:15:42.
