data_PCOD9387615
_publ_section_title
;
Structure prediction by ZEFSAII (Michael W. Deem and Ramdas Pophale) SiO2 
 PCOD9387615
Probable space group: P M M M
;
_chemical_formula_sum "Si O2"
_cell_formula_units_Z 56
_cell_length_a 21.428455
_cell_length_b 8.813325
_cell_length_c 15.474496
_cell_angle_alpha 90.000000
_cell_angle_beta 90.000000
_cell_angle_gamma 90.000000
_cell_volume 2922.450460
_symmetry_space_group_name_H-M "P M M M"
_symmetry_group_IT_number 47
_symmetry_cell_setting 'orthorhombic'
loop_
_space_group_symop_operation_xyz
x,y,z
-x,-y,z
x,-y,-z
-x,y,-z
-x,-y,-z
x,y,-z
-x,y,z
x,-y,z
loop_
_atom_site_type_symbol
_atom_site_label
_atom_site_fract_x
_atom_site_fract_y
_atom_site_fract_z
Si Si1 0.729896 0.829807 0.593563
Si Si2 0.765323 0.318705 0.097824
Si Si3 0.366410 0.178709 0.851625
Si Si4 0.500000 0.174362 0.396803
Si Si5 0.925826 0.318558 0.598311
Si Si6 0.376009 0.674716 0.671831
Si Si7 0.165136 0.176495 0.261609
Si Si8 0.500000 0.328311 0.102980
O O1 0.761245 0.817734 0.500000
O O2 0.677161 0.704415 0.602086
O O3 0.777484 0.814834 0.671242
O O4 0.701452 0.000000 0.597627
O O5 0.761306 0.500000 0.108813
O O6 0.694681 0.252800 0.105000
O O7 0.810184 0.253589 0.173181
O O8 0.787902 0.285883 0.000000
O O9 0.357838 0.218606 0.751470
O O10 0.434970 0.246513 0.873076
O O11 0.366761 0.000000 0.868693
O O12 0.500000 0.169713 0.500000
O O13 0.440613 0.264984 0.363891
O O14 0.500000 0.000000 0.364376
O O15 0.908003 0.266237 0.500000
O O16 0.915233 0.500000 0.600247
O O17 0.890135 0.247859 0.680354
O O18 0.000000 0.291742 0.606249
O O19 0.378813 0.500000 0.698595
O O20 0.151681 0.000000 0.243831
O O21 0.500000 0.500000 0.139524
O O22 0.500000 0.337570 0.000000
#
# Coordination Sequence:
#
# PCOD9387615 Si02
#       8
#     8   8   8   4   8   8   8   4
#     4  10  21  37  56  82 118 156 193 237 293 353
#     4  11  24  42  64  90 121 159 205 257 312 370
#     4  12  24  40  61  85 114 149 193 246 308 372
#     4  11  24  41  58  75 103 145 190 240 299 360
#     4   9  19  37  62  94 134 178 218 254 296 350
#     4  12  24  38  57  80 108 144 191 242 293 353
#     4  11  22  37  61  92 126 165 206 250 302 357
#     4  11  24  41  60  83 111 143 184 240 307 374
#
# _framework density 19.162002000000001
#
# number of rings (size 3 to 8) (size 9 to 14) (size 15 to 20)
#    0.000    1.143    1.429    6.000    0.000    7.714 
#    0.000    0.714    0.000    0.429    0.000    3.000 
#    0.000    0.000    0.000    0.000    0.000    0.000 
#
# Total GULP energy -312634.020926 kJ/mol
# GULP energy per Si atom -5582.750374 kJ/mol
# Density = 1.911839 g / cm^3
# Si number density = 19.162002 Si / 1000 Ang^3
#
#
#
# Elastic Constant Matrix: (Units=GPa)
#
#
# Indices 1 2 3 4 5 6 
#
# 1 88.9994 55.4217 47.4093 0.0000 0.0000 0.0000
# 2 55.4217 105.4656 53.2905 0.0000 0.0000 0.0000
# 3 47.4093 53.2905 140.7668 0.0000 0.0000 0.0000
# 4 0.0000 0.0000 0.0000 24.3630 0.0000 0.0000
# 5 0.0000 0.0000 0.0000 0.0000 -15.2793 0.0000
# 6 0.0000 0.0000 0.0000 0.0000 0.0000 38.2041
#
#
#
# Elastic Compliance Matrix: (Units=1/GPa)
#
#
# Indices 1 2 3 4 5 6 
#
# 1 0.017678 -0.007767 -0.003013 0.000000 0.000000 0.000000
# 2 -0.007767 0.015137 -0.003115 0.000000 0.000000 0.000000
# 3 -0.003013 -0.003115 0.009298 0.000000 0.000000 0.000000
# 4 0.000000 0.000000 0.000000 0.041046 0.000000 0.000000
# 5 0.000000 0.000000 0.000000 0.000000 -0.065448 0.000000
# 6 0.000000 0.000000 0.000000 0.000000 0.000000 0.026175
#
#
# Mechanical properties :
#
#
# Convention : Reuss Voigt Hill
#
# Bulk Modulus (GPa) = 69.81847 71.94164 70.88006
# Shear Modulus (GPa) = 65.40194 21.39826 43.40010
#
# Velocity S-wave (km/s) = 5.84852 3.34534 4.76426
# Velocity P-wave (km/s) = 9.06211 7.24894 8.20576
#
# Compressibility (1/GPa) = 0.01432286
#
# Stress axis : x y z
#
# Youngs Moduli (GPa) = 56.56768 66.06299 107.55058
#
# Poissons Ratio (x) = 0.51311 0.32410
# Poissons Ratio (y) = 0.43936 0.33498
# Poissons Ratio (z) = 0.17046 0.20576
#
# Static dielectric constant tensor:
#      x y z
#    x 1.699750 0.000000 0.000000 
#    y 0.000000 1.675190 0.000000 
#    z 0.000000 0.000000 1.695970 
# 
# From -- ./inp_files/25190.got.cif
#   From: 2010.05.17/outbox.cif.g08.bks.cpg/sg47_13_cif.got.tgz:25190.got - 2010.06.03 20:15:42.
