data_PCOD9387762
_publ_section_title
;
Structure prediction by ZEFSAII (Michael W. Deem and Ramdas Pophale) SiO2 
 PCOD9387762
Probable space group: P M M M
;
_chemical_formula_sum "Si O2"
_cell_formula_units_Z 48
_cell_length_a 16.063240
_cell_length_b 7.998204
_cell_length_c 18.219492
_cell_angle_alpha 90.000000
_cell_angle_beta 90.000000
_cell_angle_gamma 90.000000
_cell_volume 2340.786957
_symmetry_space_group_name_H-M "P M M M"
_symmetry_group_IT_number 47
_symmetry_cell_setting 'orthorhombic'
loop_
_space_group_symop_operation_xyz
x,y,z
-x,-y,z
x,-y,-z
-x,y,-z
-x,-y,-z
x,y,-z
-x,y,z
x,-y,z
loop_
_atom_site_type_symbol
_atom_site_label
_atom_site_fract_x
_atom_site_fract_y
_atom_site_fract_z
Si Si1 0.092862 0.795631 0.645402
Si Si2 0.266488 0.799223 0.419236
Si Si3 0.408728 0.302300 0.693789
Si Si4 0.404760 0.299970 0.000000
Si Si5 0.668237 0.199751 0.843507
Si Si6 0.000000 0.204681 0.916696
Si Si7 0.854844 0.796029 0.809519
O O1 0.173294 0.738167 0.599989
O O2 0.111376 0.747212 0.729708
O O3 0.000000 0.740306 0.623246
O O4 0.092082 0.000000 0.642723
O O5 0.292264 0.737953 0.500000
O O6 0.333146 0.761067 0.356241
O O7 0.261055 0.000000 0.421870
O O8 0.500000 0.231941 0.673888
O O9 0.411085 0.500000 0.683402
O O10 0.390650 0.267059 0.779214
O O11 0.360063 0.244291 0.074721
O O12 0.406824 0.500000 0.000000
O O13 0.500000 0.236547 0.000000
O O14 0.761546 0.261712 0.825750
O O15 0.668569 0.000000 0.836970
O O16 0.081248 0.257977 0.872015
O O17 0.000000 0.000000 0.917170
O O18 0.000000 0.262162 0.000000
O O19 0.853544 0.000000 0.809579
#
# Coordination Sequence:
#
# PCOD9387762 Si02
#       7
#     8   8   8   4   8   4   8
#     4   9  15  28  52  82 117 152 185 229 288 346
#     4  10  21  37  58  88 122 152 190 245 300 347
#     4  11  24  41  61  84 113 154 200 242 292 358
#     4  11  25  43  59  80 115 154 192 235 287 351
#     4  11  22  37  61  90 118 147 190 245 295 342
#     4   9  16  24  40  72 115 151 178 221 282 335
#     4   9  16  27  46  77 112 145 181 227 279 332
#
# _framework density 20.505925999999999
#
# number of rings (size 3 to 8) (size 9 to 14) (size 15 to 20)
#    0.000    2.000    2.500    1.750    1.167    5.000 
#    0.000    3.333    0.000    0.500    0.000    3.500 
#    0.000    0.000    0.000    0.000    0.000    0.000 
#
# Total GULP energy -268017.860175 kJ/mol
# GULP energy per Si atom -5583.705420 kJ/mol
# Density = 2.045925 g / cm^3
# Si number density = 20.505926 Si / 1000 Ang^3
#
#
#
# Elastic Constant Matrix: (Units=GPa)
#
#
# Indices 1 2 3 4 5 6 
#
# 1 152.3873 9.0284 42.4457 0.0000 0.0000 0.0000
# 2 9.0284 17.8153 0.7996 0.0000 0.0000 0.0000
# 3 42.4457 0.7996 108.7937 0.0000 0.0000 0.0000
# 4 0.0000 0.0000 0.0000 -6.8883 0.0000 0.0000
# 5 0.0000 0.0000 0.0000 0.0000 13.2291 0.0000
# 6 0.0000 0.0000 0.0000 0.0000 0.0000 40.9951
#
#
#
# Elastic Compliance Matrix: (Units=1/GPa)
#
#
# Indices 1 2 3 4 5 6 
#
# 1 0.007601 -0.003720 -0.002938 0.000000 0.000000 0.000000
# 2 -0.003720 0.057971 0.001025 0.000000 0.000000 0.000000
# 3 -0.002938 0.001025 0.010331 0.000000 0.000000 0.000000
# 4 0.000000 0.000000 0.000000 -0.145174 0.000000 0.000000
# 5 0.000000 0.000000 0.000000 0.000000 0.075591 0.000000
# 6 0.000000 0.000000 0.000000 0.000000 0.000000 0.024393
#
#
# Mechanical properties :
#
#
# Convention : Reuss Voigt Hill
#
# Bulk Modulus (GPa) = 15.47118 42.61598 29.04358
# Shear Modulus (GPa) = 78.70980 24.58201 51.64591
#
# Velocity S-wave (km/s) = 6.20220 3.46609 5.02399
# Velocity P-wave (km/s) = 7.67143 6.07007 6.91725
#
# Compressibility (1/GPa) = 0.06463633
#
# Stress axis : x y z
#
# Youngs Moduli (GPa) = 131.56104 17.25006 96.80065
#
# Poissons Ratio (x) = 0.06417 0.28442
# Poissons Ratio (y) = 0.48943 -0.09925
# Poissons Ratio (z) = 0.38655 -0.01769
#
# Static dielectric constant tensor:
#      x y z
#    x 1.743890 0.000000 0.000000 
#    y 0.000000 1.743150 0.000000 
#    z 0.000000 0.000000 1.841300 
# 
# From -- ./inp_files/28009.got.cif
#   From: 2010.05.17/outbox.cif.g08.bks.cpg/sg47_15_cif.got.tgz:28009.got - 2010.06.03 20:15:42.
