data_PCOD9387590
_publ_section_title
;
Structure prediction by ZEFSAII (Michael W. Deem and Ramdas Pophale) SiO2 
 PCOD9387590
Probable space group: P M M M
;
_chemical_formula_sum "Si O2"
_cell_formula_units_Z 40
_cell_length_a 19.762455
_cell_length_b 12.843937
_cell_length_c 8.688379
_cell_angle_alpha 90.000000
_cell_angle_beta 90.000000
_cell_angle_gamma 90.000000
_cell_volume 2205.351493
_symmetry_space_group_name_H-M "P M M M"
_symmetry_group_IT_number 47
_symmetry_cell_setting 'orthorhombic'
loop_
_space_group_symop_operation_xyz
x,y,z
-x,-y,z
x,-y,-z
-x,y,-z
-x,-y,-z
x,y,-z
-x,y,z
x,-y,z
loop_
_atom_site_type_symbol
_atom_site_label
_atom_site_fract_x
_atom_site_fract_y
_atom_site_fract_z
Si Si1 0.422884 0.000000 0.312689
Si Si2 0.922108 0.279859 0.814461
Si Si3 0.577153 0.378676 0.185413
Si Si4 0.333518 0.197633 0.315596
Si Si5 0.192456 0.879525 0.186183
Si Si6 0.917883 0.500000 0.677836
O O1 0.382180 0.897504 0.264830
O O2 0.500000 0.000000 0.257537
O O3 0.424421 0.000000 0.500000
O O4 0.872778 0.187262 0.764528
O O5 0.896597 0.392287 0.756664
O O6 0.000000 0.265151 0.762386
O O7 0.922782 0.282175 0.000000
O O8 0.500000 0.349807 0.231785
O O9 0.587379 0.500000 0.225428
O O10 0.631762 0.303348 0.259662
O O11 0.580712 0.370535 0.000000
O O12 0.329416 0.196588 0.500000
O O13 0.259940 0.175307 0.247156
O O14 0.190272 0.000000 0.237501
O O15 0.193994 0.879478 0.000000
O O16 0.897940 0.500000 0.500000
O O17 0.000000 0.500000 0.686998
#
# Coordination Sequence:
#
# PCOD9387590 Si02
#       6
#     4   8   8   8   8   4
#     4   9  18  32  51  77 106 137 174 218 267 311
#     4   9  18  34  57  83 109 141 182 224 269 323
#     4   9  19  37  59  82 110 143 179 223 274 325
#     4  11  21  35  55  79 111 147 182 224 270 323
#     4  10  21  37  56  78 109 146 182 225 275 325
#     4   9  17  31  53  81 111 139 170 217 270 317
#
# _framework density 18.137699000000001
#
# number of rings (size 3 to 8) (size 9 to 14) (size 15 to 20)
#    0.000    2.400    1.000    2.100    0.000    4.000 
#    1.800    3.000    0.000    2.400    0.000    4.200 
#    0.000    0.000    0.000    0.000    0.000    0.000 
#
# Total GULP energy -223169.628365 kJ/mol
# GULP energy per Si atom -5579.240709 kJ/mol
# Density = 1.809642 g / cm^3
# Si number density = 18.137699 Si / 1000 Ang^3
#
#
#
# Elastic Constant Matrix: (Units=GPa)
#
#
# Indices 1 2 3 4 5 6 
#
# 1 127.8817 89.0981 24.7860 0.0000 0.0000 0.0000
# 2 89.0981 136.2338 28.8089 0.0000 0.0000 0.0000
# 3 24.7860 28.8089 13.3253 0.0000 0.0000 0.0000
# 4 0.0000 0.0000 0.0000 15.6726 0.0000 0.0000
# 5 0.0000 0.0000 0.0000 0.0000 15.8232 0.0000
# 6 0.0000 0.0000 0.0000 0.0000 0.0000 14.3041
#
#
#
# Elastic Compliance Matrix: (Units=1/GPa)
#
#
# Indices 1 2 3 4 5 6 
#
# 1 0.015450 -0.007419 -0.012698 0.000000 0.000000 0.000000
# 2 -0.007419 0.017085 -0.023138 0.000000 0.000000 0.000000
# 3 -0.012698 -0.023138 0.148688 0.000000 0.000000 0.000000
# 4 0.000000 0.000000 0.000000 0.063806 0.000000 0.000000
# 5 0.000000 0.000000 0.000000 0.000000 0.063198 0.000000
# 6 0.000000 0.000000 0.000000 0.000000 0.000000 0.069910
#
#
# Mechanical properties :
#
#
# Convention : Reuss Voigt Hill
#
# Bulk Modulus (GPa) = 10.55818 62.53630 36.54724
# Shear Modulus (GPa) = 10.07619 18.14316 14.10968
#
# Velocity S-wave (km/s) = 2.35954 3.16618 2.79215
# Velocity P-wave (km/s) = 3.64102 6.92241 5.53068
#
# Compressibility (1/GPa) = 0.09471327
#
# Stress axis : x y z
#
# Youngs Moduli (GPa) = 64.72484 58.52920 6.72549
#
# Poissons Ratio (x) = 0.43424 0.08540
# Poissons Ratio (y) = 0.48021 0.15561
# Poissons Ratio (z) = 0.82187 1.35425
#
# Static dielectric constant tensor:
#      x y z
#    x 1.608680 0.000000 0.000000 
#    y 0.000000 1.611310 0.000000 
#    z 0.000000 0.000000 1.610930 
# 
# From -- ./inp_files/10650.got.cif
#   From: 2010.05.17/outbox.cif.g08.bks.cpg/sg47_6_cif.got.tgz:10650.got - 2010.06.03 20:15:42.
