data_PCOD9387426
_publ_section_title
;
Structure prediction by ZEFSAII (Michael W. Deem and Ramdas Pophale) SiO2 
 PCOD9387426
Probable space group: P M M M
;
_chemical_formula_sum "Si O2"
_cell_formula_units_Z 44
_cell_length_a 28.833574
_cell_length_b 9.644678
_cell_length_c 9.059480
_cell_angle_alpha 90.000000
_cell_angle_beta 90.000000
_cell_angle_gamma 90.000000
_cell_volume 2519.355657
_symmetry_space_group_name_H-M "P M M M"
_symmetry_group_IT_number 47
_symmetry_cell_setting 'orthorhombic'
loop_
_space_group_symop_operation_xyz
x,y,z
-x,-y,z
x,-y,-z
-x,y,-z
-x,-y,-z
x,y,-z
-x,y,z
x,-y,z
loop_
_atom_site_type_symbol
_atom_site_label
_atom_site_fract_x
_atom_site_fract_y
_atom_site_fract_z
Si Si1 0.500000 0.335880 0.176928
Si Si2 0.947947 0.836644 0.822855
Si Si3 0.582227 0.163456 0.323629
Si Si4 0.133052 0.661600 0.677591
Si Si5 0.761917 0.665749 0.675523
Si Si6 0.680711 0.836080 0.826172
O O1 0.500000 0.500000 0.210735
O O2 0.544575 0.259895 0.245819
O O3 0.500000 0.319758 0.000000
O O4 0.907136 0.751658 0.748495
O O5 0.000000 0.792107 0.776977
O O6 0.943504 0.000000 0.788874
O O7 0.945271 0.822166 0.000000
O O8 0.580829 0.181988 0.500000
O O9 0.633330 0.194768 0.261232
O O10 0.572574 0.000000 0.292662
O O11 0.130636 0.670327 0.500000
O O12 0.127396 0.500000 0.718260
O O13 0.185452 0.704711 0.719975
O O14 0.756933 0.692628 0.500000
O O15 0.757345 0.500000 0.696448
O O16 0.723071 0.747598 0.763693
O O17 0.690365 0.000000 0.806659
O O18 0.673809 0.810067 0.000000
#
# Coordination Sequence:
#
# PCOD9387426 Si02
#       6
#     4   8   8   8   8   8
#     4  11  24  39  56  82 114 145 178 217 262 312
#     4   9  19  35  52  72 101 135 170 210 257 309
#     4  10  21  38  60  83 107 140 181 220 261 311
#     4   9  19  35  53  75 103 134 171 214 258 307
#     4   9  19  36  55  75 103 139 175 212 258 310
#     4  10  21  36  55  81 110 139 174 216 261 309
#
# _framework density 17.464782
#
# number of rings (size 3 to 8) (size 9 to 14) (size 15 to 20)
#    0.000    2.455    0.000    3.273    0.000    8.000 
#    0.000    8.182    0.000    0.000    0.000    0.000 
#    0.000    0.000    0.000    0.000    0.000    0.000 
#
# Total GULP energy -245557.121553 kJ/mol
# GULP energy per Si atom -5580.843672 kJ/mol
# Density = 1.742503 g / cm^3
# Si number density = 17.464782 Si / 1000 Ang^3
#
#
#
# Elastic Constant Matrix: (Units=GPa)
#
#
# Indices 1 2 3 4 5 6 
#
# 1 176.0137 98.4784 75.3850 0.0000 0.0000 0.0000
# 2 98.4784 75.0064 58.1850 0.0000 0.0000 0.0000
# 3 75.3850 58.1850 64.0926 0.0000 0.0000 0.0000
# 4 0.0000 0.0000 0.0000 33.5187 0.0000 0.0000
# 5 0.0000 0.0000 0.0000 0.0000 49.1390 0.0000
# 6 0.0000 0.0000 0.0000 0.0000 0.0000 47.1603
#
#
#
# Elastic Compliance Matrix: (Units=1/GPa)
#
#
# Indices 1 2 3 4 5 6 
#
# 1 0.021429 -0.029019 0.001140 0.000000 0.000000 0.000000
# 2 -0.029019 0.084374 -0.042465 0.000000 0.000000 0.000000
# 3 0.001140 -0.042465 0.052813 0.000000 0.000000 0.000000
# 4 0.000000 0.000000 0.000000 0.029834 0.000000 0.000000
# 5 0.000000 0.000000 0.000000 0.000000 0.020350 0.000000
# 6 0.000000 0.000000 0.000000 0.000000 0.000000 0.021204
#
#
# Mechanical properties :
#
#
# Convention : Reuss Voigt Hill
#
# Bulk Modulus (GPa) = 55.78174 86.57883 71.18029
# Shear Modulus (GPa) = 13.27416 31.50121 22.38768
#
# Velocity S-wave (km/s) = 2.75990 4.25160 3.58421
# Velocity P-wave (km/s) = 6.49345 8.58968 7.61405
#
# Compressibility (1/GPa) = 0.01792701
#
# Stress axis : x y z
#
# Youngs Moduli (GPa) = 46.66467 11.85193 18.93469
#
# Poissons Ratio (x) = 0.34394 -0.02158
# Poissons Ratio (y) = 1.35418 0.80406
# Poissons Ratio (z) = -0.05318 0.50329
#
# Static dielectric constant tensor:
#      x y z
#    x 1.573500 0.000000 0.000000 
#    y 0.000000 1.574300 0.000000 
#    z 0.000000 0.000000 1.580000 
# 
# From -- ./inp_files/13546.got.cif
#   From: 2010.05.17/outbox.cif.g08.bks.cpg/sg47_7_cif.got.tgz:13546.got - 2010.06.03 20:15:42.
