data_PCOD9387207
_publ_section_title
;
Structure prediction by ZEFSAII (Michael W. Deem and Ramdas Pophale) SiO2 
 PCOD9387207
Probable space group: P M M M
;
_chemical_formula_sum "Si O2"
_cell_formula_units_Z 37
_cell_length_a 12.045621
_cell_length_b 17.517029
_cell_length_c 9.668181
_cell_angle_alpha 90.000000
_cell_angle_beta 90.000000
_cell_angle_gamma 90.000000
_cell_volume 2040.019956
_symmetry_space_group_name_H-M "P M M M"
_symmetry_group_IT_number 47
_symmetry_cell_setting 'orthorhombic'
loop_
_space_group_symop_operation_xyz
x,y,z
-x,-y,z
x,-y,-z
-x,y,-z
-x,-y,-z
x,y,-z
-x,y,z
x,-y,z
loop_
_atom_site_type_symbol
_atom_site_label
_atom_site_fract_x
_atom_site_fract_y
_atom_site_fract_z
Si Si1 0.128709 0.274188 0.664118
Si Si2 0.000000 0.000000 0.500000
Si Si3 0.736687 0.848263 0.160837
Si Si4 0.500000 0.406981 0.841569
Si Si5 0.711720 0.589417 0.338002
Si Si6 0.500000 0.911475 0.831690
Si Si7 0.876661 0.000000 0.786687
O O1 0.133774 0.256706 0.500000
O O2 0.202448 0.214706 0.747986
O O3 0.181806 0.357664 0.684081
O O4 0.000000 0.270430 0.706183
O O5 0.904504 0.000000 0.376895
O O6 0.612321 0.868469 0.209689
O O7 0.807954 0.925736 0.171966
O O8 0.732108 0.824586 0.000000
O O9 0.500000 0.500000 0.842581
O O10 0.610308 0.384419 0.758553
O O11 0.500000 0.380247 0.000000
O O12 0.679087 0.596030 0.500000
O O13 0.734121 0.500000 0.311137
O O14 0.500000 0.000000 0.785239
O O15 0.500000 0.913758 0.000000
O O16 0.000000 0.000000 0.850006
#
# Coordination Sequence:
#
# PCOD9387207 Si02
#       7
#     8   1   8   4   8   4   4
#     4  10  23  39  57  80 114 153 188 237 295 344
#     4   8  24  36  54  86 112 156 180 232 278 340
#     4  11  22  37  60  85 113 146 189 235 278 338
#     4   9  17  30  53  84 114 144 179 226 286 345
#     4   9  18  35  58  83 111 149 198 243 283 337
#     4   9  18  37  59  82 111 145 180 228 284 327
#     4  10  21  35  58  81 110 150 188 221 274 331
#
# _framework density 18.137076
#
# number of rings (size 3 to 8) (size 9 to 14) (size 15 to 20)
#    0.324    1.946    1.081    1.297    1.514    5.622 
#    0.000    4.865    0.000    1.297    0.000    4.541 
#    0.000    0.000    0.000    0.000    0.000    0.000 
#
# Total GULP energy -206133.947466 kJ/mol
# GULP energy per Si atom -5571.187769 kJ/mol
# Density = 1.809580 g / cm^3
# Si number density = 18.137076 Si / 1000 Ang^3
#
#
#
# Elastic Constant Matrix: (Units=GPa)
#
#
# Indices 1 2 3 4 5 6 
#
# 1 183.6247 69.2823 59.0259 0.0000 0.0000 0.0000
# 2 69.2823 84.7415 40.6260 0.0000 0.0000 0.0000
# 3 59.0259 40.6260 69.3799 0.0000 0.0000 0.0000
# 4 0.0000 0.0000 0.0000 14.5735 0.0000 0.0000
# 5 0.0000 0.0000 0.0000 0.0000 27.7831 0.0000
# 6 0.0000 0.0000 0.0000 0.0000 0.0000 48.4538
#
#
#
# Elastic Compliance Matrix: (Units=1/GPa)
#
#
# Indices 1 2 3 4 5 6 
#
# 1 0.008800 -0.005013 -0.004552 0.000000 0.000000 0.000000
# 2 -0.005013 0.019262 -0.007014 0.000000 0.000000 0.000000
# 3 -0.004552 -0.007014 0.022393 0.000000 0.000000 0.000000
# 4 0.000000 0.000000 0.000000 0.068618 0.000000 0.000000
# 5 0.000000 0.000000 0.000000 0.000000 0.035993 0.000000
# 6 0.000000 0.000000 0.000000 0.000000 0.000000 0.020638
#
#
# Mechanical properties :
#
#
# Convention : Reuss Voigt Hill
#
# Bulk Modulus (GPa) = 57.81113 75.06827 66.43970
# Shear Modulus (GPa) = 23.29623 29.41621 26.35622
#
# Velocity S-wave (km/s) = 3.58782 4.03163 3.81618
# Velocity P-wave (km/s) = 7.00764 7.94678 7.49194
#
# Compressibility (1/GPa) = 0.01729771
#
# Stress axis : x y z
#
# Youngs Moduli (GPa) = 113.63128 51.91699 44.65678
#
# Poissons Ratio (x) = 0.26025 0.20327
# Poissons Ratio (y) = 0.56961 0.31322
# Poissons Ratio (z) = 0.51722 0.36415
#
# Static dielectric constant tensor:
#      x y z
#    x 1.606550 0.000000 0.000000 
#    y 0.000000 1.620040 0.000000 
#    z 0.000000 0.000000 1.616070 
# 
# From -- ./inp_files/3798.got.cif
#   From: 2010.05.17/outbox.cif.g08.bks.cpg/sg47_2_cif.got.tgz:3798.got - 2010.06.03 20:15:42.
