data_PCOD9387909
_publ_section_title
;
Structure prediction by ZEFSAII (Michael W. Deem and Ramdas Pophale) SiO2 
 PCOD9387909
Probable space group: P M M M
;
_chemical_formula_sum "Si O2"
_cell_formula_units_Z 48
_cell_length_a 8.876014
_cell_length_b 13.906208
_cell_length_c 19.215260
_cell_angle_alpha 90.000000
_cell_angle_beta 90.000000
_cell_angle_gamma 90.000000
_cell_volume 2371.772148
_symmetry_space_group_name_H-M "P M M M"
_symmetry_group_IT_number 47
_symmetry_cell_setting 'orthorhombic'
loop_
_space_group_symop_operation_xyz
x,y,z
-x,-y,z
x,-y,-z
-x,y,-z
-x,-y,-z
x,y,-z
-x,y,z
x,-y,z
loop_
_atom_site_type_symbol
_atom_site_label
_atom_site_fract_x
_atom_site_fract_y
_atom_site_fract_z
Si Si1 0.834844 0.000000 0.133556
Si Si2 0.818172 0.115300 0.500000
Si Si3 0.165523 0.387778 0.000000
Si Si4 0.819257 0.609045 0.293901
Si Si5 0.321589 0.000000 0.277168
Si Si6 0.682699 0.194172 0.642910
Si Si7 0.326505 0.647189 0.852987
Si Si8 0.665847 0.836738 0.922436
O O1 0.800397 0.908813 0.086805
O O2 0.719142 0.000000 0.196691
O O3 0.000000 0.000000 0.163424
O O4 0.746796 0.166194 0.567341
O O5 0.000000 0.124626 0.500000
O O6 0.783122 0.000000 0.500000
O O7 0.251987 0.375298 0.926951
O O8 0.140461 0.500000 0.000000
O O9 0.000000 0.337749 0.000000
O O10 0.779405 0.500000 0.319682
O O11 0.745196 0.702328 0.331001
O O12 0.764891 0.613827 0.213594
O O13 0.000000 0.618050 0.297575
O O14 0.267849 0.898755 0.310522
O O15 0.500000 0.000000 0.287374
O O16 0.500000 0.198807 0.642915
O O17 0.500000 0.614167 0.849898
O O18 0.329984 0.762732 0.859029
O O19 0.500000 0.883607 0.920447
O O20 0.674805 0.791811 0.000000
#
# Coordination Sequence:
#
# PCOD9387909 Si02
#       8
#     4   4   4   8   4   8   8   8
#     4  12  25  35  51  82 114 151 201 253 308 377
#     4  11  23  41  70 107 146 181 211 253 315 384
#     4  11  23  37  55  82 115 150 191 249 322 383
#     4  11  25  44  64  92 133 177 220 269 329 391
#     4  10  22  40  62  92 129 168 206 257 320 377
#     4  11  23  42  70 102 136 174 220 268 314 375
#     4  11  22  39  62  87 113 152 210 267 319 381
#     4  10  21  39  57  75 106 150 197 253 321 386
#
# _framework density 20.238032
#
# number of rings (size 3 to 8) (size 9 to 14) (size 15 to 20)
#    0.000    1.167    1.667    4.500    0.000   12.333 
#    0.000    0.417    0.000    2.500    0.000    0.000 
#    0.000    0.000    0.000    0.000    0.000    0.000 
#
# Total GULP energy -267689.770794 kJ/mol
# GULP energy per Si atom -5576.870225 kJ/mol
# Density = 2.019197 g / cm^3
# Si number density = 20.238032 Si / 1000 Ang^3
#
#
#
# Elastic Constant Matrix: (Units=GPa)
#
#
# Indices 1 2 3 4 5 6 
#
# 1 75.1241 50.8001 27.6150 0.0000 0.0000 0.0000
# 2 50.8001 150.2208 55.8259 0.0000 0.0000 0.0000
# 3 27.6150 55.8259 109.5761 0.0000 0.0000 0.0000
# 4 0.0000 0.0000 0.0000 573.8075 0.0000 0.0000
# 5 0.0000 0.0000 0.0000 0.0000 35.2421 0.0000
# 6 0.0000 0.0000 0.0000 0.0000 0.0000 27.0910
#
#
#
# Elastic Compliance Matrix: (Units=1/GPa)
#
#
# Indices 1 2 3 4 5 6 
#
# 1 0.017517 -0.005284 -0.001723 0.000000 0.000000 0.000000
# 2 -0.005284 0.009805 -0.003664 0.000000 0.000000 0.000000
# 3 -0.001723 -0.003664 0.011427 0.000000 0.000000 0.000000
# 4 0.000000 0.000000 0.000000 0.001743 0.000000 0.000000
# 5 0.000000 0.000000 0.000000 0.000000 0.028375 0.000000
# 6 0.000000 0.000000 0.000000 0.000000 0.000000 0.036913
#
#
# Mechanical properties :
#
#
# Convention : Reuss Voigt Hill
#
# Bulk Modulus (GPa) = 57.44204 67.04479 62.24341
# Shear Modulus (GPa) = 37.61550 140.60677 89.11113
#
# Velocity S-wave (km/s) = 4.31589 8.34430 6.64282
# Velocity P-wave (km/s) = 7.29936 11.22660 9.46882
#
# Compressibility (1/GPa) = 0.01740885
#
# Stress axis : x y z
#
# Youngs Moduli (GPa) = 57.08581 101.98623 87.51251
#
# Poissons Ratio (x) = 0.53886 0.15077
# Poissons Ratio (y) = 0.30162 0.32064
# Poissons Ratio (z) = 0.09835 0.37367
#
# Static dielectric constant tensor:
#      x y z
#    x 2.003630 0.000000 0.000000 
#    y 0.000000 1.806750 0.000000 
#    z 0.000000 0.000000 1.680400 
# 
# From -- ./inp_files/26606.got.cif
#   From: 2010.05.17/outbox.cif.g08.bks.cpg/sg47_14_cif.got.tgz:26606.got - 2010.06.03 20:15:42.
