data_PCOD9387127
_publ_section_title
;
Structure prediction by ZEFSAII (Michael W. Deem and Ramdas Pophale) SiO2 
 PCOD9387127
Probable space group: P M M M
;
_chemical_formula_sum "Si O2"
_cell_formula_units_Z 40
_cell_length_a 28.735347
_cell_length_b 9.306962
_cell_length_c 7.758731
_cell_angle_alpha 90.000000
_cell_angle_beta 90.000000
_cell_angle_gamma 90.000000
_cell_volume 2074.985573
_symmetry_space_group_name_H-M "P M M M"
_symmetry_group_IT_number 47
_symmetry_cell_setting 'orthorhombic'
loop_
_space_group_symop_operation_xyz
x,y,z
-x,-y,z
x,-y,-z
-x,y,-z
-x,-y,-z
x,y,-z
-x,y,z
x,-y,z
loop_
_atom_site_type_symbol
_atom_site_label
_atom_site_fract_x
_atom_site_fract_y
_atom_site_fract_z
Si Si1 0.282426 0.836523 0.792533
Si Si2 0.000000 0.164306 0.204987
Si Si3 0.376111 0.327590 0.202787
Si Si4 0.189739 0.337711 0.292987
Si Si5 0.899277 0.164299 0.706159
Si Si6 0.552988 0.325435 0.500000
O O1 0.328927 0.751763 0.740404
O O2 0.235948 0.752531 0.743028
O O3 0.281836 0.000000 0.726989
O O4 0.283598 0.841552 0.000000
O O5 0.049503 0.227972 0.259115
O O6 0.000000 0.000000 0.276690
O O7 0.000000 0.157438 0.000000
O O8 0.369426 0.500000 0.217037
O O9 0.417946 0.284800 0.329557
O O10 0.385141 0.296203 0.000000
O O11 0.185139 0.346122 0.500000
O O12 0.193688 0.500000 0.225716
O O13 0.143714 0.256919 0.226218
O O14 0.894339 0.155394 0.500000
O O15 0.897780 0.000000 0.774678
O O16 0.551220 0.500000 0.500000
O O17 0.500000 0.272486 0.500000
#
# Coordination Sequence:
#
# PCOD9387127 Si02
#       6
#     8   4   8   8   8   4
#     4  10  21  36  54  77 105 138 176 218 266 319
#     4   9  17  29  48  73  96 122 162 211 258 303
#     4   9  18  33  53  78 110 146 183 226 275 323
#     4  10  21  35  52  76 105 136 171 213 262 315
#     4   9  17  31  50  71  97 130 168 208 254 309
#     4   9  18  32  53  83 113 143 185 230 271 320
#
# _framework density 19.277242000000001
#
# number of rings (size 3 to 8) (size 9 to 14) (size 15 to 20)
#    0.000    2.600    0.000    1.500    1.400    4.800 
#    0.000    4.500    0.000    4.200    0.000    2.800 
#    0.000    0.000    0.000    0.000    0.000    0.000 
#
# Total GULP energy -223105.746397 kJ/mol
# GULP energy per Si atom -5577.643660 kJ/mol
# Density = 1.923337 g / cm^3
# Si number density = 19.277242 Si / 1000 Ang^3
#
#
#
# Elastic Constant Matrix: (Units=GPa)
#
#
# Indices 1 2 3 4 5 6 
#
# 1 222.3526 82.3224 45.3872 0.0000 0.0000 0.0000
# 2 82.3224 84.3782 27.5341 0.0000 0.0000 0.0000
# 3 45.3872 27.5341 49.4570 0.0000 0.0000 0.0000
# 4 0.0000 0.0000 0.0000 12.3930 0.0000 0.0000
# 5 0.0000 0.0000 0.0000 0.0000 66.8877 0.0000
# 6 0.0000 0.0000 0.0000 0.0000 0.0000 30.6612
#
#
#
# Elastic Compliance Matrix: (Units=1/GPa)
#
#
# Indices 1 2 3 4 5 6 
#
# 1 0.007487 -0.006187 -0.003427 0.000000 0.000000 0.000000
# 2 -0.006187 0.019594 -0.005231 0.000000 0.000000 0.000000
# 3 -0.003427 -0.005231 0.026277 0.000000 0.000000 0.000000
# 4 0.000000 0.000000 0.000000 0.080691 0.000000 0.000000
# 5 0.000000 0.000000 0.000000 0.000000 0.014950 0.000000
# 6 0.000000 0.000000 0.000000 0.000000 0.000000 0.032615
#
#
# Mechanical properties :
#
#
# Convention : Reuss Voigt Hill
#
# Bulk Modulus (GPa) = 42.24929 74.07503 58.16216
# Shear Modulus (GPa) = 22.81088 35.38464 29.09776
#
# Velocity S-wave (km/s) = 3.44365 4.28900 3.88936
# Velocity P-wave (km/s) = 6.14621 7.93958 7.09975
#
# Compressibility (1/GPa) = 0.02366904
#
# Stress axis : x y z
#
# Youngs Moduli (GPa) = 133.55773 51.03509 38.05628
#
# Poissons Ratio (x) = 0.31574 0.13042
# Poissons Ratio (y) = 0.82628 0.19908
# Poissons Ratio (z) = 0.45770 0.26697
#
# Static dielectric constant tensor:
#      x y z
#    x 1.657020 0.000000 0.000000 
#    y 0.000000 1.677900 0.000000 
#    z 0.000000 0.000000 1.698650 
# 
# From -- ./inp_files/13046.got.cif
#   From: 2010.05.17/outbox.cif.g08.bks.cpg/sg47_7_cif.got.tgz:13046.got - 2010.06.03 20:15:42.
