data_PCOD9387217
_publ_section_title
;
Structure prediction by ZEFSAII (Michael W. Deem and Ramdas Pophale) SiO2 
 PCOD9387217
Probable space group: P M M M
;
_chemical_formula_sum "Si O2"
_cell_formula_units_Z 44
_cell_length_a 7.577861
_cell_length_b 9.562560
_cell_length_c 29.763037
_cell_angle_alpha 90.000000
_cell_angle_beta 90.000000
_cell_angle_gamma 90.000000
_cell_volume 2156.741287
_symmetry_space_group_name_H-M "P M M M"
_symmetry_group_IT_number 47
_symmetry_cell_setting 'orthorhombic'
loop_
_space_group_symop_operation_xyz
x,y,z
-x,-y,z
x,-y,-z
-x,y,-z
-x,-y,-z
x,y,-z
-x,y,z
x,-y,z
loop_
_atom_site_type_symbol
_atom_site_label
_atom_site_fract_x
_atom_site_fract_y
_atom_site_fract_z
Si Si1 0.284619 0.834136 0.500000
Si Si2 0.286922 0.839441 0.694487
Si Si3 0.790247 0.842772 0.863741
Si Si4 0.708915 0.169760 0.596631
Si Si5 0.789194 0.342197 0.218384
Si Si6 0.287250 0.341165 0.050702
O O1 0.500000 0.824161 0.500000
O O2 0.220581 0.778705 0.548375
O O3 0.244149 0.000000 0.500000
O O4 0.500000 0.844716 0.691670
O O5 0.220622 0.787998 0.645503
O O6 0.240332 0.740310 0.735479
O O7 0.226398 0.000000 0.702130
O O8 0.717450 0.747407 0.823445
O O9 0.766228 0.766201 0.911123
O O10 0.000000 0.853678 0.856220
O O11 0.717429 0.000000 0.863634
O O12 0.500000 0.202685 0.596355
O O13 0.723040 0.000000 0.596463
O O14 0.718358 0.500000 0.219611
O O15 0.000000 0.352459 0.212255
O O16 0.500000 0.343668 0.049907
O O17 0.227420 0.500000 0.061173
O O18 0.227577 0.306137 0.000000
#
# Coordination Sequence:
#
# PCOD9387217 Si02
#       6
#     4   8   8   8   8   8
#     4   7   8  12  26  50  82 117 146 174 216 269
#     4   9  17  29  46  70  98 124 152 190 237 287
#     4  10  21  36  54  76 100 126 159 200 243 285
#     4   7  10  17  31  55  87 118 146 179 222 273
#     4  10  21  36  52  69  91 123 163 202 239 282
#     4   9  19  36  56  78 105 136 167 196 228 271
#
# _framework density 20.401149
#
# number of rings (size 3 to 8) (size 9 to 14) (size 15 to 20)
#    0.000    3.182    0.000    3.818    0.000    4.364 
#    0.000    2.727    0.000    0.000    0.000    1.273 
#    0.000    8.727    0.000    0.000    0.000    0.000 
#
# Total GULP energy -245180.643826 kJ/mol
# GULP energy per Si atom -5572.287360 kJ/mol
# Density = 2.035472 g / cm^3
# Si number density = 20.401149 Si / 1000 Ang^3
#
#
#
# Elastic Constant Matrix: (Units=GPa)
#
#
# Indices 1 2 3 4 5 6 
#
# 1 44.4024 7.4815 0.7592 0.0000 0.0000 0.0000
# 2 7.4815 128.1564 119.2863 0.0000 0.0000 0.0000
# 3 0.7592 119.2863 210.9277 0.0000 0.0000 0.0000
# 4 0.0000 0.0000 0.0000 -193.0601 0.0000 0.0000
# 5 0.0000 0.0000 0.0000 0.0000 25.3756 0.0000
# 6 0.0000 0.0000 0.0000 0.0000 0.0000 14.9379
#
#
#
# Elastic Compliance Matrix: (Units=1/GPa)
#
#
# Indices 1 2 3 4 5 6 
#
# 1 0.022946 -0.002666 0.001425 0.000000 0.000000 0.000000
# 2 -0.002666 0.016785 -0.009483 0.000000 0.000000 0.000000
# 3 0.001425 -0.009483 0.010099 0.000000 0.000000 0.000000
# 4 0.000000 0.000000 0.000000 -0.005180 0.000000 0.000000
# 5 0.000000 0.000000 0.000000 0.000000 0.039408 0.000000
# 6 0.000000 0.000000 0.000000 0.000000 0.000000 0.066944
#
#
# Mechanical properties :
#
#
# Convention : Reuss Voigt Hill
#
# Bulk Modulus (GPa) = 35.23316 70.94895 53.09105
# Shear Modulus (GPa) = 27.48600 -13.48536 7.00032
#
# Velocity S-wave (km/s) = 3.67451 -2.57380 1.85440
# Velocity P-wave (km/s) = 5.94225 5.10096 5.53761
#
# Compressibility (1/GPa) = 0.02838236
#
# Stress axis : x y z
#
# Youngs Moduli (GPa) = 43.58028 59.57603 99.02188
#
# Poissons Ratio (x) = 0.15883 -0.14112
# Poissons Ratio (y) = 0.11619 0.93903
# Poissons Ratio (z) = -0.06211 0.56496
#
# Static dielectric constant tensor:
#      x y z
#    x 1.789770 0.000000 0.000000 
#    y 0.000000 1.695290 0.000000 
#    z 0.000000 0.000000 1.756760 
# 
# From -- ./inp_files/13609.got.cif
#   From: 2010.05.17/outbox.cif.g08.bks.cpg/sg47_7_cif.got.tgz:13609.got - 2010.06.03 20:15:42.
