data_PCOD9387944
_publ_section_title
;
Structure prediction by ZEFSAII (Michael W. Deem and Ramdas Pophale) SiO2 
 PCOD9387944
Probable space group: P M M M
;
_chemical_formula_sum "Si O2"
_cell_formula_units_Z 36
_cell_length_a 9.122660
_cell_length_b 7.508484
_cell_length_c 26.244415
_cell_angle_alpha 90.000000
_cell_angle_beta 90.000000
_cell_angle_gamma 90.000000
_cell_volume 1797.672792
_symmetry_space_group_name_H-M "P M M M"
_symmetry_group_IT_number 47
_symmetry_cell_setting 'orthorhombic'
loop_
_space_group_symop_operation_xyz
x,y,z
-x,-y,z
x,-y,-z
-x,y,-z
-x,-y,-z
x,y,-z
-x,y,z
x,-y,z
loop_
_atom_site_type_symbol
_atom_site_label
_atom_site_fract_x
_atom_site_fract_y
_atom_site_fract_z
Si Si1 0.333007 0.211596 0.834111
Si Si2 0.825350 0.500000 0.560275
Si Si3 0.674004 0.211926 0.370440
Si Si4 0.670619 0.286089 0.054746
Si Si5 0.832642 0.217205 0.265847
O O1 0.500000 0.284207 0.833798
O O2 0.265727 0.236876 0.890424
O O3 0.239695 0.280762 0.786800
O O4 0.344533 0.000000 0.826874
O O5 0.796938 0.500000 0.500000
O O6 0.754181 0.671592 0.587149
O O7 0.000000 0.500000 0.568524
O O8 0.500000 0.242536 0.371705
O O9 0.738063 0.265023 0.315242
O O10 0.699964 0.000000 0.377239
O O11 0.500000 0.225192 0.055886
O O12 0.669299 0.500000 0.053528
O O13 0.733281 0.225033 0.000000
O O14 0.000000 0.277032 0.271021
O O15 0.834604 0.000000 0.264327
#
# Coordination Sequence:
#
# PCOD9387944 Si02
#       5
#     8   4   8   8   8
#     4   9  16  26  43  68  95 122 159 211 265 318
#     4  11  25  43  63  91 127 163 200 241 284 339
#     4  10  21  39  64  91 120 157 200 246 295 343
#     4   8  14  25  40  59  86 120 158 203 257 316
#     4   9  17  31  52  76 105 141 177 218 274 338
#
# _framework density 20.025891000000001
#
# number of rings (size 3 to 8) (size 9 to 14) (size 15 to 20)
#    0.000    2.778    0.000    2.333    0.000    5.778 
#    2.000    4.444    0.000    0.667    0.000    4.667 
#    0.000    0.000    0.000    0.000    0.000    0.000 
#
# Total GULP energy -200775.228018 kJ/mol
# GULP energy per Si atom -5577.089667 kJ/mol
# Density = 1.998031 g / cm^3
# Si number density = 20.025891 Si / 1000 Ang^3
#
#
#
# Elastic Constant Matrix: (Units=GPa)
#
#
# Indices 1 2 3 4 5 6 
#
# 1 97.4259 36.3505 99.8837 0.0000 0.0000 0.0000
# 2 36.3505 65.9758 49.4965 0.0000 0.0000 0.0000
# 3 99.8837 49.4965 215.8623 0.0000 0.0000 0.0000
# 4 0.0000 0.0000 0.0000 29.5003 0.0000 0.0000
# 5 0.0000 0.0000 0.0000 0.0000 235.9115 0.0000
# 6 0.0000 0.0000 0.0000 0.0000 0.0000 13.7059
#
#
#
# Elastic Compliance Matrix: (Units=1/GPa)
#
#
# Indices 1 2 3 4 5 6 
#
# 1 0.020878 -0.005140 -0.008482 0.000000 0.000000 0.000000
# 2 -0.005140 0.019571 -0.002109 0.000000 0.000000 0.000000
# 3 -0.008482 -0.002109 0.009041 0.000000 0.000000 0.000000
# 4 0.000000 0.000000 0.000000 0.033898 0.000000 0.000000
# 5 0.000000 0.000000 0.000000 0.000000 0.004239 0.000000
# 6 0.000000 0.000000 0.000000 0.000000 0.000000 0.072961
#
#
# Mechanical properties :
#
#
# Convention : Reuss Voigt Hill
#
# Bulk Modulus (GPa) = 55.46900 83.41391 69.44146
# Shear Modulus (GPa) = 25.24483 68.72576 46.98529
#
# Velocity S-wave (km/s) = 3.55436 5.86455 4.84904
# Velocity P-wave (km/s) = 6.67858 9.35953 8.13032
#
# Compressibility (1/GPa) = 0.01802809
#
# Stress axis : x y z
#
# Youngs Moduli (GPa) = 47.89738 51.09507 110.60556
#
# Poissons Ratio (x) = 0.26261 0.93817
# Poissons Ratio (y) = 0.24617 0.23332
# Poissons Ratio (z) = 0.40627 0.10778
#
# Static dielectric constant tensor:
#      x y z
#    x 1.677270 0.000000 0.000000 
#    y 0.000000 1.743120 0.000000 
#    z 0.000000 0.000000 1.715870 
# 
# From -- ./inp_files/31660.got.cif
#   From: 2010.05.17/outbox.cif.g08.bks.cpg/sg47_16_cif.got.tgz:31660.got - 2010.06.03 20:15:42.
