data_PCOD9387109
_publ_section_title
;
Structure prediction by ZEFSAII (Michael W. Deem and Ramdas Pophale) SiO2 
 PCOD9387109
Probable space group: P M M M
;
_chemical_formula_sum "Si O2"
_cell_formula_units_Z 44
_cell_length_a 9.363080
_cell_length_b 17.089499
_cell_length_c 15.690504
_cell_angle_alpha 90.000000
_cell_angle_beta 90.000000
_cell_angle_gamma 90.000000
_cell_volume 2510.642979
_symmetry_space_group_name_H-M "P M M M"
_symmetry_group_IT_number 47
_symmetry_cell_setting 'orthorhombic'
loop_
_space_group_symop_operation_xyz
x,y,z
-x,-y,z
x,-y,-z
-x,y,-z
-x,-y,-z
x,y,-z
-x,y,z
x,-y,z
loop_
_atom_site_type_symbol
_atom_site_label
_atom_site_fract_x
_atom_site_fract_y
_atom_site_fract_z
Si Si1 0.670319 0.248418 0.096221
Si Si2 0.346219 0.000000 0.399939
Si Si3 0.170948 0.695854 0.263348
Si Si4 0.840172 0.128553 0.319665
Si Si5 0.165305 0.088251 0.877543
Si Si6 0.668704 0.594022 0.402465
O O1 0.500000 0.246334 0.112965
O O2 0.751546 0.295422 0.171349
O O3 0.734746 0.160111 0.096062
O O4 0.692472 0.279993 0.000000
O O5 0.265855 0.078195 0.374059
O O6 0.500000 0.000000 0.356620
O O7 0.358834 0.000000 0.500000
O O8 0.192412 0.780409 0.307943
O O9 0.240234 0.633685 0.327703
O O10 0.000000 0.684714 0.252201
O O11 0.836788 0.092714 0.224830
O O12 0.000000 0.120244 0.353960
O O13 0.000000 0.101685 0.904241
O O14 0.207225 0.000000 0.902883
O O15 0.709834 0.617322 0.500000
O O16 0.500000 0.612870 0.391849
O O17 0.682416 0.500000 0.397815
#
# Coordination Sequence:
#
# PCOD9387109 Si02
#       6
#     8   4   8   8   8   8
#     4  10  21  35  51  75 107 143 185 230 277 330
#     4  11  23  33  43  65  94 127 172 223 271 316
#     4  10  21  36  57  83 110 144 184 225 273 326
#     4   9  18  34  50  66  93 131 175 217 261 316
#     4   9  17  31  50  70  95 129 173 224 277 329
#     4   9  19  37  61  89 120 150 177 211 263 326
#
# _framework density 17.525390999999999
#
# number of rings (size 3 to 8) (size 9 to 14) (size 15 to 20)
#    0.000    2.455    0.909    3.000    0.000    8.000 
#    0.000    6.364    0.000    0.545    0.000    3.818 
#    0.000    0.000    0.000    0.000    0.000    0.000 
#
# Total GULP energy -245223.438628 kJ/mol
# GULP energy per Si atom -5573.259969 kJ/mol
# Density = 1.748550 g / cm^3
# Si number density = 17.525391 Si / 1000 Ang^3
#
#
#
# Elastic Constant Matrix: (Units=GPa)
#
#
# Indices 1 2 3 4 5 6 
#
# 1 99.9645 44.4588 73.6325 0.0000 0.0000 0.0000
# 2 44.4588 54.2968 47.3585 0.0000 0.0000 0.0000
# 3 73.6325 47.3585 117.5704 0.0000 0.0000 0.0000
# 4 0.0000 0.0000 0.0000 21.7869 0.0000 0.0000
# 5 0.0000 0.0000 0.0000 0.0000 32.8743 0.0000
# 6 0.0000 0.0000 0.0000 0.0000 0.0000 12.2477
#
#
#
# Elastic Compliance Matrix: (Units=1/GPa)
#
#
# Indices 1 2 3 4 5 6 
#
# 1 0.020995 -0.008821 -0.009595 0.000000 0.000000 0.000000
# 2 -0.008821 0.032099 -0.007405 0.000000 0.000000 0.000000
# 3 -0.009595 -0.007405 0.017498 0.000000 0.000000 0.000000
# 4 0.000000 0.000000 0.000000 0.045899 0.000000 0.000000
# 5 0.000000 0.000000 0.000000 0.000000 0.030419 0.000000
# 6 0.000000 0.000000 0.000000 0.000000 0.000000 0.081648
#
#
# Mechanical properties :
#
#
# Convention : Reuss Voigt Hill
#
# Bulk Modulus (GPa) = 52.77622 66.97015 59.87319
# Shear Modulus (GPa) = 17.45095 20.47391 18.96243
#
# Velocity S-wave (km/s) = 3.15898 3.42166 3.29294
# Velocity P-wave (km/s) = 6.59432 7.34211 6.97824
#
# Compressibility (1/GPa) = 0.01894793
#
# Stress axis : x y z
#
# Youngs Moduli (GPa) = 47.63141 31.15332 57.15029
#
# Poissons Ratio (x) = 0.27482 0.54837
# Poissons Ratio (y) = 0.42018 0.42321
# Poissons Ratio (z) = 0.45703 0.23070
#
# Static dielectric constant tensor:
#      x y z
#    x 1.613310 0.000000 0.000000 
#    y 0.000000 1.592670 0.000000 
#    z 0.000000 0.000000 1.609940 
# 
# From -- ./inp_files/20941.got.cif
#   From: 2010.05.17/outbox.cif.g08.bks.cpg/sg47_11_cif.got.tgz:20941.got - 2010.06.03 20:15:42.
