data_PCOD9387074
_publ_section_title
;
Structure prediction by ZEFSAII (Michael W. Deem and Ramdas Pophale) SiO2 
 PCOD9387074
Probable space group: P M M M
;
_chemical_formula_sum "Si O2"
_cell_formula_units_Z 48
_cell_length_a 7.611218
_cell_length_b 9.650926
_cell_length_c 31.980505
_cell_angle_alpha 90.000000
_cell_angle_beta 90.000000
_cell_angle_gamma 90.000000
_cell_volume 2349.137643
_symmetry_space_group_name_H-M "P M M M"
_symmetry_group_IT_number 47
_symmetry_cell_setting 'orthorhombic'
loop_
_space_group_symop_operation_xyz
x,y,z
-x,-y,z
x,-y,-z
-x,y,-z
-x,-y,-z
x,y,-z
-x,y,z
x,-y,z
loop_
_atom_site_type_symbol
_atom_site_label
_atom_site_fract_x
_atom_site_fract_y
_atom_site_fract_z
Si Si1 0.714823 0.659328 0.874624
Si Si2 0.292541 0.342258 0.717747
Si Si3 0.284731 0.840619 0.205343
Si Si4 0.288820 0.841907 0.453939
Si Si5 0.714293 0.841048 0.952604
Si Si6 0.792223 0.655752 0.374526
O O1 0.500000 0.658122 0.874777
O O2 0.772116 0.500000 0.871657
O O3 0.768498 0.751165 0.834921
O O4 0.772571 0.734833 0.917170
O O5 0.500000 0.353811 0.725901
O O6 0.219715 0.500000 0.719903
O O7 0.223455 0.238748 0.752905
O O8 0.272901 0.290197 0.670249
O O9 0.500000 0.843359 0.205525
O O10 0.226955 0.000000 0.203410
O O11 0.227706 0.792821 0.500000
O O12 0.500000 0.846513 0.455486
O O13 0.243322 0.747740 0.414830
O O14 0.226035 0.000000 0.448232
O O15 0.500000 0.839743 0.952458
O O16 0.766489 0.000000 0.943240
O O17 0.769806 0.807398 0.000000
O O18 0.718923 0.500000 0.380139
O O19 0.000000 0.645929 0.370322
#
# Coordination Sequence:
#
# PCOD9387074 Si02
#       6
#     8   8   8   8   8   8
#     4   9  15  21  30  45  66  92 124 166 215 264
#     4   9  17  30  47  65  87 116 150 188 229 272
#     4   9  16  25  38  56  76  99 132 176 223 268
#     4   9  19  36  56  77 101 130 165 203 240 278
#     4   8  13  20  28  38  56  86 124 165 209 257
#     4  10  21  35  51  74 103 132 161 194 235 284
#
# _framework density 20.433029999999999
#
# number of rings (size 3 to 8) (size 9 to 14) (size 15 to 20)
#    0.000    3.000    0.000    2.500    0.000    7.000 
#    0.000    5.833    0.000    0.000    0.000    0.000 
#    0.000    0.000    0.000    0.000    0.000    0.833 
#
# Total GULP energy -267765.985734 kJ/mol
# GULP energy per Si atom -5578.458036 kJ/mol
# Density = 2.038652 g / cm^3
# Si number density = 20.433030 Si / 1000 Ang^3
#
#
#
# Elastic Constant Matrix: (Units=GPa)
#
#
# Indices 1 2 3 4 5 6 
#
# 1 40.0422 5.2199 0.0099 0.0000 0.0000 0.0000
# 2 5.2199 154.0720 141.0349 0.0000 0.0000 0.0000
# 3 0.0099 141.0349 210.9787 0.0000 0.0000 0.0000
# 4 0.0000 0.0000 0.0000 39.7852 0.0000 0.0000
# 5 0.0000 0.0000 0.0000 0.0000 -40.6055 0.0000
# 6 0.0000 0.0000 0.0000 0.0000 0.0000 4.5254
#
#
#
# Elastic Compliance Matrix: (Units=1/GPa)
#
#
# Indices 1 2 3 4 5 6 
#
# 1 0.025260 -0.002202 0.001471 0.000000 0.000000 0.000000
# 2 -0.002202 0.016916 -0.011308 0.000000 0.000000 0.000000
# 3 0.001471 -0.011308 0.012299 0.000000 0.000000 0.000000
# 4 0.000000 0.000000 0.000000 0.025135 0.000000 0.000000
# 5 0.000000 0.000000 0.000000 0.000000 -0.024627 0.000000
# 6 0.000000 0.000000 0.000000 0.000000 0.000000 0.220976
#
#
# Mechanical properties :
#
#
# Convention : Reuss Voigt Hill
#
# Bulk Modulus (GPa) = 32.89818 77.51359 55.20589
# Shear Modulus (GPa) = 16.12018 17.99624 17.05821
#
# Velocity S-wave (km/s) = 2.81183 2.97095 2.89249
# Velocity P-wave (km/s) = 5.16501 7.05596 6.18320
#
# Compressibility (1/GPa) = 0.03039682
#
# Stress axis : x y z
#
# Youngs Moduli (GPa) = 39.58768 59.11443 81.30754
#
# Poissons Ratio (x) = 0.13019 -0.11961
# Poissons Ratio (y) = 0.08719 0.91944
# Poissons Ratio (z) = -0.05824 0.66847
#
# Static dielectric constant tensor:
#      x y z
#    x 1.758020 0.000000 0.000000 
#    y 0.000000 1.708680 0.000000 
#    z 0.000000 0.000000 1.715050 
# 
# From -- ./inp_files/13803.got.cif
#   From: 2010.05.17/outbox.cif.g08.bks.cpg/sg47_7_cif.got.tgz:13803.got - 2010.06.03 20:15:42.
