data_PCOD9387595
_publ_section_title
;
Structure prediction by ZEFSAII (Michael W. Deem and Ramdas Pophale) SiO2 
 PCOD9387595
Probable space group: P M M M
;
_chemical_formula_sum "Si O2"
_cell_formula_units_Z 56
_cell_length_a 20.138231
_cell_length_b 8.808925
_cell_length_c 16.514307
_cell_angle_alpha 90.000000
_cell_angle_beta 90.000000
_cell_angle_gamma 90.000000
_cell_volume 2929.574754
_symmetry_space_group_name_H-M "P M M M"
_symmetry_group_IT_number 47
_symmetry_cell_setting 'orthorhombic'
loop_
_space_group_symop_operation_xyz
x,y,z
-x,-y,z
x,-y,-z
-x,y,-z
-x,-y,-z
x,y,-z
-x,y,z
x,-y,z
loop_
_atom_site_type_symbol
_atom_site_label
_atom_site_fract_x
_atom_site_fract_y
_atom_site_fract_z
Si Si1 0.577544 0.184498 0.589392
Si Si2 0.920261 0.170699 0.500000
Si Si3 0.206281 0.320847 0.229737
Si Si4 0.076209 0.682682 0.671240
Si Si5 0.578483 0.317106 0.092385
Si Si6 0.000000 0.328179 0.902176
Si Si7 0.138369 0.173759 0.096675
Si Si8 0.347500 0.818068 0.248514
O O1 0.602355 0.234462 0.500000
O O2 0.500000 0.225857 0.595004
O O3 0.614809 0.236358 0.670101
O O4 0.580795 0.000000 0.589447
O O5 0.905213 0.260093 0.581746
O O6 0.000000 0.158340 0.500000
O O7 0.892313 0.000000 0.500000
O O8 0.214317 0.500000 0.241751
O O9 0.137840 0.269611 0.272920
O O10 0.193015 0.280286 0.136384
O O11 0.271607 0.234100 0.256451
O O12 0.074126 0.500000 0.672776
O O13 0.000000 0.734884 0.690699
O O14 0.500000 0.280040 0.102568
O O15 0.584541 0.500000 0.095977
O O16 0.620154 0.247008 0.166054
O O17 0.597599 0.270274 0.000000
O O18 0.066110 0.238923 0.880576
O O19 0.000000 0.500000 0.868761
O O20 0.000000 0.339410 0.000000
O O21 0.146102 0.000000 0.123842
O O22 0.142289 0.176540 0.000000
O O23 0.351647 0.000000 0.244800
#
# Coordination Sequence:
#
# PCOD9387595 Si02
#       8
#     8   4   8   8   8   4   8   8
#     4   8  15  31  57  87 116 148 187 228 274 331
#     4   9  17  31  55  85 109 131 166 217 280 345
#     4  11  24  39  56  79 111 151 194 237 289 351
#     4   9  19  37  59  80 104 139 185 237 288 341
#     4   9  19  37  61  88 118 154 195 237 284 340
#     4   9  17  31  53  79 105 136 177 224 279 345
#     4  10  21  37  56  79 107 139 181 236 292 340
#     4  11  22  36  56  84 121 156 192 238 288 343
#
# _framework density 19.115402
#
# number of rings (size 3 to 8) (size 9 to 14) (size 15 to 20)
#    0.000    2.429    0.000    3.000    1.000    5.429 
#    1.286    0.714    0.000    1.286    0.000    5.000 
#    0.000    0.000    0.000    0.000    0.000    0.000 
#
# Total GULP energy -312273.465073 kJ/mol
# GULP energy per Si atom -5576.311876 kJ/mol
# Density = 1.907189 g / cm^3
# Si number density = 19.115402 Si / 1000 Ang^3
#
#
#
# Elastic Constant Matrix: (Units=GPa)
#
#
# Indices 1 2 3 4 5 6 
#
# 1 93.1932 23.1673 74.4701 0.0000 0.0000 0.0000
# 2 23.1673 22.9512 31.9085 0.0000 0.0000 0.0000
# 3 74.4701 31.9085 138.3680 0.0000 0.0000 0.0000
# 4 0.0000 0.0000 0.0000 16.1585 0.0000 0.0000
# 5 0.0000 0.0000 0.0000 0.0000 4.3554 0.0000
# 6 0.0000 0.0000 0.0000 0.0000 0.0000 2.0049
#
#
#
# Elastic Compliance Matrix: (Units=1/GPa)
#
#
# Indices 1 2 3 4 5 6 
#
# 1 0.019682 -0.007566 -0.008848 0.000000 0.000000 0.000000
# 2 -0.007566 0.067040 -0.011388 0.000000 0.000000 0.000000
# 3 -0.008848 -0.011388 0.014615 0.000000 0.000000 0.000000
# 4 0.000000 0.000000 0.000000 0.061887 0.000000 0.000000
# 5 0.000000 0.000000 0.000000 0.000000 0.229600 0.000000
# 6 0.000000 0.000000 0.000000 0.000000 0.000000 0.498781
#
#
# Mechanical properties :
#
#
# Convention : Reuss Voigt Hill
#
# Bulk Modulus (GPa) = 21.86578 57.06715 39.46647
# Shear Modulus (GPa) = 5.19506 12.83486 9.01496
#
# Velocity S-wave (km/s) = 1.65034 2.59403 2.17401
# Velocity P-wave (km/s) = 3.88525 6.23625 5.19548
#
# Compressibility (1/GPa) = 0.04573356
#
# Stress axis : x y z
#
# Youngs Moduli (GPa) = 50.80905 14.91646 68.42167
#
# Poissons Ratio (x) = 0.11285 0.60539
# Poissons Ratio (y) = 0.38440 0.77919
# Poissons Ratio (z) = 0.44956 0.16987
#
# Static dielectric constant tensor:
#      x y z
#    x 1.650370 0.000000 0.000000 
#    y 0.000000 1.657230 0.000000 
#    z 0.000000 0.000000 1.702120 
# 
# From -- ./inp_files/25223.got.cif
#   From: 2010.05.17/outbox.cif.g08.bks.cpg/sg47_13_cif.got.tgz:25223.got - 2010.06.03 20:15:42.
