data_PCOD9387291
_publ_section_title
;
Structure prediction by ZEFSAII (Michael W. Deem and Ramdas Pophale) SiO2 
 PCOD9387291
Probable space group: P M M M
;
_chemical_formula_sum "Si O2"
_cell_formula_units_Z 36
_cell_length_a 13.166396
_cell_length_b 14.480449
_cell_length_c 9.050082
_cell_angle_alpha 90.000000
_cell_angle_beta 90.000000
_cell_angle_gamma 90.000000
_cell_volume 1725.446332
_symmetry_space_group_name_H-M "P M M M"
_symmetry_group_IT_number 47
_symmetry_cell_setting 'orthorhombic'
loop_
_space_group_symop_operation_xyz
x,y,z
-x,-y,z
x,-y,-z
-x,y,-z
-x,-y,-z
x,y,-z
-x,y,z
x,-y,z
loop_
_atom_site_type_symbol
_atom_site_label
_atom_site_fract_x
_atom_site_fract_y
_atom_site_fract_z
Si Si1 0.320910 0.208805 0.175925
Si Si2 0.884551 0.892828 0.179202
Si Si3 0.887307 0.610541 0.164547
Si Si4 0.500000 0.109001 0.665567
Si Si5 0.686769 0.606131 0.327318
O O1 0.206798 0.175907 0.222575
O O2 0.400392 0.140138 0.248403
O O3 0.355438 0.310247 0.231262
O O4 0.326068 0.204291 0.000000
O O5 0.000000 0.870582 0.229256
O O6 0.862792 0.000000 0.221711
O O7 0.886798 0.891102 0.000000
O O8 0.895921 0.500000 0.151243
O O9 0.806508 0.620975 0.293251
O O10 0.000000 0.648012 0.190657
O O11 0.852635 0.643907 0.000000
O O12 0.500000 0.149529 0.500000
O O13 0.500000 0.000000 0.655262
O O14 0.663905 0.616038 0.500000
O O15 0.661594 0.500000 0.283477
#
# Coordination Sequence:
#
# PCOD9387291 Si02
#       5
#     8   8   8   4   8
#     4  11  22  37  62  93 122 155 201 253 300 354
#     4   8  15  30  54  86 122 155 188 234 296 360
#     4   8  14  26  45  69  99 140 193 249 298 343
#     4  11  25  45  68  93 124 159 193 238 298 359
#     4  10  21  36  53  76 112 157 201 246 299 361
#
# _framework density 20.864166000000001
#
# number of rings (size 3 to 8) (size 9 to 14) (size 15 to 20)
#    0.000    2.556    0.000    3.667    0.000    4.444 
#    0.000    5.000    0.000    5.333    0.000    7.778 
#    0.000    0.000    0.000    0.000    0.000    0.000 
#
# Total GULP energy -200642.355294 kJ/mol
# GULP energy per Si atom -5573.398758 kJ/mol
# Density = 2.081668 g / cm^3
# Si number density = 20.864166 Si / 1000 Ang^3
#
#
#
# Elastic Constant Matrix: (Units=GPa)
#
#
# Indices 1 2 3 4 5 6 
#
# 1 67.8588 37.2796 23.9904 0.0000 0.0000 0.0000
# 2 37.2796 135.6489 40.9608 0.0000 0.0000 0.0000
# 3 23.9904 40.9608 56.7723 0.0000 0.0000 0.0000
# 4 0.0000 0.0000 0.0000 21.8753 0.0000 0.0000
# 5 0.0000 0.0000 0.0000 0.0000 29.3417 0.0000
# 6 0.0000 0.0000 0.0000 0.0000 0.0000 -6.8350
#
#
#
# Elastic Compliance Matrix: (Units=1/GPa)
#
#
# Indices 1 2 3 4 5 6 
#
# 1 0.018532 -0.003488 -0.005314 0.000000 0.000000 0.000000
# 2 -0.003488 0.010082 -0.005800 0.000000 0.000000 0.000000
# 3 -0.005314 -0.005800 0.024045 0.000000 0.000000 0.000000
# 4 0.000000 0.000000 0.000000 0.045714 0.000000 0.000000
# 5 0.000000 0.000000 0.000000 0.000000 0.034081 0.000000
# 6 0.000000 0.000000 0.000000 0.000000 0.000000 -0.146306
#
#
# Mechanical properties :
#
#
# Convention : Reuss Voigt Hill
#
# Bulk Modulus (GPa) = 42.63819 51.63796 47.13808
# Shear Modulus (GPa) = 215.79562 19.41300 117.60431
#
# Velocity S-wave (km/s) = 10.18103 3.05363 7.51592
# Velocity P-wave (km/s) = 12.59702 6.10215 9.89750
#
# Compressibility (1/GPa) = 0.02345315
#
# Stress axis : x y z
#
# Youngs Moduli (GPa) = 53.96193 99.18641 41.58941
#
# Poissons Ratio (x) = 0.34599 0.22101
# Poissons Ratio (y) = 0.18823 0.24122
# Poissons Ratio (z) = 0.28676 0.57529
#
# Static dielectric constant tensor:
#      x y z
#    x 1.820020 0.000000 0.000000 
#    y 0.000000 1.815920 0.000000 
#    z 0.000000 0.000000 1.710000 
# 
# From -- ./inp_files/5534.got.cif
#   From: 2010.05.17/outbox.cif.g08.bks.cpg/sg47_3_cif.got.tgz:5534.got - 2010.06.03 20:15:42.
