data_PCOD9387570
_publ_section_title
;
Structure prediction by ZEFSAII (Michael W. Deem and Ramdas Pophale) SiO2 
 PCOD9387570
Probable space group: P M M M
;
_chemical_formula_sum "Si O2"
_cell_formula_units_Z 48
_cell_length_a 35.243403
_cell_length_b 7.744319
_cell_length_c 9.368315
_cell_angle_alpha 90.000000
_cell_angle_beta 90.000000
_cell_angle_gamma 90.000000
_cell_volume 2556.951879
_symmetry_space_group_name_H-M "P M M M"
_symmetry_group_IT_number 47
_symmetry_cell_setting 'orthorhombic'
loop_
_space_group_symop_operation_xyz
x,y,z
-x,-y,z
x,-y,-z
-x,y,-z
-x,-y,-z
x,y,-z
-x,y,z
x,-y,z
loop_
_atom_site_type_symbol
_atom_site_label
_atom_site_fract_x
_atom_site_fract_y
_atom_site_fract_z
Si Si1 0.749439 0.204205 0.659846
Si Si2 0.822717 0.292193 0.161330
Si Si3 0.045273 0.000000 0.330982
Si Si4 0.543206 0.000000 0.673426
Si Si5 0.601286 0.703821 0.671051
Si Si6 0.324100 0.705446 0.839729
Si Si7 0.909472 0.704259 0.828657
O O1 0.747394 0.278720 0.500000
O O2 0.789947 0.238720 0.731710
O O3 0.715244 0.267131 0.758398
O O4 0.744861 0.000000 0.649944
O O5 0.822672 0.500000 0.155195
O O6 0.865669 0.243808 0.201743
O O7 0.814885 0.228216 0.000000
O O8 0.063217 0.168753 0.256394
O O9 0.053711 0.000000 0.500000
O O10 0.000000 0.000000 0.312497
O O11 0.566884 0.170864 0.713884
O O12 0.500000 0.000000 0.725958
O O13 0.541800 0.000000 0.500000
O O14 0.606696 0.718271 0.500000
O O15 0.594270 0.500000 0.701623
O O16 0.639624 0.765004 0.749205
O O17 0.328929 0.500000 0.850654
O O18 0.323045 0.778092 0.000000
O O19 0.914390 0.500000 0.794703
O O20 0.914741 0.722191 0.000000
#
# Coordination Sequence:
#
# PCOD9387570 Si02
#       7
#     8   8   4   4   8   8   8
#     4  11  24  36  49  77 114 148 184 226 271 323
#     4   9  19  37  59  82 109 143 185 232 280 329
#     4  11  25  41  59  88 125 160 193 237 296 359
#     4   9  18  32  53  82 111 138 173 219 268 325
#     4   9  18  33  54  79 108 142 178 221 273 324
#     4  10  21  37  56  77 103 139 184 231 276 323
#     4   9  20  40  65  91 118 153 199 247 293 345
#
# _framework density 18.772352000000001
#
# number of rings (size 3 to 8) (size 9 to 14) (size 15 to 20)
#    0.000    2.333    0.000    2.750    2.333    7.000 
#    0.000    5.000    0.000    1.000    0.000    2.333 
#    0.000    0.000    0.000    0.000    0.000    0.000 
#
# Total GULP energy -267847.175898 kJ/mol
# GULP energy per Si atom -5580.149498 kJ/mol
# Density = 1.872963 g / cm^3
# Si number density = 18.772352 Si / 1000 Ang^3
#
#
#
# Elastic Constant Matrix: (Units=GPa)
#
#
# Indices 1 2 3 4 5 6 
#
# 1 144.6671 56.5597 85.9917 0.0000 0.0000 0.0000
# 2 56.5597 72.4390 44.7999 0.0000 0.0000 0.0000
# 3 85.9917 44.7999 93.7088 0.0000 0.0000 0.0000
# 4 0.0000 0.0000 0.0000 19.7868 0.0000 0.0000
# 5 0.0000 0.0000 0.0000 0.0000-1464.8950 0.0000
# 6 0.0000 0.0000 0.0000 0.0000 0.0000 36.6599
#
#
#
# Elastic Compliance Matrix: (Units=1/GPa)
#
#
# Indices 1 2 3 4 5 6 
#
# 1 0.016372 -0.004957 -0.012654 0.000000 0.000000 0.000000
# 2 -0.004957 0.021101 -0.005539 0.000000 0.000000 0.000000
# 3 -0.012654 -0.005539 0.024931 0.000000 0.000000 0.000000
# 4 0.000000 0.000000 0.000000 0.050539 0.000000 0.000000
# 5 0.000000 0.000000 0.000000 0.000000 -0.000683 0.000000
# 6 0.000000 0.000000 0.000000 0.000000 0.000000 0.027278
#
#
# Mechanical properties :
#
#
# Convention : Reuss Voigt Hill
#
# Bulk Modulus (GPa) = 62.09566 76.16861 69.13213
# Shear Modulus (GPa) = 26.14984 -273.45874 -123.65445
#
# Velocity S-wave (km/s) = 3.73634 -12.08252 -8.12487
# Velocity P-wave (km/s) = 7.19470 12.40914 7.14923
#
# Compressibility (1/GPa) = 0.01610419
#
# Stress axis : x y z
#
# Youngs Moduli (GPa) = 61.07899 47.39159 40.11064
#
# Poissons Ratio (x) = 0.23494 0.50756
# Poissons Ratio (y) = 0.30280 0.22216
# Poissons Ratio (z) = 0.77289 0.26248
#
# Static dielectric constant tensor:
#      x y z
#    x 1.629930 0.000000 0.000000 
#    y 0.000000 1.663130 0.000000 
#    z 0.000000 0.000000 1.663440 
# 
# From -- ./inp_files/13838.got.cif
#   From: 2010.05.17/outbox.cif.g08.bks.cpg/sg47_7_cif.got.tgz:13838.got - 2010.06.03 20:15:42.
