data_PCOD9387098
_publ_section_title
;
Structure prediction by ZEFSAII (Michael W. Deem and Ramdas Pophale) SiO2 
 PCOD9387098
Probable space group: P M M M
;
_chemical_formula_sum "Si O2"
_cell_formula_units_Z 64
_cell_length_a 26.097659
_cell_length_b 13.215338
_cell_length_c 7.412903
_cell_angle_alpha 90.000000
_cell_angle_beta 90.000000
_cell_angle_gamma 90.000000
_cell_volume 2556.631554
_symmetry_space_group_name_H-M "P M M M"
_symmetry_group_IT_number 47
_symmetry_cell_setting 'orthorhombic'
loop_
_space_group_symop_operation_xyz
x,y,z
-x,-y,z
x,-y,-z
-x,y,-z
-x,-y,-z
x,y,-z
-x,y,z
x,-y,z
loop_
_atom_site_type_symbol
_atom_site_label
_atom_site_fract_x
_atom_site_fract_y
_atom_site_fract_z
Si Si1 0.303119 0.328015 0.715395
Si Si2 0.169332 0.891192 0.792462
Si Si3 0.585341 0.391325 0.720034
Si Si4 0.444961 0.831418 0.719688
Si Si5 0.668182 0.891621 0.280003
Si Si6 0.192246 0.327214 0.214375
Si Si7 0.944735 0.836887 0.291108
Si Si8 0.918458 0.390766 0.218826
O O1 0.307513 0.325006 0.500000
O O2 0.355001 0.381844 0.776553
O O3 0.305483 0.211645 0.782729
O O4 0.247872 0.373220 0.755644
O O5 0.190427 0.787484 0.708996
O O6 0.107544 0.877263 0.793744
O O7 0.181903 0.000000 0.709186
O O8 0.186502 0.893883 0.000000
O O9 0.583396 0.391026 0.500000
O O10 0.564696 0.500000 0.779319
O O11 0.559228 0.286658 0.774294
O O12 0.444640 0.834986 0.500000
O O13 0.500000 0.872580 0.778927
O O14 0.391774 0.882734 0.773554
O O15 0.669834 0.890469 0.500000
O O16 0.689121 0.000000 0.219999
O O17 0.141352 0.383775 0.275859
O O18 0.185552 0.318822 0.000000
O O19 0.942733 0.867058 0.500000
O O20 0.942376 0.714387 0.281667
O O21 0.000000 0.869002 0.216301
O O22 0.939034 0.500000 0.277297
O O23 0.921700 0.388698 0.000000
#
# Coordination Sequence:
#
# PCOD9387098 Si02
#       8
#     8   8   8   8   8   8   8   8
#     4   9  17  28  42  61  85 115 150 180 212 267
#     4   9  19  36  55  73  95 126 163 199 235 279
#     4   8  14  24  36  52  78 110 142 178 218 260
#     4   8  13  20  31  50  76 107 143 178 214 262
#     4   8  14  24  36  52  78 110 142 178 218 260
#     4   9  18  32  49  70  95 119 148 193 241 275
#     4  10  21  35  51  75 106 133 157 192 237 280
#     4   9  19  36  55  73  95 126 163 199 235 279
#
# _framework density 25.03294
#
# number of rings (size 3 to 8) (size 9 to 14) (size 15 to 20)
#    0.000    3.250    0.000    2.625    0.000    5.500 
#    0.000    5.000    0.000    0.000    0.000    0.000 
#    0.000    8.000    0.000    9.000    0.000   10.000 
#
# Total GULP energy -357327.495111 kJ/mol
# GULP energy per Si atom -5583.242111 kJ/mol
# Density = 2.497596 g / cm^3
# Si number density = 25.032940 Si / 1000 Ang^3
#
#
#
# Elastic Constant Matrix: (Units=GPa)
#
#
# Indices 1 2 3 4 5 6 
#
# 1 120.6718 -6.2856 -10.3843 0.0000 0.0000 0.0000
# 2 -6.2856 121.2322 0.6480 0.0000 0.0000 0.0000
# 3 -10.3843 0.6480 82.8503 0.0000 0.0000 0.0000
# 4 0.0000 0.0000 0.0000 9.1801 0.0000 0.0000
# 5 0.0000 0.0000 0.0000 0.0000 3.2931 0.0000
# 6 0.0000 0.0000 0.0000 0.0000 0.0000 -3.3322
#
#
#
# Elastic Compliance Matrix: (Units=1/GPa)
#
#
# Indices 1 2 3 4 5 6 
#
# 1 0.008400 0.000430 0.001049 0.000000 0.000000 0.000000
# 2 0.000430 0.008271 -0.000011 0.000000 0.000000 0.000000
# 3 0.001049 -0.000011 0.012202 0.000000 0.000000 0.000000
# 4 0.000000 0.000000 0.000000 0.108932 0.000000 0.000000
# 5 0.000000 0.000000 0.000000 0.000000 0.303664 0.000000
# 6 0.000000 0.000000 0.000000 0.000000 0.000000 -0.300104
#
#
# Mechanical properties :
#
#
# Convention : Reuss Voigt Hill
#
# Bulk Modulus (GPa) = 31.43740 32.52338 31.98039
# Shear Modulus (GPa) = 33.55024 24.54662 29.04843
#
# Velocity S-wave (km/s) = 3.66491 3.13481 3.41017
# Velocity P-wave (km/s) = 5.52217 5.11108 5.32060
#
# Compressibility (1/GPa) = 0.03180924
#
# Stress axis : x y z
#
# Youngs Moduli (GPa) = 119.05276 120.90470 81.95657
#
# Poissons Ratio (x) = -0.05198 -0.08601
# Poissons Ratio (y) = -0.05118 0.00089
# Poissons Ratio (z) = -0.12494 0.00131
#
# Static dielectric constant tensor:
#      x y z
#    x 1.957530 0.000000 0.000000 
#    y 0.000000 1.974430 0.000000 
#    z 0.000000 0.000000 1.957560 
# 
# From -- ./inp_files/14271.got.cif
#   From: 2010.05.17/outbox.cif.g08.bks.cpg/sg47_8_cif.got.tgz:14271.got - 2010.06.03 20:15:42.
