data_PCOD9387336
_publ_section_title
;
Structure prediction by ZEFSAII (Michael W. Deem and Ramdas Pophale) SiO2 
 PCOD9387336
Probable space group: P M M M
;
_chemical_formula_sum "Si O2"
_cell_formula_units_Z 48
_cell_length_a 9.221549
_cell_length_b 31.698486
_cell_length_c 9.229715
_cell_angle_alpha 90.000000
_cell_angle_beta 90.000000
_cell_angle_gamma 90.000000
_cell_volume 2697.930071
_symmetry_space_group_name_H-M "P M M M"
_symmetry_group_IT_number 47
_symmetry_cell_setting 'orthorhombic'
loop_
_space_group_symop_operation_xyz
x,y,z
-x,-y,z
x,-y,-z
-x,y,-z
-x,-y,-z
x,y,-z
-x,y,z
x,-y,z
loop_
_atom_site_type_symbol
_atom_site_label
_atom_site_fract_x
_atom_site_fract_y
_atom_site_fract_z
Si Si1 0.676645 0.500000 0.166873
Si Si2 0.671907 0.414918 0.672882
Si Si3 0.827691 0.835342 0.171265
Si Si4 0.173567 0.922306 0.671312
Si Si5 0.326773 0.000000 0.828616
Si Si6 0.670186 0.251201 0.173935
Si Si7 0.170136 0.671416 0.325862
O O1 0.500000 0.500000 0.171784
O O2 0.722363 0.542786 0.246923
O O3 0.721490 0.500000 0.000000
O O4 0.688838 0.420710 0.500000
O O5 0.500000 0.408903 0.701431
O O6 0.757281 0.372990 0.717178
O O7 0.788728 0.876727 0.262158
O O8 0.740992 0.793593 0.214962
O O9 0.000000 0.827628 0.189077
O O10 0.801379 0.843296 0.000000
O O11 0.203331 0.923724 0.500000
O O12 0.000000 0.928241 0.691530
O O13 0.257755 0.959004 0.753916
O O14 0.500000 0.000000 0.810076
O O15 0.294450 0.000000 0.000000
O O16 0.500000 0.251677 0.208679
O O17 0.750544 0.289661 0.250701
O O18 0.686323 0.255336 0.000000
O O19 0.185757 0.675119 0.500000
O O20 0.000000 0.671558 0.290925
#
# Coordination Sequence:
#
# PCOD9387336 Si02
#       7
#     4   8   8   8   4   8   8
#     4   9  17  29  48  75 102 128 164 211 258 305
#     4   9  17  31  51  73  99 133 171 210 256 311
#     4   9  18  34  55  78 107 144 182 218 259 311
#     4  10  21  37  58  84 112 142 178 220 266 317
#     4  11  24  39  56  80 110 145 184 225 268 314
#     4  10  21  36  55  80 109 141 177 218 264 314
#     4  10  21  36  54  77 105 138 177 220 265 313
#
# _framework density 17.791418
#
# number of rings (size 3 to 8) (size 9 to 14) (size 15 to 20)
#    0.000    2.333    0.000    2.250    0.000    7.667 
#    0.000    5.417    0.000    2.500    0.000    0.000 
#    0.000    0.000    0.000    0.000    0.000    0.000 
#
# Total GULP energy -267974.915112 kJ/mol
# GULP energy per Si atom -5582.810731 kJ/mol
# Density = 1.775092 g / cm^3
# Si number density = 17.791418 Si / 1000 Ang^3
#
#
#
# Elastic Constant Matrix: (Units=GPa)
#
#
# Indices 1 2 3 4 5 6 
#
# 1 83.0103 106.9532 67.0023 0.0000 0.0000 0.0000
# 2 106.9532 222.5969 99.6846 0.0000 0.0000 0.0000
# 3 67.0023 99.6846 74.9584 0.0000 0.0000 0.0000
# 4 0.0000 0.0000 0.0000 40.1978 0.0000 0.0000
# 5 0.0000 0.0000 0.0000 0.0000 22.7228 0.0000
# 6 0.0000 0.0000 0.0000 0.0000 0.0000 35.2173
#
#
#
# Elastic Compliance Matrix: (Units=1/GPa)
#
#
# Indices 1 2 3 4 5 6 
#
# 1 0.051070 -0.010125 -0.032185 0.000000 0.000000 0.000000
# 2 -0.010125 0.013115 -0.008391 0.000000 0.000000 0.000000
# 3 -0.032185 -0.008391 0.053268 0.000000 0.000000 0.000000
# 4 0.000000 0.000000 0.000000 0.024877 0.000000 0.000000
# 5 0.000000 0.000000 0.000000 0.000000 0.044009 0.000000
# 6 0.000000 0.000000 0.000000 0.000000 0.000000 0.028395
#
#
# Mechanical properties :
#
#
# Convention : Reuss Voigt Hill
#
# Bulk Modulus (GPa) = 62.29710 103.09401 82.69555
# Shear Modulus (GPa) = 15.55284 26.75594 21.15439
#
# Velocity S-wave (km/s) = 2.95986 3.88218 3.45196
# Velocity P-wave (km/s) = 6.83902 8.84120 7.90377
#
# Compressibility (1/GPa) = 0.01605211
#
# Stress axis : x y z
#
# Youngs Moduli (GPa) = 19.58089 76.24958 18.77313
#
# Poissons Ratio (x) = 0.77203 0.60421
# Poissons Ratio (y) = 0.19826 0.15752
# Poissons Ratio (z) = 0.63020 0.63978
#
# Static dielectric constant tensor:
#      x y z
#    x 1.594410 0.000000 0.000000 
#    y 0.000000 1.573380 0.000000 
#    z 0.000000 0.000000 1.595410 
# 
# From -- ./inp_files/2554.got.cif
#   From: 2010.05.17/outbox.cif.g08.bks.cpg/sg47_2_cif.got.tgz:2554.got - 2010.06.03 20:15:42.
