data_PCOD9387963
_publ_section_title
;
Structure prediction by ZEFSAII (Michael W. Deem and Ramdas Pophale) SiO2 
 PCOD9387963
Probable space group: P M M M
;
_chemical_formula_sum "Si O2"
_cell_formula_units_Z 30
_cell_length_a 10.129435
_cell_length_b 7.177979
_cell_length_c 20.065365
_cell_angle_alpha 90.000000
_cell_angle_beta 90.000000
_cell_angle_gamma 90.000000
_cell_volume 1458.930050
_symmetry_space_group_name_H-M "P M M M"
_symmetry_group_IT_number 47
_symmetry_cell_setting 'orthorhombic'
loop_
_space_group_symop_operation_xyz
x,y,z
-x,-y,z
x,-y,-z
-x,y,-z
-x,-y,-z
x,y,-z
-x,y,z
x,-y,z
loop_
_atom_site_type_symbol
_atom_site_label
_atom_site_fract_x
_atom_site_fract_y
_atom_site_fract_z
Si Si1 0.255891 0.774937 0.162185
Si Si2 0.349514 0.226280 0.423933
Si Si3 0.000000 0.225228 0.923921
Si Si4 0.500000 0.500000 0.860290
Si Si5 0.151577 0.774157 0.690976
O O1 0.131578 0.723349 0.115892
O O2 0.384166 0.662125 0.141862
O O3 0.215966 0.727110 0.238227
O O4 0.274670 0.000000 0.158604
O O5 0.320690 0.282881 0.500000
O O6 0.500000 0.282152 0.407432
O O7 0.243430 0.288354 0.369916
O O8 0.348620 0.000000 0.423466
O O9 0.000000 0.000000 0.924928
O O10 0.000000 0.289600 0.000000
O O11 0.000000 0.711815 0.686713
O O12 0.148378 0.000000 0.688627
#
# Coordination Sequence:
#
# PCOD9387963 Si02
#       5
#     8   8   4   2   8
#     4  10  21  40  61  89 123 156 200 249 296 354
#     4   8  14  23  37  65 106 148 189 231 282 350
#     4   9  18  39  71  95 119 162 205 243 293 350
#     4  12  26  38  59  92 125 162 198 240 302 358
#     4   9  16  28  49  75 107 147 190 244 298 341
#
# _framework density 20.563015
#
# number of rings (size 3 to 8) (size 9 to 14) (size 15 to 20)
#    0.000    2.800    1.333    1.200    1.867    1.067 
#    0.000    5.333    0.000    3.200    0.000    1.867 
#    0.000    2.133    0.000    0.267    0.000    0.000 
#
# Total GULP energy -167040.447229 kJ/mol
# GULP energy per Si atom -5568.014908 kJ/mol
# Density = 2.051621 g / cm^3
# Si number density = 20.563015 Si / 1000 Ang^3
#
#
#
# Elastic Constant Matrix: (Units=GPa)
#
#
# Indices 1 2 3 4 5 6 
#
# 1 211.2453 49.6921 88.8465 0.0000 0.0000 0.0000
# 2 49.6921 129.1215 23.4283 0.0000 0.0000 0.0000
# 3 88.8465 23.4283 118.7651 0.0000 0.0000 0.0000
# 4 0.0000 0.0000 0.0000 -22.2190 0.0000 0.0000
# 5 0.0000 0.0000 0.0000 0.0000 -23.7952 0.0000
# 6 0.0000 0.0000 0.0000 0.0000 0.0000 -176.3570
#
#
#
# Elastic Compliance Matrix: (Units=1/GPa)
#
#
# Indices 1 2 3 4 5 6 
#
# 1 0.007328 -0.001893 -0.005108 0.000000 0.000000 0.000000
# 2 -0.001893 0.008521 -0.000265 0.000000 0.000000 0.000000
# 3 -0.005108 -0.000265 0.012294 0.000000 0.000000 0.000000
# 4 0.000000 0.000000 0.000000 -0.045007 0.000000 0.000000
# 5 0.000000 0.000000 0.000000 0.000000 -0.042025 0.000000
# 6 0.000000 0.000000 0.000000 0.000000 0.000000 -0.005670
#
#
# Mechanical properties :
#
#
# Convention : Reuss Voigt Hill
#
# Bulk Modulus (GPa) = 73.47396 87.00732 80.24064
# Shear Modulus (GPa) = -109.91250 -24.66323 -67.28786
#
# Velocity S-wave (km/s) = -7.31899 -3.46699 -5.72659
# Velocity P-wave (km/s) = 5.96781 5.13592 2.14908
#
# Compressibility (1/GPa) = 0.01361026
#
# Stress axis : x y z
#
# Youngs Moduli (GPa) = 136.47017 117.35372 81.34320
#
# Poissons Ratio (x) = 0.22217 0.41552
# Poissons Ratio (y) = 0.25836 0.02153
# Poissons Ratio (z) = 0.69712 0.03106
#
# Static dielectric constant tensor:
#      x y z
#    x 1.678460 0.000000 0.000000 
#    y 0.000000 1.784920 0.000000 
#    z 0.000000 0.000000 1.700860 
# 
# From -- ./inp_files/29050.got.cif
#   From: 2010.05.17/outbox.cif.g08.bks.cpg/sg47_15_cif.got.tgz:29050.got - 2010.06.03 20:15:42.
