data_PCOD9387270
_publ_section_title
;
Structure prediction by ZEFSAII (Michael W. Deem and Ramdas Pophale) SiO2 
 PCOD9387270
Probable space group: P M M M
;
_chemical_formula_sum "Si O2"
_cell_formula_units_Z 44
_cell_length_a 8.763378
_cell_length_b 9.750890
_cell_length_c 29.025022
_cell_angle_alpha 90.000000
_cell_angle_beta 90.000000
_cell_angle_gamma 90.000000
_cell_volume 2480.209461
_symmetry_space_group_name_H-M "P M M M"
_symmetry_group_IT_number 47
_symmetry_cell_setting 'orthorhombic'
loop_
_space_group_symop_operation_xyz
x,y,z
-x,-y,z
x,-y,-z
-x,y,-z
-x,-y,-z
x,y,-z
-x,y,z
x,-y,z
loop_
_atom_site_type_symbol
_atom_site_label
_atom_site_fract_x
_atom_site_fract_y
_atom_site_fract_z
Si Si1 0.817778 0.338675 0.264084
Si Si2 0.683074 0.340145 0.000000
Si Si3 0.316113 0.660626 0.637555
Si Si4 0.685845 0.840973 0.448607
Si Si5 0.182796 0.840244 0.918065
Si Si6 0.318433 0.839197 0.181904
O O1 0.778394 0.500000 0.258833
O O2 0.756198 0.294352 0.314125
O O3 0.744566 0.252150 0.223176
O O4 0.000000 0.325591 0.262785
O O5 0.745547 0.260052 0.955543
O O6 0.730080 0.500000 0.000000
O O7 0.500000 0.334920 0.000000
O O8 0.500000 0.672929 0.641134
O O9 0.279953 0.500000 0.630756
O O10 0.262761 0.747855 0.593696
O O11 0.734912 0.796681 0.500000
O O12 0.500000 0.836717 0.448578
O O13 0.729411 0.000000 0.442312
O O14 0.240235 0.805488 0.866833
O O15 0.000000 0.831661 0.920067
O O16 0.226019 0.000000 0.927256
O O17 0.500000 0.821760 0.177529
O O18 0.287163 0.000000 0.191288
#
# Coordination Sequence:
#
# PCOD9387270 Si02
#       6
#     8   4   8   8   8   8
#     4  10  21  36  53  74 103 139 175 212 258 310
#     4  11  24  39  56  82 114 147 184 223 262 306
#     4   9  17  29  46  69  96 126 163 207 252 300
#     4   8  14  25  42  66  95 124 156 199 251 303
#     4  10  21  38  60  84 110 142 179 218 263 314
#     4  10  21  37  58  83 108 136 173 216 261 310
#
# _framework density 17.740438999999999
#
# number of rings (size 3 to 8) (size 9 to 14) (size 15 to 20)
#    0.000    2.455    0.000    2.727    0.000    6.909 
#    0.000    3.636    0.000    0.545    0.000    3.818 
#    0.000    0.000    0.000    0.000    0.000    0.000 
#
# Total GULP energy -245532.140444 kJ/mol
# GULP energy per Si atom -5580.275919 kJ/mol
# Density = 1.770006 g / cm^3
# Si number density = 17.740439 Si / 1000 Ang^3
#
#
#
# Elastic Constant Matrix: (Units=GPa)
#
#
# Indices 1 2 3 4 5 6 
#
# 1 33.0706 41.2588 52.8528 0.0000 0.0000 0.0000
# 2 41.2588 89.9553 111.9008 0.0000 0.0000 0.0000
# 3 52.8528 111.9008 191.7156 0.0000 0.0000 0.0000
# 4 0.0000 0.0000 0.0000 53.4021 0.0000 0.0000
# 5 0.0000 0.0000 0.0000 0.0000 -204.2936 0.0000
# 6 0.0000 0.0000 0.0000 0.0000 0.0000 21.6711
#
#
#
# Elastic Compliance Matrix: (Units=1/GPa)
#
#
# Indices 1 2 3 4 5 6 
#
# 1 0.070910 -0.029956 -0.002064 0.000000 0.000000 0.000000
# 2 -0.029956 0.053238 -0.022816 0.000000 0.000000 0.000000
# 3 -0.002064 -0.022816 0.019102 0.000000 0.000000 0.000000
# 4 0.000000 0.000000 0.000000 0.018726 0.000000 0.000000
# 5 0.000000 0.000000 0.000000 0.000000 -0.004895 0.000000
# 6 0.000000 0.000000 0.000000 0.000000 0.000000 0.046145
#
#
# Mechanical properties :
#
#
# Convention : Reuss Voigt Hill
#
# Bulk Modulus (GPa) = 29.78072 80.75180 55.26626
# Shear Modulus (GPa) = 15.42784 -18.59548 -1.58382
#
# Velocity S-wave (km/s) = 2.95217 -3.24110 -0.94589
# Velocity P-wave (km/s) = 5.33327 5.62237 5.47972
#
# Compressibility (1/GPa) = 0.03357878
#
# Stress axis : x y z
#
# Youngs Moduli (GPa) = 14.10244 18.78355 52.35022
#
# Poissons Ratio (x) = 0.56268 0.10804
# Poissons Ratio (y) = 0.42245 1.19441
# Poissons Ratio (z) = 0.02910 0.42856
#
# Static dielectric constant tensor:
#      x y z
#    x 1.594980 0.000000 0.000000 
#    y 0.000000 1.593990 0.000000 
#    z 0.000000 0.000000 1.580660 
# 
# From -- ./inp_files/33904.got.cif
#   From: 2010.05.17/outbox.cif.g08.bks.cpg/sg47_17_cif.got.tgz:33904.got - 2010.06.03 20:15:42.
