data_PCOD9387912
_publ_section_title
;
Structure prediction by ZEFSAII (Michael W. Deem and Ramdas Pophale) SiO2 
 PCOD9387912
Probable space group: P M M M
;
_chemical_formula_sum "Si O2"
_cell_formula_units_Z 37
_cell_length_a 10.037084
_cell_length_b 7.494959
_cell_length_c 27.079981
_cell_angle_alpha 90.000000
_cell_angle_beta 90.000000
_cell_angle_gamma 90.000000
_cell_volume 2037.160166
_symmetry_space_group_name_H-M "P M M M"
_symmetry_group_IT_number 47
_symmetry_cell_setting 'orthorhombic'
loop_
_space_group_symop_operation_xyz
x,y,z
-x,-y,z
x,-y,-z
-x,y,-z
-x,-y,-z
x,y,-z
-x,y,z
x,-y,z
loop_
_atom_site_type_symbol
_atom_site_label
_atom_site_fract_x
_atom_site_fract_y
_atom_site_fract_z
Si Si1 0.159219 0.500000 0.284109
Si Si2 0.500000 0.798084 0.584909
Si Si3 0.839507 0.500000 0.172750
Si Si4 0.500000 0.500000 0.500000
Si Si5 0.000000 0.216467 0.443310
Si Si6 0.780779 0.207750 0.363906
Si Si7 0.842813 0.786665 0.908355
Si Si8 0.654732 0.216643 0.000000
O O1 0.214239 0.500000 0.228408
O O2 0.197565 0.671676 0.316375
O O3 0.000000 0.500000 0.281214
O O4 0.500000 0.654532 0.542602
O O5 0.630476 0.778617 0.618054
O O6 0.500000 0.000000 0.564535
O O7 0.806598 0.326266 0.140128
O O8 0.000000 0.500000 0.176602
O O9 0.126649 0.268260 0.410026
O O10 0.000000 0.281778 0.500000
O O11 0.000000 0.000000 0.446377
O O12 0.813706 0.000000 0.354131
O O13 0.000000 0.750711 0.920603
O O14 0.831936 0.000000 0.900733
O O15 0.742554 0.733154 0.952218
O O16 0.500000 0.277735 0.000000
O O17 0.650494 0.000000 0.000000
#
# Coordination Sequence:
#
# PCOD9387912 Si02
#       8
#     4   4   4   1   4   8   8   4
#     4  11  21  36  58  85 109 140 187 236 281 327
#     4  10  23  39  59  82 111 145 182 223 270 327
#     4   9  20  34  52  80 110 136 180 234 271 315
#     4  12  22  36  56  84 116 144 178 214 264 324
#     4   9  18  33  55  83 114 141 173 216 267 328
#     4  10  21  39  59  82 110 145 183 226 275 329
#     4   9  17  32  53  78 107 142 180 219 266 316
#     4   9  17  30  53  80 111 145 178 217 263 326
#
# _framework density 18.162538999999999
#
# number of rings (size 3 to 8) (size 9 to 14) (size 15 to 20)
#    0.000    2.378    1.081    1.135    1.514    2.595 
#    0.000    5.405    4.757    0.000    0.000    0.000 
#    0.000    0.000    0.000    0.000    0.000    0.000 
#
# Total GULP energy -206117.599131 kJ/mol
# GULP energy per Si atom -5570.745922 kJ/mol
# Density = 1.812120 g / cm^3
# Si number density = 18.162539 Si / 1000 Ang^3
#
#
#
# Elastic Constant Matrix: (Units=GPa)
#
#
# Indices 1 2 3 4 5 6 
#
# 1 106.1884 37.9203 64.6616 0.0000 0.0000 0.0000
# 2 37.9203 101.9197 83.3479 0.0000 0.0000 0.0000
# 3 64.6616 83.3479 193.1975 0.0000 0.0000 0.0000
# 4 0.0000 0.0000 0.0000 25.2798 0.0000 0.0000
# 5 0.0000 0.0000 0.0000 0.0000 46.9480 0.0000
# 6 0.0000 0.0000 0.0000 0.0000 0.0000 -12.5701
#
#
#
# Elastic Compliance Matrix: (Units=1/GPa)
#
#
# Indices 1 2 3 4 5 6 
#
# 1 0.012045 -0.001830 -0.003242 0.000000 0.000000 0.000000
# 2 -0.001830 0.015438 -0.006048 0.000000 0.000000 0.000000
# 3 -0.003242 -0.006048 0.008870 0.000000 0.000000 0.000000
# 4 0.000000 0.000000 0.000000 0.039557 0.000000 0.000000
# 5 0.000000 0.000000 0.000000 0.000000 0.021300 0.000000
# 6 0.000000 0.000000 0.000000 0.000000 0.000000 -0.079554
#
#
# Mechanical properties :
#
#
# Convention : Reuss Voigt Hill
#
# Bulk Modulus (GPa) = 70.85312 85.90724 78.38018
# Shear Modulus (GPa) = 112.10563 26.28993 69.19778
#
# Velocity S-wave (km/s) = 7.86496 3.80870 6.17915
# Velocity P-wave (km/s) = 11.02597 8.16967 9.70349
#
# Compressibility (1/GPa) = 0.01411370
#
# Stress axis : x y z
#
# Youngs Moduli (GPa) = 83.02330 64.77373 112.73926
#
# Poissons Ratio (x) = 0.11857 0.36546
# Poissons Ratio (y) = 0.15197 0.68181
# Poissons Ratio (z) = 0.26913 0.39173
#
# Static dielectric constant tensor:
#      x y z
#    x 1.620360 0.000000 0.000000 
#    y 0.000000 1.655670 0.000000 
#    z 0.000000 0.000000 1.600300 
# 
# From -- ./inp_files/31770.got.cif
#   From: 2010.05.17/outbox.cif.g08.bks.cpg/sg47_16_cif.got.tgz:31770.got - 2010.06.03 20:15:42.
