data_PCOD9387288
_publ_section_title
;
Structure prediction by ZEFSAII (Michael W. Deem and Ramdas Pophale) SiO2 
 PCOD9387288
Probable space group: P M M M
;
_chemical_formula_sum "Si O2"
_cell_formula_units_Z 44
_cell_length_a 9.266899
_cell_length_b 7.590707
_cell_length_c 30.767660
_cell_angle_alpha 90.000000
_cell_angle_beta 90.000000
_cell_angle_gamma 90.000000
_cell_volume 2164.268435
_symmetry_space_group_name_H-M "P M M M"
_symmetry_group_IT_number 47
_symmetry_cell_setting 'orthorhombic'
loop_
_space_group_symop_operation_xyz
x,y,z
-x,-y,z
x,-y,-z
-x,y,-z
-x,-y,-z
x,y,-z
-x,y,z
x,-y,z
loop_
_atom_site_type_symbol
_atom_site_label
_atom_site_fract_x
_atom_site_fract_y
_atom_site_fract_z
Si Si1 0.664033 0.288652 0.804340
Si Si2 0.661904 0.790327 0.634618
Si Si3 0.670393 0.000000 0.948057
Si Si4 0.171918 0.710978 0.892053
Si Si5 0.834843 0.287670 0.451561
Si Si6 0.162469 0.210951 0.282925
O O1 0.500000 0.219879 0.806358
O O2 0.656397 0.500000 0.806445
O O3 0.759526 0.234474 0.845675
O O4 0.741151 0.243806 0.759312
O O5 0.500000 0.717498 0.636126
O O6 0.733655 0.765082 0.587814
O O7 0.761019 0.719083 0.673548
O O8 0.651946 0.000000 0.641583
O O9 0.748175 0.828931 0.927768
O O10 0.500000 0.000000 0.936809
O O11 0.683627 0.000000 0.000000
O O12 0.195047 0.500000 0.898131
O O13 0.000000 0.742013 0.892291
O O14 0.790296 0.227990 0.500000
O O15 0.837310 0.500000 0.452396
O O16 0.000000 0.227721 0.444020
O O17 0.000000 0.280620 0.277595
O O18 0.151553 0.000000 0.287546
#
# Coordination Sequence:
#
# PCOD9387288 Si02
#       6
#     8   8   4   8   8   8
#     4  10  21  37  58  85 117 153 193 236 287 348
#     4  10  21  36  53  76 107 140 177 222 273 331
#     4  11  25  43  65  95 129 169 215 261 314 375
#     4  10  22  41  65  93 127 166 210 262 314 368
#     4   9  19  36  56  77 101 132 173 219 268 326
#     4  10  21  36  55  79 108 145 187 230 278 333
#
# _framework density 20.330193999999999
#
# number of rings (size 3 to 8) (size 9 to 14) (size 15 to 20)
#    0.000    2.091    0.000    3.000    1.273    7.273 
#    0.000    4.545    0.000    0.000    0.000    0.000 
#    0.000    0.000    0.000    0.000    0.000    0.000 
#
# Total GULP energy -245793.684255 kJ/mol
# GULP energy per Si atom -5586.220097 kJ/mol
# Density = 2.028392 g / cm^3
# Si number density = 20.330194 Si / 1000 Ang^3
#
#
#
# Elastic Constant Matrix: (Units=GPa)
#
#
# Indices 1 2 3 4 5 6 
#
# 1 189.7061 41.2948 106.6186 0.0000 0.0000 0.0000
# 2 41.2948 58.0579 28.1059 0.0000 0.0000 0.0000
# 3 106.6186 28.1059 152.0797 0.0000 0.0000 0.0000
# 4 0.0000 0.0000 0.0000 37.2534 0.0000 0.0000
# 5 0.0000 0.0000 0.0000 0.0000 33.8873 0.0000
# 6 0.0000 0.0000 0.0000 0.0000 0.0000 24.4495
#
#
#
# Elastic Compliance Matrix: (Units=1/GPa)
#
#
# Indices 1 2 3 4 5 6 
#
# 1 0.009421 -0.003848 -0.005894 0.000000 0.000000 0.000000
# 2 -0.003848 0.020488 -0.001089 0.000000 0.000000 0.000000
# 3 -0.005894 -0.001089 0.010909 0.000000 0.000000 0.000000
# 4 0.000000 0.000000 0.000000 0.026843 0.000000 0.000000
# 5 0.000000 0.000000 0.000000 0.000000 0.029510 0.000000
# 6 0.000000 0.000000 0.000000 0.000000 0.000000 0.040901
#
#
# Mechanical properties :
#
#
# Convention : Reuss Voigt Hill
#
# Bulk Modulus (GPa) = 52.19995 83.54249 67.87122
# Shear Modulus (GPa) = 30.09895 34.03966 32.06930
#
# Velocity S-wave (km/s) = 3.85191 4.09631 3.97599
# Velocity P-wave (km/s) = 6.74646 7.97214 7.38477
#
# Compressibility (1/GPa) = 0.01915711
#
# Stress axis : x y z
#
# Youngs Moduli (GPa) = 106.14097 48.80875 91.66913
#
# Poissons Ratio (x) = 0.18781 0.54029
# Poissons Ratio (y) = 0.40842 0.09981
# Poissons Ratio (z) = 0.62559 0.05314
#
# Static dielectric constant tensor:
#      x y z
#    x 1.715580 0.000000 0.000000 
#    y 0.000000 1.754380 0.000000 
#    z 0.000000 0.000000 1.680100 
# 
# From -- ./inp_files/33883.got.cif
#   From: 2010.05.17/outbox.cif.g08.bks.cpg/sg47_17_cif.got.tgz:33883.got - 2010.06.03 20:15:42.
