data_PCOD9387329
_publ_section_title
;
Structure prediction by ZEFSAII (Michael W. Deem and Ramdas Pophale) SiO2 
 PCOD9387329
Probable space group: P M M M
;
_chemical_formula_sum "Si O2"
_cell_formula_units_Z 44
_cell_length_a 9.488374
_cell_length_b 31.077202
_cell_length_c 8.119029
_cell_angle_alpha 90.000000
_cell_angle_beta 90.000000
_cell_angle_gamma 90.000000
_cell_volume 2394.075257
_symmetry_space_group_name_H-M "P M M M"
_symmetry_group_IT_number 47
_symmetry_cell_setting 'orthorhombic'
loop_
_space_group_symop_operation_xyz
x,y,z
-x,-y,z
x,-y,-z
-x,y,-z
-x,-y,-z
x,y,-z
-x,y,z
x,-y,z
loop_
_atom_site_type_symbol
_atom_site_label
_atom_site_fract_x
_atom_site_fract_y
_atom_site_fract_z
Si Si1 0.162822 0.452553 0.301389
Si Si2 0.670990 0.950888 0.500000
Si Si3 0.659976 0.629430 0.196071
Si Si4 0.840131 0.804527 0.802616
Si Si5 0.669531 0.890403 0.194245
Si Si6 0.338915 0.722804 0.695757
O O1 0.164224 0.452657 0.500000
O O2 0.214214 0.500000 0.246371
O O3 0.251645 0.412134 0.243861
O O4 0.000000 0.448309 0.248523
O O5 0.500000 0.952011 0.500000
O O6 0.709903 0.925892 0.331308
O O7 0.722386 0.000000 0.500000
O O8 0.500000 0.625161 0.261570
O O9 0.715811 0.675353 0.258245
O O10 0.654679 0.631817 0.000000
O O11 0.749222 0.846502 0.757585
O O12 0.759009 0.761227 0.755300
O O13 0.000000 0.805849 0.736499
O O14 0.848384 0.805328 0.000000
O O15 0.500000 0.884154 0.203497
O O16 0.701136 0.900702 0.000000
O O17 0.346638 0.725400 0.500000
O O18 0.500000 0.726792 0.762621
#
# Coordination Sequence:
#
# PCOD9387329 Si02
#       6
#     8   4   8   8   8   8
#     4   9  19  36  56  77 102 134 172 213 258 310
#     4   9  18  32  53  83 113 141 183 235 278 325
#     4  10  21  36  54  77 105 136 171 213 260 312
#     4  10  21  36  54  78 108 141 178 221 268 319
#     4   9  18  33  54  79 109 146 184 226 277 328
#     4  10  21  36  55  78 104 137 176 217 263 317
#
# _framework density 18.378705
#
# number of rings (size 3 to 8) (size 9 to 14) (size 15 to 20)
#    0.000    2.455    0.000    2.182    1.273    5.455 
#    0.000    4.545    0.000    1.091    0.000    2.545 
#    0.000    0.000    0.000    0.000    0.000    0.000 
#
# Total GULP energy -245344.956996 kJ/mol
# GULP energy per Si atom -5576.021750 kJ/mol
# Density = 1.833687 g / cm^3
# Si number density = 18.378705 Si / 1000 Ang^3
#
#
#
# Elastic Constant Matrix: (Units=GPa)
#
#
# Indices 1 2 3 4 5 6 
#
# 1 58.1172 76.2252 28.6457 0.0000 0.0000 0.0000
# 2 76.2252 200.1562 54.1141 0.0000 0.0000 0.0000
# 3 28.6457 54.1141 45.0610 0.0000 0.0000 0.0000
# 4 0.0000 0.0000 0.0000 51.2468 0.0000 0.0000
# 5 0.0000 0.0000 0.0000 0.0000 19.4118 0.0000
# 6 0.0000 0.0000 0.0000 0.0000 0.0000 4.6650
#
#
#
# Elastic Compliance Matrix: (Units=1/GPa)
#
#
# Indices 1 2 3 4 5 6 
#
# 1 0.037084 -0.011475 -0.009795 0.000000 0.000000 0.000000
# 2 -0.011475 0.010949 -0.005854 0.000000 0.000000 0.000000
# 3 -0.009795 -0.005854 0.035449 0.000000 0.000000 0.000000
# 4 0.000000 0.000000 0.000000 0.019513 0.000000 0.000000
# 5 0.000000 0.000000 0.000000 0.000000 0.051515 0.000000
# 6 0.000000 0.000000 0.000000 0.000000 0.000000 0.214363
#
#
# Mechanical properties :
#
#
# Convention : Reuss Voigt Hill
#
# Bulk Modulus (GPa) = 34.20547 69.03381 51.61964
# Shear Modulus (GPa) = 11.55097 24.68803 18.11950
#
# Velocity S-wave (km/s) = 2.50971 3.66908 3.14331
# Velocity P-wave (km/s) = 5.20096 7.45606 6.42818
#
# Compressibility (1/GPa) = 0.02923509
#
# Stress axis : x y z
#
# Youngs Moduli (GPa) = 26.96559 91.33609 28.20993
#
# Poissons Ratio (x) = 1.04805 0.27631
# Poissons Ratio (y) = 0.30942 0.16513
# Poissons Ratio (z) = 0.26412 0.53465
#
# Static dielectric constant tensor:
#      x y z
#    x 1.646310 0.000000 0.000000 
#    y 0.000000 1.619480 0.000000 
#    z 0.000000 0.000000 1.646650 
# 
# From -- ./inp_files/1995.got.cif
#   From: 2010.05.17/outbox.cif.g08.bks.cpg/sg47_1_cif.got.tgz:1995.got - 2010.06.03 20:15:42.
