data_PCOD9387246
_publ_section_title
;
Structure prediction by ZEFSAII (Michael W. Deem and Ramdas Pophale) SiO2 
 PCOD9387246
Probable space group: P M M M
;
_chemical_formula_sum "Si O2"
_cell_formula_units_Z 52
_cell_length_a 21.312855
_cell_length_b 7.576631
_cell_length_c 15.524534
_cell_angle_alpha 90.000000
_cell_angle_beta 90.000000
_cell_angle_gamma 90.000000
_cell_volume 2506.896129
_symmetry_space_group_name_H-M "P M M M"
_symmetry_group_IT_number 47
_symmetry_cell_setting 'orthorhombic'
loop_
_space_group_symop_operation_xyz
x,y,z
-x,-y,z
x,-y,-z
-x,y,-z
-x,-y,-z
x,y,-z
-x,y,z
x,-y,z
loop_
_atom_site_type_symbol
_atom_site_label
_atom_site_fract_x
_atom_site_fract_y
_atom_site_fract_z
Si Si1 0.911954 0.793580 0.093840
Si Si2 0.766056 0.285778 0.907780
Si Si3 0.188647 0.790723 0.401314
Si Si4 0.930789 0.784451 0.711969
Si Si5 0.429656 0.212718 0.314691
Si Si6 0.424404 0.802186 0.500000
Si Si7 0.294488 0.291167 0.266047
O O1 0.837125 0.778047 0.093203
O O2 0.929750 0.721890 0.188096
O O3 0.929666 0.000000 0.093602
O O4 0.932060 0.719102 0.000000
O O5 0.766557 0.500000 0.905190
O O6 0.734661 0.217495 0.821573
O O7 0.737286 0.233799 0.000000
O O8 0.191266 0.721242 0.500000
O O9 0.129490 0.722817 0.343636
O O10 0.253679 0.769689 0.348280
O O11 0.178380 0.000000 0.408248
O O12 0.000000 0.739692 0.675786
O O13 0.926917 0.000000 0.715156
O O14 0.500000 0.273387 0.290256
O O15 0.411435 0.285420 0.409441
O O16 0.368405 0.252917 0.261241
O O17 0.433797 0.000000 0.322991
O O18 0.500000 0.820659 0.500000
O O19 0.395958 0.000000 0.500000
O O20 0.286788 0.500000 0.266312
#
# Coordination Sequence:
#
# PCOD9387246 Si02
#       7
#     8   8   8   8   8   4   8
#     4   9  16  27  47  74 101 128 160 205 261 314
#     4   9  18  33  52  73  99 133 170 207 252 305
#     4  10  21  36  53  73 100 137 179 217 254 302
#     4   9  17  30  49  74 103 132 167 214 261 305
#     4   9  18  33  53  76 104 139 175 208 248 304
#     4   7  12  26  47  69  93 125 164 197 228 279
#     4  11  22  34  53  79 106 134 167 215 262 301
#
# _framework density 20.742782999999999
#
# number of rings (size 3 to 8) (size 9 to 14) (size 15 to 20)
#    0.000    2.692    1.538    1.385    1.077    1.846 
#    0.000    3.077    0.000    3.692    0.000    6.462 
#    0.000    0.000    0.000    0.000    0.000    0.000 
#
# Total GULP energy -289591.824906 kJ/mol
# GULP energy per Si atom -5569.073556 kJ/mol
# Density = 2.069557 g / cm^3
# Si number density = 20.742783 Si / 1000 Ang^3
#
#
#
# Elastic Constant Matrix: (Units=GPa)
#
#
# Indices 1 2 3 4 5 6 
#
# 1 134.2254 -6.0131 78.1756 0.0000 0.0000 0.0000
# 2 -6.0131 47.4610 10.5755 0.0000 0.0000 0.0000
# 3 78.1756 10.5755 142.9347 0.0000 0.0000 0.0000
# 4 0.0000 0.0000 0.0000 -9.5764 0.0000 0.0000
# 5 0.0000 0.0000 0.0000 0.0000 -9.5066 0.0000
# 6 0.0000 0.0000 0.0000 0.0000 0.0000 526.1194
#
#
#
# Elastic Compliance Matrix: (Units=1/GPa)
#
#
# Indices 1 2 3 4 5 6 
#
# 1 0.011301 0.002856 -0.006392 0.000000 0.000000 0.000000
# 2 0.002856 0.022145 -0.003201 0.000000 0.000000 0.000000
# 3 -0.006392 -0.003201 0.010729 0.000000 0.000000 0.000000
# 4 0.000000 0.000000 0.000000 -0.104424 0.000000 0.000000
# 5 0.000000 0.000000 0.000000 0.000000 -0.105190 0.000000
# 6 0.000000 0.000000 0.000000 0.000000 0.000000 0.001901
#
#
# Mechanical properties :
#
#
# Convention : Reuss Voigt Hill
#
# Bulk Modulus (GPa) = 32.57138 54.45524 43.51331
# Shear Modulus (GPa) = -35.75763 117.53281 40.88759
#
# Velocity S-wave (km/s) = -4.15644 7.53558 4.44460
# Velocity P-wave (km/s) = 2.70150 10.10064 6.88204
#
# Compressibility (1/GPa) = 0.03070180
#
# Stress axis : x y z
#
# Youngs Moduli (GPa) = 88.48707 45.15700 93.20416
#
# Poissons Ratio (x) = -0.12898 0.59578
# Poissons Ratio (y) = -0.25273 0.29831
# Poissons Ratio (z) = 0.56563 0.14453
#
# Static dielectric constant tensor:
#      x y z
#    x 1.760670 0.000000 0.000000 
#    y 0.000000 1.805760 0.000000 
#    z 0.000000 0.000000 1.810530 
# 
# From -- ./inp_files/24990.got.cif
#   From: 2010.05.17/outbox.cif.g08.bks.cpg/sg47_13_cif.got.tgz:24990.got - 2010.06.03 20:15:42.
