data_PCOD9387042
_publ_section_title
;
Structure prediction by ZEFSAII (Michael W. Deem and Ramdas Pophale) SiO2 
 PCOD9387042
Probable space group: P M M M
;
_chemical_formula_sum "Si O2"
_cell_formula_units_Z 56
_cell_length_a 22.486165
_cell_length_b 14.864141
_cell_length_c 8.368987
_cell_angle_alpha 90.000000
_cell_angle_beta 90.000000
_cell_angle_gamma 90.000000
_cell_volume 2797.229519
_symmetry_space_group_name_H-M "P M M M"
_symmetry_group_IT_number 47
_symmetry_cell_setting 'orthorhombic'
loop_
_space_group_symop_operation_xyz
x,y,z
-x,-y,z
x,-y,-z
-x,y,-z
-x,-y,-z
x,y,-z
-x,y,z
x,-y,z
loop_
_atom_site_type_symbol
_atom_site_label
_atom_site_fract_x
_atom_site_fract_y
_atom_site_fract_z
Si Si1 0.163776 0.258934 0.182809
Si Si2 0.500000 0.641310 0.818120
Si Si3 0.377706 0.892711 0.818879
Si Si4 0.627907 0.605695 0.818787
Si Si5 0.930336 0.600814 0.194672
Si Si6 0.248566 0.895155 0.690575
Si Si7 0.500000 0.826665 0.682820
Si Si8 0.250960 0.392061 0.320106
O O1 0.106647 0.312491 0.252998
O O2 0.195532 0.172655 0.261298
O O3 0.211930 0.339187 0.193939
O O4 0.150928 0.234680 0.000000
O O5 0.562719 0.615084 0.745035
O O6 0.500000 0.747444 0.810656
O O7 0.500000 0.605367 0.000000
O O8 0.312744 0.862252 0.757736
O O9 0.436703 0.874097 0.714982
O O10 0.372689 0.000000 0.823525
O O11 0.387352 0.859816 0.000000
O O12 0.638040 0.500000 0.836174
O O13 0.681276 0.637886 0.709860
O O14 0.628745 0.644368 0.000000
O O15 0.909504 0.500000 0.247234
O O16 0.000000 0.607867 0.234667
O O17 0.925665 0.601024 0.000000
O O18 0.253451 0.895642 0.500000
O O19 0.238675 0.000000 0.742634
O O20 0.500000 0.794335 0.500000
O O21 0.232502 0.367394 0.500000
O O22 0.245965 0.500000 0.304765
#
# Coordination Sequence:
#
# PCOD9387042 Si02
#       8
#     8   4   8   8   8   8   4   8
#     4  11  21  33  57  87 115 149 188 232 281 333
#     4  10  21  35  51  70  95 127 171 226 273 322
#     4  10  21  39  61  81 102 131 173 227 285 343
#     4   9  18  34  54  72  92 125 172 224 275 326
#     4   8  15  30  54  87 125 159 192 231 273 320
#     4  10  22  40  60  82 111 148 189 235 288 346
#     4  12  25  36  51  76 107 140 173 218 277 346
#     4  10  21  35  51  75 110 147 182 225 276 331
#
# _framework density 20.019808999999999
#
# number of rings (size 3 to 8) (size 9 to 14) (size 15 to 20)
#    0.000    2.143    0.000    3.643    2.000    5.429 
#    0.000    0.000    0.000    4.286    0.000    8.000 
#    0.000    0.000    0.000    0.000    0.000    0.000 
#
# Total GULP energy -312033.382628 kJ/mol
# GULP energy per Si atom -5572.024690 kJ/mol
# Density = 1.997424 g / cm^3
# Si number density = 20.019809 Si / 1000 Ang^3
#
#
#
# Elastic Constant Matrix: (Units=GPa)
#
#
# Indices 1 2 3 4 5 6 
#
# 1 104.6274 37.4616 12.2936 0.0000 0.0000 0.0000
# 2 37.4616 87.4193 18.1566 0.0000 0.0000 0.0000
# 3 12.2936 18.1566 41.3769 0.0000 0.0000 0.0000
# 4 0.0000 0.0000 0.0000 17.3272 0.0000 0.0000
# 5 0.0000 0.0000 0.0000 0.0000 9.8660 0.0000
# 6 0.0000 0.0000 0.0000 0.0000 0.0000 43.2228
#
#
#
# Elastic Compliance Matrix: (Units=1/GPa)
#
#
# Indices 1 2 3 4 5 6 
#
# 1 0.011359 -0.004585 -0.001363 0.000000 0.000000 0.000000
# 2 -0.004585 0.014437 -0.004973 0.000000 0.000000 0.000000
# 3 -0.001363 -0.004973 0.026755 0.000000 0.000000 0.000000
# 4 0.000000 0.000000 0.000000 0.057713 0.000000 0.000000
# 5 0.000000 0.000000 0.000000 0.000000 0.101358 0.000000
# 6 0.000000 0.000000 0.000000 0.000000 0.000000 0.023136
#
#
# Mechanical properties :
#
#
# Convention : Reuss Voigt Hill
#
# Bulk Modulus (GPa) = 32.56277 41.02746 36.79511
# Shear Modulus (GPa) = 18.73811 25.11733 21.92772
#
# Velocity S-wave (km/s) = 3.06270 3.54591 3.31312
# Velocity P-wave (km/s) = 5.36725 6.10758 5.74935
#
# Compressibility (1/GPa) = 0.03070992
#
# Stress axis : x y z
#
# Youngs Moduli (GPa) = 88.03250 69.26830 37.37588
#
# Poissons Ratio (x) = 0.31757 0.05095
# Poissons Ratio (y) = 0.40360 0.18586
# Poissons Ratio (z) = 0.12001 0.34445
#
# Static dielectric constant tensor:
#      x y z
#    x 1.762790 0.000000 0.000000 
#    y 0.000000 1.728970 0.000000 
#    z 0.000000 0.000000 1.702180 
# 
# From -- ./inp_files/11364.got.cif
#   From: 2010.05.17/outbox.cif.g08.bks.cpg/sg47_6_cif.got.tgz:11364.got - 2010.06.03 20:15:42.
