data_PCOD9387037
_publ_section_title
;
Structure prediction by ZEFSAII (Michael W. Deem and Ramdas Pophale) SiO2 
 PCOD9387037
Probable space group: P M M M
;
_chemical_formula_sum "Si O2"
_cell_formula_units_Z 64
_cell_length_a 26.752531
_cell_length_b 14.343707
_cell_length_c 9.100310
_cell_angle_alpha 90.000000
_cell_angle_beta 90.000000
_cell_angle_gamma 90.000000
_cell_volume 3492.066199
_symmetry_space_group_name_H-M "P M M M"
_symmetry_group_IT_number 47
_symmetry_cell_setting 'orthorhombic'
loop_
_space_group_symop_operation_xyz
x,y,z
-x,-y,z
x,-y,-z
-x,y,-z
-x,-y,-z
x,y,-z
-x,y,z
x,-y,z
loop_
_atom_site_type_symbol
_atom_site_label
_atom_site_fract_x
_atom_site_fract_y
_atom_site_fract_z
Si Si1 0.348822 0.112672 0.670666
Si Si2 0.753664 0.109832 0.175796
Si Si3 0.809024 0.390171 0.325999
Si Si4 0.707246 0.387051 0.833086
Si Si5 0.942440 0.109834 0.675693
Si Si6 0.555061 0.798970 0.177339
Si Si7 0.404117 0.605310 0.821457
Si Si8 0.146025 0.221766 0.824291
O O1 0.348741 0.139927 0.500000
O O2 0.297244 0.143847 0.747918
O O3 0.398272 0.149936 0.750025
O O4 0.349391 0.000000 0.679410
O O5 0.803724 0.164565 0.218417
O O6 0.760202 0.000000 0.211017
O O7 0.747512 0.117539 0.000000
O O8 0.811944 0.376589 0.500000
O O9 0.816165 0.500000 0.294302
O O10 0.753918 0.363044 0.267151
O O11 0.847541 0.324245 0.242727
O O12 0.706437 0.500000 0.842514
O O13 0.651975 0.364035 0.776673
O O14 0.714351 0.350943 0.000000
O O15 0.936570 0.122049 0.500000
O O16 0.902071 0.170137 0.760619
O O17 0.000000 0.133026 0.712967
O O18 0.935009 0.000000 0.707410
O O19 0.500000 0.834319 0.219916
O O20 0.559495 0.689197 0.216980
O O21 0.559341 0.805995 0.000000
O O22 0.415219 0.500000 0.769420
O O23 0.402577 0.600424 0.000000
O O24 0.144108 0.225157 0.000000
#
# Coordination Sequence:
#
# PCOD9387037 Si02
#       8
#     8   8   8   8   8   8   8   8
#     4  10  22  39  57  76 100 133 172 217 270 324
#     4   9  19  36  56  80 111 142 172 211 264 327
#     4  10  21  35  50  73 109 150 191 233 276 325
#     4   8  14  27  47  69  95 130 172 216 263 316
#     4   9  19  37  60  86 119 158 195 231 273 323
#     4  10  21  35  53  78 104 132 171 217 263 317
#     4   8  15  29  50  75 102 132 166 207 257 314
#     4  11  22  34  55  86 117 151 189 231 277 326
#
# _framework density 18.327258
#
# number of rings (size 3 to 8) (size 9 to 14) (size 15 to 20)
#    0.000    2.625    0.000    2.625    1.750    4.250 
#    0.000    4.375    0.000    0.750    0.000    3.500 
#    0.000    0.000    0.000    0.000    0.000    0.000 
#
# Total GULP energy -357125.564136 kJ/mol
# GULP energy per Si atom -5580.086940 kJ/mol
# Density = 1.828554 g / cm^3
# Si number density = 18.327258 Si / 1000 Ang^3
#
#
#
# Elastic Constant Matrix: (Units=GPa)
#
#
# Indices 1 2 3 4 5 6 
#
# 1 137.4634 56.1347 62.7217 0.0000 0.0000 0.0000
# 2 56.1347 57.6660 38.1997 0.0000 0.0000 0.0000
# 3 62.7217 38.1997 51.1047 0.0000 0.0000 0.0000
# 4 0.0000 0.0000 0.0000 18.4738 0.0000 0.0000
# 5 0.0000 0.0000 0.0000 0.0000 59.5617 0.0000
# 6 0.0000 0.0000 0.0000 0.0000 0.0000 29.8656
#
#
#
# Elastic Compliance Matrix: (Units=1/GPa)
#
#
# Indices 1 2 3 4 5 6 
#
# 1 0.017378 -0.005522 -0.017200 0.000000 0.000000 0.000000
# 2 -0.005522 0.036104 -0.020209 0.000000 0.000000 0.000000
# 3 -0.017200 -0.020209 0.055784 0.000000 0.000000 0.000000
# 4 0.000000 0.000000 0.000000 0.054131 0.000000 0.000000
# 5 0.000000 0.000000 0.000000 0.000000 0.016789 0.000000
# 6 0.000000 0.000000 0.000000 0.000000 0.000000 0.033483
#
#
# Mechanical properties :
#
#
# Convention : Reuss Voigt Hill
#
# Bulk Modulus (GPa) = 42.73159 62.26071 52.49615
# Shear Modulus (GPa) = 16.26889 27.52543 21.89716
#
# Velocity S-wave (km/s) = 2.98264 3.87962 3.46032
# Velocity P-wave (km/s) = 5.93532 7.35622 6.68364
#
# Compressibility (1/GPa) = 0.02340189
#
# Stress axis : x y z
#
# Youngs Moduli (GPa) = 57.54411 27.69744 17.92627
#
# Poissons Ratio (x) = 0.15296 0.30834
# Poissons Ratio (y) = 0.31779 0.36228
# Poissons Ratio (z) = 0.98978 0.55975
#
# Static dielectric constant tensor:
#      x y z
#    x 1.615130 0.000000 0.000000 
#    y 0.000000 1.659770 0.000000 
#    z 0.000000 0.000000 1.610110 
# 
# From -- ./inp_files/12784.got.cif
#   From: 2010.05.17/outbox.cif.g08.bks.cpg/sg47_7_cif.got.tgz:12784.got - 2010.06.03 20:15:42.
