data_PCOD9387464
_publ_section_title
;
Structure prediction by ZEFSAII (Michael W. Deem and Ramdas Pophale) SiO2 
 PCOD9387464
Probable space group: P M M M
;
_chemical_formula_sum "Si O2"
_cell_formula_units_Z 48
_cell_length_a 8.941030
_cell_length_b 30.211593
_cell_length_c 10.156239
_cell_angle_alpha 90.000000
_cell_angle_beta 90.000000
_cell_angle_gamma 90.000000
_cell_volume 2743.431303
_symmetry_space_group_name_H-M "P M M M"
_symmetry_group_IT_number 47
_symmetry_cell_setting 'orthorhombic'
loop_
_space_group_symop_operation_xyz
x,y,z
-x,-y,z
x,-y,-z
-x,y,-z
-x,-y,-z
x,y,-z
-x,y,z
x,-y,z
loop_
_atom_site_type_symbol
_atom_site_label
_atom_site_fract_x
_atom_site_fract_y
_atom_site_fract_z
Si Si1 0.678645 0.269325 0.845020
Si Si2 0.827655 0.947319 0.500000
Si Si3 0.324795 0.548898 0.839931
Si Si4 0.679847 0.897050 0.262350
Si Si5 0.681659 0.051091 0.000000
Si Si6 0.830048 0.361581 0.840274
Si Si7 0.820375 0.196110 0.344402
O O1 0.500000 0.265082 0.835506
O O2 0.729309 0.319128 0.809457
O O3 0.757329 0.235396 0.746284
O O4 0.719803 0.261600 0.000000
O O5 0.740394 0.928820 0.375528
O O6 0.000000 0.931145 0.500000
O O7 0.829059 0.000000 0.500000
O O8 0.500000 0.553281 0.806243
O O9 0.272052 0.500000 0.796895
O O10 0.234902 0.591596 0.792448
O O11 0.317172 0.549013 0.000000
O O12 0.500000 0.893256 0.266190
O O13 0.725506 0.920613 0.126931
O O14 0.751400 0.849313 0.288523
O O15 0.500000 0.048839 0.000000
O O16 0.735323 0.000000 0.000000
O O17 0.000000 0.354705 0.795424
O O18 0.832143 0.364079 0.000000
O O19 0.780455 0.200590 0.500000
O O20 0.000000 0.194776 0.336003
#
# Coordination Sequence:
#
# PCOD9387464 Si02
#       7
#     8   4   8   8   4   8   8
#     4  10  21  36  56  80 106 139 182 227 271 323
#     4  11  23  39  59  85 117 149 183 223 266 315
#     4   8  13  21  34  54  85 128 174 217 263 316
#     4  11  22  38  62  87 112 145 184 223 267 319
#     4   9  20  38  59  87 119 145 177 223 266 307
#     4   9  16  26  41  64  96 132 172 218 270 324
#     4  11  24  41  59  81 112 144 177 222 277 328
#
# _framework density 17.496338000000002
#
# number of rings (size 3 to 8) (size 9 to 14) (size 15 to 20)
#    0.000    2.167    0.833    3.250    1.167    5.667 
#    0.000    2.917    0.000    3.000    0.000    0.000 
#    0.000    0.667    0.000    7.000    0.000    9.667 
#
# Total GULP energy -267696.802713 kJ/mol
# GULP energy per Si atom -5577.016723 kJ/mol
# Density = 1.745652 g / cm^3
# Si number density = 17.496338 Si / 1000 Ang^3
#
#
#
# Elastic Constant Matrix: (Units=GPa)
#
#
# Indices 1 2 3 4 5 6 
#
# 1 71.6426 56.1665 43.5660 0.0000 0.0000 0.0000
# 2 56.1665 151.7432 69.5372 0.0000 0.0000 0.0000
# 3 43.5660 69.5372 107.4078 0.0000 0.0000 0.0000
# 4 0.0000 0.0000 0.0000 15.9660 0.0000 0.0000
# 5 0.0000 0.0000 0.0000 0.0000 17.9234 0.0000
# 6 0.0000 0.0000 0.0000 0.0000 0.0000 284.4670
#
#
#
# Elastic Compliance Matrix: (Units=1/GPa)
#
#
# Indices 1 2 3 4 5 6 
#
# 1 0.021438 -0.005617 -0.005059 0.000000 0.000000 0.000000
# 2 -0.005617 0.010842 -0.004741 0.000000 0.000000 0.000000
# 3 -0.005059 -0.004741 0.014432 0.000000 0.000000 0.000000
# 4 0.000000 0.000000 0.000000 0.062633 0.000000 0.000000
# 5 0.000000 0.000000 0.000000 0.000000 0.055793 0.000000
# 6 0.000000 0.000000 0.000000 0.000000 0.000000 0.003515
#
#
# Mechanical properties :
#
#
# Convention : Reuss Voigt Hill
#
# Bulk Modulus (GPa) = 62.98070 74.37032 68.67551
# Shear Modulus (GPa) = 24.41658 74.43953 49.42806
#
# Velocity S-wave (km/s) = 3.73973 6.52979 5.32089
# Velocity P-wave (km/s) = 7.39744 9.97243 8.77985
#
# Compressibility (1/GPa) = 0.01587788
#
# Stress axis : x y z
#
# Youngs Moduli (GPa) = 46.64591 92.23782 69.29225
#
# Poissons Ratio (x) = 0.51807 0.35057
# Poissons Ratio (y) = 0.26200 0.32850
# Poissons Ratio (z) = 0.23599 0.43728
#
# Static dielectric constant tensor:
#      x y z
#    x 1.590350 0.000000 0.000000 
#    y 0.000000 1.596070 0.000000 
#    z 0.000000 0.000000 1.537700 
# 
# From -- ./inp_files/2729.got.cif
#   From: 2010.05.17/outbox.cif.g08.bks.cpg/sg47_2_cif.got.tgz:2729.got - 2010.06.03 20:15:42.
