data_PCOD9387768
_publ_section_title
;
Structure prediction by ZEFSAII (Michael W. Deem and Ramdas Pophale) SiO2 
 PCOD9387768
Probable space group: P M M M
;
_chemical_formula_sum "Si O2"
_cell_formula_units_Z 48
_cell_length_a 17.202847
_cell_length_b 15.881789
_cell_length_c 8.651848
_cell_angle_alpha 90.000000
_cell_angle_beta 90.000000
_cell_angle_gamma 90.000000
_cell_volume 2363.788577
_symmetry_space_group_name_H-M "P M M M"
_symmetry_group_IT_number 47
_symmetry_cell_setting 'orthorhombic'
loop_
_space_group_symop_operation_xyz
x,y,z
-x,-y,z
x,-y,-z
-x,y,-z
-x,-y,-z
x,y,-z
-x,y,z
x,-y,z
loop_
_atom_site_type_symbol
_atom_site_label
_atom_site_fract_x
_atom_site_fract_y
_atom_site_fract_z
Si Si1 0.089359 0.400198 0.500000
Si Si2 0.410403 0.595924 0.186249
Si Si3 0.162500 0.173489 0.822088
Si Si4 0.682383 0.751385 0.680683
Si Si5 0.910259 0.344308 0.829515
Si Si6 0.406727 0.906156 0.818868
Si Si7 0.090116 0.000000 0.189613
O O1 0.085283 0.500000 0.500000
O O2 0.124926 0.374944 0.333689
O O3 0.000000 0.365442 0.500000
O O4 0.500000 0.614395 0.235145
O O5 0.391655 0.500000 0.236218
O O6 0.351925 0.667358 0.242388
O O7 0.410071 0.596610 0.000000
O O8 0.234023 0.218254 0.739744
O O9 0.094779 0.243187 0.822954
O O10 0.133514 0.084689 0.758222
O O11 0.186098 0.159007 0.000000
O O12 0.684937 0.737180 0.500000
O O13 0.627224 0.830053 0.722623
O O14 0.000000 0.373087 0.830942
O O15 0.876431 0.368469 0.000000
O O16 0.500000 0.905347 0.809753
O O17 0.379686 0.000000 0.771491
O O18 0.386029 0.894877 0.000000
O O19 0.000000 0.000000 0.236943
O O20 0.090196 0.000000 0.000000
#
# Coordination Sequence:
#
# PCOD9387768 Si02
#       7
#     4   8   8   8   8   8   4
#     4   9  18  32  54  83 113 145 180 230 291 347
#     4   9  19  39  67  93 116 150 201 256 304 356
#     4  10  21  37  59  85 115 153 195 241 297 354
#     4  12  25  36  53  84 125 162 194 239 298 361
#     4   9  18  34  58  84 111 148 195 243 294 356
#     4   9  19  37  60  82 107 148 202 249 289 343
#     4   9  18  36  65  95 116 143 196 257 303 351
#
# _framework density 20.306384999999999
#
# number of rings (size 3 to 8) (size 9 to 14) (size 15 to 20)
#    0.000    2.333    0.000    3.500    2.333    5.667 
#    0.000    4.167    0.000    1.500    0.000    0.000 
#    0.000    0.000    0.000    0.000    0.000    0.000 
#
# Total GULP energy -267652.252939 kJ/mol
# GULP energy per Si atom -5576.088603 kJ/mol
# Density = 2.026017 g / cm^3
# Si number density = 20.306385 Si / 1000 Ang^3
#
#
#
# Elastic Constant Matrix: (Units=GPa)
#
#
# Indices 1 2 3 4 5 6 
#
# 1 73.2661 56.7031 23.8032 0.0000 0.0000 0.0000
# 2 56.7031 128.2134 50.0712 0.0000 0.0000 0.0000
# 3 23.8032 50.0712 102.7799 0.0000 0.0000 0.0000
# 4 0.0000 0.0000 0.0000 -18.5599 0.0000 0.0000
# 5 0.0000 0.0000 0.0000 0.0000 -180.3563 0.0000
# 6 0.0000 0.0000 0.0000 0.0000 0.0000 517.4864
#
#
#
# Elastic Compliance Matrix: (Units=1/GPa)
#
#
# Indices 1 2 3 4 5 6 
#
# 1 0.020766 -0.009022 -0.000414 0.000000 0.000000 0.000000
# 2 -0.009022 0.013552 -0.004513 0.000000 0.000000 0.000000
# 3 -0.000414 -0.004513 0.012024 0.000000 0.000000 0.000000
# 4 0.000000 0.000000 0.000000 -0.053880 0.000000 0.000000
# 5 0.000000 0.000000 0.000000 0.000000 -0.005545 0.000000
# 6 0.000000 0.000000 0.000000 0.000000 0.000000 0.001932
#
#
# Mechanical properties :
#
#
# Convention : Reuss Voigt Hill
#
# Bulk Modulus (GPa) = 54.21753 62.82380 58.52067
# Shear Modulus (GPa) = 218.38342 75.29283 146.83813
#
# Velocity S-wave (km/s) = 10.38160 6.09581 8.51283
# Velocity P-wave (km/s) = 13.05608 8.97498 11.20294
#
# Compressibility (1/GPa) = 0.01844422
#
# Stress axis : x y z
#
# Youngs Moduli (GPa) = 48.15575 73.79021 83.16844
#
# Poissons Ratio (x) = 0.66575 0.03442
# Poissons Ratio (y) = 0.43447 0.37531
# Poissons Ratio (z) = 0.01993 0.33299
#
# Static dielectric constant tensor:
#      x y z
#    x 1.766200 0.000000 0.000000 
#    y 0.000000 1.715210 0.000000 
#    z 0.000000 0.000000 1.733790 
# 
# From -- ./inp_files/9236.got.cif
#   From: 2010.05.17/outbox.cif.g08.bks.cpg/sg47_5_cif.got.tgz:9236.got - 2010.06.03 20:15:42.
