data_PCOD9387904
_publ_section_title
;
Structure prediction by ZEFSAII (Michael W. Deem and Ramdas Pophale) SiO2 
 PCOD9387904
Probable space group: P M M M
;
_chemical_formula_sum "Si O2"
_cell_formula_units_Z 44
_cell_length_a 8.047731
_cell_length_b 16.625075
_cell_length_c 15.306805
_cell_angle_alpha 90.000000
_cell_angle_beta 90.000000
_cell_angle_gamma 90.000000
_cell_volume 2047.960680
_symmetry_space_group_name_H-M "P M M M"
_symmetry_group_IT_number 47
_symmetry_cell_setting 'orthorhombic'
loop_
_space_group_symop_operation_xyz
x,y,z
-x,-y,z
x,-y,-z
-x,y,-z
-x,-y,-z
x,y,-z
-x,y,z
x,-y,z
loop_
_atom_site_type_symbol
_atom_site_label
_atom_site_fract_x
_atom_site_fract_y
_atom_site_fract_z
Si Si1 0.818281 0.093800 0.288458
Si Si2 0.190232 0.699421 0.847972
Si Si3 0.688931 0.597380 0.500000
Si Si4 0.500000 0.098713 0.397304
Si Si5 0.692235 0.405202 0.000000
Si Si6 0.701890 0.406855 0.689620
Si Si7 0.307904 0.869535 0.099028
O O1 0.663215 0.127442 0.343864
O O2 0.783157 0.096507 0.184430
O O3 0.000000 0.130352 0.306271
O O4 0.826274 0.000000 0.312820
O O5 0.242708 0.660310 0.757243
O O6 0.296092 0.774029 0.883263
O O7 0.000000 0.726381 0.846195
O O8 0.215845 0.628524 0.916420
O O9 0.676308 0.500000 0.500000
O O10 0.500000 0.629894 0.500000
O O11 0.765998 0.616201 0.406785
O O12 0.500000 0.121211 0.500000
O O13 0.500000 0.000000 0.394398
O O14 0.691338 0.500000 0.000000
O O15 0.500000 0.377709 0.000000
O O16 0.500000 0.408284 0.687550
O O17 0.752425 0.500000 0.710415
O O18 0.500000 0.895445 0.102189
O O19 0.245237 0.886448 0.000000
#
# Coordination Sequence:
#
# PCOD9387904 Si02
#       7
#     8   8   4   4   4   8   8
#     4  10  21  38  63  96 130 163 204 251 299 356
#     4  12  24  36  53  79 111 146 185 232 291 355
#     4   7  12  26  51  79 101 129 176 227 274 329
#     4   9  18  36  63  95 131 167 204 247 298 352
#     4  11  23  39  57  77 104 141 190 241 287 347
#     4   9  17  32  55  79 104 138 182 231 281 339
#     4  11  23  40  63  85 113 157 204 249 301 364
#
# _framework density 21.484786
#
# number of rings (size 3 to 8) (size 9 to 14) (size 15 to 20)
#    0.000    1.909    1.818    4.091    0.000    5.091 
#    0.000    4.091    2.000    1.636    0.000    0.000 
#    0.000    0.000    0.000    0.000    0.000    0.000 
#
# Total GULP energy -245527.767867 kJ/mol
# GULP energy per Si atom -5580.176542 kJ/mol
# Density = 2.143589 g / cm^3
# Si number density = 21.484786 Si / 1000 Ang^3
#
#
#
# Elastic Constant Matrix: (Units=GPa)
#
#
# Indices 1 2 3 4 5 6 
#
# 1 112.9852 8.1616 49.3743 0.0000 0.0000 0.0000
# 2 8.1616 27.5190 3.1943 0.0000 0.0000 0.0000
# 3 49.3743 3.1943 156.1610 0.0000 0.0000 0.0000
# 4 0.0000 0.0000 0.0000 26.6785 0.0000 0.0000
# 5 0.0000 0.0000 0.0000 0.0000 35.2469 0.0000
# 6 0.0000 0.0000 0.0000 0.0000 0.0000 93.0161
#
#
#
# Elastic Compliance Matrix: (Units=1/GPa)
#
#
# Indices 1 2 3 4 5 6 
#
# 1 0.010470 -0.002727 -0.003255 0.000000 0.000000 0.000000
# 2 -0.002727 0.037136 0.000103 0.000000 0.000000 0.000000
# 3 -0.003255 0.000103 0.007431 0.000000 0.000000 0.000000
# 4 0.000000 0.000000 0.000000 0.037483 0.000000 0.000000
# 5 0.000000 0.000000 0.000000 0.000000 0.028371 0.000000
# 6 0.000000 0.000000 0.000000 0.000000 0.000000 0.010751
#
#
# Mechanical properties :
#
#
# Convention : Reuss Voigt Hill
#
# Bulk Modulus (GPa) = 23.10666 46.45840 34.78253
# Shear Modulus (GPa) = 31.68048 46.71729 39.19889
#
# Velocity S-wave (km/s) = 3.84416 4.66814 4.27604
# Velocity P-wave (km/s) = 5.52102 7.12223 6.37212
#
# Compressibility (1/GPa) = 0.04327757
#
# Stress axis : x y z
#
# Youngs Moduli (GPa) = 95.51125 26.92841 134.57931
#
# Poissons Ratio (x) = 0.07344 0.43800
# Poissons Ratio (y) = 0.26050 -0.01382
# Poissons Ratio (z) = 0.31085 -0.00277
#
# Static dielectric constant tensor:
#      x y z
#    x 1.811930 0.000000 0.000000 
#    y 0.000000 1.776210 0.000000 
#    z 0.000000 0.000000 1.782730 
# 
# From -- ./inp_files/20976.got.cif
#   From: 2010.05.17/outbox.cif.g08.bks.cpg/sg47_11_cif.got.tgz:20976.got - 2010.06.03 20:15:42.
