data_PCOD9387529
_publ_section_title
;
Structure prediction by ZEFSAII (Michael W. Deem and Ramdas Pophale) SiO2 
 PCOD9387529
Probable space group: P M M M
;
_chemical_formula_sum "Si O2"
_cell_formula_units_Z 48
_cell_length_a 20.706680
_cell_length_b 8.633032
_cell_length_c 13.671902
_cell_angle_alpha 90.000000
_cell_angle_beta 90.000000
_cell_angle_gamma 90.000000
_cell_volume 2444.008767
_symmetry_space_group_name_H-M "P M M M"
_symmetry_group_IT_number 47
_symmetry_cell_setting 'orthorhombic'
loop_
_space_group_symop_operation_xyz
x,y,z
-x,-y,z
x,-y,-z
-x,y,-z
-x,-y,-z
x,y,-z
-x,y,z
x,-y,z
loop_
_atom_site_type_symbol
_atom_site_label
_atom_site_fract_x
_atom_site_fract_y
_atom_site_fract_z
Si Si1 0.198685 0.183317 0.707458
Si Si2 0.000000 0.822328 0.880862
Si Si3 0.668259 0.810728 0.389058
Si Si4 0.574972 0.189551 0.785958
Si Si5 0.928779 0.680123 0.382280
Si Si6 0.578732 0.819694 0.000000
Si Si7 0.138128 0.684429 0.888946
O O1 0.260370 0.237722 0.645906
O O2 0.132244 0.225766 0.653941
O O3 0.191747 0.256429 0.814479
O O4 0.203976 0.000000 0.718205
O O5 0.932734 0.741211 0.854091
O O6 0.000000 0.000000 0.848131
O O7 0.000000 0.820309 0.000000
O O8 0.654578 0.759209 0.500000
O O9 0.617972 0.760622 0.305630
O O10 0.667094 0.000000 0.390443
O O11 0.500000 0.233196 0.773127
O O12 0.576739 0.000000 0.789114
O O13 0.597994 0.245446 0.893741
O O14 0.928476 0.681314 0.500000
O O15 0.922324 0.500000 0.351079
O O16 0.000000 0.736842 0.351020
O O17 0.500000 0.818155 0.000000
O O18 0.598877 0.000000 0.000000
O O19 0.137339 0.500000 0.890112
O O20 0.147919 0.741447 0.000000
#
# Coordination Sequence:
#
# PCOD9387529 Si02
#       7
#     8   4   8   8   8   4   8
#     4  11  22  34  50  73 104 140 174 216 270 323
#     4   9  17  31  53  79 104 129 162 211 269 326
#     4   9  18  31  44  64  98 139 179 216 262 319
#     4   8  13  23  41  65  93 130 175 218 258 306
#     4   9  19  36  56  76  97 125 169 224 272 317
#     4   7  10  18  34  58  88 120 160 209 256 302
#     4  10  21  37  55  74 100 136 176 218 264 316
#
# _framework density 19.639865
#
# number of rings (size 3 to 8) (size 9 to 14) (size 15 to 20)
#    0.000    2.833    0.000    3.250    1.167    3.667 
#    1.500    2.500    0.000    0.000    0.000    0.000 
#    0.000    2.667    0.000   10.000    0.000   10.000 
#
# Total GULP energy -267678.742572 kJ/mol
# GULP energy per Si atom -5576.640470 kJ/mol
# Density = 1.959516 g / cm^3
# Si number density = 19.639865 Si / 1000 Ang^3
#
#
#
# Elastic Constant Matrix: (Units=GPa)
#
#
# Indices 1 2 3 4 5 6 
#
# 1 86.2488 9.5223 77.7809 0.0000 0.0000 0.0000
# 2 9.5223 21.2957 12.8646 0.0000 0.0000 0.0000
# 3 77.7809 12.8646 174.4437 0.0000 0.0000 0.0000
# 4 0.0000 0.0000 0.0000 20.0169 0.0000 0.0000
# 5 0.0000 0.0000 0.0000 0.0000 36.5140 0.0000
# 6 0.0000 0.0000 0.0000 0.0000 0.0000 -48.5896
#
#
#
# Elastic Compliance Matrix: (Units=1/GPa)
#
#
# Indices 1 2 3 4 5 6 
#
# 1 0.019661 -0.003659 -0.008496 0.000000 0.000000 0.000000
# 2 -0.003659 0.049828 -0.002043 0.000000 0.000000 0.000000
# 3 -0.008496 -0.002043 0.009672 0.000000 0.000000 0.000000
# 4 0.000000 0.000000 0.000000 0.049958 0.000000 0.000000
# 5 0.000000 0.000000 0.000000 0.000000 0.027387 0.000000
# 6 0.000000 0.000000 0.000000 0.000000 0.000000 -0.020581
#
#
# Mechanical properties :
#
#
# Convention : Reuss Voigt Hill
#
# Bulk Modulus (GPa) = 19.69917 53.59154 36.64536
# Shear Modulus (GPa) = 27.58740 13.70961 20.64851
#
# Velocity S-wave (km/s) = 3.75195 2.64493 3.24598
# Velocity P-wave (km/s) = 5.36856 6.05590 5.72256
#
# Compressibility (1/GPa) = 0.05076357
#
# Stress axis : x y z
#
# Youngs Moduli (GPa) = 50.86335 20.06899 103.39572
#
# Poissons Ratio (x) = 0.07342 0.87849
# Poissons Ratio (y) = 0.18609 0.21128
# Poissons Ratio (z) = 0.43216 0.04101
#
# Static dielectric constant tensor:
#      x y z
#    x 1.669220 0.000000 0.000000 
#    y 0.000000 1.666510 0.000000 
#    z 0.000000 0.000000 1.751220 
# 
# From -- ./inp_files/24445.got.cif
#   From: 2010.05.17/outbox.cif.g08.bks.cpg/sg47_13_cif.got.tgz:24445.got - 2010.06.03 20:15:42.
