data_PCOD9387022
_publ_section_title
;
Structure prediction by ZEFSAII (Michael W. Deem and Ramdas Pophale) SiO2 
 PCOD9387022
Probable space group: P M M M
;
_chemical_formula_sum "Si O2"
_cell_formula_units_Z 52
_cell_length_a 19.320950
_cell_length_b 7.490357
_cell_length_c 15.702415
_cell_angle_alpha 90.000000
_cell_angle_beta 90.000000
_cell_angle_gamma 90.000000
_cell_volume 2272.466266
_symmetry_space_group_name_H-M "P M M M"
_symmetry_group_IT_number 47
_symmetry_cell_setting 'orthorhombic'
loop_
_space_group_symop_operation_xyz
x,y,z
-x,-y,z
x,-y,-z
-x,y,-z
-x,-y,-z
x,y,-z
-x,y,z
x,-y,z
loop_
_atom_site_type_symbol
_atom_site_label
_atom_site_fract_x
_atom_site_fract_y
_atom_site_fract_z
Si Si1 0.297078 0.781604 0.600000
Si Si2 0.080798 0.286307 0.500000
Si Si3 0.077056 0.295755 0.165975
Si Si4 0.577458 0.781882 0.721614
Si Si5 0.626519 0.205105 0.902853
Si Si6 0.780828 0.702082 0.899116
Si Si7 0.847205 0.202850 0.671835
O O1 0.295723 0.725977 0.500000
O O2 0.364561 0.726431 0.653482
O O3 0.229237 0.722405 0.653210
O O4 0.294592 0.000000 0.598555
O O5 0.091266 0.500000 0.500000
O O6 0.116474 0.205423 0.418401
O O7 0.000000 0.249730 0.500000
O O8 0.073602 0.500000 0.133501
O O9 0.145828 0.213076 0.124875
O O10 0.100479 0.298193 0.264079
O O11 0.000000 0.218613 0.155387
O O12 0.500000 0.732952 0.695076
O O13 0.590534 0.717100 0.818842
O O14 0.581356 0.000000 0.724909
O O15 0.708226 0.207013 0.878936
O O16 0.603454 0.000000 0.909378
O O17 0.618689 0.281171 0.000000
O O18 0.778371 0.500000 0.862692
O O19 0.781220 0.689317 0.000000
O O20 0.839236 0.000000 0.703043
#
# Coordination Sequence:
#
# PCOD9387022 Si02
#       7
#     8   4   8   8   8   8   8
#     4   9  17  30  47  69  98 129 165 210 254 295
#     4  11  23  37  53  75 104 133 164 210 261 303
#     4  10  21  35  50  72 103 135 169 213 263 309
#     4   9  17  28  45  72 103 134 167 203 249 305
#     4   9  17  30  49  74 104 134 164 205 256 305
#     4   9  18  33  53  75  99 132 175 216 253 302
#     4  11  21  35  54  75 101 134 171 210 253 308
#
# _framework density 22.882628
#
# number of rings (size 3 to 8) (size 9 to 14) (size 15 to 20)
#    0.000    2.385    0.769    2.077    0.000    5.538 
#    0.000    4.615    0.000    0.462    0.000    5.385 
#    0.000    0.615    0.000    0.000    0.000    0.000 
#
# Total GULP energy -290034.371112 kJ/mol
# GULP energy per Si atom -5577.584060 kJ/mol
# Density = 2.283055 g / cm^3
# Si number density = 22.882628 Si / 1000 Ang^3
#
#
#
# Elastic Constant Matrix: (Units=GPa)
#
#
# Indices 1 2 3 4 5 6 
#
# 1 108.6703 14.4135 2.3927 0.0000 0.0000 0.0000
# 2 14.4135 58.8952 4.3649 0.0000 0.0000 0.0000
# 3 2.3927 4.3649 28.3901 0.0000 0.0000 0.0000
# 4 0.0000 0.0000 0.0000 13.7184 0.0000 0.0000
# 5 0.0000 0.0000 0.0000 0.0000 50.2417 0.0000
# 6 0.0000 0.0000 0.0000 0.0000 0.0000 8.5122
#
#
#
# Elastic Compliance Matrix: (Units=1/GPa)
#
#
# Indices 1 2 3 4 5 6 
#
# 1 0.009517 -0.002296 -0.000449 0.000000 0.000000 0.000000
# 2 -0.002296 0.017729 -0.002532 0.000000 0.000000 0.000000
# 3 -0.000449 -0.002532 0.035651 0.000000 0.000000 0.000000
# 4 0.000000 0.000000 0.000000 0.072895 0.000000 0.000000
# 5 0.000000 0.000000 0.000000 0.000000 0.019904 0.000000
# 6 0.000000 0.000000 0.000000 0.000000 0.000000 0.117478
#
#
# Mechanical properties :
#
#
# Convention : Reuss Voigt Hill
#
# Bulk Modulus (GPa) = 19.10516 26.47754 22.79135
# Shear Modulus (GPa) = 16.60170 26.14678 21.37424
#
# Velocity S-wave (km/s) = 2.69646 3.38397 3.05959
# Velocity P-wave (km/s) = 4.24993 5.18310 4.73953
#
# Compressibility (1/GPa) = 0.05234187
#
# Stress axis : x y z
#
# Youngs Moduli (GPa) = 105.08041 56.40536 28.04997
#
# Poissons Ratio (x) = 0.12949 0.01260
# Poissons Ratio (y) = 0.24123 0.07103
# Poissons Ratio (z) = 0.04719 0.14283
#
# Static dielectric constant tensor:
#      x y z
#    x 1.835140 0.000000 0.000000 
#    y 0.000000 1.758860 0.000000 
#    z 0.000000 0.000000 1.847830 
# 
# From -- ./inp_files/25017.got.cif
#   From: 2010.05.17/outbox.cif.g08.bks.cpg/sg47_13_cif.got.tgz:25017.got - 2010.06.03 20:15:42.
