data_PCOD9387921
_publ_section_title
;
Structure prediction by ZEFSAII (Michael W. Deem and Ramdas Pophale) SiO2 
 PCOD9387921
Probable space group: P M M M
;
_chemical_formula_sum "Si O2"
_cell_formula_units_Z 56
_cell_length_a 21.806823
_cell_length_b 8.838149
_cell_length_c 15.743931
_cell_angle_alpha 90.000000
_cell_angle_beta 90.000000
_cell_angle_gamma 90.000000
_cell_volume 3034.358536
_symmetry_space_group_name_H-M "P M M M"
_symmetry_group_IT_number 47
_symmetry_cell_setting 'orthorhombic'
loop_
_space_group_symop_operation_xyz
x,y,z
-x,-y,z
x,-y,-z
-x,y,-z
-x,-y,-z
x,y,-z
-x,y,z
x,-y,z
loop_
_atom_site_type_symbol
_atom_site_label
_atom_site_fract_x
_atom_site_fract_y
_atom_site_fract_z
Si Si1 0.850908 0.818813 0.250134
Si Si2 0.928415 0.682157 0.902361
Si Si3 0.071382 0.317743 0.402401
Si Si4 0.624833 0.818973 0.595397
Si Si5 0.372456 0.680130 0.096168
Si Si6 0.500000 0.180862 0.152707
Si Si7 0.708777 0.182490 0.245120
Si Si8 0.500000 0.319965 0.341184
O O1 0.885584 0.757972 0.167006
O O2 0.885158 0.756060 0.333081
O O3 0.779691 0.771836 0.248920
O O4 0.853301 0.000000 0.251152
O O5 0.923509 0.500000 0.895544
O O6 0.000000 0.720952 0.887156
O O7 0.913537 0.723624 0.000000
O O8 0.085986 0.275437 0.500000
O O9 0.075556 0.500000 0.396236
O O10 0.000000 0.277382 0.386387
O O11 0.647421 0.788709 0.500000
O O12 0.672742 0.776333 0.668626
O O13 0.561040 0.734351 0.611260
O O14 0.613723 0.000000 0.602615
O O15 0.379008 0.500000 0.107319
O O16 0.438671 0.756040 0.109659
O O17 0.326397 0.744809 0.166043
O O18 0.351112 0.709799 0.000000
O O19 0.500000 0.240283 0.249331
O O20 0.500000 0.000000 0.151553
O O21 0.705897 0.000000 0.236957
O O22 0.500000 0.500000 0.330867
#
# Coordination Sequence:
#
# PCOD9387921 Si02
#       8
#     8   8   8   8   8   4   8   4
#     4  11  23  36  55  86 120 153 192 237 289 345
#     4   9  19  37  60  84 111 148 194 239 286 344
#     4   9  19  37  60  85 114 151 195 240 287 343
#     4  10  21  39  62  84 109 149 196 235 281 344
#     4  11  24  41  62  89 118 148 188 241 293 337
#     4  12  23  38  63  90 118 152 189 231 286 349
#     4  10  23  41  58  80 115 159 197 232 278 340
#     4  12  23  36  59  90 120 146 183 239 292 337
#
# _framework density 18.455300999999999
#
# number of rings (size 3 to 8) (size 9 to 14) (size 15 to 20)
#    0.000    1.714    1.429    3.857    0.000    8.286 
#    0.000    5.714    0.000    0.000    0.000    0.000 
#    0.000    0.000    0.000    0.000    0.000    0.000 
#
# Total GULP energy -312931.049096 kJ/mol
# GULP energy per Si atom -5588.054448 kJ/mol
# Density = 1.841330 g / cm^3
# Si number density = 18.455301 Si / 1000 Ang^3
#
#
#
# Elastic Constant Matrix: (Units=GPa)
#
#
# Indices 1 2 3 4 5 6 
#
# 1 163.1970 59.8684 117.4687 0.0000 0.0000 0.0000
# 2 59.8684 47.7610 65.8733 0.0000 0.0000 0.0000
# 3 117.4687 65.8733 176.0856 0.0000 0.0000 0.0000
# 4 0.0000 0.0000 0.0000 13.3659 0.0000 0.0000
# 5 0.0000 0.0000 0.0000 0.0000 -8.1499 0.0000
# 6 0.0000 0.0000 0.0000 0.0000 0.0000 53.9282
#
#
#
# Elastic Compliance Matrix: (Units=1/GPa)
#
#
# Indices 1 2 3 4 5 6 
#
# 1 0.013538 -0.009325 -0.005543 0.000000 0.000000 0.000000
# 2 -0.009325 0.049680 -0.012364 0.000000 0.000000 0.000000
# 3 -0.005543 -0.012364 0.014002 0.000000 0.000000 0.000000
# 4 0.000000 0.000000 0.000000 0.074817 0.000000 0.000000
# 5 0.000000 0.000000 0.000000 0.000000 -0.122700 0.000000
# 6 0.000000 0.000000 0.000000 0.000000 0.000000 0.018543
#
#
# Mechanical properties :
#
#
# Convention : Reuss Voigt Hill
#
# Bulk Modulus (GPa) = 43.94528 97.05158 70.49843
# Shear Modulus (GPa) = 45.48341 21.41772 33.45056
#
# Velocity S-wave (km/s) = 4.96978 3.41033 4.26199
# Velocity P-wave (km/s) = 7.53625 8.25886 7.90581
#
# Compressibility (1/GPa) = 0.02275557
#
# Stress axis : x y z
#
# Youngs Moduli (GPa) = 73.86425 20.12896 71.41698
#
# Poissons Ratio (x) = 0.18771 0.39587
# Poissons Ratio (y) = 0.68880 0.88301
# Poissons Ratio (z) = 0.40943 0.24888
#
# Static dielectric constant tensor:
#      x y z
#    x 1.607350 0.000000 0.000000 
#    y 0.000000 1.619550 0.000000 
#    z 0.000000 0.000000 1.630660 
# 
# From -- ./inp_files/25214.got.cif
#   From: 2010.05.17/outbox.cif.g08.bks.cpg/sg47_13_cif.got.tgz:25214.got - 2010.06.03 20:15:42.
