data_PCOD9387199
_publ_section_title
;
Structure prediction by ZEFSAII (Michael W. Deem and Ramdas Pophale) SiO2 
 PCOD9387199
Probable space group: P M M M
;
_chemical_formula_sum "Si O2"
_cell_formula_units_Z 48
_cell_length_a 14.755775
_cell_length_b 10.283892
_cell_length_c 17.823597
_cell_angle_alpha 90.000000
_cell_angle_beta 90.000000
_cell_angle_gamma 90.000000
_cell_volume 2704.673746
_symmetry_space_group_name_H-M "P M M M"
_symmetry_group_IT_number 47
_symmetry_cell_setting 'orthorhombic'
loop_
_space_group_symop_operation_xyz
x,y,z
-x,-y,z
x,-y,-z
-x,y,-z
-x,-y,-z
x,y,-z
-x,y,z
x,-y,z
loop_
_atom_site_type_symbol
_atom_site_label
_atom_site_fract_x
_atom_site_fract_y
_atom_site_fract_z
Si Si1 0.290940 0.750074 0.653851
Si Si2 0.104692 0.655412 0.590037
Si Si3 0.146727 0.855598 0.089797
Si Si4 0.394515 0.000000 0.589812
Si Si5 0.328515 0.151193 0.816238
Si Si6 0.000000 0.648318 0.908499
Si Si7 0.500000 0.158510 0.913425
Si Si8 0.607160 0.500000 0.410181
O O1 0.185191 0.731743 0.631741
O O2 0.306295 0.767812 0.742382
O O3 0.343931 0.625408 0.623170
O O4 0.338884 0.874550 0.616523
O O5 0.114716 0.674313 0.500000
O O6 0.115311 0.500000 0.603924
O O7 0.000000 0.690080 0.609780
O O8 0.242367 0.848960 0.129768
O O9 0.085331 0.735473 0.114585
O O10 0.107567 0.000000 0.105706
O O11 0.156937 0.847725 0.000000
O O12 0.500000 0.000000 0.617280
O O13 0.398219 0.000000 0.500000
O O14 0.412812 0.198271 0.865479
O O15 0.346170 0.000000 0.793625
O O16 0.000000 0.500000 0.881681
O O17 0.000000 0.644847 0.000000
O O18 0.500000 0.000000 0.916377
O O19 0.500000 0.203122 0.000000
O O20 0.500000 0.500000 0.393661
O O21 0.618309 0.500000 0.500000
#
# Coordination Sequence:
#
# PCOD9387199 Si02
#       8
#     8   8   8   4   8   4   4   4
#     4  12  22  38  60  87 122 158 195 250 305 355
#     4   9  18  36  62  86 110 149 204 260 305 352
#     4   9  17  33  57  81 107 147 195 232 276 345
#     4  11  24  38  59  87 121 163 197 230 295 369
#     4  10  21  35  55  85 121 153 184 240 297 340
#     4   9  17  31  53  83 113 141 180 237 292 341
#     4   9  18  34  60  89 116 153 201 241 279 341
#     4  11  24  40  61  87 117 155 205 248 279 345
#
# _framework density 17.747057000000002
#
# number of rings (size 3 to 8) (size 9 to 14) (size 15 to 20)
#    0.000    2.000    1.667    3.250    2.333    4.333 
#    3.000    0.417    0.000    1.500    0.000    0.583 
#    0.000    0.000    0.000    0.000    0.000    0.000 
#
# Total GULP energy -267741.977560 kJ/mol
# GULP energy per Si atom -5577.957866 kJ/mol
# Density = 1.770666 g / cm^3
# Si number density = 17.747057 Si / 1000 Ang^3
#
#
#
# Elastic Constant Matrix: (Units=GPa)
#
#
# Indices 1 2 3 4 5 6 
#
# 1 170.3814 71.9355 75.5927 0.0000 0.0000 0.0000
# 2 71.9355 120.8638 40.1057 0.0000 0.0000 0.0000
# 3 75.5927 40.1057 70.9869 0.0000 0.0000 0.0000
# 4 0.0000 0.0000 0.0000 24.4507 0.0000 0.0000
# 5 0.0000 0.0000 0.0000 0.0000 24.5665 0.0000
# 6 0.0000 0.0000 0.0000 0.0000 0.0000 46.8772
#
#
#
# Elastic Compliance Matrix: (Units=1/GPa)
#
#
# Indices 1 2 3 4 5 6 
#
# 1 0.012317 -0.003666 -0.011046 0.000000 0.000000 0.000000
# 2 -0.003666 0.011274 -0.002466 0.000000 0.000000 0.000000
# 3 -0.011046 -0.002466 0.027242 0.000000 0.000000 0.000000
# 4 0.000000 0.000000 0.000000 0.040899 0.000000 0.000000
# 5 0.000000 0.000000 0.000000 0.000000 0.040706 0.000000
# 6 0.000000 0.000000 0.000000 0.000000 0.000000 0.021332
#
#
# Mechanical properties :
#
#
# Convention : Reuss Voigt Hill
#
# Bulk Modulus (GPa) = 60.68163 81.94446 71.31304
# Shear Modulus (GPa) = 25.82406 30.81875 28.32141
#
# Velocity S-wave (km/s) = 3.81874 4.17172 3.99913
# Velocity P-wave (km/s) = 7.32874 8.33535 7.84820
#
# Compressibility (1/GPa) = 0.01647945
#
# Stress axis : x y z
#
# Youngs Moduli (GPa) = 81.18534 88.70120 36.70755
#
# Poissons Ratio (x) = 0.32517 0.40546
# Poissons Ratio (y) = 0.29762 0.09051
# Poissons Ratio (z) = 0.89674 0.21871
#
# Static dielectric constant tensor:
#      x y z
#    x 2.018400 0.000000 0.000000 
#    y 0.000000 1.602920 0.000000 
#    z 0.000000 0.000000 1.582440 
# 
# From -- ./inp_files/28087.got.cif
#   From: 2010.05.17/outbox.cif.g08.bks.cpg/sg47_15_cif.got.tgz:28087.got - 2010.06.03 20:15:42.
