data_PCOD9387277
_publ_section_title
;
Structure prediction by ZEFSAII (Michael W. Deem and Ramdas Pophale) SiO2 
 PCOD9387277
Probable space group: P M M M
;
_chemical_formula_sum "Si O2"
_cell_formula_units_Z 64
_cell_length_a 8.873499
_cell_length_b 25.125290
_cell_length_c 15.732908
_cell_angle_alpha 90.000000
_cell_angle_beta 90.000000
_cell_angle_gamma 90.000000
_cell_volume 3507.639814
_symmetry_space_group_name_H-M "P M M M"
_symmetry_group_IT_number 47
_symmetry_cell_setting 'orthorhombic'
loop_
_space_group_symop_operation_xyz
x,y,z
-x,-y,z
x,-y,-z
-x,y,-z
-x,-y,-z
x,y,-z
-x,y,z
x,-y,z
loop_
_atom_site_type_symbol
_atom_site_label
_atom_site_fract_x
_atom_site_fract_y
_atom_site_fract_z
Si Si1 0.321064 0.344597 0.908699
Si Si2 0.319871 0.231553 0.728983
Si Si3 0.818677 0.559733 0.402247
Si Si4 0.675508 0.935279 0.906966
Si Si5 0.679180 0.357153 0.724939
Si Si6 0.182357 0.849465 0.401414
Si Si7 0.181128 0.061207 0.269366
Si Si8 0.179648 0.228022 0.093561
O O1 0.500000 0.329785 0.903068
O O2 0.285508 0.374598 0.821935
O O3 0.225893 0.290373 0.909161
O O4 0.298571 0.371710 0.000000
O O5 0.500000 0.226969 0.729711
O O6 0.281029 0.294377 0.720477
O O7 0.250153 0.199623 0.650733
O O8 0.257041 0.209641 0.819151
O O9 0.770812 0.568079 0.500000
O O10 0.769393 0.500000 0.376461
O O11 0.759155 0.605690 0.342163
O O12 0.000000 0.560227 0.401002
O O13 0.500000 0.919845 0.901658
O O14 0.760609 0.918581 0.821972
O O15 0.680784 0.000000 0.906892
O O16 0.735529 0.918656 0.000000
O O17 0.500000 0.360938 0.712031
O O18 0.228808 0.851227 0.500000
O O19 0.228320 0.901503 0.347194
O O20 0.000000 0.846345 0.399362
O O21 0.000000 0.061174 0.266425
O O22 0.231869 0.000000 0.280817
O O23 0.000000 0.221848 0.100525
O O24 0.227551 0.206614 0.000000
#
# Coordination Sequence:
#
# PCOD9387277 Si02
#       8
#     8   8   8   8   8   8   8   8
#     4   8  14  26  44  68 101 137 169 202 243 292
#     4  10  21  36  53  75 105 138 171 208 250 300
#     4   9  19  35  52  71  97 129 165 206 253 302
#     4   8  14  26  46  73 104 135 164 195 236 290
#     4   9  18  31  50  77 102 128 165 205 245 291
#     4  10  22  39  56  74  99 132 169 211 260 309
#     4   9  18  33  54  79 103 128 163 207 252 299
#     4   9  16  27  47  75 104 133 167 207 248 293
#
# _framework density 18.245888000000001
#
# number of rings (size 3 to 8) (size 9 to 14) (size 15 to 20)
#    0.000    3.000    0.000    2.250    0.000    5.500 
#    0.000    6.250    0.000    1.125    0.000    5.250 
#    0.000    0.000    0.000    0.000    0.000    0.000 
#
# Total GULP energy -356519.032371 kJ/mol
# GULP energy per Si atom -5570.609881 kJ/mol
# Density = 1.820436 g / cm^3
# Si number density = 18.245888 Si / 1000 Ang^3
#
#
#
# Elastic Constant Matrix: (Units=GPa)
#
#
# Indices 1 2 3 4 5 6 
#
# 1 17.2849 27.1025 43.7375 0.0000 0.0000 0.0000
# 2 27.1025 81.1281 75.9447 0.0000 0.0000 0.0000
# 3 43.7375 75.9447 196.1716 0.0000 0.0000 0.0000
# 4 0.0000 0.0000 0.0000 110.6488 0.0000 0.0000
# 5 0.0000 0.0000 0.0000 0.0000 14.8396 0.0000
# 6 0.0000 0.0000 0.0000 0.0000 0.0000 11.7947
#
#
#
# Elastic Compliance Matrix: (Units=1/GPa)
#
#
# Indices 1 2 3 4 5 6 
#
# 1 0.180706 -0.035529 -0.026535 0.000000 0.000000 0.000000
# 2 -0.035529 0.026318 -0.002267 0.000000 0.000000 0.000000
# 3 -0.026535 -0.002267 0.011891 0.000000 0.000000 0.000000
# 4 0.000000 0.000000 0.000000 0.009038 0.000000 0.000000
# 5 0.000000 0.000000 0.000000 0.000000 0.067387 0.000000
# 6 0.000000 0.000000 0.000000 0.000000 0.000000 0.084784
#
#
# Mechanical properties :
#
#
# Convention : Reuss Voigt Hill
#
# Bulk Modulus (GPa) = 11.07994 65.35045 38.21519
# Shear Modulus (GPa) = 9.27868 37.30995 23.29431
#
# Velocity S-wave (km/s) = 2.25752 4.52690 3.57695
# Velocity P-wave (km/s) = 3.58900 7.95098 6.16843
#
# Compressibility (1/GPa) = 0.09025319
#
# Stress axis : x y z
#
# Youngs Moduli (GPa) = 5.53385 37.99748 84.09474
#
# Poissons Ratio (x) = 1.35001 2.23145
# Poissons Ratio (y) = 0.19661 0.19065
# Poissons Ratio (z) = 0.14684 0.08614
#
# Static dielectric constant tensor:
#      x y z
#    x 1.615310 0.000000 0.000000 
#    y 0.000000 1.631950 0.000000 
#    z 0.000000 0.000000 1.650650 
# 
# From -- ./inp_files/21919.got.cif
#   From: 2010.05.17/outbox.cif.g08.bks.cpg/sg47_11_cif.got.tgz:21919.got - 2010.06.03 20:15:42.
