data_PCOD9387540
_publ_section_title
;
Structure prediction by ZEFSAII (Michael W. Deem and Ramdas Pophale) SiO2 
 PCOD9387540
Probable space group: P M M M
;
_chemical_formula_sum "Si O2"
_cell_formula_units_Z 52
_cell_length_a 19.446094
_cell_length_b 17.500921
_cell_length_c 7.845623
_cell_angle_alpha 90.000000
_cell_angle_beta 90.000000
_cell_angle_gamma 90.000000
_cell_volume 2670.058155
_symmetry_space_group_name_H-M "P M M M"
_symmetry_group_IT_number 47
_symmetry_cell_setting 'orthorhombic'
loop_
_space_group_symop_operation_xyz
x,y,z
-x,-y,z
x,-y,-z
-x,y,-z
-x,-y,-z
x,y,-z
-x,y,z
x,-y,z
loop_
_atom_site_type_symbol
_atom_site_label
_atom_site_fract_x
_atom_site_fract_y
_atom_site_fract_z
Si Si1 0.874127 0.000000 0.297741
Si Si2 0.417701 0.588771 0.500000
Si Si3 0.283226 0.000000 0.297090
Si Si4 0.655428 0.677448 0.196570
Si Si5 0.713318 0.835324 0.203181
Si Si6 0.128890 0.164748 0.204263
Si Si7 0.786135 0.588108 0.700679
Si Si8 0.075981 0.672011 0.206810
O O1 0.903349 0.917773 0.245979
O O2 0.871058 0.000000 0.500000
O O3 0.795464 0.000000 0.226211
O O4 0.394794 0.500000 0.500000
O O5 0.500000 0.590641 0.500000
O O6 0.389543 0.630417 0.669160
O O7 0.314701 0.919668 0.241351
O O8 0.279626 0.000000 0.500000
O O9 0.667479 0.764272 0.260144
O O10 0.731207 0.639532 0.201217
O O11 0.630343 0.676266 0.000000
O O12 0.792055 0.831816 0.271899
O O13 0.718436 0.826567 0.000000
O O14 0.089691 0.240361 0.262446
O O15 0.132228 0.168617 0.000000
O O16 0.769201 0.592953 0.500000
O O17 0.781557 0.500000 0.754131
O O18 0.862295 0.620160 0.728107
O O19 0.000000 0.647441 0.261082
O O20 0.078181 0.670543 0.000000
#
# Coordination Sequence:
#
# PCOD9387540 Si02
#       8
#     4   4   4   8   8   8   8   8
#     4   9  17  27  42  68  97 132 179 228 282 344
#     4  11  26  46  66  95 134 168 202 246 296 358
#     4   9  17  25  43  78 118 154 187 235 298 352
#     4  11  22  39  66  96 125 163 206 250 301 355
#     4   9  17  30  51  81 116 152 195 245 296 351
#     4   9  16  30  48  69  99 138 182 233 291 347
#     4  11  23  38  58  84 114 148 192 248 303 358
#     4  10  21  37  55  76 105 145 195 247 301 360
#
# _framework density 19.475231999999998
#
# number of rings (size 3 to 8) (size 9 to 14) (size 15 to 20)
#    0.000    2.077    2.308    1.385    1.077    5.538 
#    0.000    2.692    0.000    2.308    0.000    1.077 
#    0.000    2.462    0.000    0.000    0.000    0.000 
#
# Total GULP energy -290199.768052 kJ/mol
# GULP energy per Si atom -5580.764770 kJ/mol
# Density = 1.943091 g / cm^3
# Si number density = 19.475232 Si / 1000 Ang^3
#
#
#
# Elastic Constant Matrix: (Units=GPa)
#
#
# Indices 1 2 3 4 5 6 
#
# 1 52.5873 24.8258 17.0351 0.0000 0.0000 0.0000
# 2 24.8258 128.9841 18.3028 0.0000 0.0000 0.0000
# 3 17.0351 18.3028 50.3552 0.0000 0.0000 0.0000
# 4 0.0000 0.0000 0.0000 28.5110 0.0000 0.0000
# 5 0.0000 0.0000 0.0000 0.0000 14.3705 0.0000
# 6 0.0000 0.0000 0.0000 0.0000 0.0000 18.8943
#
#
#
# Elastic Compliance Matrix: (Units=1/GPa)
#
#
# Indices 1 2 3 4 5 6 
#
# 1 0.022735 -0.003463 -0.006432 0.000000 0.000000 0.000000
# 2 -0.003463 0.008702 -0.001991 0.000000 0.000000 0.000000
# 3 -0.006432 -0.001991 0.022759 0.000000 0.000000 0.000000
# 4 0.000000 0.000000 0.000000 0.035074 0.000000 0.000000
# 5 0.000000 0.000000 0.000000 0.000000 0.069587 0.000000
# 6 0.000000 0.000000 0.000000 0.000000 0.000000 0.052926
#
#
# Mechanical properties :
#
#
# Convention : Reuss Voigt Hill
#
# Bulk Modulus (GPa) = 32.87116 39.13933 36.00524
# Shear Modulus (GPa) = 20.35028 23.80601 22.07814
#
# Velocity S-wave (km/s) = 3.23605 3.50004 3.37063
# Velocity P-wave (km/s) = 5.55677 6.03940 5.80310
#
# Compressibility (1/GPa) = 0.03042181
#
# Stress axis : x y z
#
# Youngs Moduli (GPa) = 43.98591 114.91602 43.93899
#
# Poissons Ratio (x) = 0.39796 0.28263
# Poissons Ratio (y) = 0.15232 0.08750
# Poissons Ratio (z) = 0.28293 0.22885
#
# Static dielectric constant tensor:
#      x y z
#    x 1.666360 0.000000 0.000000 
#    y 0.000000 1.709330 0.000000 
#    z 0.000000 0.000000 1.694510 
# 
# From -- ./inp_files/9651.got.cif
#   From: 2010.05.17/outbox.cif.g08.bks.cpg/sg47_5_cif.got.tgz:9651.got - 2010.06.03 20:15:42.
