data_PCOD9387850
_publ_section_title
;
Structure prediction by ZEFSAII (Michael W. Deem and Ramdas Pophale) SiO2 
 PCOD9387850
Probable space group: P M M M
;
_chemical_formula_sum "Si O2"
_cell_formula_units_Z 44
_cell_length_a 7.613030
_cell_length_b 16.115431
_cell_length_c 15.688145
_cell_angle_alpha 90.000000
_cell_angle_beta 90.000000
_cell_angle_gamma 90.000000
_cell_volume 1924.735519
_symmetry_space_group_name_H-M "P M M M"
_symmetry_group_IT_number 47
_symmetry_cell_setting 'orthorhombic'
loop_
_space_group_symop_operation_xyz
x,y,z
-x,-y,z
x,-y,-z
-x,y,-z
-x,-y,-z
x,y,-z
-x,y,z
x,-y,z
loop_
_atom_site_type_symbol
_atom_site_label
_atom_site_fract_x
_atom_site_fract_y
_atom_site_fract_z
Si Si1 0.698316 0.315094 0.837262
Si Si2 0.799214 0.861621 0.903054
Si Si3 0.705389 0.910793 0.281804
Si Si4 0.285399 0.594785 0.333675
Si Si5 0.713986 0.232995 0.593887
Si Si6 0.199316 0.403019 0.000000
O O1 0.500000 0.287717 0.813946
O O2 0.793603 0.234120 0.872932
O O3 0.768559 0.367896 0.758249
O O4 0.699650 0.375032 0.917022
O O5 0.716180 0.904565 0.820693
O O6 0.000000 0.889747 0.907297
O O7 0.725391 0.869369 0.000000
O O8 0.500000 0.912643 0.304046
O O9 0.775998 0.829410 0.331257
O O10 0.783341 0.000000 0.307678
O O11 0.500000 0.590726 0.334855
O O12 0.224662 0.500000 0.348457
O O13 0.231392 0.670899 0.394359
O O14 0.765529 0.202865 0.500000
O O15 0.500000 0.234859 0.597252
O O16 0.183850 0.500000 0.000000
O O17 0.000000 0.367501 0.000000
#
# Coordination Sequence:
#
# PCOD9387850 Si02
#       6
#     8   8   8   8   8   4
#     4  11  20  33  54  77 107 148 196 244 288 337
#     4  11  23  38  58  83 113 148 189 235 292 353
#     4  10  21  38  60  86 115 148 189 235 285 342
#     4   9  17  29  48  78 113 146 184 230 280 334
#     4   9  17  31  53  83 118 151 185 231 287 340
#     4  11  23  35  47  73 114 153 196 245 293 349
#
# _framework density 22.860282999999999
#
# number of rings (size 3 to 8) (size 9 to 14) (size 15 to 20)
#    0.000    1.909    2.727    1.909    0.000    4.000 
#    0.000    5.455    0.000    0.545    0.000    1.273 
#    0.000    1.455    0.000    0.000    0.000    0.000 
#
# Total GULP energy -245383.186930 kJ/mol
# GULP energy per Si atom -5576.890612 kJ/mol
# Density = 2.280825 g / cm^3
# Si number density = 22.860283 Si / 1000 Ang^3
#
#
#
# Elastic Constant Matrix: (Units=GPa)
#
#
# Indices 1 2 3 4 5 6 
#
# 1 49.8109 0.7169 -2.2056 0.0000 0.0000 0.0000
# 2 0.7169 160.3427 57.7973 0.0000 0.0000 0.0000
# 3 -2.2056 57.7973 136.7641 0.0000 0.0000 0.0000
# 4 0.0000 0.0000 0.0000 32.3143 0.0000 0.0000
# 5 0.0000 0.0000 0.0000 0.0000 -316.4350 0.0000
# 6 0.0000 0.0000 0.0000 0.0000 0.0000 -12.6558
#
#
#
# Elastic Compliance Matrix: (Units=1/GPa)
#
#
# Indices 1 2 3 4 5 6 
#
# 1 0.020098 -0.000244 0.000427 0.000000 0.000000 0.000000
# 2 -0.000244 0.007360 -0.003114 0.000000 0.000000 0.000000
# 3 0.000427 -0.003114 0.008635 0.000000 0.000000 0.000000
# 4 0.000000 0.000000 0.000000 0.030946 0.000000 0.000000
# 5 0.000000 0.000000 0.000000 0.000000 -0.003160 0.000000
# 6 0.000000 0.000000 0.000000 0.000000 0.000000 -0.079015
#
#
# Mechanical properties :
#
#
# Convention : Reuss Voigt Hill
#
# Bulk Modulus (GPa) = 33.07819 51.05943 42.06881
# Shear Modulus (GPa) = 6221.10992 -39.98136 3090.56428
#
# Velocity S-wave (km/s) = 52.22327 -4.18658 36.80857
# Velocity P-wave (km/s) = 60.42235 0.99295 42.71928
#
# Compressibility (1/GPa) = 0.03023140
#
# Stress axis : x y z
#
# Youngs Moduli (GPa) = 49.75530 135.86261 115.80854
#
# Poissons Ratio (x) = 0.03313 -0.04947
# Poissons Ratio (y) = 0.01213 0.36068
# Poissons Ratio (z) = -0.02125 0.42314
#
# Static dielectric constant tensor:
#      x y z
#    x 8.876140 0.000000 0.000000 
#    y 0.000000 1.870330 0.000000 
#    z 0.000000 0.000000 1.833510 
# 
# From -- ./inp_files/20912.got.cif
#   From: 2010.05.17/outbox.cif.g08.bks.cpg/sg47_11_cif.got.tgz:20912.got - 2010.06.03 20:15:42.
