data_PCOD9387145
_publ_section_title
;
Structure prediction by ZEFSAII (Michael W. Deem and Ramdas Pophale) SiO2 
 PCOD9387145
Probable space group: P M M M
;
_chemical_formula_sum "Si O2"
_cell_formula_units_Z 36
_cell_length_a 9.944754
_cell_length_b 14.840844
_cell_length_c 13.967193
_cell_angle_alpha 90.000000
_cell_angle_beta 90.000000
_cell_angle_gamma 90.000000
_cell_volume 2061.397661
_symmetry_space_group_name_H-M "P M M M"
_symmetry_group_IT_number 47
_symmetry_cell_setting 'orthorhombic'
loop_
_space_group_symop_operation_xyz
x,y,z
-x,-y,z
x,-y,-z
-x,y,-z
-x,-y,-z
x,y,-z
-x,y,z
x,-y,z
loop_
_atom_site_type_symbol
_atom_site_label
_atom_site_fract_x
_atom_site_fract_y
_atom_site_fract_z
Si Si1 0.339610 0.671417 0.111940
Si Si2 0.251569 0.280624 0.695011
Si Si3 0.500000 0.394932 0.384776
Si Si4 0.344730 0.899040 0.614967
Si Si5 0.846013 0.500000 0.114668
Si Si6 0.000000 0.390903 0.615935
O O1 0.500000 0.654366 0.122968
O O2 0.285715 0.737604 0.193360
O O3 0.247429 0.585091 0.136337
O O4 0.318380 0.694964 0.000000
O O5 0.373362 0.340721 0.654234
O O6 0.252313 0.182860 0.646964
O O7 0.124807 0.341007 0.666030
O O8 0.500000 0.500000 0.355032
O O9 0.500000 0.392609 0.500000
O O10 0.346219 0.899994 0.500000
O O11 0.500000 0.881355 0.645841
O O12 0.307210 0.000000 0.647435
O O13 0.000000 0.500000 0.152778
O O14 0.859547 0.500000 0.000000
O O15 0.000000 0.500000 0.628390
O O16 0.000000 0.375870 0.500000
#
# Coordination Sequence:
#
# PCOD9387145 Si02
#       6
#     8   8   4   8   4   4
#     4  10  21  35  52  77 109 144 188 240 281 322
#     4  12  22  36  58  80 108 153 189 227 281 339
#     4  11  22  34  52  78 106 139 188 230 264 330
#     4   9  17  32  57  86 110 135 179 240 294 337
#     4   9  19  33  51  73 102 141 186 233 278 327
#     4  11  26  42  54  78 120 157 188 228 278 338
#
# _framework density 17.463878999999999
#
# number of rings (size 3 to 8) (size 9 to 14) (size 15 to 20)
#    0.000    1.667    2.222    3.667    4.667    3.111 
#    0.000    0.556    0.000    2.667    0.000    3.111 
#    0.000    1.778    0.000    0.000    0.000    0.000 
#
# Total GULP energy -200623.725153 kJ/mol
# GULP energy per Si atom -5572.881254 kJ/mol
# Density = 1.742413 g / cm^3
# Si number density = 17.463879 Si / 1000 Ang^3
#
#
#
# Elastic Constant Matrix: (Units=GPa)
#
#
# Indices 1 2 3 4 5 6 
#
# 1 123.6379 43.2569 33.7404 0.0000 0.0000 0.0000
# 2 43.2569 111.2612 29.4598 0.0000 0.0000 0.0000
# 3 33.7404 29.4598 93.4046 0.0000 0.0000 0.0000
# 4 0.0000 0.0000 0.0000 4.5048 0.0000 0.0000
# 5 0.0000 0.0000 0.0000 0.0000 21.2166 0.0000
# 6 0.0000 0.0000 0.0000 0.0000 0.0000 14.0500
#
#
#
# Elastic Compliance Matrix: (Units=1/GPa)
#
#
# Indices 1 2 3 4 5 6 
#
# 1 0.009899 -0.003166 -0.002577 0.000000 0.000000 0.000000
# 2 -0.003166 0.010820 -0.002269 0.000000 0.000000 0.000000
# 3 -0.002577 -0.002269 0.012353 0.000000 0.000000 0.000000
# 4 0.000000 0.000000 0.000000 0.221986 0.000000 0.000000
# 5 0.000000 0.000000 0.000000 0.000000 0.047133 0.000000
# 6 0.000000 0.000000 0.000000 0.000000 0.000000 0.071174
#
#
# Mechanical properties :
#
#
# Convention : Reuss Voigt Hill
#
# Bulk Modulus (GPa) = 58.66160 60.13533 59.39847
# Shear Modulus (GPa) = 12.65594 22.74405 17.70000
#
# Velocity S-wave (km/s) = 2.69493 3.61272 3.18704
# Velocity P-wave (km/s) = 6.58382 7.20494 6.90137
#
# Compressibility (1/GPa) = 0.01704693
#
# Stress axis : x y z
#
# Youngs Moduli (GPa) = 101.01784 92.42493 80.95434
#
# Poissons Ratio (x) = 0.29264 0.20864
# Poissons Ratio (y) = 0.31985 0.18366
# Poissons Ratio (z) = 0.26035 0.20969
#
# Static dielectric constant tensor:
#      x y z
#    x 1.633610 0.000000 0.000000 
#    y 0.000000 1.593900 0.000000 
#    z 0.000000 0.000000 1.660190 
# 
# From -- ./inp_files/20599.got.cif
#   From: 2010.05.17/outbox.cif.g08.bks.cpg/sg47_11_cif.got.tgz:20599.got - 2010.06.03 20:15:42.
