data_PCOD9387094
_publ_section_title
;
Structure prediction by ZEFSAII (Michael W. Deem and Ramdas Pophale) SiO2 
 PCOD9387094
Probable space group: P M M M
;
_chemical_formula_sum "Si O2"
_cell_formula_units_Z 56
_cell_length_a 9.413739
_cell_length_b 14.265616
_cell_length_c 21.653175
_cell_angle_alpha 90.000000
_cell_angle_beta 90.000000
_cell_angle_gamma 90.000000
_cell_volume 2907.865190
_symmetry_space_group_name_H-M "P M M M"
_symmetry_group_IT_number 47
_symmetry_cell_setting 'orthorhombic'
loop_
_space_group_symop_operation_xyz
x,y,z
-x,-y,z
x,-y,-z
-x,y,-z
-x,-y,-z
x,y,-z
-x,y,z
x,-y,z
loop_
_atom_site_type_symbol
_atom_site_label
_atom_site_fract_x
_atom_site_fract_y
_atom_site_fract_z
Si Si1 0.831814 0.889828 0.888898
Si Si2 0.331174 0.715119 0.068957
Si Si3 0.333612 0.111477 0.373304
Si Si4 0.834500 0.386516 0.177513
Si Si5 0.170271 0.270168 0.431728
Si Si6 0.827283 0.607826 0.314582
Si Si7 0.158163 0.113578 0.254354
O O1 0.736445 0.818712 0.926688
O O2 0.811216 0.863102 0.816557
O O3 0.000000 0.878811 0.902360
O O4 0.797702 0.000000 0.896910
O O5 0.500000 0.719165 0.078108
O O6 0.257580 0.654888 0.122446
O O7 0.303148 0.677102 0.000000
O O8 0.500000 0.131801 0.377129
O O9 0.245388 0.170830 0.422192
O O10 0.271167 0.138874 0.306057
O O11 0.313449 0.000000 0.380950
O O12 0.829457 0.500000 0.177370
O O13 0.786402 0.355748 0.246395
O O14 0.000000 0.358839 0.169274
O O15 0.202470 0.308649 0.500000
O O16 0.217827 0.334331 0.374387
O O17 0.000000 0.259558 0.427464
O O18 0.780426 0.500000 0.320088
O O19 0.000000 0.607053 0.313979
O O20 0.000000 0.149477 0.271029
O O21 0.150797 0.000000 0.254758
#
# Coordination Sequence:
#
# PCOD9387094 Si02
#       7
#     8   8   8   8   8   8   8
#     4   9  19  36  58  83 111 147 192 239 283 331
#     4  11  25  40  54  80 119 158 192 231 283 340
#     4  10  21  35  51  74 108 150 192 233 277 326
#     4   9  19  38  64  89 111 141 186 239 289 338
#     4  10  21  35  54  83 115 148 186 228 277 331
#     4   8  16  34  60  88 114 139 174 225 281 334
#     4   8  15  30  52  77 103 133 175 228 281 326
#
# _framework density 19.258113999999999
#
# number of rings (size 3 to 8) (size 9 to 14) (size 15 to 20)
#    0.000    2.714    0.000    2.571    2.000    4.571 
#    0.000    7.143    0.000    1.286    0.000    1.000 
#    0.000    0.000    0.000    0.000    0.000    0.000 
#
# Total GULP energy -312484.931581 kJ/mol
# GULP energy per Si atom -5580.088064 kJ/mol
# Density = 1.921428 g / cm^3
# Si number density = 19.258114 Si / 1000 Ang^3
#
#
#
# Elastic Constant Matrix: (Units=GPa)
#
#
# Indices 1 2 3 4 5 6 
#
# 1 43.3170 33.3380 64.7908 0.0000 0.0000 0.0000
# 2 33.3380 59.3309 53.5306 0.0000 0.0000 0.0000
# 3 64.7908 53.5306 155.6504 0.0000 0.0000 0.0000
# 4 0.0000 0.0000 0.0000 19.9955 0.0000 0.0000
# 5 0.0000 0.0000 0.0000 0.0000 -113.8619 0.0000
# 6 0.0000 0.0000 0.0000 0.0000 0.0000 13.6530
#
#
#
# Elastic Compliance Matrix: (Units=1/GPa)
#
#
# Indices 1 2 3 4 5 6 
#
# 1 0.074848 -0.020221 -0.024202 0.000000 0.000000 0.000000
# 2 -0.020221 0.029901 -0.001866 0.000000 0.000000 0.000000
# 3 -0.024202 -0.001866 0.017141 0.000000 0.000000 0.000000
# 4 0.000000 0.000000 0.000000 0.050011 0.000000 0.000000
# 5 0.000000 0.000000 0.000000 0.000000 -0.008783 0.000000
# 6 0.000000 0.000000 0.000000 0.000000 0.000000 0.073244
#
#
# Mechanical properties :
#
#
# Convention : Reuss Voigt Hill
#
# Bulk Modulus (GPa) = 34.11687 62.40192 48.25939
# Shear Modulus (GPa) = 14.76190 -8.93341 2.91425
#
# Velocity S-wave (km/s) = 2.77163 -2.15612 1.23148
# Velocity P-wave (km/s) = 5.29118 5.12590 5.20919
#
# Compressibility (1/GPa) = 0.02931101
#
# Stress axis : x y z
#
# Youngs Moduli (GPa) = 13.36042 33.44424 58.34129
#
# Poissons Ratio (x) = 0.67629 1.41196
# Poissons Ratio (y) = 0.27017 0.10886
# Poissons Ratio (z) = 0.32334 0.06240
#
# Static dielectric constant tensor:
#      x y z
#    x 1.627100 0.000000 0.000000 
#    y 0.000000 1.704580 0.000000 
#    z 0.000000 0.000000 1.692280 
# 
# From -- ./inp_files/7338.got.cif
#   From: 2010.05.17/outbox.cif.g08.bks.cpg/sg47_4_cif.got.tgz:7338.got - 2010.06.03 20:15:42.
