data_PCOD9387028
_publ_section_title
;
Structure prediction by ZEFSAII (Michael W. Deem and Ramdas Pophale) SiO2 
 PCOD9387028
Probable space group: P M M M
;
_chemical_formula_sum "Si O2"
_cell_formula_units_Z 40
_cell_length_a 8.497266
_cell_length_b 9.575899
_cell_length_c 26.718387
_cell_angle_alpha 90.000000
_cell_angle_beta 90.000000
_cell_angle_gamma 90.000000
_cell_volume 2174.047390
_symmetry_space_group_name_H-M "P M M M"
_symmetry_group_IT_number 47
_symmetry_cell_setting 'orthorhombic'
loop_
_space_group_symop_operation_xyz
x,y,z
-x,-y,z
x,-y,-z
-x,y,-z
-x,-y,-z
x,y,-z
-x,y,z
x,-y,z
loop_
_atom_site_type_symbol
_atom_site_label
_atom_site_fract_x
_atom_site_fract_y
_atom_site_fract_z
Si Si1 0.809129 0.837884 0.890664
Si Si2 0.689953 0.161667 0.298305
Si Si3 0.811712 0.161433 0.592441
Si Si4 0.688328 0.339907 0.500000
Si Si5 0.309610 0.339207 0.202489
Si Si6 0.818033 0.830186 0.000000
O O1 0.749795 0.742040 0.846170
O O2 0.000000 0.835595 0.892042
O O3 0.762058 0.000000 0.882672
O O4 0.750048 0.790892 0.945903
O O5 0.500000 0.166188 0.300615
O O6 0.755533 0.204473 0.352295
O O7 0.742683 0.258350 0.252594
O O8 0.736672 0.000000 0.289321
O O9 0.746184 0.258691 0.549032
O O10 0.000000 0.163543 0.590661
O O11 0.759298 0.000000 0.584801
O O12 0.744936 0.500000 0.500000
O O13 0.500000 0.340581 0.500000
O O14 0.500000 0.336830 0.202142
O O15 0.257920 0.500000 0.202634
O O16 0.000000 0.782762 0.000000
O O17 0.820609 0.000000 0.000000
#
# Coordination Sequence:
#
# PCOD9387028 Si02
#       6
#     8   8   8   4   8   4
#     4   9  17  31  53  77  99 127 167 214 260 307
#     4   9  18  34  55  76 100 135 177 216 254 300
#     4  10  21  37  58  84 111 137 169 213 262 308
#     4  11  24  39  56  80 110 145 182 215 250 298
#     4  10  21  35  50  72 105 141 173 208 253 305
#     4   7  12  26  48  73  98 124 160 209 260 305
#
# _framework density 18.398864
#
# number of rings (size 3 to 8) (size 9 to 14) (size 15 to 20)
#    0.000    2.600    0.000    3.000    0.000    6.400 
#    0.000    5.000    0.000    4.800    0.000    0.000 
#    0.000    0.000    0.000    0.000    0.000    0.000 
#
# Total GULP energy -223120.961305 kJ/mol
# GULP energy per Si atom -5578.024033 kJ/mol
# Density = 1.835699 g / cm^3
# Si number density = 18.398864 Si / 1000 Ang^3
#
#
#
# Elastic Constant Matrix: (Units=GPa)
#
#
# Indices 1 2 3 4 5 6 
#
# 1 11.0960 24.1371 31.4521 0.0000 0.0000 0.0000
# 2 24.1371 114.8504 125.6201 0.0000 0.0000 0.0000
# 3 31.4521 125.6201 224.1543 0.0000 0.0000 0.0000
# 4 0.0000 0.0000 0.0000 -9.7696 0.0000 0.0000
# 5 0.0000 0.0000 0.0000 0.0000 33.0830 0.0000
# 6 0.0000 0.0000 0.0000 0.0000 0.0000 20.9596
#
#
#
# Elastic Compliance Matrix: (Units=1/GPa)
#
#
# Indices 1 2 3 4 5 6 
#
# 1 0.174547 -0.025566 -0.010164 0.000000 0.000000 0.000000
# 2 -0.025566 0.026242 -0.011119 0.000000 0.000000 0.000000
# 3 -0.010164 -0.011119 0.012119 0.000000 0.000000 0.000000
# 4 0.000000 0.000000 0.000000 -0.102358 0.000000 0.000000
# 5 0.000000 0.000000 0.000000 0.000000 0.030227 0.000000
# 6 0.000000 0.000000 0.000000 0.000000 0.000000 0.047711
#
#
# Mechanical properties :
#
#
# Convention : Reuss Voigt Hill
#
# Bulk Modulus (GPa) = 8.38860 79.16883 43.77871
# Shear Modulus (GPa) = 15.53174 20.11402 17.82288
#
# Velocity S-wave (km/s) = 2.90861 3.30998 3.11576
# Velocity P-wave (km/s) = 3.98111 7.59806 6.06547
#
# Compressibility (1/GPa) = 0.11920941
#
# Stress axis : x y z
#
# Youngs Moduli (GPa) = 5.72911 38.10733 82.51784
#
# Poissons Ratio (x) = 0.97427 0.83868
# Poissons Ratio (y) = 0.14647 0.91751
# Poissons Ratio (z) = 0.05823 0.42371
#
# Static dielectric constant tensor:
#      x y z
#    x 1.636150 0.000000 0.000000 
#    y 0.000000 1.617770 0.000000 
#    z 0.000000 0.000000 1.624510 
# 
# From -- ./inp_files/1786.got.cif
#   From: 2010.05.17/outbox.cif.g08.bks.cpg/sg47_1_cif.got.tgz:1786.got - 2010.06.03 20:15:42.
