data_PCOD9387653
_publ_section_title
;
Structure prediction by ZEFSAII (Michael W. Deem and Ramdas Pophale) SiO2 
 PCOD9387653
Probable space group: P M M M
;
_chemical_formula_sum "Si O2"
_cell_formula_units_Z 64
_cell_length_a 9.244768
_cell_length_b 14.324317
_cell_length_c 25.040161
_cell_angle_alpha 90.000000
_cell_angle_beta 90.000000
_cell_angle_gamma 90.000000
_cell_volume 3315.943006
_symmetry_space_group_name_H-M "P M M M"
_symmetry_group_IT_number 47
_symmetry_cell_setting 'orthorhombic'
loop_
_space_group_symop_operation_xyz
x,y,z
-x,-y,z
x,-y,-z
-x,y,-z
-x,-y,-z
x,y,-z
-x,y,z
x,-y,z
loop_
_atom_site_type_symbol
_atom_site_label
_atom_site_fract_x
_atom_site_fract_y
_atom_site_fract_z
Si Si1 0.676159 0.290052 0.558739
Si Si2 0.666165 0.886009 0.266419
Si Si3 0.173639 0.233848 0.940183
Si Si4 0.670201 0.389044 0.881695
Si Si5 0.827039 0.109501 0.160325
Si Si6 0.165115 0.613894 0.772860
Si Si7 0.323879 0.105853 0.614703
Si Si8 0.331726 0.387506 0.332991
O O1 0.727015 0.319344 0.500000
O O2 0.500000 0.295048 0.557990
O O3 0.716828 0.183109 0.571664
O O4 0.721888 0.349679 0.610083
O O5 0.500000 0.855445 0.260783
O O6 0.756551 0.855373 0.215287
O O7 0.720675 0.861621 0.325750
O O8 0.666356 0.000000 0.266713
O O9 0.251771 0.330813 0.927542
O O10 0.218493 0.164252 0.892717
O O11 0.000000 0.245552 0.936760
O O12 0.207503 0.200495 0.000000
O O13 0.500000 0.368921 0.879760
O O14 0.688853 0.500000 0.888809
O O15 0.744822 0.362124 0.825565
O O16 0.000000 0.116635 0.164977
O O17 0.790198 0.000000 0.154576
O O18 0.162533 0.500000 0.771106
O O19 0.241328 0.644731 0.718234
O O20 0.000000 0.646742 0.777155
O O21 0.500000 0.103111 0.616377
O O22 0.274342 0.000000 0.604584
O O23 0.500000 0.359033 0.326353
O O24 0.328231 0.500000 0.334179
#
# Coordination Sequence:
#
# PCOD9387653 Si02
#       8
#     8   8   8   8   8   8   8   8
#     4   9  17  27  40  62  90 122 165 208 242 285
#     4   8  14  26  45  69  96 125 157 194 244 307
#     4  10  22  38  54  75 104 139 179 216 250 295
#     4  10  21  37  57  80 106 135 167 208 258 307
#     4   9  18  33  53  77 104 132 165 209 256 299
#     4   9  17  31  53  79 104 129 160 200 248 303
#     4   8  14  25  41  62  89 119 151 193 245 295
#     4   9  17  29  45  67  98 132 162 196 240 289
#
# _framework density 19.300695000000001
#
# number of rings (size 3 to 8) (size 9 to 14) (size 15 to 20)
#    0.000    3.000    0.000    1.500    0.000    5.000 
#    0.000    6.250    0.000    0.375    0.000    4.375 
#    0.000    0.000    0.000    6.000    0.000    6.250 
#
# Total GULP energy -356992.427818 kJ/mol
# GULP energy per Si atom -5578.006685 kJ/mol
# Density = 1.925677 g / cm^3
# Si number density = 19.300695 Si / 1000 Ang^3
#
#
#
# Elastic Constant Matrix: (Units=GPa)
#
#
# Indices 1 2 3 4 5 6 
#
# 1 16.8921 7.3460 14.0551 0.0000 0.0000 0.0000
# 2 7.3460 32.2208 7.4637 0.0000 0.0000 0.0000
# 3 14.0551 7.4637 88.0848 0.0000 0.0000 0.0000
# 4 0.0000 0.0000 0.0000 28.6749 0.0000 0.0000
# 5 0.0000 0.0000 0.0000 0.0000 48.3074 0.0000
# 6 0.0000 0.0000 0.0000 0.0000 0.0000 12.4604
#
#
#
# Elastic Compliance Matrix: (Units=1/GPa)
#
#
# Indices 1 2 3 4 5 6 
#
# 1 0.074349 -0.014487 -0.010636 0.000000 0.000000 0.000000
# 2 -0.014487 0.034480 -0.000610 0.000000 0.000000 0.000000
# 3 -0.010636 -0.000610 0.013101 0.000000 0.000000 0.000000
# 4 0.000000 0.000000 0.000000 0.034874 0.000000 0.000000
# 5 0.000000 0.000000 0.000000 0.000000 0.020701 0.000000
# 6 0.000000 0.000000 0.000000 0.000000 0.000000 0.080254
#
#
# Mechanical properties :
#
#
# Convention : Reuss Voigt Hill
#
# Bulk Modulus (GPa) = 14.19150 21.65858 17.92504
# Shear Modulus (GPa) = 15.02796 25.11073 20.06934
#
# Velocity S-wave (km/s) = 2.79341 3.61089 3.22813
# Velocity P-wave (km/s) = 4.21580 5.35077 4.81683
#
# Compressibility (1/GPa) = 0.07046470
#
# Stress axis : x y z
#
# Youngs Moduli (GPa) = 13.45009 29.00230 76.32724
#
# Poissons Ratio (x) = 0.42016 0.81181
# Poissons Ratio (y) = 0.19485 0.04656
# Poissons Ratio (z) = 0.14305 0.01769
#
# Static dielectric constant tensor:
#      x y z
#    x 1.647170 0.000000 0.000000 
#    y 0.000000 1.721910 0.000000 
#    z 0.000000 0.000000 1.663020 
# 
# From -- ./inp_files/25578.got.cif
#   From: 2010.05.17/outbox.cif.g08.bks.cpg/sg47_13_cif.got.tgz:25578.got - 2010.06.03 20:15:42.
