data_PCOD9387943
_publ_section_title
;
Structure prediction by ZEFSAII (Michael W. Deem and Ramdas Pophale) SiO2 
 PCOD9387943
Probable space group: P M M M
;
_chemical_formula_sum "Si O2"
_cell_formula_units_Z 48
_cell_length_a 9.208707
_cell_length_b 35.941523
_cell_length_c 7.516795
_cell_angle_alpha 90.000000
_cell_angle_beta 90.000000
_cell_angle_gamma 90.000000
_cell_volume 2487.870883
_symmetry_space_group_name_H-M "P M M M"
_symmetry_group_IT_number 47
_symmetry_cell_setting 'orthorhombic'
loop_
_space_group_symop_operation_xyz
x,y,z
-x,-y,z
x,-y,-z
-x,y,-z
-x,-y,-z
x,y,-z
-x,y,z
x,-y,z
loop_
_atom_site_type_symbol
_atom_site_label
_atom_site_fract_x
_atom_site_fract_y
_atom_site_fract_z
Si Si1 0.672246 0.455728 0.500000
Si Si2 0.834253 0.175553 0.713391
Si Si3 0.165685 0.742095 0.787699
Si Si4 0.665867 0.669659 0.783133
Si Si5 0.676915 0.042403 0.000000
Si Si6 0.172398 0.593735 0.212155
Si Si7 0.674192 0.898762 0.292073
O O1 0.693148 0.500000 0.500000
O O2 0.500000 0.447917 0.500000
O O3 0.746781 0.437067 0.328481
O O4 0.838935 0.173333 0.500000
O O5 0.774469 0.216481 0.756141
O O6 0.744790 0.139759 0.773321
O O7 0.000000 0.174051 0.781409
O O8 0.261675 0.708036 0.720066
O O9 0.000000 0.740770 0.717098
O O10 0.156450 0.737476 0.000000
O O11 0.500000 0.665765 0.722963
O O12 0.761431 0.633840 0.736053
O O13 0.663342 0.670776 0.000000
O O14 0.720375 0.066518 0.171728
O O15 0.500000 0.041066 0.000000
O O16 0.729238 0.000000 0.000000
O O17 0.000000 0.593114 0.244748
O O18 0.195927 0.588585 0.000000
O O19 0.711061 0.904386 0.500000
O O20 0.500000 0.895296 0.279647
#
# Coordination Sequence:
#
# PCOD9387943 Si02
#       7
#     4   8   8   8   4   8   8
#     4  11  25  43  63  91 125 157 195 245 299 357
#     4   9  18  32  48  68  97 134 173 212 259 314
#     4   9  17  29  46  69  98 134 176 221 265 314
#     4   9  17  31  52  78 109 145 185 229 280 335
#     4   9  18  32  51  77 103 127 163 209 257 313
#     4  10  21  39  64  90 118 157 200 243 293 350
#     4   9  18  32  50  72  98 129 164 206 255 306
#
# _framework density 19.293606
#
# number of rings (size 3 to 8) (size 9 to 14) (size 15 to 20)
#    0.000    2.667    0.000    1.250    1.167    5.000 
#    1.500    3.333    0.000    1.000    0.000    2.333 
#    0.000    0.000    0.000    0.000    0.000    0.000 
#
# Total GULP energy -267839.413476 kJ/mol
# GULP energy per Si atom -5579.987781 kJ/mol
# Density = 1.924969 g / cm^3
# Si number density = 19.293606 Si / 1000 Ang^3
#
#
#
# Elastic Constant Matrix: (Units=GPa)
#
#
# Indices 1 2 3 4 5 6 
#
# 1 86.9613 89.1691 42.7755 0.0000 0.0000 0.0000
# 2 89.1691 195.5322 61.1416 0.0000 0.0000 0.0000
# 3 42.7755 61.1416 76.6500 0.0000 0.0000 0.0000
# 4 0.0000 0.0000 0.0000 37.1120 0.0000 0.0000
# 5 0.0000 0.0000 0.0000 0.0000 13.8025 0.0000
# 6 0.0000 0.0000 0.0000 0.0000 0.0000 65.6875
#
#
#
# Elastic Compliance Matrix: (Units=1/GPa)
#
#
# Indices 1 2 3 4 5 6 
#
# 1 0.023562 -0.008838 -0.006099 0.000000 0.000000 0.000000
# 2 -0.008838 0.010129 -0.003147 0.000000 0.000000 0.000000
# 3 -0.006099 -0.003147 0.018961 0.000000 0.000000 0.000000
# 4 0.000000 0.000000 0.000000 0.026945 0.000000 0.000000
# 5 0.000000 0.000000 0.000000 0.000000 0.072450 0.000000
# 6 0.000000 0.000000 0.000000 0.000000 0.000000 0.015224
#
#
# Mechanical properties :
#
#
# Convention : Reuss Voigt Hill
#
# Bulk Modulus (GPa) = 60.67123 82.81286 71.74204
# Shear Modulus (GPa) = 23.93109 34.39089 29.16099
#
# Velocity S-wave (km/s) = 3.52570 4.22655 3.89193
# Velocity P-wave (km/s) = 6.93460 8.17520 7.58032
#
# Compressibility (1/GPa) = 0.01648228
#
# Stress axis : x y z
#
# Youngs Moduli (GPa) = 42.44199 98.72951 52.74069
#
# Poissons Ratio (x) = 0.87254 0.32168
# Poissons Ratio (y) = 0.37509 0.16600
# Poissons Ratio (z) = 0.25887 0.31074
#
# Static dielectric constant tensor:
#      x y z
#    x 1.658640 0.000000 0.000000 
#    y 0.000000 1.648340 0.000000 
#    z 0.000000 0.000000 1.707290 
# 
# From -- ./inp_files/2674.got.cif
#   From: 2010.05.17/outbox.cif.g08.bks.cpg/sg47_2_cif.got.tgz:2674.got - 2010.06.03 20:15:42.
