data_PCOD9387244
_publ_section_title
;
Structure prediction by ZEFSAII (Michael W. Deem and Ramdas Pophale) SiO2 
 PCOD9387244
Probable space group: P M M M
;
_chemical_formula_sum "Si O2"
_cell_formula_units_Z 64
_cell_length_a 24.327741
_cell_length_b 14.585536
_cell_length_c 9.180736
_cell_angle_alpha 90.000000
_cell_angle_beta 90.000000
_cell_angle_gamma 90.000000
_cell_volume 3257.629402
_symmetry_space_group_name_H-M "P M M M"
_symmetry_group_IT_number 47
_symmetry_cell_setting 'orthorhombic'
loop_
_space_group_symop_operation_xyz
x,y,z
-x,-y,z
x,-y,-z
-x,y,-z
-x,-y,-z
x,y,-z
-x,y,z
x,-y,z
loop_
_atom_site_type_symbol
_atom_site_label
_atom_site_fract_x
_atom_site_fract_y
_atom_site_fract_z
Si Si1 0.434401 0.898767 0.663917
Si Si2 0.328385 0.716648 0.327266
Si Si3 0.282661 0.108409 0.826257
Si Si4 0.060807 0.778860 0.673356
Si Si5 0.563161 0.284286 0.171720
Si Si6 0.845622 0.109808 0.167751
Si Si7 0.766884 0.390128 0.167856
Si Si8 0.105290 0.393870 0.825660
O O1 0.415133 0.870968 0.500000
O O2 0.500000 0.907371 0.649786
O O3 0.429928 0.823045 0.788079
O O4 0.412397 0.000000 0.698276
O O5 0.330268 0.714614 0.500000
O O6 0.317578 0.820272 0.267904
O O7 0.385163 0.676206 0.260206
O O8 0.276958 0.659105 0.268084
O O9 0.218147 0.129904 0.797913
O O10 0.290550 0.000000 0.795458
O O11 0.292629 0.121683 0.000000
O O12 0.064383 0.773516 0.500000
O O13 0.109853 0.840859 0.734017
O O14 0.068689 0.678546 0.742021
O O15 0.000000 0.814642 0.713080
O O16 0.500000 0.310007 0.213817
O O17 0.569075 0.300064 0.000000
O O18 0.851597 0.000000 0.176334
O O19 0.854787 0.138234 0.000000
O O20 0.760281 0.500000 0.173627
O O21 0.830495 0.371458 0.205183
O O22 0.757980 0.360556 0.000000
O O23 0.095387 0.500000 0.786346
O O24 0.097949 0.385966 0.000000
#
# Coordination Sequence:
#
# PCOD9387244 Si02
#       8
#     8   8   8   8   8   8   8   8
#     4   8  14  26  44  65  91 124 162 207 258 307
#     4  12  24  35  54  84 116 147 177 218 272 328
#     4   9  19  37  59  82 110 144 184 231 279 328
#     4  11  24  37  50  76 115 155 191 228 275 330
#     4  10  21  36  53  72  97 136 184 225 263 314
#     4   9  19  37  60  82 104 138 187 240 288 328
#     4   9  19  38  63  88 113 140 174 221 274 327
#     4   9  19  37  61  86 110 141 182 226 273 324
#
# _framework density 19.646187000000001
#
# number of rings (size 3 to 8) (size 9 to 14) (size 15 to 20)
#    0.000    2.375    0.000    4.500    0.000    8.000 
#    0.000    6.250    0.000    0.375    0.000    2.625 
#    0.000    0.000    0.000    0.000    0.000    0.000 
#
# Total GULP energy -357139.088486 kJ/mol
# GULP energy per Si atom -5580.298258 kJ/mol
# Density = 1.960147 g / cm^3
# Si number density = 19.646187 Si / 1000 Ang^3
#
#
#
# Elastic Constant Matrix: (Units=GPa)
#
#
# Indices 1 2 3 4 5 6 
#
# 1 109.2929 25.0600 63.3136 0.0000 0.0000 0.0000
# 2 25.0600 18.2063 14.3939 0.0000 0.0000 0.0000
# 3 63.3136 14.3939 68.7493 0.0000 0.0000 0.0000
# 4 0.0000 0.0000 0.0000 31.3824 0.0000 0.0000
# 5 0.0000 0.0000 0.0000 0.0000 -54.7484 0.0000
# 6 0.0000 0.0000 0.0000 0.0000 0.0000 9.0333
#
#
#
# Elastic Compliance Matrix: (Units=1/GPa)
#
#
# Indices 1 2 3 4 5 6 
#
# 1 0.023916 -0.018581 -0.018134 0.000000 0.000000 0.000000
# 2 -0.018581 0.080258 0.000309 0.000000 0.000000 0.000000
# 3 -0.018134 0.000309 0.031181 0.000000 0.000000 0.000000
# 4 0.000000 0.000000 0.000000 0.031865 0.000000 0.000000
# 5 0.000000 0.000000 0.000000 0.000000 -0.018265 0.000000
# 6 0.000000 0.000000 0.000000 0.000000 0.000000 0.110701
#
#
# Mechanical properties :
#
#
# Convention : Reuss Voigt Hill
#
# Bulk Modulus (GPa) = 15.98947 44.64261 30.31604
# Shear Modulus (GPa) = 14.15162 3.36554 8.75858
#
# Velocity S-wave (km/s) = 2.68680 1.31026 2.11373
# Velocity P-wave (km/s) = 4.21682 5.00616 4.62835
#
# Compressibility (1/GPa) = 0.06254117
#
# Stress axis : x y z
#
# Youngs Moduli (GPa) = 41.81388 12.45982 32.07033
#
# Poissons Ratio (x) = 0.23152 0.58157
# Poissons Ratio (y) = 0.77696 -0.00990
# Poissons Ratio (z) = 0.75826 -0.00385
#
# Static dielectric constant tensor:
#      x y z
#    x 1.735160 0.000000 0.000000 
#    y 0.000000 1.714310 0.000000 
#    z 0.000000 0.000000 1.658780 
# 
# From -- ./inp_files/12743.got.cif
#   From: 2010.05.17/outbox.cif.g08.bks.cpg/sg47_7_cif.got.tgz:12743.got - 2010.06.03 20:15:42.
