data_PCOD9387603
_publ_section_title
;
Structure prediction by ZEFSAII (Michael W. Deem and Ramdas Pophale) SiO2 
 PCOD9387603
Probable space group: P M M M
;
_chemical_formula_sum "Si O2"
_cell_formula_units_Z 48
_cell_length_a 9.322948
_cell_length_b 33.807732
_cell_length_c 7.950910
_cell_angle_alpha 90.000000
_cell_angle_beta 90.000000
_cell_angle_gamma 90.000000
_cell_volume 2506.029254
_symmetry_space_group_name_H-M "P M M M"
_symmetry_group_IT_number 47
_symmetry_cell_setting 'orthorhombic'
loop_
_space_group_symop_operation_xyz
x,y,z
-x,-y,z
x,-y,-z
-x,y,-z
-x,-y,-z
x,y,-z
-x,y,z
x,-y,z
loop_
_atom_site_type_symbol
_atom_site_label
_atom_site_fract_x
_atom_site_fract_y
_atom_site_fract_z
Si Si1 0.674618 0.545279 0.500000
Si Si2 0.663132 0.000000 0.299254
Si Si3 0.837094 0.078107 0.200593
Si Si4 0.835898 0.768489 0.701924
Si Si5 0.164286 0.681692 0.797847
Si Si6 0.337699 0.844182 0.702316
Si Si7 0.327306 0.397855 0.196427
O O1 0.724718 0.500000 0.500000
O O2 0.500000 0.544584 0.500000
O O3 0.717190 0.568911 0.331090
O O4 0.748623 0.960902 0.247156
O O5 0.500000 0.000000 0.231770
O O6 0.654721 0.000000 0.500000
O O7 0.755555 0.117264 0.259731
O O8 0.000000 0.076433 0.268008
O O9 0.844891 0.079721 0.000000
O O10 0.842189 0.771945 0.500000
O O11 0.780565 0.724588 0.741960
O O12 0.739810 0.804487 0.766551
O O13 0.000000 0.771361 0.766549
O O14 0.257902 0.643862 0.750184
O O15 0.000000 0.677708 0.735306
O O16 0.160421 0.682117 0.000000
O O17 0.345675 0.840874 0.500000
O O18 0.500000 0.848175 0.767006
O O19 0.500000 0.394634 0.201565
O O20 0.287844 0.406076 0.000000
#
# Coordination Sequence:
#
# PCOD9387603 Si02
#       7
#     4   4   8   8   8   8   8
#     4   9  18  32  51  77 105 135 175 221 269 322
#     4  11  24  41  62  88 114 141 176 219 268 322
#     4  11  24  40  59  84 112 143 181 223 267 318
#     4   9  18  32  50  73 102 138 178 218 261 311
#     4   9  18  32  50  73 102 137 175 216 264 316
#     4  10  21  37  56  80 110 144 182 222 268 321
#     4   9  18  32  50  74 103 135 173 219 270 322
#
# _framework density 19.153807
#
# number of rings (size 3 to 8) (size 9 to 14) (size 15 to 20)
#    0.000    2.333    0.000    2.000    1.167    7.667 
#    0.000    3.333    0.000    1.000    0.000    2.333 
#    0.000    0.000    0.000    0.000    0.000    0.000 
#
# Total GULP energy -267852.902885 kJ/mol
# GULP energy per Si atom -5580.268810 kJ/mol
# Density = 1.911021 g / cm^3
# Si number density = 19.153807 Si / 1000 Ang^3
#
#
#
# Elastic Constant Matrix: (Units=GPa)
#
#
# Indices 1 2 3 4 5 6 
#
# 1 101.8675 87.2429 27.7592 0.0000 0.0000 0.0000
# 2 87.2429 207.4268 45.2553 0.0000 0.0000 0.0000
# 3 27.7592 45.2553 45.4422 0.0000 0.0000 0.0000
# 4 0.0000 0.0000 0.0000 57.1022 0.0000 0.0000
# 5 0.0000 0.0000 0.0000 0.0000 -6.0059 0.0000
# 6 0.0000 0.0000 0.0000 0.0000 0.0000 37.4327
#
#
#
# Elastic Compliance Matrix: (Units=1/GPa)
#
#
# Indices 1 2 3 4 5 6 
#
# 1 0.015865 -0.005824 -0.003892 0.000000 0.000000 0.000000
# 2 -0.005824 0.008297 -0.004705 0.000000 0.000000 0.000000
# 3 -0.003892 -0.004705 0.029069 0.000000 0.000000 0.000000
# 4 0.000000 0.000000 0.000000 0.017512 0.000000 0.000000
# 5 0.000000 0.000000 0.000000 0.000000 -0.166502 0.000000
# 6 0.000000 0.000000 0.000000 0.000000 0.000000 0.026715
#
#
# Mechanical properties :
#
#
# Convention : Reuss Voigt Hill
#
# Bulk Modulus (GPa) = 41.00086 75.02792 58.01439
# Shear Modulus (GPa) = -155.89239 30.67108 -62.61066
#
# Velocity S-wave (km/s) = -9.03141 4.00597 -5.72358
# Velocity P-wave (km/s) = 9.34359 7.78803 3.65029
#
# Compressibility (1/GPa) = 0.02438973
#
# Stress axis : x y z
#
# Youngs Moduli (GPa) = 63.03326 120.52639 34.40064
#
# Poissons Ratio (x) = 0.70189 0.13387
# Poissons Ratio (y) = 0.36708 0.16187
# Poissons Ratio (z) = 0.24530 0.56712
#
# Static dielectric constant tensor:
#      x y z
#    x 1.676550 0.000000 0.000000 
#    y 0.000000 1.560760 0.000000 
#    z 0.000000 0.000000 1.684550 
# 
# From -- ./inp_files/2744.got.cif
#   From: 2010.05.17/outbox.cif.g08.bks.cpg/sg47_2_cif.got.tgz:2744.got - 2010.06.03 20:15:42.
