data_PCOD9387771
_publ_section_title
;
Structure prediction by ZEFSAII (Michael W. Deem and Ramdas Pophale) SiO2 
 PCOD9387771
Probable space group: P M M M
;
_chemical_formula_sum "Si O2"
_cell_formula_units_Z 48
_cell_length_a 7.994165
_cell_length_b 10.146582
_cell_length_c 27.838311
_cell_angle_alpha 90.000000
_cell_angle_beta 90.000000
_cell_angle_gamma 90.000000
_cell_volume 2258.061467
_symmetry_space_group_name_H-M "P M M M"
_symmetry_group_IT_number 47
_symmetry_cell_setting 'orthorhombic'
loop_
_space_group_symop_operation_xyz
x,y,z
-x,-y,z
x,-y,-z
-x,y,-z
-x,-y,-z
x,y,-z
-x,y,z
x,-y,z
loop_
_atom_site_type_symbol
_atom_site_label
_atom_site_fract_x
_atom_site_fract_y
_atom_site_fract_z
Si Si1 0.298347 0.351638 0.692875
Si Si2 0.301312 0.851561 0.227922
Si Si3 0.201898 0.350485 0.417026
Si Si4 0.805571 0.640172 0.155783
Si Si5 0.187971 0.000000 0.057398
Si Si6 0.305308 0.711301 0.054829
Si Si7 0.795123 0.152437 0.500000
O O1 0.500000 0.354477 0.696985
O O2 0.236080 0.500000 0.704126
O O3 0.233206 0.240266 0.729053
O O4 0.254371 0.323745 0.637625
O O5 0.500000 0.863029 0.235545
O O6 0.276270 0.766526 0.179930
O O7 0.232041 0.000000 0.225528
O O8 0.258980 0.500000 0.429647
O O9 0.258939 0.237927 0.453756
O O10 0.000000 0.352347 0.419040
O O11 0.732244 0.500000 0.173043
O O12 0.788248 0.643505 0.098364
O O13 0.000000 0.644151 0.168366
O O14 0.285066 0.866159 0.066921
O O15 0.000000 0.000000 0.078826
O O16 0.168597 0.000000 0.000000
O O17 0.500000 0.674583 0.056033
O O18 0.244157 0.688946 0.000000
O O19 0.000000 0.150214 0.500000
O O20 0.739963 0.000000 0.500000
#
# Coordination Sequence:
#
# PCOD9387771 Si02
#       7
#     8   8   8   8   4   8   4
#     4   9  18  34  56  81 110 144 181 224 278 337
#     4  10  22  40  62  86 112 145 185 230 281 340
#     4   9  17  30  50  75 103 139 183 228 272 323
#     4  11  25  42  60  84 115 151 188 231 285 339
#     4   9  17  31  53  81 113 147 181 221 269 318
#     4  10  21  37  59  86 115 149 189 230 275 332
#     4   9  17  29  46  71 104 142 184 229 276 324
#
# _framework density 21.257169999999999
#
# number of rings (size 3 to 8) (size 9 to 14) (size 15 to 20)
#    0.000    2.333    0.000    2.000    1.167    7.000 
#    0.000    3.750    0.000    2.500    0.000    0.000 
#    0.000    0.000    0.000    0.000    0.000    0.000 
#
# Total GULP energy -267875.225535 kJ/mol
# GULP energy per Si atom -5580.733865 kJ/mol
# Density = 2.120879 g / cm^3
# Si number density = 21.257170 Si / 1000 Ang^3
#
#
#
# Elastic Constant Matrix: (Units=GPa)
#
#
# Indices 1 2 3 4 5 6 
#
# 1 22.0610 9.7869 -1.3083 0.0000 0.0000 0.0000
# 2 9.7869 185.6831 93.7027 0.0000 0.0000 0.0000
# 3 -1.3083 93.7027 127.1379 0.0000 0.0000 0.0000
# 4 0.0000 0.0000 0.0000 3.5059 0.0000 0.0000
# 5 0.0000 0.0000 0.0000 0.0000 29.2076 0.0000
# 6 0.0000 0.0000 0.0000 0.0000 0.0000 10.4054
#
#
#
# Elastic Compliance Matrix: (Units=1/GPa)
#
#
# Indices 1 2 3 4 5 6 
#
# 1 0.047491 -0.004378 0.003715 0.000000 0.000000 0.000000
# 2 -0.004378 0.008978 -0.006662 0.000000 0.000000 0.000000
# 3 0.003715 -0.006662 0.012814 0.000000 0.000000 0.000000
# 4 0.000000 0.000000 0.000000 0.285236 0.000000 0.000000
# 5 0.000000 0.000000 0.000000 0.000000 0.034238 0.000000
# 6 0.000000 0.000000 0.000000 0.000000 0.000000 0.096103
#
#
# Mechanical properties :
#
#
# Convention : Reuss Voigt Hill
#
# Bulk Modulus (GPa) = 18.30365 59.91607 39.10986
# Shear Modulus (GPa) = 9.65770 24.13716 16.89743
#
# Velocity S-wave (km/s) = 2.13381 3.37335 2.82246
# Velocity P-wave (km/s) = 3.83407 6.58939 5.39074
#
# Compressibility (1/GPa) = 0.05463391
#
# Stress axis : x y z
#
# Youngs Moduli (GPa) = 21.05641 111.37991 78.04050
#
# Poissons Ratio (x) = 0.48764 -0.28996
# Poissons Ratio (y) = 0.09219 0.51992
# Poissons Ratio (z) = -0.07823 0.74203
#
# Static dielectric constant tensor:
#      x y z
#    x 1.769980 0.000000 0.000000 
#    y 0.000000 1.833070 0.000000 
#    z 0.000000 0.000000 1.756390 
# 
# From -- ./inp_files/34144.got.cif
#   From: 2010.05.17/outbox.cif.g08.bks.cpg/sg47_18_cif.got.tgz:34144.got - 2010.06.03 20:15:42.
