data_PCOD9387154
_publ_section_title
;
Structure prediction by ZEFSAII (Michael W. Deem and Ramdas Pophale) SiO2 
 PCOD9387154
Probable space group: P M M M
;
_chemical_formula_sum "Si O2"
_cell_formula_units_Z 60
_cell_length_a 8.769444
_cell_length_b 18.547059
_cell_length_c 19.887580
_cell_angle_alpha 90.000000
_cell_angle_beta 90.000000
_cell_angle_gamma 90.000000
_cell_volume 3234.663085
_symmetry_space_group_name_H-M "P M M M"
_symmetry_group_IT_number 47
_symmetry_cell_setting 'orthorhombic'
loop_
_space_group_symop_operation_xyz
x,y,z
-x,-y,z
x,-y,-z
-x,y,-z
-x,-y,-z
x,y,-z
-x,y,z
x,-y,z
loop_
_atom_site_type_symbol
_atom_site_label
_atom_site_fract_x
_atom_site_fract_y
_atom_site_fract_z
Si Si1 0.815945 0.214007 0.422359
Si Si2 0.315977 0.351346 0.074583
Si Si3 0.683967 0.082628 0.339344
Si Si4 0.684005 0.582665 0.785422
Si Si5 0.318627 0.500000 0.419975
Si Si6 0.181622 0.808152 0.923814
Si Si7 0.683431 0.083331 0.184018
Si Si8 0.817043 0.359935 0.653302
O O1 0.767241 0.219056 0.500000
O O2 0.753166 0.142283 0.387653
O O3 0.767666 0.285500 0.381765
O O4 0.000000 0.211857 0.420931
O O5 0.500000 0.351265 0.074295
O O6 0.267753 0.397584 0.138895
O O7 0.257959 0.270016 0.084186
O O8 0.265356 0.376131 0.000000
O O9 0.500000 0.085274 0.342928
O O10 0.727010 0.097856 0.261596
O O11 0.729960 0.000000 0.355079
O O12 0.500000 0.588589 0.781538
O O13 0.725306 0.500000 0.770048
O O14 0.757370 0.633303 0.729352
O O15 0.500000 0.500000 0.407341
O O16 0.291891 0.500000 0.500000
O O17 0.248020 0.428475 0.387060
O O18 0.241177 0.862873 0.868185
O O19 0.000000 0.800239 0.918560
O O20 0.217790 0.833433 0.000000
O O21 0.500000 0.089863 0.179759
O O22 0.722952 0.000000 0.169399
O O23 0.000000 0.363223 0.652501
#
# Coordination Sequence:
#
# PCOD9387154 Si02
#       8
#     8   8   8   8   4   8   8   8
#     4  10  23  41  59  84 117 151 189 232 280 338
#     4   9  19  36  57  81 111 150 192 232 280 335
#     4   9  20  39  61  86 115 147 187 235 285 337
#     4  10  21  37  58  85 116 148 187 236 284 332
#     4  11  23  39  61  87 116 151 192 239 289 340
#     4  10  21  35  52  78 112 147 185 231 280 330
#     4   9  19  36  56  79 108 143 184 228 276 333
#     4  11  23  39  59  85 118 155 194 235 282 343
#
# _framework density 18.549073
#
# number of rings (size 3 to 8) (size 9 to 14) (size 15 to 20)
#    0.000    2.200    0.667    2.200    1.867    5.600 
#    0.000    5.333    0.000    0.000    0.000    2.800 
#    0.000    0.000    0.000    0.000    0.000    0.000 
#
# Total GULP energy -334976.607147 kJ/mol
# GULP energy per Si atom -5582.943452 kJ/mol
# Density = 1.850685 g / cm^3
# Si number density = 18.549073 Si / 1000 Ang^3
#
#
#
# Elastic Constant Matrix: (Units=GPa)
#
#
# Indices 1 2 3 4 5 6 
#
# 1 13.3452 21.4495 32.2538 0.0000 0.0000 0.0000
# 2 21.4495 105.7043 83.5578 0.0000 0.0000 0.0000
# 3 32.2538 83.5578 138.5886 0.0000 0.0000 0.0000
# 4 0.0000 0.0000 0.0000 33.7896 0.0000 0.0000
# 5 0.0000 0.0000 0.0000 0.0000 26.2904 0.0000
# 6 0.0000 0.0000 0.0000 0.0000 0.0000 19.4750
#
#
#
# Elastic Compliance Matrix: (Units=1/GPa)
#
#
# Indices 1 2 3 4 5 6 
#
# 1 0.173423 -0.006279 -0.036575 0.000000 0.000000 0.000000
# 2 -0.006279 0.018302 -0.009573 0.000000 0.000000 0.000000
# 3 -0.036575 -0.009573 0.021500 0.000000 0.000000 0.000000
# 4 0.000000 0.000000 0.000000 0.029595 0.000000 0.000000
# 5 0.000000 0.000000 0.000000 0.000000 0.038037 0.000000
# 6 0.000000 0.000000 0.000000 0.000000 0.000000 0.051348
#
#
# Mechanical properties :
#
#
# Convention : Reuss Voigt Hill
#
# Bulk Modulus (GPa) = 9.22766 59.12894 34.17830
# Shear Modulus (GPa) = 10.56675 23.93613 17.25144
#
# Velocity S-wave (km/s) = 2.38935 3.59614 3.05297
# Velocity P-wave (km/s) = 3.54930 7.01350 5.55818
#
# Compressibility (1/GPa) = 0.10836978
#
# Stress axis : x y z
#
# Youngs Moduli (GPa) = 5.76626 54.63847 46.51201
#
# Poissons Ratio (x) = 0.34306 1.70119
# Poissons Ratio (y) = 0.03620 0.44528
# Poissons Ratio (z) = 0.21090 0.52308
#
# Static dielectric constant tensor:
#      x y z
#    x 1.627810 0.000000 0.000000 
#    y 0.000000 1.606010 0.000000 
#    z 0.000000 0.000000 1.645320 
# 
# From -- ./inp_files/27031.got.cif
#   From: 2010.05.17/outbox.cif.g08.bks.cpg/sg47_14_cif.got.tgz:27031.got - 2010.06.03 20:15:42.
