data_PCOD9387492
_publ_section_title
;
Structure prediction by ZEFSAII (Michael W. Deem and Ramdas Pophale) SiO2 
 PCOD9387492
Probable space group: P M M M
;
_chemical_formula_sum "Si O2"
_cell_formula_units_Z 48
_cell_length_a 15.532436
_cell_length_b 19.544313
_cell_length_c 8.490583
_cell_angle_alpha 90.000000
_cell_angle_beta 90.000000
_cell_angle_gamma 90.000000
_cell_volume 2577.492996
_symmetry_space_group_name_H-M "P M M M"
_symmetry_group_IT_number 47
_symmetry_cell_setting 'orthorhombic'
loop_
_space_group_symop_operation_xyz
x,y,z
-x,-y,z
x,-y,-z
-x,y,-z
-x,-y,-z
x,y,-z
-x,y,z
x,-y,z
loop_
_atom_site_type_symbol
_atom_site_label
_atom_site_fract_x
_atom_site_fract_y
_atom_site_fract_z
Si Si1 0.154667 0.828552 0.188837
Si Si2 0.597910 0.676195 0.307965
Si Si3 0.751899 0.578468 0.690463
Si Si4 0.500000 0.921077 0.811124
Si Si5 0.000000 0.078854 0.311197
Si Si6 0.901257 0.675581 0.809694
Si Si7 0.345105 0.828907 0.688953
O O1 0.083804 0.881084 0.251029
O O2 0.129084 0.751460 0.240545
O O3 0.250028 0.844409 0.249041
O O4 0.153379 0.829690 0.000000
O O5 0.597456 0.675602 0.500000
O O6 0.500000 0.663401 0.255874
O O7 0.667512 0.620380 0.255602
O O8 0.627977 0.752077 0.259566
O O9 0.750869 0.578324 0.500000
O O10 0.751622 0.500000 0.744681
O O11 0.835760 0.619505 0.745401
O O12 0.416139 0.881542 0.749667
O O13 0.500000 0.000000 0.759239
O O14 0.500000 0.919300 0.000000
O O15 0.000000 0.079841 0.500000
O O16 0.000000 0.000000 0.257811
O O17 0.000000 0.664534 0.759710
O O18 0.899013 0.673989 0.000000
O O19 0.344814 0.829778 0.500000
#
# Coordination Sequence:
#
# PCOD9387492 Si02
#       7
#     8   8   8   4   4   8   8
#     4  11  22  39  63  91 121 157 201 247 298 360
#     4   9  17  32  56  86 115 148 192 239 289 345
#     4  10  21  36  56  86 121 154 192 242 298 353
#     4  11  25  43  61  87 124 161 198 246 304 360
#     4  11  25  43  63  91 124 157 196 245 301 358
#     4  10  21  38  59  84 113 151 199 244 292 353
#     4  11  21  37  63  92 119 154 202 252 298 354
#
# _framework density 18.622745999999999
#
# number of rings (size 3 to 8) (size 9 to 14) (size 15 to 20)
#    0.000    1.667    3.333    1.500    0.000    4.000 
#    0.000    3.333    0.000    0.000    0.000    1.167 
#    0.000    0.000    0.000    0.000    0.000    0.000 
#
# Total GULP energy -268183.769390 kJ/mol
# GULP energy per Si atom -5587.161862 kJ/mol
# Density = 1.858036 g / cm^3
# Si number density = 18.622746 Si / 1000 Ang^3
#
#
#
# Elastic Constant Matrix: (Units=GPa)
#
#
# Indices 1 2 3 4 5 6 
#
# 1 225.0084 122.0780 32.9013 0.0000 0.0000 0.0000
# 2 122.0780 196.6975 36.2422 0.0000 0.0000 0.0000
# 3 32.9013 36.2422 27.9263 0.0000 0.0000 0.0000
# 4 0.0000 0.0000 0.0000 23.8230 0.0000 0.0000
# 5 0.0000 0.0000 0.0000 0.0000 13.0945 0.0000
# 6 0.0000 0.0000 0.0000 0.0000 0.0000 53.8866
#
#
#
# Elastic Compliance Matrix: (Units=1/GPa)
#
#
# Indices 1 2 3 4 5 6 
#
# 1 0.006938 -0.003680 -0.003398 0.000000 0.000000 0.000000
# 2 -0.003680 0.008633 -0.006869 0.000000 0.000000 0.000000
# 3 -0.003398 -0.006869 0.048727 0.000000 0.000000 0.000000
# 4 0.000000 0.000000 0.000000 0.041976 0.000000 0.000000
# 5 0.000000 0.000000 0.000000 0.000000 0.076368 0.000000
# 6 0.000000 0.000000 0.000000 0.000000 0.000000 0.018557
#
#
# Mechanical properties :
#
#
# Convention : Reuss Voigt Hill
#
# Bulk Modulus (GPa) = 27.46960 92.45280 59.96120
# Shear Modulus (GPa) = 20.72735 35.38819 28.05777
#
# Velocity S-wave (km/s) = 3.33980 4.36393 3.88576
# Velocity P-wave (km/s) = 5.44564 8.66861 7.23878
#
# Compressibility (1/GPa) = 0.03640388
#
# Stress axis : x y z
#
# Youngs Moduli (GPa) = 144.14398 115.83096 20.52269
#
# Poissons Ratio (x) = 0.42621 0.06974
# Poissons Ratio (y) = 0.53039 0.14097
# Poissons Ratio (z) = 0.48982 0.79565
#
# Static dielectric constant tensor:
#      x y z
#    x 1.611090 0.000000 0.000000 
#    y 0.000000 1.624460 0.000000 
#    z 0.000000 0.000000 1.641970 
# 
# From -- ./inp_files/6421.got.cif
#   From: 2010.05.17/outbox.cif.g08.bks.cpg/sg47_4_cif.got.tgz:6421.got - 2010.06.03 20:15:42.
