data_PCOD9387114
_publ_section_title
;
Structure prediction by ZEFSAII (Michael W. Deem and Ramdas Pophale) SiO2 
 PCOD9387114
Probable space group: P M M M
;
_chemical_formula_sum "Si O2"
_cell_formula_units_Z 64
_cell_length_a 9.174442
_cell_length_b 14.404939
_cell_length_c 26.712941
_cell_angle_alpha 90.000000
_cell_angle_beta 90.000000
_cell_angle_gamma 90.000000
_cell_volume 3530.309553
_symmetry_space_group_name_H-M "P M M M"
_symmetry_group_IT_number 47
_symmetry_cell_setting 'orthorhombic'
loop_
_space_group_symop_operation_xyz
x,y,z
-x,-y,z
x,-y,-z
-x,y,-z
-x,-y,-z
x,y,-z
-x,y,z
x,-y,z
loop_
_atom_site_type_symbol
_atom_site_label
_atom_site_fract_x
_atom_site_fract_y
_atom_site_fract_z
Si Si1 0.173960 0.391041 0.441754
Si Si2 0.826402 0.610580 0.845846
Si Si3 0.824584 0.281239 0.054809
Si Si4 0.664830 0.112501 0.790432
Si Si5 0.675457 0.892101 0.096101
Si Si6 0.325609 0.723678 0.355463
Si Si7 0.325383 0.608748 0.256071
Si Si8 0.827726 0.109712 0.310192
O O1 0.207231 0.371100 0.500000
O O2 0.206295 0.500000 0.432850
O O3 0.261320 0.328104 0.403399
O O4 0.000000 0.378572 0.434864
O O5 0.801335 0.500000 0.850028
O O6 0.776930 0.658871 0.897215
O O7 0.746637 0.643354 0.795402
O O8 0.000000 0.625435 0.840282
O O9 0.755377 0.179748 0.060733
O O10 0.000000 0.274941 0.056968
O O11 0.785634 0.320267 0.000000
O O12 0.500000 0.147729 0.780824
O O13 0.712051 0.136509 0.846528
O O14 0.770476 0.136309 0.745243
O O15 0.655989 0.000000 0.791219
O O16 0.500000 0.886004 0.091409
O O17 0.715597 0.000000 0.088414
O O18 0.500000 0.727701 0.357729
O O19 0.283806 0.665426 0.305509
O O20 0.257873 0.825309 0.348401
O O21 0.500000 0.613434 0.250920
O O22 0.284927 0.500000 0.262551
O O23 0.000000 0.124546 0.313798
O O24 0.798147 0.000000 0.317209
#
# Coordination Sequence:
#
# PCOD9387114 Si02
#       8
#     8   8   8   8   8   8   8   8
#     4   9  19  37  60  86 118 155 193 234 278 323
#     4   9  19  36  56  76  99 131 170 212 262 319
#     4  10  22  37  52  74 101 129 168 218 267 317
#     4   8  15  30  50  71  97 130 169 213 262 316
#     4   9  19  35  54  75 100 132 169 209 257 318
#     4  11  22  34  54  84 116 152 190 229 274 325
#     4   9  19  35  53  77 110 142 171 209 261 320
#     4  10  21  35  51  75 109 148 189 231 275 324
#
# _framework density 18.128722
#
# number of rings (size 3 to 8) (size 9 to 14) (size 15 to 20)
#    0.000    2.625    0.000    2.250    1.750    4.750 
#    0.000    5.625    0.000    0.375    0.000    5.250 
#    0.000    0.000    0.000    0.000    0.000    0.000 
#
# Total GULP energy -357142.287996 kJ/mol
# GULP energy per Si atom -5580.348250 kJ/mol
# Density = 1.808746 g / cm^3
# Si number density = 18.128722 Si / 1000 Ang^3
#
#
#
# Elastic Constant Matrix: (Units=GPa)
#
#
# Indices 1 2 3 4 5 6 
#
# 1 35.9771 36.9132 54.2764 0.0000 0.0000 0.0000
# 2 36.9132 63.8813 55.9204 0.0000 0.0000 0.0000
# 3 54.2764 55.9204 117.6679 0.0000 0.0000 0.0000
# 4 0.0000 0.0000 0.0000 31.8834 0.0000 0.0000
# 5 0.0000 0.0000 0.0000 0.0000 37.8644 0.0000
# 6 0.0000 0.0000 0.0000 0.0000 0.0000 21.1706
#
#
#
# Elastic Compliance Matrix: (Units=1/GPa)
#
#
# Indices 1 2 3 4 5 6 
#
# 1 0.131110 -0.039077 -0.041906 0.000000 0.000000 0.000000
# 2 -0.039077 0.038452 -0.000249 0.000000 0.000000 0.000000
# 3 -0.041906 -0.000249 0.027947 0.000000 0.000000 0.000000
# 4 0.000000 0.000000 0.000000 0.031364 0.000000 0.000000
# 5 0.000000 0.000000 0.000000 0.000000 0.026410 0.000000
# 6 0.000000 0.000000 0.000000 0.000000 0.000000 0.047235
#
#
# Mechanical properties :
#
#
# Convention : Reuss Voigt Hill
#
# Bulk Modulus (GPa) = 28.53470 56.86070 42.69770
# Shear Modulus (GPa) = 10.48954 22.87809 16.68382
#
# Velocity S-wave (km/s) = 2.40805 3.55629 3.03693
# Velocity P-wave (km/s) = 4.84828 6.94953 5.99174
#
# Compressibility (1/GPa) = 0.03504505
#
# Stress axis : x y z
#
# Youngs Moduli (GPa) = 7.62716 26.00613 35.78242
#
# Poissons Ratio (x) = 1.01625 1.49950
# Poissons Ratio (y) = 0.29805 0.00891
# Poissons Ratio (z) = 0.31962 0.00648
#
# Static dielectric constant tensor:
#      x y z
#    x 1.602450 0.000000 0.000000 
#    y 0.000000 1.639000 0.000000 
#    z 0.000000 0.000000 1.615120 
# 
# From -- ./inp_files/7939.got.cif
#   From: 2010.05.17/outbox.cif.g08.bks.cpg/sg47_4_cif.got.tgz:7939.got - 2010.06.03 20:15:42.
