data_PCOD9387249
_publ_section_title
;
Structure prediction by ZEFSAII (Michael W. Deem and Ramdas Pophale) SiO2 
 PCOD9387249
Probable space group: P M M M
;
_chemical_formula_sum "Si O2"
_cell_formula_units_Z 48
_cell_length_a 31.364876
_cell_length_b 10.240628
_cell_length_c 8.439546
_cell_angle_alpha 90.000000
_cell_angle_beta 90.000000
_cell_angle_gamma 90.000000
_cell_volume 2710.748648
_symmetry_space_group_name_H-M "P M M M"
_symmetry_group_IT_number 47
_symmetry_cell_setting 'orthorhombic'
loop_
_space_group_symop_operation_xyz
x,y,z
-x,-y,z
x,-y,-z
-x,y,-z
-x,-y,-z
x,y,-z
-x,y,z
x,-y,z
loop_
_atom_site_type_symbol
_atom_site_label
_atom_site_fract_x
_atom_site_fract_y
_atom_site_fract_z
Si Si1 0.618784 0.350573 0.189426
Si Si2 0.782938 0.850041 0.808725
Si Si3 0.879969 0.850548 0.193350
Si Si4 0.287382 0.350547 0.310590
Si Si5 0.048327 0.649934 0.193361
Si Si6 0.548681 0.149417 0.308753
O O1 0.610721 0.500000 0.244770
O O2 0.665681 0.312269 0.250158
O O3 0.582687 0.252055 0.246727
O O4 0.619517 0.350945 0.000000
O O5 0.831504 0.817878 0.758454
O O6 0.748586 0.748407 0.746870
O O7 0.773962 0.000000 0.759408
O O8 0.782151 0.847655 0.000000
O O9 0.915589 0.749447 0.249297
O O10 0.889044 0.000000 0.240882
O O11 0.880396 0.848526 0.000000
O O12 0.288046 0.351047 0.500000
O O13 0.279312 0.500000 0.255039
O O14 0.056638 0.500000 0.240812
O O15 0.000000 0.684961 0.241641
O O16 0.048805 0.652006 0.000000
O O17 0.549459 0.151675 0.500000
O O18 0.500000 0.179655 0.258822
O O19 0.558276 0.000000 0.259016
#
# Coordination Sequence:
#
# PCOD9387249 Si02
#       6
#     8   8   8   8   8   8
#     4  10  21  36  54  77 104 133 166 204 246 292
#     4   9  18  32  49  70  96 125 159 199 242 290
#     4   8  14  24  37  55  81 113 149 188 229 275
#     4  10  21  36  53  73  97 126 162 202 243 290
#     4   8  13  20  30  48  77 112 149 187 226 271
#     4   9  19  36  56  78 105 137 172 207 243 286
#
# _framework density 17.707287000000001
#
# number of rings (size 3 to 8) (size 9 to 14) (size 15 to 20)
#    0.000    3.000    0.000    3.000    0.000    5.000 
#    0.000    5.833    0.000    0.000    0.000    0.000 
#    0.000    0.667    0.000    7.333    0.000   12.000 
#
# Total GULP energy -267562.088758 kJ/mol
# GULP energy per Si atom -5574.210182 kJ/mol
# Density = 1.766698 g / cm^3
# Si number density = 17.707287 Si / 1000 Ang^3
#
#
#
# Elastic Constant Matrix: (Units=GPa)
#
#
# Indices 1 2 3 4 5 6 
#
# 1 189.1361 143.7356 27.1414 0.0000 0.0000 0.0000
# 2 143.7356 132.5991 23.0639 0.0000 0.0000 0.0000
# 3 27.1414 23.0639 12.7483 0.0000 0.0000 0.0000
# 4 0.0000 0.0000 0.0000 20.7984 0.0000 0.0000
# 5 0.0000 0.0000 0.0000 0.0000 98.6963 0.0000
# 6 0.0000 0.0000 0.0000 0.0000 0.0000 43.1475
#
#
#
# Elastic Compliance Matrix: (Units=1/GPa)
#
#
# Indices 1 2 3 4 5 6 
#
# 1 0.030484 -0.031745 -0.007468 0.000000 0.000000 0.000000
# 2 -0.031745 0.044063 -0.012132 0.000000 0.000000 0.000000
# 3 -0.007468 -0.012132 0.116290 0.000000 0.000000 0.000000
# 4 0.000000 0.000000 0.000000 0.048081 0.000000 0.000000
# 5 0.000000 0.000000 0.000000 0.000000 0.010132 0.000000
# 6 0.000000 0.000000 0.000000 0.000000 0.000000 0.023176
#
#
# Mechanical properties :
#
#
# Convention : Reuss Voigt Hill
#
# Bulk Modulus (GPa) = 11.34468 80.26282 45.80375
# Shear Modulus (GPa) = 12.36709 41.89794 27.13251
#
# Velocity S-wave (km/s) = 2.64563 4.86958 3.91868
# Velocity P-wave (km/s) = 3.96902 8.77741 6.81161
#
# Compressibility (1/GPa) = 0.08814706
#
# Stress axis : x y z
#
# Youngs Moduli (GPa) = 32.80421 22.69481 8.59916
#
# Poissons Ratio (x) = 0.72045 0.06422
# Poissons Ratio (y) = 1.04137 0.10432
# Poissons Ratio (z) = 0.24499 0.27532
#
# Static dielectric constant tensor:
#      x y z
#    x 1.582080 0.000000 0.000000 
#    y 0.000000 1.597670 0.000000 
#    z 0.000000 0.000000 1.612450 
# 
# From -- ./inp_files/2502.got.cif
#   From: 2010.05.17/outbox.cif.g08.bks.cpg/sg47_2_cif.got.tgz:2502.got - 2010.06.03 20:15:42.
