data_PCOD9387693
_publ_section_title
;
Structure prediction by ZEFSAII (Michael W. Deem and Ramdas Pophale) SiO2 
 PCOD9387693
Probable space group: P M M M
;
_chemical_formula_sum "Si O2"
_cell_formula_units_Z 40
_cell_length_a 7.809647
_cell_length_b 29.854089
_cell_length_c 9.293082
_cell_angle_alpha 90.000000
_cell_angle_beta 90.000000
_cell_angle_gamma 90.000000
_cell_volume 2166.681107
_symmetry_space_group_name_H-M "P M M M"
_symmetry_group_IT_number 47
_symmetry_cell_setting 'orthorhombic'
loop_
_space_group_symop_operation_xyz
x,y,z
-x,-y,z
x,-y,-z
-x,y,-z
-x,-y,-z
x,y,-z
-x,y,z
x,-y,z
loop_
_atom_site_type_symbol
_atom_site_label
_atom_site_fract_x
_atom_site_fract_y
_atom_site_fract_z
Si Si1 0.194507 0.590436 0.829001
Si Si2 0.706188 0.500000 0.667732
Si Si3 0.205399 0.911052 0.162984
Si Si4 0.798427 0.821188 0.672003
Si Si5 0.500000 0.342996 0.173015
Si Si6 0.296331 0.000000 0.337654
Si Si7 0.500000 0.248033 0.672424
O O1 0.226163 0.544457 0.745021
O O2 0.333810 0.627508 0.787232
O O3 0.000000 0.605824 0.805000
O O4 0.216191 0.581715 0.000000
O O5 0.500000 0.500000 0.678450
O O6 0.753981 0.500000 0.500000
O O7 0.258946 0.866035 0.245475
O O8 0.246384 0.955532 0.251630
O O9 0.000000 0.908560 0.154821
O O10 0.273365 0.913295 0.000000
O O11 0.786534 0.829002 0.500000
O O12 0.669266 0.781055 0.708578
O O13 0.000000 0.812008 0.704461
O O14 0.500000 0.295250 0.248445
O O15 0.500000 0.337318 0.000000
O O16 0.500000 0.000000 0.348004
O O17 0.224025 0.000000 0.500000
O O18 0.500000 0.254786 0.500000
#
# Coordination Sequence:
#
# PCOD9387693 Si02
#       7
#     8   4   8   8   4   4   4
#     4  10  21  38  60  84 113 154 198 235 278 336
#     4  11  22  35  56  87 121 154 191 236 283 333
#     4  10  21  37  57  82 111 142 179 226 277 328
#     4   9  19  37  59  82 110 145 184 228 278 334
#     4  10  22  39  57  82 114 147 186 236 289 336
#     4  11  24  37  52  78 112 149 186 221 264 326
#     4  10  22  38  59  84 111 144 187 234 282 340
#
# _framework density 18.461416
#
# number of rings (size 3 to 8) (size 9 to 14) (size 15 to 20)
#    0.000    2.000    1.000    1.800    1.400    7.600 
#    0.000    0.000    0.000    0.000    0.000    0.000 
#    0.000    0.000    0.000    0.000    0.000    0.000 
#
# Total GULP energy -223368.652033 kJ/mol
# GULP energy per Si atom -5584.216301 kJ/mol
# Density = 1.841940 g / cm^3
# Si number density = 18.461416 Si / 1000 Ang^3
#
#
#
# Elastic Constant Matrix: (Units=GPa)
#
#
# Indices 1 2 3 4 5 6 
#
# 1 103.2370 82.4999 55.5583 0.0000 0.0000 0.0000
# 2 82.4999 198.3309 88.7940 0.0000 0.0000 0.0000
# 3 55.5583 88.7940 80.9670 0.0000 0.0000 0.0000
# 4 0.0000 0.0000 0.0000 41.8873 0.0000 0.0000
# 5 0.0000 0.0000 0.0000 0.0000 17.3173 0.0000
# 6 0.0000 0.0000 0.0000 0.0000 0.0000 4.2483
#
#
#
# Elastic Compliance Matrix: (Units=1/GPa)
#
#
# Indices 1 2 3 4 5 6 
#
# 1 0.016528 -0.003531 -0.007468 0.000000 0.000000 0.000000
# 2 -0.003531 0.010660 -0.009267 0.000000 0.000000 0.000000
# 3 -0.007468 -0.009267 0.027639 0.000000 0.000000 0.000000
# 4 0.000000 0.000000 0.000000 0.023874 0.000000 0.000000
# 5 0.000000 0.000000 0.000000 0.000000 0.057746 0.000000
# 6 0.000000 0.000000 0.000000 0.000000 0.000000 0.235386
#
#
# Mechanical properties :
#
#
# Convention : Reuss Voigt Hill
#
# Bulk Modulus (GPa) = 69.96804 92.91547 81.44176
# Shear Modulus (GPa) = 11.98668 23.06944 17.52806
#
# Velocity S-wave (km/s) = 2.55087 3.53881 3.08465
# Velocity P-wave (km/s) = 6.83065 8.19368 7.54301
#
# Compressibility (1/GPa) = 0.01429224
#
# Stress axis : x y z
#
# Youngs Moduli (GPa) = 60.50474 93.80728 36.18135
#
# Poissons Ratio (x) = 0.33128 0.27021
# Poissons Ratio (y) = 0.21367 0.33531
# Poissons Ratio (z) = 0.45186 0.86935
#
# Static dielectric constant tensor:
#      x y z
#    x 1.656540 0.000000 0.000000 
#    y 0.000000 1.585960 0.000000 
#    z 0.000000 0.000000 1.637560 
# 
# From -- ./inp_files/1912.got.cif
#   From: 2010.05.17/outbox.cif.g08.bks.cpg/sg47_1_cif.got.tgz:1912.got - 2010.06.03 20:15:42.
