data_PCOD9387507
_publ_section_title
;
Structure prediction by ZEFSAII (Michael W. Deem and Ramdas Pophale) SiO2 
 PCOD9387507
Probable space group: P M M M
;
_chemical_formula_sum "Si O2"
_cell_formula_units_Z 56
_cell_length_a 10.089872
_cell_length_b 20.007917
_cell_length_c 14.392348
_cell_angle_alpha 90.000000
_cell_angle_beta 90.000000
_cell_angle_gamma 90.000000
_cell_volume 2905.488665
_symmetry_space_group_name_H-M "P M M M"
_symmetry_group_IT_number 47
_symmetry_cell_setting 'orthorhombic'
loop_
_space_group_symop_operation_xyz
x,y,z
-x,-y,z
x,-y,-z
-x,y,-z
-x,-y,-z
x,y,-z
-x,y,z
x,-y,z
loop_
_atom_site_type_symbol
_atom_site_label
_atom_site_fract_x
_atom_site_fract_y
_atom_site_fract_z
Si Si1 0.641118 0.217526 0.889176
Si Si2 0.151824 0.324634 0.111995
Si Si3 0.653783 0.817355 0.388354
Si Si4 0.657006 0.420477 0.217442
Si Si5 0.747924 0.925757 0.105059
Si Si6 0.147798 0.923366 0.302981
Si Si7 0.339814 0.334185 0.604736
O O1 0.500000 0.240572 0.848743
O O2 0.768666 0.258149 0.855730
O O3 0.655367 0.138127 0.879462
O O4 0.636666 0.229883 0.000000
O O5 0.245192 0.385065 0.145020
O O6 0.000000 0.327649 0.146085
O O7 0.145967 0.324101 0.000000
O O8 0.658867 0.824544 0.500000
O O9 0.500000 0.825230 0.360087
O O10 0.745658 0.871872 0.341027
O O11 0.698760 0.741373 0.368161
O O12 0.500000 0.406575 0.198849
O O13 0.673055 0.500000 0.218438
O O14 0.693037 0.387753 0.316914
O O15 0.847933 0.922511 0.190682
O O16 0.685007 0.000000 0.109469
O O17 0.803405 0.918945 0.000000
O O18 0.000000 0.906800 0.335389
O O19 0.178521 0.000000 0.330764
O O20 0.291454 0.348964 0.500000
O O21 0.500000 0.332555 0.599644
#
# Coordination Sequence:
#
# PCOD9387507 Si02
#       7
#     8   8   8   8   8   8   8
#     4   9  18  33  54  79 106 140 186 238 285 326
#     4  10  22  39  57  79 112 155 198 236 276 327
#     4   9  19  37  60  83 108 143 187 233 282 338
#     4  10  21  36  58  90 120 146 181 227 280 334
#     4   9  19  35  53  77 113 154 193 233 280 335
#     4  10  22  37  53  79 113 148 190 240 289 332
#     4   8  16  34  59  86 115 145 179 222 274 334
#
# _framework density 19.273865000000001
#
# number of rings (size 3 to 8) (size 9 to 14) (size 15 to 20)
#    0.000    2.714    0.000    1.286    2.000    4.286 
#    0.000   10.000    0.000    1.286    0.000    1.000 
#    0.000    0.000    0.000    0.000    0.000    0.000 
#
# Total GULP energy -312128.848938 kJ/mol
# GULP energy per Si atom -5573.729445 kJ/mol
# Density = 1.923000 g / cm^3
# Si number density = 19.273865 Si / 1000 Ang^3
#
#
#
# Elastic Constant Matrix: (Units=GPa)
#
#
# Indices 1 2 3 4 5 6 
#
# 1 108.7908 71.4576 31.8751 0.0000 0.0000 0.0000
# 2 71.4576 126.2870 29.8621 0.0000 0.0000 0.0000
# 3 31.8751 29.8621 58.0402 0.0000 0.0000 0.0000
# 4 0.0000 0.0000 0.0000 237.1125 0.0000 0.0000
# 5 0.0000 0.0000 0.0000 0.0000 10.9205 0.0000
# 6 0.0000 0.0000 0.0000 0.0000 0.0000 1.7339
#
#
#
# Elastic Compliance Matrix: (Units=1/GPa)
#
#
# Indices 1 2 3 4 5 6 
#
# 1 0.015636 -0.007761 -0.004594 0.000000 0.000000 0.000000
# 2 -0.007761 0.012867 -0.002358 0.000000 0.000000 0.000000
# 3 -0.004594 -0.002358 0.020966 0.000000 0.000000 0.000000
# 4 0.000000 0.000000 0.000000 0.004217 0.000000 0.000000
# 5 0.000000 0.000000 0.000000 0.000000 0.091571 0.000000
# 6 0.000000 0.000000 0.000000 0.000000 0.000000 0.576748
#
#
# Mechanical properties :
#
#
# Convention : Reuss Voigt Hill
#
# Bulk Modulus (GPa) = 49.89330 62.16754 56.03042
# Shear Modulus (GPa) = 6.59533 60.61493 33.60513
#
# Velocity S-wave (km/s) = 1.85185 5.61405 4.18013
# Velocity P-wave (km/s) = 5.52405 8.62254 7.24097
#
# Compressibility (1/GPa) = 0.02004277
#
# Stress axis : x y z
#
# Youngs Moduli (GPa) = 63.95689 77.71534 47.69706
#
# Poissons Ratio (x) = 0.60314 0.21911
# Poissons Ratio (y) = 0.49636 0.11248
# Poissons Ratio (z) = 0.29381 0.18327
#
# Static dielectric constant tensor:
#      x y z
#    x 1.665770 0.000000 0.000000 
#    y 0.000000 1.668180 0.000000 
#    z 0.000000 0.000000 1.712400 
# 
# From -- ./inp_files/21571.got.cif
#   From: 2010.05.17/outbox.cif.g08.bks.cpg/sg47_11_cif.got.tgz:21571.got - 2010.06.03 20:15:42.
