data_PCOD9387224
_publ_section_title
;
Structure prediction by ZEFSAII (Michael W. Deem and Ramdas Pophale) SiO2 
 PCOD9387224
Probable space group: P M M M
;
_chemical_formula_sum "Si O2"
_cell_formula_units_Z 52
_cell_length_a 15.435825
_cell_length_b 7.973301
_cell_length_c 21.098415
_cell_angle_alpha 90.000000
_cell_angle_beta 90.000000
_cell_angle_gamma 90.000000
_cell_volume 2596.676432
_symmetry_space_group_name_H-M "P M M M"
_symmetry_group_IT_number 47
_symmetry_cell_setting 'orthorhombic'
loop_
_space_group_symop_operation_xyz
x,y,z
-x,-y,z
x,-y,-z
-x,y,-z
-x,-y,-z
x,y,-z
-x,y,z
x,-y,z
loop_
_atom_site_type_symbol
_atom_site_label
_atom_site_fract_x
_atom_site_fract_y
_atom_site_fract_z
Si Si1 0.402630 0.298236 0.571841
Si Si2 0.000000 0.688942 0.926026
Si Si3 0.099996 0.794753 0.733884
Si Si4 0.405078 0.702786 0.793357
Si Si5 0.827135 0.193279 0.869984
Si Si6 0.652465 0.303977 0.928783
Si Si7 0.725315 0.801057 0.317118
O O1 0.384094 0.239618 0.500000
O O2 0.500000 0.239082 0.589347
O O3 0.406175 0.500000 0.570192
O O4 0.330949 0.252698 0.622896
O O5 0.084393 0.790365 0.907555
O O6 0.000000 0.500000 0.897040
O O7 0.000000 0.668449 0.000000
O O8 0.143340 0.744294 0.800841
O O9 0.174875 0.739197 0.684982
O O10 0.000000 0.737337 0.727156
O O11 0.095805 0.000000 0.734335
O O12 0.500000 0.754118 0.769060
O O13 0.402860 0.500000 0.795687
O O14 0.394078 0.765967 0.865764
O O15 0.328805 0.754441 0.746164
O O16 0.752717 0.290206 0.907496
O O17 0.798657 0.000000 0.864260
O O18 0.628202 0.500000 0.932688
O O19 0.639466 0.232757 0.000000
O O20 0.730609 0.000000 0.317768
#
# Coordination Sequence:
#
# PCOD9387224 Si02
#       7
#     8   4   8   8   8   8   8
#     4   9  19  37  60  86 119 157 188 213 252 312
#     4  11  23  35  47  69 101 131 166 221 284 339
#     4   9  18  34  54  76 104 138 177 221 267 318
#     4  10  21  36  54  76 104 142 186 227 272 334
#     4  11  20  34  54  73  96 132 177 222 275 338
#     4  10  21  36  52  71  99 135 177 230 285 330
#     4  11  21  34  57  86 114 143 178 226 276 318
#
# _framework density 20.025599
#
# number of rings (size 3 to 8) (size 9 to 14) (size 15 to 20)
#    0.000    1.923    2.308    2.538    0.000    5.846 
#    0.000    2.308    0.000    0.462    0.000    5.385 
#    0.000    0.000    0.000    0.000    0.000    0.000 
#
# Total GULP energy -289940.913478 kJ/mol
# GULP energy per Si atom -5575.786798 kJ/mol
# Density = 1.998002 g / cm^3
# Si number density = 20.025599 Si / 1000 Ang^3
#
#
#
# Elastic Constant Matrix: (Units=GPa)
#
#
# Indices 1 2 3 4 5 6 
#
# 1 115.8103 3.6315 64.0611 0.0000 0.0000 0.0000
# 2 3.6315 24.8974 10.3535 0.0000 0.0000 0.0000
# 3 64.0611 10.3535 117.6935 0.0000 0.0000 0.0000
# 4 0.0000 0.0000 0.0000 372.8447 0.0000 0.0000
# 5 0.0000 0.0000 0.0000 0.0000 28.5637 0.0000
# 6 0.0000 0.0000 0.0000 0.0000 0.0000 19.8355
#
#
#
# Elastic Compliance Matrix: (Units=1/GPa)
#
#
# Indices 1 2 3 4 5 6 
#
# 1 0.012380 0.001034 -0.006830 0.000000 0.000000 0.000000
# 2 0.001034 0.041776 -0.004238 0.000000 0.000000 0.000000
# 3 -0.006830 -0.004238 0.012587 0.000000 0.000000 0.000000
# 4 0.000000 0.000000 0.000000 0.002682 0.000000 0.000000
# 5 0.000000 0.000000 0.000000 0.000000 0.035009 0.000000
# 6 0.000000 0.000000 0.000000 0.000000 0.000000 0.050415
#
#
# Mechanical properties :
#
#
# Convention : Reuss Voigt Hill
#
# Bulk Modulus (GPa) = 21.42390 46.05481 33.73935
# Shear Modulus (GPa) = 26.25014 96.27246 61.26130
#
# Velocity S-wave (km/s) = 3.62447 6.94111 5.53696
# Velocity P-wave (km/s) = 5.31386 9.34273 7.60012
#
# Compressibility (1/GPa) = 0.04667684
#
# Stress axis : x y z
#
# Youngs Moduli (GPa) = 80.77409 23.93695 79.44804
#
# Poissons Ratio (x) = -0.02476 0.54260
# Poissons Ratio (y) = -0.08355 0.33670
# Poissons Ratio (z) = 0.55165 0.10145
#
# Static dielectric constant tensor:
#      x y z
#    x 1.730500 0.000000 0.000000 
#    y 0.000000 1.763800 0.000000 
#    z 0.000000 0.000000 1.721500 
# 
# From -- ./inp_files/7079.got.cif
#   From: 2010.05.17/outbox.cif.g08.bks.cpg/sg47_4_cif.got.tgz:7079.got - 2010.06.03 20:15:42.
