data_PCOD9387959
_publ_section_title
;
Structure prediction by ZEFSAII (Michael W. Deem and Ramdas Pophale) SiO2 
 PCOD9387959
Probable space group: P M M M
;
_chemical_formula_sum "Si O2"
_cell_formula_units_Z 44
_cell_length_a 15.102802
_cell_length_b 7.619676
_cell_length_c 19.342760
_cell_angle_alpha 90.000000
_cell_angle_beta 90.000000
_cell_angle_gamma 90.000000
_cell_volume 2225.934993
_symmetry_space_group_name_H-M "P M M M"
_symmetry_group_IT_number 47
_symmetry_cell_setting 'orthorhombic'
loop_
_space_group_symop_operation_xyz
x,y,z
-x,-y,z
x,-y,-z
-x,y,-z
-x,-y,-z
x,y,-z
-x,y,z
x,-y,z
loop_
_atom_site_type_symbol
_atom_site_label
_atom_site_fract_x
_atom_site_fract_y
_atom_site_fract_z
Si Si1 0.350659 0.296414 0.186546
Si Si2 0.104475 0.300961 0.000000
Si Si3 0.603845 0.500000 0.582657
Si Si4 0.853216 0.704217 0.147290
Si Si5 0.096366 0.203955 0.701775
Si Si6 0.500000 0.285210 0.080199
Si Si7 0.705851 0.202461 0.336059
O O1 0.374749 0.500000 0.200309
O O2 0.251603 0.291484 0.157655
O O3 0.416408 0.230290 0.127229
O O4 0.342894 0.207250 0.261233
O O5 0.128022 0.215882 0.072722
O O6 0.145387 0.500000 0.000000
O O7 0.000000 0.318712 0.000000
O O8 0.500000 0.500000 0.602263
O O9 0.609784 0.500000 0.500000
O O10 0.652964 0.669400 0.613975
O O11 0.882940 0.500000 0.146088
O O12 0.896250 0.786061 0.215025
O O13 0.192163 0.270432 0.674986
O O14 0.000000 0.281311 0.681496
O O15 0.094830 0.000000 0.681755
O O16 0.500000 0.500000 0.077067
O O17 0.500000 0.225989 0.000000
O O18 0.708687 0.000000 0.359213
#
# Coordination Sequence:
#
# PCOD9387959 Si02
#       7
#     8   4   4   8   8   4   8
#     4   9  17  30  50  75 108 149 197 250 299 349
#     4   9  16  24  35  56  88 128 179 239 298 349
#     4  11  26  46  69  97 129 159 193 240 295 355
#     4   9  17  27  42  65  96 137 189 243 293 347
#     4   9  18  33  54  83 117 151 193 243 290 343
#     4   9  18  28  45  75 109 149 199 252 311 368
#     4  10  21  39  65  94 125 162 203 245 295 356
#
# _framework density 19.766973
#
# number of rings (size 3 to 8) (size 9 to 14) (size 15 to 20)
#    0.000    2.636    0.909    0.545    3.818    1.818 
#    0.000    1.364    0.000    3.818    0.000    2.545 
#    0.000    0.000    0.000    0.000    0.000    0.000 
#
# Total GULP energy -245193.954220 kJ/mol
# GULP energy per Si atom -5572.589869 kJ/mol
# Density = 1.972198 g / cm^3
# Si number density = 19.766973 Si / 1000 Ang^3
#
#
#
# Elastic Constant Matrix: (Units=GPa)
#
#
# Indices 1 2 3 4 5 6 
#
# 1 135.8274 35.7918 57.8178 0.0000 0.0000 0.0000
# 2 35.7918 71.8014 30.4230 0.0000 0.0000 0.0000
# 3 57.8178 30.4230 80.1370 0.0000 0.0000 0.0000
# 4 0.0000 0.0000 0.0000 -22.0975 0.0000 0.0000
# 5 0.0000 0.0000 0.0000 0.0000 15.6768 0.0000
# 6 0.0000 0.0000 0.0000 0.0000 0.0000 15.0296
#
#
#
# Elastic Compliance Matrix: (Units=1/GPa)
#
#
# Indices 1 2 3 4 5 6 
#
# 1 0.010997 -0.002526 -0.006975 0.000000 0.000000 0.000000
# 2 -0.002526 0.017177 -0.004698 0.000000 0.000000 0.000000
# 3 -0.006975 -0.004698 0.019295 0.000000 0.000000 0.000000
# 4 0.000000 0.000000 0.000000 -0.045254 0.000000 0.000000
# 5 0.000000 0.000000 0.000000 0.000000 0.063789 0.000000
# 6 0.000000 0.000000 0.000000 0.000000 0.000000 0.066535
#
#
# Mechanical properties :
#
#
# Convention : Reuss Voigt Hill
#
# Bulk Modulus (GPa) = 52.44009 59.53680 55.98845
# Shear Modulus (GPa) = 29.88718 12.63733 21.26225
#
# Velocity S-wave (km/s) = 3.89263 2.53121 3.28326
# Velocity P-wave (km/s) = 6.84033 6.22314 6.53902
#
# Compressibility (1/GPa) = 0.01906938
#
# Stress axis : x y z
#
# Youngs Moduli (GPa) = 90.93261 58.21581 51.82741
#
# Poissons Ratio (x) = 0.14708 0.36150
# Poissons Ratio (y) = 0.22974 0.24351
# Poissons Ratio (z) = 0.63427 0.27352
#
# Static dielectric constant tensor:
#      x y z
#    x 1.718490 0.000000 0.000000 
#    y 0.000000 1.771610 0.000000 
#    z 0.000000 0.000000 1.676390 
# 
# From -- ./inp_files/27954.got.cif
#   From: 2010.05.17/outbox.cif.g08.bks.cpg/sg47_14_cif.got.tgz:27954.got - 2010.06.03 20:15:42.
