data_PCOD9387144
_publ_section_title
;
Structure prediction by ZEFSAII (Michael W. Deem and Ramdas Pophale) SiO2 
 PCOD9387144
Probable space group: P M M M
;
_chemical_formula_sum "Si O2"
_cell_formula_units_Z 64
_cell_length_a 24.899887
_cell_length_b 8.168781
_cell_length_c 14.677424
_cell_angle_alpha 90.000000
_cell_angle_beta 90.000000
_cell_angle_gamma 90.000000
_cell_volume 2985.413343
_symmetry_space_group_name_H-M "P M M M"
_symmetry_group_IT_number 47
_symmetry_cell_setting 'orthorhombic'
loop_
_space_group_symop_operation_xyz
x,y,z
-x,-y,z
x,-y,-z
-x,y,-z
-x,-y,-z
x,y,-z
-x,y,z
x,-y,z
loop_
_atom_site_type_symbol
_atom_site_label
_atom_site_fract_x
_atom_site_fract_y
_atom_site_fract_z
Si Si1 0.277742 0.193382 0.108058
Si Si2 0.828090 0.194688 0.210690
Si Si3 0.935665 0.688101 0.403603
Si Si4 0.218751 0.306081 0.603924
Si Si5 0.059786 0.697668 0.201957
Si Si6 0.338227 0.195996 0.392801
Si Si7 0.558368 0.193995 0.286458
Si Si8 0.396874 0.307317 0.103849
O O1 0.225908 0.256876 0.161301
O O2 0.334175 0.279299 0.127818
O O3 0.284846 0.000000 0.129801
O O4 0.268028 0.207479 0.000000
O O5 0.820028 0.240584 0.317278
O O6 0.882446 0.257536 0.161647
O O7 0.828667 0.000000 0.203448
O O8 0.916362 0.761197 0.500000
O O9 0.914796 0.500000 0.399635
O O10 0.931564 0.766778 0.304622
O O11 0.000000 0.674568 0.410969
O O12 0.211089 0.241711 0.500000
O O13 0.212510 0.500000 0.600492
O O14 0.280090 0.266349 0.631463
O O15 0.057309 0.500000 0.206846
O O16 0.000000 0.750398 0.168896
O O17 0.346714 0.226200 0.500000
O O18 0.389255 0.261826 0.337680
O O19 0.334478 0.000000 0.378639
O O20 0.500000 0.262076 0.313005
O O21 0.567963 0.219286 0.179448
O O22 0.557511 0.000000 0.306165
O O23 0.408592 0.500000 0.106198
O O24 0.404504 0.247683 0.000000
#
# Coordination Sequence:
#
# PCOD9387144 Si02
#       8
#     8   8   8   8   8   8   8   8
#     4   9  19  37  59  81 105 134 170 212 262 322
#     4  11  22  34  53  80 107 135 168 214 267 311
#     4   7  10  19  37  59  81 109 150 195 230 264
#     4  10  21  36  54  77 106 141 179 216 258 314
#     4   9  18  32  49  70  99 137 176 209 248 305
#     4   9  18  34  55  77 104 138 176 223 273 311
#     4  10  21  35  52  77 108 144 185 221 256 307
#     4  10  21  36  55  80 108 137 170 213 267 319
#
# _framework density 21.437567999999999
#
# number of rings (size 3 to 8) (size 9 to 14) (size 15 to 20)
#    0.000    2.625    0.000    3.000    0.000    7.500 
#    0.000    3.750    0.000    0.375    0.000    7.875 
#    0.000    0.000    0.000    0.000    0.000    0.000 
#
# Total GULP energy -356774.272939 kJ/mol
# GULP energy per Si atom -5574.598015 kJ/mol
# Density = 2.138878 g / cm^3
# Si number density = 21.437568 Si / 1000 Ang^3
#
#
#
# Elastic Constant Matrix: (Units=GPa)
#
#
# Indices 1 2 3 4 5 6 
#
# 1 145.4799 11.5034 24.4590 0.0000 0.0000 0.0000
# 2 11.5034 14.6822 2.2275 0.0000 0.0000 0.0000
# 3 24.4590 2.2275 16.5665 0.0000 0.0000 0.0000
# 4 0.0000 0.0000 0.0000 12.4650 0.0000 0.0000
# 5 0.0000 0.0000 0.0000 0.0000 6.3036 0.0000
# 6 0.0000 0.0000 0.0000 0.0000 0.0000 24.7719
#
#
#
# Elastic Compliance Matrix: (Units=1/GPa)
#
#
# Indices 1 2 3 4 5 6 
#
# 1 0.009553 -0.005456 -0.013371 0.000000 0.000000 0.000000
# 2 -0.005456 0.072645 -0.001712 0.000000 0.000000 0.000000
# 3 -0.013371 -0.001712 0.080334 0.000000 0.000000 0.000000
# 4 0.000000 0.000000 0.000000 0.080225 0.000000 0.000000
# 5 0.000000 0.000000 0.000000 0.000000 0.158640 0.000000
# 6 0.000000 0.000000 0.000000 0.000000 0.000000 0.040368
#
#
# Mechanical properties :
#
#
# Convention : Reuss Voigt Hill
#
# Bulk Modulus (GPa) = 8.23356 28.12312 18.17834
# Shear Modulus (GPa) = 9.55426 17.94401 13.74913
#
# Velocity S-wave (km/s) = 2.11340 2.89630 2.53525
# Velocity P-wave (km/s) = 3.13119 4.93273 4.13135
#
# Compressibility (1/GPa) = 0.12145418
#
# Stress axis : x y z
#
# Youngs Moduli (GPa) = 104.67645 13.76564 12.44802
#
# Poissons Ratio (x) = 0.07511 0.16644
# Poissons Ratio (y) = 0.57116 0.02131
# Poissons Ratio (z) = 1.39962 0.02356
#
# Static dielectric constant tensor:
#      x y z
#    x 1.825490 0.000000 0.000000 
#    y 0.000000 1.755650 0.000000 
#    z 0.000000 0.000000 1.837400 
# 
# From -- ./inp_files/25557.got.cif
#   From: 2010.05.17/outbox.cif.g08.bks.cpg/sg47_13_cif.got.tgz:25557.got - 2010.06.03 20:15:42.
