data_PCOD9387990
_publ_section_title
;
Structure prediction by ZEFSAII (Michael W. Deem and Ramdas Pophale) SiO2 
 PCOD9387990
Probable space group: P M M M
;
_chemical_formula_sum "Si O2"
_cell_formula_units_Z 52
_cell_length_a 13.037234
_cell_length_b 7.499842
_cell_length_c 25.516507
_cell_angle_alpha 90.000000
_cell_angle_beta 90.000000
_cell_angle_gamma 90.000000
_cell_volume 2494.932484
_symmetry_space_group_name_H-M "P M M M"
_symmetry_group_IT_number 47
_symmetry_cell_setting 'orthorhombic'
loop_
_space_group_symop_operation_xyz
x,y,z
-x,-y,z
x,-y,-z
-x,y,-z
-x,-y,-z
x,y,-z
-x,y,z
x,-y,z
loop_
_atom_site_type_symbol
_atom_site_label
_atom_site_fract_x
_atom_site_fract_y
_atom_site_fract_z
Si Si1 0.500000 0.704640 0.274253
Si Si2 0.882312 0.282588 0.058878
Si Si3 0.276691 0.714646 0.733717
Si Si4 0.883666 0.213100 0.355948
Si Si5 0.500000 0.705099 0.853376
Si Si6 0.276544 0.280883 0.146325
Si Si7 0.500000 0.288615 0.559676
Si Si8 0.275948 0.788158 0.559596
O O1 0.500000 0.500000 0.294404
O O2 0.612055 0.783638 0.286582
O O3 0.500000 0.700541 0.210373
O O4 0.881292 0.500000 0.059420
O O5 0.807635 0.222276 0.104813
O O6 0.000000 0.227810 0.067449
O O7 0.851487 0.228074 0.000000
O O8 0.287521 0.500000 0.735459
O O9 0.182653 0.756952 0.696183
O O10 0.257927 0.774106 0.793505
O O11 0.813480 0.284477 0.403505
O O12 0.000000 0.282673 0.353915
O O13 0.890805 0.000000 0.362841
O O14 0.500000 0.500000 0.871528
O O15 0.390685 0.782100 0.869034
O O16 0.277900 0.500000 0.146470
O O17 0.500000 0.500000 0.556745
O O18 0.500000 0.213066 0.500000
O O19 0.609803 0.237904 0.582887
O O20 0.274638 0.715694 0.500000
O O21 0.261310 0.000000 0.555907
#
# Coordination Sequence:
#
# PCOD9387990 Si02
#       8
#     4   8   8   8   4   8   4   8
#     4   7  12  25  44  66  89 112 142 181 223 263
#     4   8  13  20  29  44  71 106 141 179 221 258
#     4   9  17  30  49  70  91 118 152 187 225 276
#     4  10  22  37  49  66  95 124 151 191 236 270
#     4   7  10  18  32  50  74 102 131 167 210 255
#     4   8  13  22  37  56  78 106 140 176 215 262
#     4   9  17  30  51  80 108 126 145 184 235 277
#     4   9  18  34  55  74  93 123 160 191 223 271
#
# _framework density 20.842248000000001
#
# number of rings (size 3 to 8) (size 9 to 14) (size 15 to 20)
#    0.000    3.462    0.000    2.538    0.000    3.385 
#    0.000    5.385    0.000    2.308    0.000    3.231 
#    0.000    0.615    0.000    3.385    0.000   11.385 
#
# Total GULP energy -289817.391430 kJ/mol
# GULP energy per Si atom -5573.411374 kJ/mol
# Density = 2.079481 g / cm^3
# Si number density = 20.842248 Si / 1000 Ang^3
#
#
#
# Elastic Constant Matrix: (Units=GPa)
#
#
# Indices 1 2 3 4 5 6 
#
# 1 223.9728 5.7586 115.3555 0.0000 0.0000 0.0000
# 2 5.7586 57.5785 3.7508 0.0000 0.0000 0.0000
# 3 115.3555 3.7508 127.7020 0.0000 0.0000 0.0000
# 4 0.0000 0.0000 0.0000 10.6678 0.0000 0.0000
# 5 0.0000 0.0000 0.0000 0.0000 18.6364 0.0000
# 6 0.0000 0.0000 0.0000 0.0000 0.0000 -0.1196
#
#
#
# Elastic Compliance Matrix: (Units=1/GPa)
#
#
# Indices 1 2 3 4 5 6 
#
# 1 0.008356 -0.000345 -0.007538 0.000000 0.000000 0.000000
# 2 -0.000345 0.017415 -0.000200 0.000000 0.000000 0.000000
# 3 -0.007538 -0.000200 0.014646 0.000000 0.000000 0.000000
# 4 0.000000 0.000000 0.000000 0.093740 0.000000 0.000000
# 5 0.000000 0.000000 0.000000 0.000000 0.053658 0.000000
# 6 0.000000 0.000000 0.000000 0.000000 0.000000 -8.359591
#
#
# Mechanical properties :
#
#
# Convention : Reuss Voigt Hill
#
# Bulk Modulus (GPa) = 41.23495 73.22033 57.22764
# Shear Modulus (GPa) = -0.61368 24.79615 12.09124
#
# Velocity S-wave (km/s) = -0.54321 3.45295 2.41120
# Velocity P-wave (km/s) = 4.40838 7.14872 5.93877
#
# Compressibility (1/GPa) = 0.02425127
#
# Stress axis : x y z
#
# Youngs Moduli (GPa) = 119.67240 57.42141 68.27831
#
# Poissons Ratio (x) = 0.01979 0.51469
# Poissons Ratio (y) = 0.04125 0.01367
# Poissons Ratio (z) = 0.90211 0.01149
#
# Static dielectric constant tensor:
#      x y z
#    x 1.759680 0.000000 0.000000 
#    y 0.000000 1.837090 0.000000 
#    z 0.000000 0.000000 1.736780 
# 
# From -- ./inp_files/33625.got.cif
#   From: 2010.05.17/outbox.cif.g08.bks.cpg/sg47_17_cif.got.tgz:33625.got - 2010.06.03 20:15:42.
