data_PCOD9387618
_publ_section_title
;
Structure prediction by ZEFSAII (Michael W. Deem and Ramdas Pophale) SiO2 
 PCOD9387618
Probable space group: P M M M
;
_chemical_formula_sum "Si O2"
_cell_formula_units_Z 56
_cell_length_a 14.030003
_cell_length_b 22.871419
_cell_length_c 10.107707
_cell_angle_alpha 90.000000
_cell_angle_beta 90.000000
_cell_angle_gamma 90.000000
_cell_volume 3243.422449
_symmetry_space_group_name_H-M "P M M M"
_symmetry_group_IT_number 47
_symmetry_cell_setting 'orthorhombic'
loop_
_space_group_symop_operation_xyz
x,y,z
-x,-y,z
x,-y,-z
-x,y,-z
-x,-y,-z
x,y,-z
-x,y,z
x,-y,z
loop_
_atom_site_type_symbol
_atom_site_label
_atom_site_fract_x
_atom_site_fract_y
_atom_site_fract_z
Si Si1 0.613748 0.933086 0.500000
Si Si2 0.614601 0.930677 0.000000
Si Si3 0.886816 0.678761 0.154904
Si Si4 0.241229 0.433154 0.845724
Si Si5 0.260737 0.741695 0.657258
Si Si6 0.387836 0.373184 0.345897
Si Si7 0.110715 0.931077 0.657577
Si Si8 0.707239 0.129516 0.747801
O O1 0.500000 0.932539 0.500000
O O2 0.653728 0.900886 0.373460
O O3 0.647135 0.000000 0.500000
O O4 0.657567 0.896808 0.124430
O O5 0.500000 0.927692 0.000000
O O6 0.640257 0.000000 0.000000
O O7 0.843593 0.613581 0.173141
O O8 0.829833 0.718723 0.259047
O O9 0.000000 0.680120 0.175725
O O10 0.868158 0.695133 0.000000
O O11 0.212261 0.500000 0.820543
O O12 0.327390 0.414404 0.750556
O O13 0.270554 0.428671 0.000000
O O14 0.240320 0.750828 0.500000
O O15 0.340768 0.691142 0.666681
O O16 0.295714 0.801444 0.723920
O O17 0.376473 0.390805 0.500000
O O18 0.500000 0.372421 0.315262
O O19 0.124848 0.920980 0.500000
O O20 0.183455 0.891754 0.738098
O O21 0.000000 0.919463 0.687014
O O22 0.128822 0.000000 0.681604
#
# Coordination Sequence:
#
# PCOD9387618 Si02
#       8
#     4   4   8   8   8   8   8   8
#     4  11  22  36  59  87 111 141 189 240 286 342
#     4  11  26  44  59  81 117 155 187 228 290 356
#     4   9  19  36  59  83 114 154 189 227 276 330
#     4   9  18  33  54  82 115 146 185 234 276 322
#     4  10  21  37  56  84 111 141 187 239 284 331
#     4   9  19  35  53  74 107 148 186 229 281 332
#     4   9  17  31  54  83 110 136 172 221 278 336
#     4  12  22  38  60  84 112 149 189 236 289 341
#
# _framework density 17.265712000000001
#
# number of rings (size 3 to 8) (size 9 to 14) (size 15 to 20)
#    0.000    2.143    1.429    2.143    1.000    4.286 
#    0.000    3.214    0.000    1.286    0.000    4.000 
#    0.000    0.000    0.000    0.000    0.000    0.000 
#
# Total GULP energy -312402.864913 kJ/mol
# GULP energy per Si atom -5578.622588 kJ/mol
# Density = 1.722641 g / cm^3
# Si number density = 17.265712 Si / 1000 Ang^3
#
#
#
# Elastic Constant Matrix: (Units=GPa)
#
#
# Indices 1 2 3 4 5 6 
#
# 1 68.4388 24.7570 39.3141 0.0000 0.0000 0.0000
# 2 24.7570 105.4342 58.1946 0.0000 0.0000 0.0000
# 3 39.3141 58.1946 105.9968 0.0000 0.0000 0.0000
# 4 0.0000 0.0000 0.0000 25.1103 0.0000 0.0000
# 5 0.0000 0.0000 0.0000 0.0000 155.4227 0.0000
# 6 0.0000 0.0000 0.0000 0.0000 0.0000 18.3885
#
#
#
# Elastic Compliance Matrix: (Units=1/GPa)
#
#
# Indices 1 2 3 4 5 6 
#
# 1 0.018615 -0.000804 -0.006463 0.000000 0.000000 0.000000
# 2 -0.000804 0.013643 -0.007192 0.000000 0.000000 0.000000
# 3 -0.006463 -0.007192 0.015780 0.000000 0.000000 0.000000
# 4 0.000000 0.000000 0.000000 0.039824 0.000000 0.000000
# 5 0.000000 0.000000 0.000000 0.000000 0.006434 0.000000
# 6 0.000000 0.000000 0.000000 0.000000 0.000000 0.054382
#
#
# Mechanical properties :
#
#
# Convention : Reuss Voigt Hill
#
# Bulk Modulus (GPa) = 52.30082 58.26681 55.28382
# Shear Modulus (GPa) = 27.17835 50.29121 38.73478
#
# Velocity S-wave (km/s) = 3.97183 5.40287 4.74165
# Velocity P-wave (km/s) = 7.16878 8.52888 7.87823
#
# Compressibility (1/GPa) = 0.01912016
#
# Stress axis : x y z
#
# Youngs Moduli (GPa) = 53.72022 73.29711 63.37091
#
# Poissons Ratio (x) = 0.05891 0.40957
# Poissons Ratio (y) = 0.04317 0.45578
# Poissons Ratio (z) = 0.34720 0.52717
#
# Static dielectric constant tensor:
#      x y z
#    x 1.570860 0.000000 0.000000 
#    y 0.000000 1.582220 0.000000 
#    z 0.000000 0.000000 1.567730 
# 
# From -- ./inp_files/7449.got.cif
#   From: 2010.05.17/outbox.cif.g08.bks.cpg/sg47_4_cif.got.tgz:7449.got - 2010.06.03 20:15:42.
