data_PCOD9387253
_publ_section_title
;
Structure prediction by ZEFSAII (Michael W. Deem and Ramdas Pophale) SiO2 
 PCOD9387253
Probable space group: P M M M
;
_chemical_formula_sum "Si O2"
_cell_formula_units_Z 44
_cell_length_a 28.898610
_cell_length_b 8.820589
_cell_length_c 9.893206
_cell_angle_alpha 90.000000
_cell_angle_beta 90.000000
_cell_angle_gamma 90.000000
_cell_volume 2521.805529
_symmetry_space_group_name_H-M "P M M M"
_symmetry_group_IT_number 47
_symmetry_cell_setting 'orthorhombic'
loop_
_space_group_symop_operation_xyz
x,y,z
-x,-y,z
x,-y,-z
-x,y,-z
-x,-y,-z
x,y,-z
-x,y,z
x,-y,z
loop_
_atom_site_type_symbol
_atom_site_label
_atom_site_fract_x
_atom_site_fract_y
_atom_site_fract_z
Si Si1 0.731016 0.318940 0.842501
Si Si2 0.552808 0.682509 0.342142
Si Si3 0.189415 0.817868 0.341590
Si Si4 0.083958 0.184667 0.654815
Si Si5 0.000000 0.814541 0.155786
Si Si6 0.367590 0.181159 0.842458
O O1 0.728316 0.500000 0.834364
O O2 0.772737 0.258768 0.752069
O O3 0.681824 0.249222 0.799239
O O4 0.738229 0.275890 0.000000
O O5 0.560177 0.721425 0.500000
O O6 0.500000 0.726307 0.306370
O O7 0.555859 0.500000 0.331106
O O8 0.590899 0.757293 0.248050
O O9 0.197617 0.784346 0.500000
O O10 0.136500 0.770242 0.310568
O O11 0.192018 0.000000 0.325410
O O12 0.073587 0.231718 0.500000
O O13 0.045362 0.234539 0.760923
O O14 0.083516 0.000000 0.653966
O O15 0.000000 0.000000 0.155452
O O16 0.000000 0.765456 0.000000
O O17 0.365489 0.000000 0.834329
O O18 0.374646 0.224409 0.000000
#
# Coordination Sequence:
#
# PCOD9387253 Si02
#       6
#     8   8   8   8   4   8
#     4  10  21  36  53  73  98 130 167 205 248 299
#     4   9  19  36  56  78 105 137 172 208 247 293
#     4   9  18  32  50  73  99 128 165 206 248 296
#     4   8  14  25  40  59  88 125 159 193 237 288
#     4   9  15  21  33  59  92 123 158 197 236 282
#     4  10  21  36  54  77 104 134 169 208 250 297
#
# _framework density 17.447816
#
# number of rings (size 3 to 8) (size 9 to 14) (size 15 to 20)
#    0.000    2.818    0.000    3.000    0.000    6.182 
#    0.000    4.545    0.000    0.000    0.000    0.636 
#    0.000    5.091    0.000    0.000    0.000    0.000 
#
# Total GULP energy -245371.666961 kJ/mol
# GULP energy per Si atom -5576.628795 kJ/mol
# Density = 1.740810 g / cm^3
# Si number density = 17.447816 Si / 1000 Ang^3
#
#
#
# Elastic Constant Matrix: (Units=GPa)
#
#
# Indices 1 2 3 4 5 6 
#
# 1 189.4532 43.9034 121.9540 0.0000 0.0000 0.0000
# 2 43.9034 18.0830 34.8955 0.0000 0.0000 0.0000
# 3 121.9540 34.8955 104.7837 0.0000 0.0000 0.0000
# 4 0.0000 0.0000 0.0000 24.1934 0.0000 0.0000
# 5 0.0000 0.0000 0.0000 0.0000 53.2301 0.0000
# 6 0.0000 0.0000 0.0000 0.0000 0.0000 390.6413
#
#
#
# Elastic Compliance Matrix: (Units=1/GPa)
#
#
# Indices 1 2 3 4 5 6 
#
# 1 0.021815 -0.011106 -0.021691 0.000000 0.000000 0.000000
# 2 -0.011106 0.160405 -0.040493 0.000000 0.000000 0.000000
# 3 -0.021691 -0.040493 0.048274 0.000000 0.000000 0.000000
# 4 0.000000 0.000000 0.000000 0.041334 0.000000 0.000000
# 5 0.000000 0.000000 0.000000 0.000000 0.018786 0.000000
# 6 0.000000 0.000000 0.000000 0.000000 0.000000 0.002560
#
#
# Mechanical properties :
#
#
# Convention : Reuss Voigt Hill
#
# Bulk Modulus (GPa) = 11.91696 79.31396 45.61546
# Shear Modulus (GPa) = 10.69005 101.05078 55.87042
#
# Velocity S-wave (km/s) = 2.47794 7.61851 5.66489
# Velocity P-wave (km/s) = 3.87708 11.08808 8.30594
#
# Compressibility (1/GPa) = 0.08391404
#
# Stress axis : x y z
#
# Youngs Moduli (GPa) = 45.84046 6.23422 20.71507
#
# Poissons Ratio (x) = 0.06924 0.44933
# Poissons Ratio (y) = 0.50909 0.83882
# Poissons Ratio (z) = 0.99432 0.25244
#
# Static dielectric constant tensor:
#      x y z
#    x 1.574180 0.000000 0.000000 
#    y 0.000000 1.584600 0.000000 
#    z 0.000000 0.000000 1.579830 
# 
# From -- ./inp_files/13608.got.cif
#   From: 2010.05.17/outbox.cif.g08.bks.cpg/sg47_7_cif.got.tgz:13608.got - 2010.06.03 20:15:42.
