data_PCOD9387168
_publ_section_title
;
Structure prediction by ZEFSAII (Michael W. Deem and Ramdas Pophale) SiO2 
 PCOD9387168
Probable space group: P M M M
;
_chemical_formula_sum "Si O2"
_cell_formula_units_Z 44
_cell_length_a 16.399251
_cell_length_b 17.051362
_cell_length_c 7.569693
_cell_angle_alpha 90.000000
_cell_angle_beta 90.000000
_cell_angle_gamma 90.000000
_cell_volume 2116.709963
_symmetry_space_group_name_H-M "P M M M"
_symmetry_group_IT_number 47
_symmetry_cell_setting 'orthorhombic'
loop_
_space_group_symop_operation_xyz
x,y,z
-x,-y,z
x,-y,-z
-x,y,-z
-x,-y,-z
x,y,-z
-x,y,z
x,-y,z
loop_
_atom_site_type_symbol
_atom_site_label
_atom_site_fract_x
_atom_site_fract_y
_atom_site_fract_z
Si Si1 0.410889 0.172608 0.791661
Si Si2 0.835739 0.000000 0.288069
Si Si3 0.500000 0.595642 0.703768
Si Si4 0.353280 0.000000 0.712270
Si Si5 0.323027 0.589342 0.713834
Si Si6 0.751825 0.745855 0.208966
Si Si7 0.909501 0.167607 0.791286
O O1 0.500000 0.194045 0.716926
O O2 0.396404 0.079510 0.773157
O O3 0.330466 0.214449 0.715135
O O4 0.413438 0.191063 0.000000
O O5 0.881891 0.922337 0.227312
O O6 0.834367 0.000000 0.500000
O O7 0.741375 0.000000 0.226672
O O8 0.500000 0.500000 0.701774
O O9 0.500000 0.621825 0.500000
O O10 0.412503 0.616875 0.782399
O O11 0.353679 0.000000 0.500000
O O12 0.327917 0.587805 0.500000
O O13 0.308210 0.500000 0.772063
O O14 0.257565 0.653219 0.767714
O O15 0.835033 0.781248 0.284073
O O16 0.751926 0.764337 0.000000
O O17 0.000000 0.179380 0.715956
O O18 0.914579 0.185353 0.000000
#
# Coordination Sequence:
#
# PCOD9387168 Si02
#       7
#     8   4   4   4   8   8   8
#     4  10  21  36  53  73 102 143 182 215 259 308
#     4  11  22  35  54  81 109 136 169 214 265 311
#     4   7  12  26  47  71  99 132 169 204 239 289
#     4  11  22  35  52  75 105 140 181 220 253 299
#     4   9  18  33  53  76 104 139 175 209 252 307
#     4  10  21  35  53  78 106 133 168 217 260 303
#     4  10  21  38  59  79 101 135 175 212 258 314
#
# _framework density 20.786978000000001
#
# number of rings (size 3 to 8) (size 9 to 14) (size 15 to 20)
#    0.000    2.273    1.818    2.182    1.273    5.455 
#    0.000    0.000    0.000    2.182    0.000    3.818 
#    0.000    0.000    0.000    0.000    0.000    0.000 
#
# Total GULP energy -245721.594554 kJ/mol
# GULP energy per Si atom -5584.581694 kJ/mol
# Density = 2.073967 g / cm^3
# Si number density = 20.786978 Si / 1000 Ang^3
#
#
#
# Elastic Constant Matrix: (Units=GPa)
#
#
# Indices 1 2 3 4 5 6 
#
# 1 204.0982 79.4127 14.1088 0.0000 0.0000 0.0000
# 2 79.4127 105.9880 -11.8450 0.0000 0.0000 0.0000
# 3 14.1088 -11.8450 52.5928 0.0000 0.0000 0.0000
# 4 0.0000 0.0000 0.0000 21.6877 0.0000 0.0000
# 5 0.0000 0.0000 0.0000 0.0000 6.0206 0.0000
# 6 0.0000 0.0000 0.0000 0.0000 0.0000 -3.4992
#
#
#
# Elastic Compliance Matrix: (Units=1/GPa)
#
#
# Indices 1 2 3 4 5 6 
#
# 1 0.007446 -0.005952 -0.003338 0.000000 0.000000 0.000000
# 2 -0.005952 0.014437 0.004848 0.000000 0.000000 0.000000
# 3 -0.003338 0.004848 0.021001 0.000000 0.000000 0.000000
# 4 0.000000 0.000000 0.000000 0.046109 0.000000 0.000000
# 5 0.000000 0.000000 0.000000 0.000000 0.166098 0.000000
# 6 0.000000 0.000000 0.000000 0.000000 0.000000 -0.285776
#
#
# Mechanical properties :
#
#
# Convention : Reuss Voigt Hill
#
# Bulk Modulus (GPa) = 29.41179 58.44801 43.92990
# Shear Modulus (GPa) = -477.70673 23.57531 -227.06571
#
# Velocity S-wave (km/s) = -15.17595 3.37135 -10.46287
# Velocity P-wave (km/s) = 17.11431 6.58280 11.17063
#
# Compressibility (1/GPa) = 0.03399997
#
# Stress axis : x y z
#
# Youngs Moduli (GPa) = 134.29378 69.26783 47.61577
#
# Poissons Ratio (x) = 0.41231 0.15895
# Poissons Ratio (y) = 0.79936 -0.23085
# Poissons Ratio (z) = 0.44830 -0.33583
#
# Static dielectric constant tensor:
#      x y z
#    x 1.782690 0.000000 0.000000 
#    y 0.000000 1.723230 0.000000 
#    z 0.000000 0.000000 1.777310 
# 
# From -- ./inp_files/6293.got.cif
#   From: 2010.05.17/outbox.cif.g08.bks.cpg/sg47_4_cif.got.tgz:6293.got - 2010.06.03 20:15:42.
