data_PCOD9387792
_publ_section_title
;
Structure prediction by ZEFSAII (Michael W. Deem and Ramdas Pophale) SiO2 
 PCOD9387792
Probable space group: P M M M
;
_chemical_formula_sum "Si O2"
_cell_formula_units_Z 56
_cell_length_a 15.303105
_cell_length_b 21.014163
_cell_length_c 8.651248
_cell_angle_alpha 90.000000
_cell_angle_beta 90.000000
_cell_angle_gamma 90.000000
_cell_volume 2782.085140
_symmetry_space_group_name_H-M "P M M M"
_symmetry_group_IT_number 47
_symmetry_cell_setting 'orthorhombic'
loop_
_space_group_symop_operation_xyz
x,y,z
-x,-y,z
x,-y,-z
-x,y,-z
-x,-y,-z
x,y,-z
-x,y,z
x,-y,z
loop_
_atom_site_type_symbol
_atom_site_label
_atom_site_fract_x
_atom_site_fract_y
_atom_site_fract_z
Si Si1 0.245888 0.068581 0.500000
Si Si2 0.602066 0.362455 0.681516
Si Si3 0.098266 0.071014 0.243204
Si Si4 0.405894 0.837727 0.500000
Si Si5 0.358368 0.228446 0.821719
Si Si6 0.151150 0.210267 0.166908
Si Si7 0.760007 0.571300 0.817308
Si Si8 0.098157 0.333971 0.681488
O O1 0.179143 0.071953 0.358949
O O2 0.319604 0.120385 0.500000
O O3 0.290297 0.000000 0.500000
O O4 0.613801 0.344913 0.500000
O O5 0.500000 0.377899 0.703653
O O6 0.628076 0.303171 0.790523
O O7 0.670016 0.416845 0.726221
O O8 0.111588 0.139487 0.164845
O O9 0.000000 0.072750 0.310816
O O10 0.103013 0.000000 0.167582
O O11 0.500000 0.871524 0.500000
O O12 0.401255 0.801118 0.334143
O O13 0.256108 0.209222 0.815710
O O14 0.387820 0.213070 0.000000
O O15 0.114027 0.258703 0.292030
O O16 0.131659 0.240248 0.000000
O O17 0.793314 0.500000 0.785010
O O18 0.829011 0.624805 0.767180
O O19 0.743448 0.576649 0.000000
O O20 0.105535 0.347399 0.500000
O O21 0.000000 0.349495 0.733775
#
# Coordination Sequence:
#
# PCOD9387792 Si02
#       8
#     4   8   8   4   8   8   8   8
#     4  10  21  39  60  85 123 165 207 266 322 384
#     4  11  23  40  65  96 130 167 210 260 317 384
#     4  10  21  37  61  92 126 169 216 261 318 385
#     4  12  24  40  67  96 123 165 217 268 325 389
#     4  11  23  40  63  95 132 169 211 265 326 385
#     4  11  23  39  62  92 128 170 210 259 323 383
#     4  11  25  44  66  93 126 167 213 262 321 387
#     4  11  25  42  64  93 124 163 211 265 321 381
#
# _framework density 20.128786000000002
#
# number of rings (size 3 to 8) (size 9 to 14) (size 15 to 20)
#    0.000    1.143    3.571    2.357    2.000    7.000 
#    0.000    3.571    0.000    0.429    0.000    1.000 
#    0.000    0.000    0.000    0.000    0.000    0.000 
#
# Total GULP energy -312147.988792 kJ/mol
# GULP energy per Si atom -5574.071228 kJ/mol
# Density = 2.008297 g / cm^3
# Si number density = 20.128786 Si / 1000 Ang^3
#
#
#
# Elastic Constant Matrix: (Units=GPa)
#
#
# Indices 1 2 3 4 5 6 
#
# 1 113.7937 39.9842 34.2930 0.0000 0.0000 0.0000
# 2 39.9842 99.1102 29.6330 0.0000 0.0000 0.0000
# 3 34.2930 29.6330 97.1005 0.0000 0.0000 0.0000
# 4 0.0000 0.0000 0.0000 -49.6424 0.0000 0.0000
# 5 0.0000 0.0000 0.0000 0.0000 -39.2881 0.0000
# 6 0.0000 0.0000 0.0000 0.0000 0.0000 37.3491
#
#
#
# Elastic Compliance Matrix: (Units=1/GPa)
#
#
# Indices 1 2 3 4 5 6 
#
# 1 0.010869 -0.003562 -0.002751 0.000000 0.000000 0.000000
# 2 -0.003562 0.012270 -0.002487 0.000000 0.000000 0.000000
# 3 -0.002751 -0.002487 0.012029 0.000000 0.000000 0.000000
# 4 0.000000 0.000000 0.000000 -0.020144 0.000000 0.000000
# 5 0.000000 0.000000 0.000000 0.000000 -0.025453 0.000000
# 6 0.000000 0.000000 0.000000 0.000000 0.000000 0.026774
#
#
# Mechanical properties :
#
#
# Convention : Reuss Voigt Hill
#
# Bulk Modulus (GPa) = 56.92200 57.53610 57.22905
# Shear Modulus (GPa) = 125.62304 3.42335 64.52319
#
# Velocity S-wave (km/s) = 7.90855 1.30553 5.66787
# Velocity P-wave (km/s) = 10.57042 5.56045 8.44548
#
# Compressibility (1/GPa) = 0.01756790
#
# Stress axis : x y z
#
# Youngs Moduli (GPa) = 92.00794 81.49743 83.13125
#
# Poissons Ratio (x) = 0.29030 0.22873
# Poissons Ratio (y) = 0.32774 0.20671
# Poissons Ratio (z) = 0.25315 0.20265
#
# Static dielectric constant tensor:
#      x y z
#    x 1.689250 0.000000 0.000000 
#    y 0.000000 1.714410 0.000000 
#    z 0.000000 0.000000 1.730640 
# 
# From -- ./inp_files/7453.got.cif
#   From: 2010.05.17/outbox.cif.g08.bks.cpg/sg47_4_cif.got.tgz:7453.got - 2010.06.03 20:15:42.
