data_PCOD9387066
_publ_section_title
;
Structure prediction by ZEFSAII (Michael W. Deem and Ramdas Pophale) SiO2 
 PCOD9387066
Probable space group: P M M M
;
_chemical_formula_sum "Si O2"
_cell_formula_units_Z 48
_cell_length_a 7.636753
_cell_length_b 9.706982
_cell_length_c 32.555459
_cell_angle_alpha 90.000000
_cell_angle_beta 90.000000
_cell_angle_gamma 90.000000
_cell_volume 2413.330443
_symmetry_space_group_name_H-M "P M M M"
_symmetry_group_IT_number 47
_symmetry_cell_setting 'orthorhombic'
loop_
_space_group_symop_operation_xyz
x,y,z
-x,-y,z
x,-y,-z
-x,y,-z
-x,-y,-z
x,y,-z
-x,y,z
x,-y,z
loop_
_atom_site_type_symbol
_atom_site_label
_atom_site_fract_x
_atom_site_fract_y
_atom_site_fract_z
Si Si1 0.785740 0.839874 0.133981
Si Si2 0.789487 0.342889 0.454649
Si Si3 0.785288 0.341584 0.788417
Si Si4 0.792940 0.156676 0.286635
Si Si5 0.292786 0.845013 0.377314
Si Si6 0.790768 0.833796 0.044135
O O1 0.730842 0.743119 0.171229
O O2 0.725048 0.789243 0.088879
O O3 0.000000 0.840275 0.133224
O O4 0.733582 0.000000 0.140065
O O5 0.728518 0.295284 0.500000
O O6 0.726990 0.500000 0.448678
O O7 0.743767 0.247581 0.416619
O O8 0.000000 0.347500 0.456148
O O9 0.728371 0.500000 0.788801
O O10 0.724238 0.259010 0.748050
O O11 0.000000 0.342872 0.788227
O O12 0.771967 0.208338 0.333261
O O13 0.000000 0.145466 0.278927
O O14 0.720368 0.000000 0.284426
O O15 0.500000 0.854676 0.373402
O O16 0.219999 0.000000 0.382915
O O17 0.000000 0.807121 0.043657
O O18 0.770401 0.000000 0.044388
O O19 0.719911 0.783568 0.000000
#
# Coordination Sequence:
#
# PCOD9387066 Si02
#       6
#     8   8   8   8   8   8
#     4   8  12  18  29  44  63  89 122 162 208 255
#     4   9  19  36  56  77 101 130 164 198 229 264
#     4   9  16  24  35  53  75  98 129 173 220 260
#     4   9  17  30  47  64  84 113 148 183 220 265
#     4  10  21  35  51  74 102 128 155 190 233 279
#     4   7   9  13  22  37  56  80 115 158 199 241
#
# _framework density 19.889527000000001
#
# number of rings (size 3 to 8) (size 9 to 14) (size 15 to 20)
#    0.000    3.333    0.000    3.000    0.000    4.667 
#    0.000    4.167    0.000    0.500    0.000    3.500 
#    0.000    0.000    0.000    0.000    0.000    0.833 
#
# Total GULP energy -267396.764338 kJ/mol
# GULP energy per Si atom -5570.765924 kJ/mol
# Density = 1.984426 g / cm^3
# Si number density = 19.889527 Si / 1000 Ang^3
#
#
#
# Elastic Constant Matrix: (Units=GPa)
#
#
# Indices 1 2 3 4 5 6 
#
# 1 35.7292 4.9415 2.3326 0.0000 0.0000 0.0000
# 2 4.9415 90.3507 113.6912 0.0000 0.0000 0.0000
# 3 2.3326 113.6912 239.9872 0.0000 0.0000 0.0000
# 4 0.0000 0.0000 0.0000 2.5354 0.0000 0.0000
# 5 0.0000 0.0000 0.0000 0.0000 -38.7781 0.0000
# 6 0.0000 0.0000 0.0000 0.0000 0.0000 5.8179
#
#
#
# Elastic Compliance Matrix: (Units=1/GPa)
#
#
# Indices 1 2 3 4 5 6 
#
# 1 0.028326 -0.002978 0.001136 0.000000 0.000000 0.000000
# 2 -0.002978 0.027717 -0.013102 0.000000 0.000000 0.000000
# 3 0.001136 -0.013102 0.010363 0.000000 0.000000 0.000000
# 4 0.000000 0.000000 0.000000 0.394417 0.000000 0.000000
# 5 0.000000 0.000000 0.000000 0.000000 -0.025788 0.000000
# 6 0.000000 0.000000 0.000000 0.000000 0.000000 0.171883
#
#
# Mechanical properties :
#
#
# Convention : Reuss Voigt Hill
#
# Bulk Modulus (GPa) = 27.38430 67.55533 47.46981
# Shear Modulus (GPa) = 7.70440 10.25516 8.97978
#
# Velocity S-wave (km/s) = 1.97028 2.27316 2.12712
# Velocity P-wave (km/s) = 4.35593 6.39755 5.47279
#
# Compressibility (1/GPa) = 0.03651727
#
# Stress axis : x y z
#
# Youngs Moduli (GPa) = 35.30318 36.07857 96.50010
#
# Poissons Ratio (x) = 0.10744 -0.10958
# Poissons Ratio (y) = 0.10514 1.26433
# Poissons Ratio (z) = -0.04009 0.47269
#
# Static dielectric constant tensor:
#      x y z
#    x 1.736620 0.000000 0.000000 
#    y 0.000000 1.676720 0.000000 
#    z 0.000000 0.000000 1.730740 
# 
# From -- ./inp_files/34029.got.cif
#   From: 2010.05.17/outbox.cif.g08.bks.cpg/sg47_18_cif.got.tgz:34029.got - 2010.06.03 20:15:42.
