data_PCOD9387985
_publ_section_title
;
Structure prediction by ZEFSAII (Michael W. Deem and Ramdas Pophale) SiO2 
 PCOD9387985
Probable space group: P M M M
;
_chemical_formula_sum "Si O2"
_cell_formula_units_Z 52
_cell_length_a 13.036664
_cell_length_b 8.780903
_cell_length_c 26.854372
_cell_angle_alpha 90.000000
_cell_angle_beta 90.000000
_cell_angle_gamma 90.000000
_cell_volume 3074.118841
_symmetry_space_group_name_H-M "P M M M"
_symmetry_group_IT_number 47
_symmetry_cell_setting 'orthorhombic'
loop_
_space_group_symop_operation_xyz
x,y,z
-x,-y,z
x,-y,-z
-x,y,-z
-x,-y,-z
x,y,-z
-x,y,z
x,-y,z
loop_
_atom_site_type_symbol
_atom_site_label
_atom_site_fract_x
_atom_site_fract_y
_atom_site_fract_z
Si Si1 0.500000 0.815990 0.219638
Si Si2 0.618545 0.814983 0.500000
Si Si3 0.309250 0.182998 0.608446
Si Si4 0.117928 0.683359 0.780273
Si Si5 0.118820 0.316641 0.664835
Si Si6 0.380099 0.683435 0.056268
Si Si7 0.299551 0.181850 0.155723
Si Si8 0.500000 0.682124 0.330258
O O1 0.600982 0.771948 0.188456
O O2 0.500000 0.740179 0.273585
O O3 0.500000 0.000000 0.225392
O O4 0.500000 0.763722 0.500000
O O5 0.672547 0.768384 0.551210
O O6 0.616834 0.000000 0.500000
O O7 0.200723 0.237354 0.629634
O O8 0.399876 0.254116 0.641636
O O9 0.316964 0.000000 0.611109
O O10 0.124573 0.500000 0.783454
O O11 0.139936 0.724762 0.722626
O O12 0.198941 0.756732 0.817097
O O13 0.000000 0.726612 0.790918
O O14 0.128545 0.500000 0.660964
O O15 0.000000 0.277799 0.654145
O O16 0.500000 0.726760 0.063201
O O17 0.375019 0.500000 0.058978
O O18 0.314745 0.754197 0.100390
O O19 0.350195 0.728611 0.000000
O O20 0.297495 0.000000 0.154031
O O21 0.500000 0.500000 0.331506
#
# Coordination Sequence:
#
# PCOD9387985 Si02
#       8
#     4   4   8   8   8   8   8   4
#     4  10  22  36  48  74 112 145 173 209 260 319
#     4   9  18  36  57  76 103 141 180 217 263 316
#     4  11  21  36  58  80 104 138 179 222 265 316
#     4   9  19  36  56  76 102 141 183 217 256 313
#     4   9  19  37  58  81 110 141 176 219 267 319
#     4   9  18  33  53  76 103 140 184 221 257 310
#     4  11  21  33  51  78 111 140 172 218 268 314
#     4  12  24  35  51  77 108 140 176 216 268 323
#
# _framework density 16.915414999999999
#
# number of rings (size 3 to 8) (size 9 to 14) (size 15 to 20)
#    0.000    2.077    1.538    3.923    0.000    5.231 
#    0.000    4.615    0.000    2.769    0.000    3.231 
#    0.000    0.000    0.000    0.000    0.000    0.000 
#
# Total GULP energy -290292.197826 kJ/mol
# GULP energy per Si atom -5582.542266 kJ/mol
# Density = 1.687692 g / cm^3
# Si number density = 16.915415 Si / 1000 Ang^3
#
#
#
# Elastic Constant Matrix: (Units=GPa)
#
#
# Indices 1 2 3 4 5 6 
#
# 1 121.0475 41.6434 102.3423 0.0000 0.0000 0.0000
# 2 41.6434 37.0856 50.3600 0.0000 0.0000 0.0000
# 3 102.3423 50.3600 171.8584 0.0000 0.0000 0.0000
# 4 0.0000 0.0000 0.0000 22.3760 0.0000 0.0000
# 5 0.0000 0.0000 0.0000 0.0000 15.9240 0.0000
# 6 0.0000 0.0000 0.0000 0.0000 0.0000 27.5472
#
#
#
# Elastic Compliance Matrix: (Units=1/GPa)
#
#
# Indices 1 2 3 4 5 6 
#
# 1 0.018512 -0.009662 -0.008193 0.000000 0.000000 0.000000
# 2 -0.009662 0.049828 -0.008848 0.000000 0.000000 0.000000
# 3 -0.008193 -0.008848 0.013290 0.000000 0.000000 0.000000
# 4 0.000000 0.000000 0.000000 0.044691 0.000000 0.000000
# 5 0.000000 0.000000 0.000000 0.000000 0.062798 0.000000
# 6 0.000000 0.000000 0.000000 0.000000 0.000000 0.036301
#
#
# Mechanical properties :
#
#
# Convention : Reuss Voigt Hill
#
# Bulk Modulus (GPa) = 35.42811 79.85367 57.64089
# Shear Modulus (GPa) = 17.34705 22.21250 19.77978
#
# Velocity S-wave (km/s) = 3.20584 3.62767 3.42326
# Velocity P-wave (km/s) = 5.89008 8.05337 7.05513
#
# Compressibility (1/GPa) = 0.02822618
#
# Stress axis : x y z
#
# Youngs Moduli (GPa) = 54.01985 20.06885 75.24379
#
# Poissons Ratio (x) = 0.19390 0.61644
# Poissons Ratio (y) = 0.52193 0.66574
# Poissons Ratio (z) = 0.44256 0.17756
#
# Static dielectric constant tensor:
#      x y z
#    x 1.550460 0.000000 0.000000 
#    y 0.000000 1.568490 0.000000 
#    z 0.000000 0.000000 1.556470 
# 
# From -- ./inp_files/33614.got.cif
#   From: 2010.05.17/outbox.cif.g08.bks.cpg/sg47_17_cif.got.tgz:33614.got - 2010.06.03 20:15:42.
