data_PCOD9387399
_publ_section_title
;
Structure prediction by ZEFSAII (Michael W. Deem and Ramdas Pophale) SiO2 
 PCOD9387399
Probable space group: P M M M
;
_chemical_formula_sum "Si O2"
_cell_formula_units_Z 52
_cell_length_a 8.160744
_cell_length_b 12.634521
_cell_length_c 27.068394
_cell_angle_alpha 90.000000
_cell_angle_beta 90.000000
_cell_angle_gamma 90.000000
_cell_volume 2790.943375
_symmetry_space_group_name_H-M "P M M M"
_symmetry_group_IT_number 47
_symmetry_cell_setting 'orthorhombic'
loop_
_space_group_symop_operation_xyz
x,y,z
-x,-y,z
x,-y,-z
-x,y,-z
-x,-y,-z
x,y,-z
-x,y,z
x,-y,z
loop_
_atom_site_type_symbol
_atom_site_label
_atom_site_fract_x
_atom_site_fract_y
_atom_site_fract_z
Si Si1 0.304466 0.626432 0.626576
Si Si2 0.305164 0.840980 0.946768
Si Si3 0.190580 0.000000 0.751648
Si Si4 0.697039 0.000000 0.864849
Si Si5 0.000000 0.372328 0.443969
Si Si6 0.692628 0.224555 0.718962
Si Si7 0.197533 0.616505 0.083237
Si Si8 0.802852 0.383169 0.199262
O O1 0.500000 0.642872 0.614500
O O2 0.287846 0.500000 0.637441
O O3 0.169065 0.653967 0.584898
O O4 0.259253 0.699340 0.673502
O O5 0.500000 0.859750 0.947558
O O6 0.273231 0.716878 0.942645
O O7 0.242269 0.900429 0.897796
O O8 0.238801 0.877904 0.000000
O O9 0.261016 0.000000 0.807371
O O10 0.235460 0.107355 0.722944
O O11 0.000000 0.000000 0.759082
O O12 0.500000 0.000000 0.865524
O O13 0.000000 0.500000 0.446435
O O14 0.000000 0.330809 0.500000
O O15 0.500000 0.210909 0.715209
O O16 0.732721 0.289188 0.768558
O O17 0.249593 0.500000 0.065810
O O18 0.238311 0.624607 0.141517
O O19 0.000000 0.621658 0.078730
O O20 0.747710 0.500000 0.216985
O O21 0.000000 0.380057 0.203012
#
# Coordination Sequence:
#
# PCOD9387399 Si02
#       8
#     8   8   4   4   4   8   8   8
#     4   9  19  34  54  84 120 156 195 241 286 332
#     4  10  21  36  55  77  98 125 163 208 260 315
#     4  12  26  39  55  79 106 141 179 220 273 328
#     4  10  21  40  60  76 100 130 163 211 266 323
#     4   9  18  32  54  85 121 163 203 238 283 336
#     4  11  22  36  53  77 110 145 184 227 274 330
#     4   9  19  35  51  71 101 133 166 204 252 311
#     4   9  18  32  52  77 105 139 175 215 263 319
#
# _framework density 18.631692000000001
#
# number of rings (size 3 to 8) (size 9 to 14) (size 15 to 20)
#    0.000    2.231    0.000    3.692    2.154    6.769 
#    0.000    4.615    0.000    1.385    0.000    1.077 
#    0.000    2.462    0.000    0.000    0.000    0.000 
#
# Total GULP energy -290008.894319 kJ/mol
# GULP energy per Si atom -5577.094122 kJ/mol
# Density = 1.858929 g / cm^3
# Si number density = 18.631692 Si / 1000 Ang^3
#
#
#
# Elastic Constant Matrix: (Units=GPa)
#
#
# Indices 1 2 3 4 5 6 
#
# 1 42.9345 28.4713 43.1676 0.0000 0.0000 0.0000
# 2 28.4713 113.3496 43.7599 0.0000 0.0000 0.0000
# 3 43.1676 43.7599 90.0613 0.0000 0.0000 0.0000
# 4 0.0000 0.0000 0.0000 22.0570 0.0000 0.0000
# 5 0.0000 0.0000 0.0000 0.0000 26.6420 0.0000
# 6 0.0000 0.0000 0.0000 0.0000 0.0000 28.4419
#
#
#
# Elastic Compliance Matrix: (Units=1/GPa)
#
#
# Indices 1 2 3 4 5 6 
#
# 1 0.046225 -0.003763 -0.020328 0.000000 0.000000 0.000000
# 2 -0.003763 0.011166 -0.003622 0.000000 0.000000 0.000000
# 3 -0.020328 -0.003622 0.022607 0.000000 0.000000 0.000000
# 4 0.000000 0.000000 0.000000 0.045337 0.000000 0.000000
# 5 0.000000 0.000000 0.000000 0.000000 0.037535 0.000000
# 6 0.000000 0.000000 0.000000 0.000000 0.000000 0.035159
#
#
# Mechanical properties :
#
#
# Convention : Reuss Voigt Hill
#
# Bulk Modulus (GPa) = 40.69628 53.01587 46.85608
# Shear Modulus (GPa) = 19.10997 24.15796 21.63397
#
# Velocity S-wave (km/s) = 3.20608 3.60475 3.41124
# Velocity P-wave (km/s) = 5.96617 6.77068 6.38112
#
# Compressibility (1/GPa) = 0.02457227
#
# Stress axis : x y z
#
# Youngs Moduli (GPa) = 21.63344 89.56056 44.23490
#
# Poissons Ratio (x) = 0.33702 0.89919
# Poissons Ratio (y) = 0.08141 0.16020
# Poissons Ratio (z) = 0.43976 0.32435
#
# Static dielectric constant tensor:
#      x y z
#    x 1.649200 0.000000 0.000000 
#    y 0.000000 1.646480 0.000000 
#    z 0.000000 0.000000 1.695520 
# 
# From -- ./inp_files/33270.got.cif
#   From: 2010.05.17/outbox.cif.g08.bks.cpg/sg47_17_cif.got.tgz:33270.got - 2010.06.03 20:15:42.
