data_PCOD9387422
_publ_section_title
;
Structure prediction by ZEFSAII (Michael W. Deem and Ramdas Pophale) SiO2 
 PCOD9387422
Probable space group: P M M M
;
_chemical_formula_sum "Si O2"
_cell_formula_units_Z 40
_cell_length_a 8.027491
_cell_length_b 12.155431
_cell_length_c 21.005578
_cell_angle_alpha 90.000000
_cell_angle_beta 90.000000
_cell_angle_gamma 90.000000
_cell_volume 2049.674160
_symmetry_space_group_name_H-M "P M M M"
_symmetry_group_IT_number 47
_symmetry_cell_setting 'orthorhombic'
loop_
_space_group_symop_operation_xyz
x,y,z
-x,-y,z
x,-y,-z
-x,y,-z
-x,-y,-z
x,y,-z
-x,y,z
x,-y,z
loop_
_atom_site_type_symbol
_atom_site_label
_atom_site_fract_x
_atom_site_fract_y
_atom_site_fract_z
Si Si1 0.808853 0.500000 0.385910
Si Si2 0.297569 0.872201 0.307197
Si Si3 0.310875 0.500000 0.754869
Si Si4 0.802714 0.725231 0.187860
Si Si5 0.698383 0.738227 0.429550
Si Si6 0.796679 0.874698 0.072772
O O1 0.798134 0.500000 0.309136
O O2 0.727303 0.611215 0.411687
O O3 0.000000 0.500000 0.406082
O O4 0.500000 0.865047 0.304950
O O5 0.228563 0.806051 0.247174
O O6 0.237832 0.813754 0.372068
O O7 0.251062 0.000000 0.305215
O O8 0.500000 0.500000 0.731171
O O9 0.279041 0.609122 0.795452
O O10 0.739350 0.786832 0.124611
O O11 0.000000 0.706676 0.181014
O O12 0.767322 0.761187 0.500000
O O13 0.500000 0.756746 0.432042
O O14 0.000000 0.874369 0.074007
O O15 0.744946 0.000000 0.088822
O O16 0.746218 0.851415 0.000000
#
# Coordination Sequence:
#
# PCOD9387422 Si02
#       6
#     4   8   4   8   8   8
#     4  12  23  37  58  84 109 139 182 236 287 334
#     4  10  21  36  55  80 112 151 189 226 273 330
#     4  12  24  39  58  79 110 149 184 227 282 342
#     4  11  21  35  58  87 113 143 186 235 280 324
#     4  10  21  37  57  80 110 150 190 227 273 332
#     4   8  15  30  54  85 119 151 182 220 268 320
#
# _framework density 19.515298000000001
#
# number of rings (size 3 to 8) (size 9 to 14) (size 15 to 20)
#    0.000    1.800    2.000    3.900    0.000    3.200 
#    0.000    2.500    0.000    5.400    0.000    9.800 
#    0.000    0.000    0.000    0.000    0.000    0.000 
#
# Total GULP energy -223452.279397 kJ/mol
# GULP energy per Si atom -5586.306985 kJ/mol
# Density = 1.947088 g / cm^3
# Si number density = 19.515298 Si / 1000 Ang^3
#
#
#
# Elastic Constant Matrix: (Units=GPa)
#
#
# Indices 1 2 3 4 5 6 
#
# 1 20.7510 -5.6523 -6.9889 0.0000 0.0000 0.0000
# 2 -5.6523 105.0589 48.8851 0.0000 0.0000 0.0000
# 3 -6.9889 48.8851 117.9472 0.0000 0.0000 0.0000
# 4 0.0000 0.0000 0.0000 52.4934 0.0000 0.0000
# 5 0.0000 0.0000 0.0000 0.0000 21.6133 0.0000
# 6 0.0000 0.0000 0.0000 0.0000 0.0000 15.2870
#
#
#
# Elastic Compliance Matrix: (Units=1/GPa)
#
#
# Indices 1 2 3 4 5 6 
#
# 1 0.049389 0.001605 0.002261 0.000000 0.000000 0.000000
# 2 0.001605 0.011845 -0.004814 0.000000 0.000000 0.000000
# 3 0.002261 -0.004814 0.010608 0.000000 0.000000 0.000000
# 4 0.000000 0.000000 0.000000 0.019050 0.000000 0.000000
# 5 0.000000 0.000000 0.000000 0.000000 0.046268 0.000000
# 6 0.000000 0.000000 0.000000 0.000000 0.000000 0.065415
#
#
# Mechanical properties :
#
#
# Convention : Reuss Voigt Hill
#
# Bulk Modulus (GPa) = 14.29676 35.13833 24.71755
# Shear Modulus (GPa) = 21.95046 31.71295 26.83170
#
# Velocity S-wave (km/s) = 3.35742 4.03554 3.71200
# Velocity P-wave (km/s) = 4.72985 6.30545 5.57361
#
# Compressibility (1/GPa) = 0.06994590
#
# Stress axis : x y z
#
# Youngs Moduli (GPa) = 20.24737 84.42433 94.27124
#
# Poissons Ratio (x) = -0.13550 -0.21317
# Poissons Ratio (y) = -0.03250 0.45384
# Poissons Ratio (z) = -0.04579 0.40644
#
# Static dielectric constant tensor:
#      x y z
#    x 1.704370 0.000000 0.000000 
#    y 0.000000 1.648400 0.000000 
#    z 0.000000 0.000000 1.681430 
# 
# From -- ./inp_files/18942.got.cif
#   From: 2010.05.17/outbox.cif.g08.bks.cpg/sg47_10_cif.got.tgz:18942.got - 2010.06.03 20:15:42.
