data_PCOD9387147
_publ_section_title
;
Structure prediction by ZEFSAII (Michael W. Deem and Ramdas Pophale) SiO2 
 PCOD9387147
Probable space group: P M M M
;
_chemical_formula_sum "Si O2"
_cell_formula_units_Z 36
_cell_length_a 15.076541
_cell_length_b 7.817679
_cell_length_c 14.170526
_cell_angle_alpha 90.000000
_cell_angle_beta 90.000000
_cell_angle_gamma 90.000000
_cell_volume 1670.188613
_symmetry_space_group_name_H-M "P M M M"
_symmetry_group_IT_number 47
_symmetry_cell_setting 'orthorhombic'
loop_
_space_group_symop_operation_xyz
x,y,z
-x,-y,z
x,-y,-z
-x,y,-z
-x,-y,-z
x,y,-z
-x,y,z
x,-y,z
loop_
_atom_site_type_symbol
_atom_site_label
_atom_site_fract_x
_atom_site_fract_y
_atom_site_fract_z
Si Si1 0.903856 0.294569 0.387809
Si Si2 0.228617 0.697759 0.113541
Si Si3 0.401712 0.299283 0.217868
Si Si4 0.899701 0.000000 0.885062
Si Si5 0.292064 0.797917 0.607546
O O1 0.904601 0.252220 0.500000
O O2 0.902609 0.500000 0.379295
O O3 0.808096 0.230849 0.354528
O O4 0.000000 0.234319 0.349811
O O5 0.214479 0.500000 0.145507
O O6 0.322353 0.766569 0.152287
O O7 0.152095 0.828478 0.142987
O O8 0.231556 0.694766 0.000000
O O9 0.500000 0.223948 0.207644
O O10 0.407987 0.500000 0.194861
O O11 0.364170 0.281787 0.323480
O O12 0.000000 0.000000 0.851943
O O13 0.900602 0.000000 0.000000
O O14 0.296397 0.731238 0.500000
O O15 0.307570 0.000000 0.605496
#
# Coordination Sequence:
#
# PCOD9387147 Si02
#       5
#     8   8   8   4   8
#     4   8  14  27  49  74  99 132 175 222 273 329
#     4   9  19  37  61  90 123 155 191 238 289 345
#     4  10  22  39  59  82 108 145 192 240 291 344
#     4   9  18  34  59  91 124 159 197 233 279 343
#     4  10  21  35  52  77 110 147 187 235 289 343
#
# _framework density 21.554451
#
# number of rings (size 3 to 8) (size 9 to 14) (size 15 to 20)
#    0.000    2.778    0.000    1.333    1.556    3.556 
#    0.000   10.000    0.000    3.333    0.000    0.000 
#    0.000    0.000    0.000    0.000    0.000    0.000 
#
# Total GULP energy -200876.934898 kJ/mol
# GULP energy per Si atom -5579.914858 kJ/mol
# Density = 2.150539 g / cm^3
# Si number density = 21.554451 Si / 1000 Ang^3
#
#
#
# Elastic Constant Matrix: (Units=GPa)
#
#
# Indices 1 2 3 4 5 6 
#
# 1 196.6178 55.0795 25.2738 0.0000 0.0000 0.0000
# 2 55.0795 61.2338 14.0482 0.0000 0.0000 0.0000
# 3 25.2738 14.0482 55.1597 0.0000 0.0000 0.0000
# 4 0.0000 0.0000 0.0000 9.8805 0.0000 0.0000
# 5 0.0000 0.0000 0.0000 0.0000 24.9595 0.0000
# 6 0.0000 0.0000 0.0000 0.0000 0.0000 35.9665
#
#
#
# Elastic Compliance Matrix: (Units=1/GPa)
#
#
# Indices 1 2 3 4 5 6 
#
# 1 0.006944 -0.005859 -0.001690 0.000000 0.000000 0.000000
# 2 -0.005859 0.022287 -0.002992 0.000000 0.000000 0.000000
# 3 -0.001690 -0.002992 0.019665 0.000000 0.000000 0.000000
# 4 0.000000 0.000000 0.000000 0.101210 0.000000 0.000000
# 5 0.000000 0.000000 0.000000 0.000000 0.040065 0.000000
# 6 0.000000 0.000000 0.000000 0.000000 0.000000 0.027804
#
#
# Mechanical properties :
#
#
# Convention : Reuss Voigt Hill
#
# Bulk Modulus (GPa) = 35.94996 55.75714 45.85355
# Shear Modulus (GPa) = 20.13466 28.73527 24.43497
#
# Velocity S-wave (km/s) = 3.05967 3.65519 3.37061
# Velocity P-wave (km/s) = 5.40342 6.61348 6.03884
#
# Compressibility (1/GPa) = 0.02781644
#
# Stress axis : x y z
#
# Youngs Moduli (GPa) = 143.99898 44.86872 50.85088
#
# Poissons Ratio (x) = 0.26288 0.08593
# Poissons Ratio (y) = 0.84367 0.15213
# Poissons Ratio (z) = 0.24332 0.13423
#
# Static dielectric constant tensor:
#      x y z
#    x 1.791780 0.000000 0.000000 
#    y 0.000000 1.773100 0.000000 
#    z 0.000000 0.000000 1.809630 
# 
# From -- ./inp_files/23263.got.cif
#   From: 2010.05.17/outbox.cif.g08.bks.cpg/sg47_12_cif.got.tgz:23263.got - 2010.06.03 20:15:42.
