data_PCOD9387396
_publ_section_title
;
Structure prediction by ZEFSAII (Michael W. Deem and Ramdas Pophale) SiO2 
 PCOD9387396
Probable space group: P M M M
;
_chemical_formula_sum "Si O2"
_cell_formula_units_Z 64
_cell_length_a 18.180962
_cell_length_b 13.669628
_cell_length_c 14.272019
_cell_angle_alpha 90.000000
_cell_angle_beta 90.000000
_cell_angle_gamma 90.000000
_cell_volume 3546.981884
_symmetry_space_group_name_H-M "P M M M"
_symmetry_group_IT_number 47
_symmetry_cell_setting 'orthorhombic'
loop_
_space_group_symop_operation_xyz
x,y,z
-x,-y,z
x,-y,-z
-x,y,-z
-x,-y,-z
x,y,-z
-x,y,z
x,-y,z
loop_
_atom_site_type_symbol
_atom_site_label
_atom_site_fract_x
_atom_site_fract_y
_atom_site_fract_z
Si Si1 0.308261 0.614341 0.775031
Si Si2 0.911495 0.612393 0.608058
Si Si3 0.586180 0.272903 0.892893
Si Si4 0.823636 0.755584 0.741970
Si Si5 0.912165 0.115105 0.110044
Si Si6 0.722571 0.883157 0.392687
Si Si7 0.583212 0.618689 0.393404
Si Si8 0.414949 0.113683 0.733825
O O1 0.290197 0.500000 0.769556
O O2 0.363577 0.638208 0.859329
O O3 0.237365 0.682145 0.783396
O O4 0.354441 0.643314 0.681387
O O5 0.889680 0.632567 0.500000
O O6 0.889155 0.500000 0.629260
O O7 0.876933 0.688982 0.678841
O O8 0.000000 0.616274 0.612195
O O9 0.500000 0.297939 0.884512
O O10 0.600919 0.183855 0.821475
O O11 0.600881 0.245297 0.000000
O O12 0.866655 0.815686 0.821175
O O13 0.780489 0.829380 0.673515
O O14 0.000000 0.128874 0.123751
O O15 0.896255 0.000000 0.127929
O O16 0.896448 0.134056 0.000000
O O17 0.727594 0.849871 0.500000
O O18 0.641421 0.866777 0.349898
O O19 0.735418 0.000000 0.390418
O O20 0.597795 0.651292 0.500000
O O21 0.500000 0.650221 0.366231
O O22 0.581466 0.500000 0.395023
O O23 0.500000 0.126967 0.706036
O O24 0.405693 0.000000 0.761548
#
# Coordination Sequence:
#
# PCOD9387396 Si02
#       8
#     8   8   8   8   8   8   8   8
#     4  11  23  36  51  76 112 150 192 238 282 330
#     4   9  19  36  57  82 113 151 196 236 265 309
#     4  10  21  38  57  77 102 138 190 245 291 336
#     4  12  21  35  57  86 118 151 184 220 281 336
#     4   9  20  41  68  94 115 138 176 227 282 343
#     4  10  21  36  54  82 119 153 183 221 273 333
#     4   8  15  30  51  72  97 136 189 246 294 329
#     4   9  18  36  59  81 106 141 188 236 282 335
#
# _framework density 18.043509
#
# number of rings (size 3 to 8) (size 9 to 14) (size 15 to 20)
#    0.000    2.250    1.250    3.000    0.000    3.000 
#    0.000    4.375    0.000    1.125    0.000    9.625 
#    0.000    0.000    0.000    0.000    0.000    0.000 
#
# Total GULP energy -357267.022018 kJ/mol
# GULP energy per Si atom -5582.297219 kJ/mol
# Density = 1.800244 g / cm^3
# Si number density = 18.043509 Si / 1000 Ang^3
#
#
#
# Elastic Constant Matrix: (Units=GPa)
#
#
# Indices 1 2 3 4 5 6 
#
# 1 80.0875 58.9271 70.2472 0.0000 0.0000 0.0000
# 2 58.9271 109.9802 69.8875 0.0000 0.0000 0.0000
# 3 70.2472 69.8875 122.5280 0.0000 0.0000 0.0000
# 4 0.0000 0.0000 0.0000 32.0888 0.0000 0.0000
# 5 0.0000 0.0000 0.0000 0.0000 25.7385 0.0000
# 6 0.0000 0.0000 0.0000 0.0000 0.0000 28.4324
#
#
#
# Elastic Compliance Matrix: (Units=1/GPa)
#
#
# Indices 1 2 3 4 5 6 
#
# 1 0.028784 -0.007742 -0.012087 0.000000 0.000000 0.000000
# 2 -0.007742 0.016344 -0.004884 0.000000 0.000000 0.000000
# 3 -0.012087 -0.004884 0.017876 0.000000 0.000000 0.000000
# 4 0.000000 0.000000 0.000000 0.031164 0.000000 0.000000
# 5 0.000000 0.000000 0.000000 0.000000 0.038852 0.000000
# 6 0.000000 0.000000 0.000000 0.000000 0.000000 0.035171
#
#
# Mechanical properties :
#
#
# Convention : Reuss Voigt Hill
#
# Bulk Modulus (GPa) = 73.63708 78.96881 76.30294
# Shear Modulus (GPa) = 22.50801 24.82088 23.66445
#
# Velocity S-wave (km/s) = 3.53573 3.71295 3.62542
# Velocity P-wave (km/s) = 7.58735 7.88937 7.73983
#
# Compressibility (1/GPa) = 0.01358011
#
# Stress axis : x y z
#
# Youngs Moduli (GPa) = 34.74112 61.18417 55.93980
#
# Poissons Ratio (x) = 0.47369 0.67612
# Poissons Ratio (y) = 0.26897 0.27319
# Poissons Ratio (z) = 0.41990 0.29880
#
# Static dielectric constant tensor:
#      x y z
#    x 1.614460 0.000000 0.000000 
#    y 0.000000 1.627800 0.000000 
#    z 0.000000 0.000000 1.600820 
# 
# From -- ./inp_files/17877.got.cif
#   From: 2010.05.17/outbox.cif.g08.bks.cpg/sg47_9_cif.got.tgz:17877.got - 2010.06.03 20:15:42.
