data_PCOD9387188
_publ_section_title
;
Structure prediction by ZEFSAII (Michael W. Deem and Ramdas Pophale) SiO2 
 PCOD9387188
Probable space group: P M M M
;
_chemical_formula_sum "Si O2"
_cell_formula_units_Z 48
_cell_length_a 18.075024
_cell_length_b 8.239013
_cell_length_c 15.863348
_cell_angle_alpha 90.000000
_cell_angle_beta 90.000000
_cell_angle_gamma 90.000000
_cell_volume 2362.375459
_symmetry_space_group_name_H-M "P M M M"
_symmetry_group_IT_number 47
_symmetry_cell_setting 'orthorhombic'
loop_
_space_group_symop_operation_xyz
x,y,z
-x,-y,z
x,-y,-z
-x,y,-z
-x,-y,-z
x,y,-z
-x,y,z
x,-y,z
loop_
_atom_site_type_symbol
_atom_site_label
_atom_site_fract_x
_atom_site_fract_y
_atom_site_fract_z
Si Si1 0.588205 0.186091 0.179964
Si Si2 0.665678 0.685911 0.332557
Si Si3 0.414818 0.801507 0.000000
Si Si4 0.585251 0.192170 0.500000
Si Si5 0.818892 0.303453 0.251965
Si Si6 0.084395 0.195609 0.903077
Si Si7 0.914500 0.302533 0.590960
O O1 0.500000 0.178615 0.169555
O O2 0.606256 0.296750 0.258440
O O3 0.612889 0.000000 0.196303
O O4 0.619685 0.244669 0.089689
O O5 0.682190 0.500000 0.354076
O O6 0.631537 0.761602 0.416660
O O7 0.738931 0.753967 0.285758
O O8 0.500000 0.742622 0.000000
O O9 0.416893 0.000000 0.000000
O O10 0.500000 0.259884 0.500000
O O11 0.578008 0.000000 0.500000
O O12 0.816740 0.500000 0.249341
O O13 0.853621 0.249246 0.163444
O O14 0.873359 0.246681 0.326333
O O15 0.000000 0.249814 0.879724
O O16 0.083455 0.000000 0.903227
O O17 0.098240 0.248551 0.000000
O O18 0.882668 0.250899 0.500000
O O19 0.912224 0.500000 0.591822
O O20 0.000000 0.254579 0.593732
#
# Coordination Sequence:
#
# PCOD9387188 Si02
#       7
#     8   8   4   4   8   8   8
#     4   9  17  33  57  81 106 140 185 231 274 331
#     4  11  24  38  55  84 118 151 183 229 292 349
#     4   7  12  26  51  79 101 127 170 221 266 313
#     4  11  25  45  67  87 108 145 200 249 287 344
#     4  10  21  35  54  81 115 153 189 228 279 343
#     4   9  19  37  60  85 115 154 200 248 294 337
#     4   8  14  26  48  76 102 133 175 218 258 309
#
# _framework density 20.318531
#
# number of rings (size 3 to 8) (size 9 to 14) (size 15 to 20)
#    0.000    2.667    0.000    3.750    1.167    5.667 
#    1.500    1.250    0.000    1.500    0.000    2.333 
#    0.000    0.000    0.000    0.000    0.000    0.000 
#
# Total GULP energy -267341.019299 kJ/mol
# GULP energy per Si atom -5569.604569 kJ/mol
# Density = 2.027229 g / cm^3
# Si number density = 20.318531 Si / 1000 Ang^3
#
#
#
# Elastic Constant Matrix: (Units=GPa)
#
#
# Indices 1 2 3 4 5 6 
#
# 1 87.8773 19.9046 69.0579 0.0000 0.0000 0.0000
# 2 19.9046 19.2212 22.6631 0.0000 0.0000 0.0000
# 3 69.0579 22.6631 172.8091 0.0000 0.0000 0.0000
# 4 0.0000 0.0000 0.0000 15.2211 0.0000 0.0000
# 5 0.0000 0.0000 0.0000 0.0000 -26.7074 0.0000
# 6 0.0000 0.0000 0.0000 0.0000 0.0000 18.6337
#
#
#
# Elastic Compliance Matrix: (Units=1/GPa)
#
#
# Indices 1 2 3 4 5 6 
#
# 1 0.018854 -0.012587 -0.005884 0.000000 0.000000 0.000000
# 2 -0.012587 0.069945 -0.004143 0.000000 0.000000 0.000000
# 3 -0.005884 -0.004143 0.008681 0.000000 0.000000 0.000000
# 4 0.000000 0.000000 0.000000 0.065698 0.000000 0.000000
# 5 0.000000 0.000000 0.000000 0.000000 -0.037443 0.000000
# 6 0.000000 0.000000 0.000000 0.000000 0.000000 0.053666
#
#
# Mechanical properties :
#
#
# Convention : Reuss Voigt Hill
#
# Bulk Modulus (GPa) = 19.13762 55.90653 37.52208
# Shear Modulus (GPa) = 20.65708 12.64830 16.65269
#
# Velocity S-wave (km/s) = 3.19197 2.49770 2.86594
# Velocity P-wave (km/s) = 4.79835 5.99106 5.42757
#
# Compressibility (1/GPa) = 0.05225309
#
# Stress axis : x y z
#
# Youngs Moduli (GPa) = 53.03831 14.29689 115.18965
#
# Poissons Ratio (x) = 0.17996 0.67775
# Poissons Ratio (y) = 0.66760 0.47722
# Poissons Ratio (z) = 0.31207 0.05923
#
# Static dielectric constant tensor:
#      x y z
#    x 1.812500 0.000000 0.000000 
#    y 0.000000 1.740810 0.000000 
#    z 0.000000 0.000000 1.738630 
# 
# From -- ./inp_files/24456.got.cif
#   From: 2010.05.17/outbox.cif.g08.bks.cpg/sg47_13_cif.got.tgz:24456.got - 2010.06.03 20:15:42.
