data_PCOD9387864
_publ_section_title
;
Structure prediction by ZEFSAII (Michael W. Deem and Ramdas Pophale) SiO2 
 PCOD9387864
Probable space group: P M M M
;
_chemical_formula_sum "Si O2"
_cell_formula_units_Z 48
_cell_length_a 9.033266
_cell_length_b 9.489595
_cell_length_c 31.139583
_cell_angle_alpha 90.000000
_cell_angle_beta 90.000000
_cell_angle_gamma 90.000000
_cell_volume 2669.348451
_symmetry_space_group_name_H-M "P M M M"
_symmetry_group_IT_number 47
_symmetry_cell_setting 'orthorhombic'
loop_
_space_group_symop_operation_xyz
x,y,z
-x,-y,z
x,-y,-z
-x,y,-z
-x,-y,-z
x,y,-z
-x,y,z
x,-y,z
loop_
_atom_site_type_symbol
_atom_site_label
_atom_site_fract_x
_atom_site_fract_y
_atom_site_fract_z
Si Si1 0.322913 0.166187 0.824402
Si Si2 0.823615 0.666409 0.252316
Si Si3 0.823137 0.663850 0.000000
Si Si4 0.677308 0.834961 0.076347
Si Si5 0.823681 0.166527 0.421998
Si Si6 0.675882 0.166342 0.330062
Si Si7 0.676761 0.332839 0.500000
O O1 0.500000 0.185266 0.818983
O O2 0.236558 0.260787 0.790771
O O3 0.286188 0.198541 0.874063
O O4 0.292250 0.000000 0.817152
O O5 0.791597 0.500000 0.251955
O O6 0.744877 0.741102 0.292426
O O7 0.000000 0.685726 0.255603
O O8 0.758892 0.739966 0.041952
O O9 0.780608 0.500000 0.000000
O O10 0.000000 0.674294 0.000000
O O11 0.500000 0.819715 0.071478
O O12 0.712218 0.000000 0.069087
O O13 0.753652 0.196782 0.375495
O O14 0.747900 0.259801 0.458392
O O15 0.000000 0.189906 0.421232
O O16 0.798438 0.000000 0.431104
O O17 0.500000 0.189690 0.333396
O O18 0.699435 0.000000 0.320549
O O19 0.705729 0.500000 0.500000
O O20 0.500000 0.311125 0.500000
#
# Coordination Sequence:
#
# PCOD9387864 Si02
#       7
#     8   8   4   8   8   8   4
#     4   9  19  37  60  84 108 137 178 227 275 323
#     4  11  24  38  53  79 115 151 184 221 269 324
#     4  11  24  37  50  76 114 149 180 219 268 322
#     4   9  19  37  60  83 106 136 179 228 273 321
#     4  10  21  38  61  87 113 144 184 229 278 330
#     4  10  21  38  61  86 110 141 184 231 276 324
#     4  11  24  39  56  82 116 153 190 227 272 326
#
# _framework density 17.981915000000001
#
# number of rings (size 3 to 8) (size 9 to 14) (size 15 to 20)
#    0.000    2.000    0.000    4.000    0.000   11.333 
#    0.000    5.000    0.000    0.000    0.000    0.000 
#    0.000    0.000    0.000    0.000    0.000    0.000 
#
# Total GULP energy -268203.240866 kJ/mol
# GULP energy per Si atom -5587.567518 kJ/mol
# Density = 1.794099 g / cm^3
# Si number density = 17.981915 Si / 1000 Ang^3
#
#
#
# Elastic Constant Matrix: (Units=GPa)
#
#
# Indices 1 2 3 4 5 6 
#
# 1 93.1132 94.1328 98.0726 0.0000 0.0000 0.0000
# 2 94.1328 122.6815 127.8368 0.0000 0.0000 0.0000
# 3 98.0726 127.8368 169.8230 0.0000 0.0000 0.0000
# 4 0.0000 0.0000 0.0000 -35.4645 0.0000 0.0000
# 5 0.0000 0.0000 0.0000 0.0000 75.3531 0.0000
# 6 0.0000 0.0000 0.0000 0.0000 0.0000 33.1557
#
#
#
# Elastic Compliance Matrix: (Units=1/GPa)
#
#
# Indices 1 2 3 4 5 6 
#
# 1 0.047880 -0.036759 0.000021 0.000000 0.000000 0.000000
# 2 -0.036759 0.066028 -0.028475 0.000000 0.000000 0.000000
# 3 0.000021 -0.028475 0.027312 0.000000 0.000000 0.000000
# 4 0.000000 0.000000 0.000000 -0.028197 0.000000 0.000000
# 5 0.000000 0.000000 0.000000 0.000000 0.013271 0.000000
# 6 0.000000 0.000000 0.000000 0.000000 0.000000 0.030161
#
#
# Mechanical properties :
#
#
# Convention : Reuss Voigt Hill
#
# Bulk Modulus (GPa) = 92.66292 113.96690 103.31491
# Shear Modulus (GPa) = 17.21291 18.98058 18.09674
#
# Velocity S-wave (km/s) = 3.09728 3.25243 3.17580
# Velocity P-wave (km/s) = 8.02707 8.81026 8.42777
#
# Compressibility (1/GPa) = 0.01079180
#
# Stress axis : x y z
#
# Youngs Moduli (GPa) = 20.88560 15.14501 36.61433
#
# Poissons Ratio (x) = 0.55672 -0.00076
# Poissons Ratio (y) = 0.76774 1.04260
# Poissons Ratio (z) = -0.00043 0.43126
#
# Static dielectric constant tensor:
#      x y z
#    x 1.594400 0.000000 0.000000 
#    y 0.000000 1.591930 0.000000 
#    z 0.000000 0.000000 1.587060 
# 
# From -- ./inp_files/34077.got.cif
#   From: 2010.05.17/outbox.cif.g08.bks.cpg/sg47_18_cif.got.tgz:34077.got - 2010.06.03 20:15:42.
