data_PCOD9387050
_publ_section_title
;
Structure prediction by ZEFSAII (Michael W. Deem and Ramdas Pophale) SiO2 
 PCOD9387050
Probable space group: P M M M
;
_chemical_formula_sum "Si O2"
_cell_formula_units_Z 56
_cell_length_a 9.894213
_cell_length_b 20.511253
_cell_length_c 14.885785
_cell_angle_alpha 90.000000
_cell_angle_beta 90.000000
_cell_angle_gamma 90.000000
_cell_volume 3020.961490
_symmetry_space_group_name_H-M "P M M M"
_symmetry_group_IT_number 47
_symmetry_cell_setting 'orthorhombic'
loop_
_space_group_symop_operation_xyz
x,y,z
-x,-y,z
x,-y,-z
-x,y,-z
-x,-y,-z
x,y,-z
-x,y,z
x,-y,z
loop_
_atom_site_type_symbol
_atom_site_label
_atom_site_fract_x
_atom_site_fract_y
_atom_site_fract_z
Si Si1 0.753762 0.072564 0.100571
Si Si2 0.660111 0.318327 0.201197
Si Si3 0.154640 0.423830 0.892196
Si Si4 0.644881 0.924642 0.708276
Si Si5 0.844584 0.836969 0.602861
Si Si6 0.343479 0.710867 0.401315
Si Si7 0.152337 0.782773 0.894739
O O1 0.653241 0.076257 0.183981
O O2 0.840148 0.138518 0.109753
O O3 0.820065 0.000000 0.107575
O O4 0.693855 0.075351 0.000000
O O5 0.500000 0.314589 0.180877
O O6 0.736329 0.376919 0.151833
O O7 0.675476 0.327379 0.308595
O O8 0.737261 0.252914 0.166969
O O9 0.176969 0.500000 0.870487
O O10 0.000000 0.406957 0.865538
O O11 0.161605 0.417421 0.000000
O O12 0.500000 0.897065 0.678576
O O13 0.769303 0.886185 0.668002
O O14 0.652044 0.000000 0.680351
O O15 0.840911 0.861794 0.500000
O O16 0.759823 0.770594 0.603581
O O17 0.000000 0.826327 0.628307
O O18 0.324632 0.678804 0.500000
O O19 0.500000 0.733919 0.399095
O O20 0.000000 0.762023 0.870736
O O21 0.175937 0.765230 0.000000
#
# Coordination Sequence:
#
# PCOD9387050 Si02
#       7
#     8   8   8   8   8   8   8
#     4   9  19  35  53  74 101 134 176 227 275 316
#     4  11  22  34  54  84 113 142 179 224 269 312
#     4   9  19  37  60  85 115 152 188 218 256 312
#     4  10  21  35  51  72  96 125 164 208 259 323
#     4  10  21  36  54  76 100 127 164 213 268 321
#     4   9  19  36  55  75 103 139 176 214 259 312
#     4  10  21  35  51  74 106 143 179 217 267 326
#
# _framework density 18.537144999999999
#
# number of rings (size 3 to 8) (size 9 to 14) (size 15 to 20)
#    0.000    2.286    0.000    2.571    0.000    9.143 
#    0.000    7.857    0.000    0.429    0.000    3.000 
#    0.000    0.000    0.000    0.000    0.000    0.000 
#
# Total GULP energy -312126.751646 kJ/mol
# GULP energy per Si atom -5573.691994 kJ/mol
# Density = 1.849495 g / cm^3
# Si number density = 18.537145 Si / 1000 Ang^3
#
#
#
# Elastic Constant Matrix: (Units=GPa)
#
#
# Indices 1 2 3 4 5 6 
#
# 1 117.0900 44.1630 52.5067 0.0000 0.0000 0.0000
# 2 44.1630 76.9782 34.9211 0.0000 0.0000 0.0000
# 3 52.5067 34.9211 78.5974 0.0000 0.0000 0.0000
# 4 0.0000 0.0000 0.0000 17.2379 0.0000 0.0000
# 5 0.0000 0.0000 0.0000 0.0000 13.8630 0.0000
# 6 0.0000 0.0000 0.0000 0.0000 0.0000 19.7765
#
#
#
# Elastic Compliance Matrix: (Units=1/GPa)
#
#
# Indices 1 2 3 4 5 6 
#
# 1 0.013342 -0.004523 -0.006904 0.000000 0.000000 0.000000
# 2 -0.004523 0.017803 -0.004889 0.000000 0.000000 0.000000
# 3 -0.006904 -0.004889 0.019507 0.000000 0.000000 0.000000
# 4 0.000000 0.000000 0.000000 0.058012 0.000000 0.000000
# 5 0.000000 0.000000 0.000000 0.000000 0.072134 0.000000
# 6 0.000000 0.000000 0.000000 0.000000 0.000000 0.050565
#
#
# Mechanical properties :
#
#
# Convention : Reuss Voigt Hill
#
# Bulk Modulus (GPa) = 55.48675 59.53856 57.51265
# Shear Modulus (GPa) = 18.51845 19.58046 19.04946
#
# Velocity S-wave (km/s) = 3.16411 3.25358 3.20916
# Velocity P-wave (km/s) = 6.58381 6.80460 6.69511
#
# Compressibility (1/GPa) = 0.01802232
#
# Stress axis : x y z
#
# Youngs Moduli (GPa) = 74.95095 56.17010 51.26332
#
# Poissons Ratio (x) = 0.25403 0.35391
# Poissons Ratio (y) = 0.33897 0.25061
# Poissons Ratio (z) = 0.51744 0.27460
#
# Static dielectric constant tensor:
#      x y z
#    x 1.631350 0.000000 0.000000 
#    y 0.000000 1.633630 0.000000 
#    z 0.000000 0.000000 1.673490 
# 
# From -- ./inp_files/21568.got.cif
#   From: 2010.05.17/outbox.cif.g08.bks.cpg/sg47_11_cif.got.tgz:21568.got - 2010.06.03 20:15:42.
