data_PCOD9387271
_publ_section_title
;
Structure prediction by ZEFSAII (Michael W. Deem and Ramdas Pophale) SiO2 
 PCOD9387271
Probable space group: P M M M
;
_chemical_formula_sum "Si O2"
_cell_formula_units_Z 44
_cell_length_a 9.448556
_cell_length_b 7.916320
_cell_length_c 29.411873
_cell_angle_alpha 90.000000
_cell_angle_beta 90.000000
_cell_angle_gamma 90.000000
_cell_volume 2199.943184
_symmetry_space_group_name_H-M "P M M M"
_symmetry_group_IT_number 47
_symmetry_cell_setting 'orthorhombic'
loop_
_space_group_symop_operation_xyz
x,y,z
-x,-y,z
x,-y,-z
-x,y,-z
-x,-y,-z
x,y,-z
-x,y,z
x,-y,z
loop_
_atom_site_type_symbol
_atom_site_label
_atom_site_fract_x
_atom_site_fract_y
_atom_site_fract_z
Si Si1 0.660619 0.297878 0.675288
Si Si2 0.337914 0.201985 0.500000
Si Si3 0.161611 0.703397 0.410827
Si Si4 0.837661 0.798849 0.237195
Si Si5 0.838039 0.703881 0.136938
Si Si6 0.664429 0.706188 0.949901
O O1 0.500000 0.230816 0.674548
O O2 0.651802 0.500000 0.669467
O O3 0.755994 0.231512 0.633697
O O4 0.738672 0.265587 0.722731
O O5 0.500000 0.267254 0.500000
O O6 0.252161 0.257039 0.544541
O O7 0.344124 0.000000 0.500000
O O8 0.153370 0.500000 0.407205
O O9 0.000000 0.767234 0.413704
O O10 0.784023 0.752964 0.186813
O O11 0.000000 0.732486 0.241617
O O12 0.843597 0.000000 0.240561
O O13 0.839058 0.500000 0.135046
O O14 0.750467 0.766504 0.093709
O O15 0.000000 0.764352 0.133987
O O16 0.500000 0.754193 0.946190
O O17 0.669058 0.500000 0.949500
O O18 0.717119 0.759372 0.000000
#
# Coordination Sequence:
#
# PCOD9387271 Si02
#       6
#     8   4   8   8   8   8
#     4  10  21  37  58  83 108 136 173 217 264 312
#     4  11  24  39  56  82 116 151 184 219 260 306
#     4  10  21  38  61  86 110 140 179 220 263 312
#     4  10  21  36  53  74 103 139 175 212 258 311
#     4   9  17  29  47  71  97 126 163 208 254 301
#     4   8  14  25  42  66  95 124 156 199 251 303
#
# _framework density 20.000516000000001
#
# number of rings (size 3 to 8) (size 9 to 14) (size 15 to 20)
#    0.000    2.455    0.000    2.727    0.000    6.909 
#    0.000    3.636    0.000    0.545    0.000    3.818 
#    0.000    0.000    0.000    0.000    0.000    0.000 
#
# Total GULP energy -245582.881920 kJ/mol
# GULP energy per Si atom -5581.429135 kJ/mol
# Density = 1.995499 g / cm^3
# Si number density = 20.000516 Si / 1000 Ang^3
#
#
#
# Elastic Constant Matrix: (Units=GPa)
#
#
# Indices 1 2 3 4 5 6 
#
# 1 149.2339 9.3973 123.0580 0.0000 0.0000 0.0000
# 2 9.3973 18.0748 -0.6485 0.0000 0.0000 0.0000
# 3 123.0580 -0.6485 219.5442 0.0000 0.0000 0.0000
# 4 0.0000 0.0000 0.0000 -104.9680 0.0000 0.0000
# 5 0.0000 0.0000 0.0000 0.0000 58.4508 0.0000
# 6 0.0000 0.0000 0.0000 0.0000 0.0000 13.6132
#
#
#
# Elastic Compliance Matrix: (Units=1/GPa)
#
#
# Indices 1 2 3 4 5 6 
#
# 1 0.013336 -0.007202 -0.007496 0.000000 0.000000 0.000000
# 2 -0.007202 0.059221 0.004212 0.000000 0.000000 0.000000
# 3 -0.007496 0.004212 0.008769 0.000000 0.000000 0.000000
# 4 0.000000 0.000000 0.000000 -0.009527 0.000000 0.000000
# 5 0.000000 0.000000 0.000000 0.000000 0.017108 0.000000
# 6 0.000000 0.000000 0.000000 0.000000 0.000000 0.073458
#
#
# Mechanical properties :
#
#
# Convention : Reuss Voigt Hill
#
# Bulk Modulus (GPa) = 16.56915 72.27405 44.42160
# Shear Modulus (GPa) = 24.57521 10.42227 17.49874
#
# Velocity S-wave (km/s) = 3.50913 2.28524 2.96110
# Velocity P-wave (km/s) = 4.97202 6.57097 5.82660
#
# Compressibility (1/GPa) = 0.06035312
#
# Stress axis : x y z
#
# Youngs Moduli (GPa) = 74.98638 16.88577 114.03740
#
# Poissons Ratio (x) = 0.12162 0.85484
# Poissons Ratio (y) = 0.54008 -0.48032
# Poissons Ratio (z) = 0.56211 -0.07112
#
# Static dielectric constant tensor:
#      x y z
#    x 1.703790 0.000000 0.000000 
#    y 0.000000 1.717190 0.000000 
#    z 0.000000 0.000000 1.681160 
# 
# From -- ./inp_files/2124.got.cif
#   From: 2010.05.17/outbox.cif.g08.bks.cpg/sg47_2_cif.got.tgz:2124.got - 2010.06.03 20:15:42.
