data_PCOD9387456
_publ_section_title
;
Structure prediction by ZEFSAII (Michael W. Deem and Ramdas Pophale) SiO2 
 PCOD9387456
Probable space group: P M M M
;
_chemical_formula_sum "Si O2"
_cell_formula_units_Z 52
_cell_length_a 11.016187
_cell_length_b 8.103840
_cell_length_c 29.172577
_cell_angle_alpha 90.000000
_cell_angle_beta 90.000000
_cell_angle_gamma 90.000000
_cell_volume 2604.335627
_symmetry_space_group_name_H-M "P M M M"
_symmetry_group_IT_number 47
_symmetry_cell_setting 'orthorhombic'
loop_
_space_group_symop_operation_xyz
x,y,z
-x,-y,z
x,-y,-z
-x,y,-z
-x,-y,-z
x,y,-z
-x,y,z
x,-y,z
loop_
_atom_site_type_symbol
_atom_site_label
_atom_site_fract_x
_atom_site_fract_y
_atom_site_fract_z
Si Si1 0.862820 0.195146 0.723112
Si Si2 0.000000 0.701267 0.551234
Si Si3 0.364671 0.802466 0.780974
Si Si4 0.864133 0.800852 0.946892
Si Si5 0.364175 0.697163 0.885851
Si Si6 0.644191 0.191660 0.549692
Si Si7 0.800442 0.308069 0.623080
O O1 0.751728 0.264824 0.753413
O O2 0.825510 0.216451 0.670115
O O3 0.000000 0.263220 0.730062
O O4 0.869938 0.000000 0.733238
O O5 0.887367 0.751645 0.582154
O O6 0.000000 0.500000 0.548878
O O7 0.000000 0.766090 0.500000
O O8 0.500000 0.738408 0.767930
O O9 0.348947 0.769829 0.834943
O O10 0.367445 0.000000 0.773579
O O11 0.749374 0.745030 0.917341
O O12 0.000000 0.746557 0.931227
O O13 0.864953 0.000000 0.946152
O O14 0.850462 0.748546 0.000000
O O15 0.500000 0.749156 0.902579
O O16 0.365441 0.500000 0.882030
O O17 0.690818 0.259648 0.500000
O O18 0.500000 0.192213 0.546342
O O19 0.675286 0.283675 0.596737
O O20 0.682532 0.000000 0.553108
O O21 0.824988 0.500000 0.632193
#
# Coordination Sequence:
#
# PCOD9387456 Si02
#       7
#     8   4   8   8   8   8   8
#     4  10  21  37  56  78 107 141 180 225 272 326
#     4   9  18  32  49  71 101 135 167 203 250 301
#     4   9  19  37  59  80 104 141 188 234 281 332
#     4   9  19  36  57  82 114 154 200 246 288 335
#     4  10  21  36  55  83 118 152 188 235 289 344
#     4   9  19  36  55  75 102 135 170 209 253 304
#     4  11  21  34  53  77 106 137 170 210 258 313
#
# _framework density 19.966705000000001
#
# number of rings (size 3 to 8) (size 9 to 14) (size 15 to 20)
#    0.000    2.385    0.769    2.308    0.000    4.923 
#    0.000    6.154    0.000    1.846    0.000    0.000 
#    0.000    0.000    0.000    0.000    0.000    0.000 
#
# Total GULP energy -289732.806896 kJ/mol
# GULP energy per Si atom -5571.784748 kJ/mol
# Density = 1.992126 g / cm^3
# Si number density = 19.966705 Si / 1000 Ang^3
#
#
#
# Elastic Constant Matrix: (Units=GPa)
#
#
# Indices 1 2 3 4 5 6 
#
# 1 167.5763 13.0291 87.5750 0.0000 0.0000 0.0000
# 2 13.0291 8.9268 -1.3793 0.0000 0.0000 0.0000
# 3 87.5750 -1.3793 86.4048 0.0000 0.0000 0.0000
# 4 0.0000 0.0000 0.0000 -61.4169 0.0000 0.0000
# 5 0.0000 0.0000 0.0000 0.0000 59.3348 0.0000
# 6 0.0000 0.0000 0.0000 0.0000 0.0000 14.6965
#
#
#
# Elastic Compliance Matrix: (Units=1/GPa)
#
#
# Indices 1 2 3 4 5 6 
#
# 1 0.018037 -0.029223 -0.018748 0.000000 0.000000 0.000000
# 2 -0.029223 0.159644 0.032167 0.000000 0.000000 0.000000
# 3 -0.018748 0.032167 0.031089 0.000000 0.000000 0.000000
# 4 0.000000 0.000000 0.000000 -0.016282 0.000000 0.000000
# 5 0.000000 0.000000 0.000000 0.000000 0.016854 0.000000
# 6 0.000000 0.000000 0.000000 0.000000 0.000000 0.068043
#
#
# Mechanical properties :
#
#
# Convention : Reuss Voigt Hill
#
# Bulk Modulus (GPa) = 5.64455 51.26195 28.45325
# Shear Modulus (GPa) = 13.58529 13.43511 13.51020
#
# Velocity S-wave (km/s) = 2.61127 2.59680 2.60405
# Velocity P-wave (km/s) = 3.45323 5.89242 4.82936
#
# Compressibility (1/GPa) = 0.17716201
#
# Stress axis : x y z
#
# Youngs Moduli (GPa) = 55.44136 6.26395 32.16606
#
# Poissons Ratio (x) = 0.18305 0.60304
# Poissons Ratio (y) = 1.62014 -1.03468
# Poissons Ratio (z) = 1.03941 -0.20149
#
# Static dielectric constant tensor:
#      x y z
#    x 2.226260 0.000000 0.000000 
#    y 0.000000 1.724980 0.000000 
#    z 0.000000 0.000000 1.668820 
# 
# From -- ./inp_files/33577.got.cif
#   From: 2010.05.17/outbox.cif.g08.bks.cpg/sg47_17_cif.got.tgz:33577.got - 2010.06.03 20:15:42.
