data_PCOD9387367
_publ_section_title
;
Structure prediction by ZEFSAII (Michael W. Deem and Ramdas Pophale) SiO2 
 PCOD9387367
Probable space group: P M M M
;
_chemical_formula_sum "Si O2"
_cell_formula_units_Z 40
_cell_length_a 11.509706
_cell_length_b 22.824901
_cell_length_c 7.794028
_cell_angle_alpha 90.000000
_cell_angle_beta 90.000000
_cell_angle_gamma 90.000000
_cell_volume 2047.552728
_symmetry_space_group_name_H-M "P M M M"
_symmetry_group_IT_number 47
_symmetry_cell_setting 'orthorhombic'
loop_
_space_group_symop_operation_xyz
x,y,z
-x,-y,z
x,-y,-z
-x,y,-z
-x,-y,-z
x,y,-z
-x,y,z
x,-y,z
loop_
_atom_site_type_symbol
_atom_site_label
_atom_site_fract_x
_atom_site_fract_y
_atom_site_fract_z
Si Si1 0.368710 0.868131 0.301378
Si Si2 0.636253 0.500000 0.204292
Si Si3 0.243246 0.618065 0.210408
Si Si4 0.633871 0.734173 0.795096
Si Si5 0.870657 0.932859 0.205615
Si Si6 0.000000 0.432396 0.208866
O O1 0.377556 0.883489 0.500000
O O2 0.500000 0.880583 0.224901
O O3 0.350350 0.798306 0.282403
O O4 0.249758 0.898933 0.240836
O O5 0.500000 0.500000 0.223020
O O6 0.685346 0.438732 0.271084
O O7 0.665737 0.500000 0.000000
O O8 0.288189 0.680855 0.270123
O O9 0.113109 0.602815 0.260451
O O10 0.251396 0.619770 0.000000
O O11 0.500000 0.716532 0.768421
O O12 0.651941 0.740803 0.000000
O O13 0.000000 0.910727 0.265434
O O14 0.859535 0.000000 0.268324
O O15 0.878007 0.934480 0.000000
O O16 0.000000 0.500000 0.268197
O O17 0.000000 0.435379 0.000000
#
# Coordination Sequence:
#
# PCOD9387367 Si02
#       6
#     8   4   8   8   8   4
#     4  10  21  36  54  78 109 144 180 217 258 306
#     4   9  14  19  31  53  80 109 145 192 246 302
#     4   9  15  23  36  56  84 118 154 194 246 304
#     4   9  17  30  47  67  94 128 166 209 255 301
#     4   9  19  37  60  85 112 141 174 213 257 304
#     4   9  14  22  34  52  85 121 146 183 246 311
#
# _framework density 19.535516999999999
#
# number of rings (size 3 to 8) (size 9 to 14) (size 15 to 20)
#    0.000    2.800    1.000    1.800    0.000    4.800 
#    1.800    3.000    0.000    0.000    0.000    0.700 
#    0.000    4.800    0.000    0.000    0.000    0.000 
#
# Total GULP energy -222714.442242 kJ/mol
# GULP energy per Si atom -5567.861056 kJ/mol
# Density = 1.949105 g / cm^3
# Si number density = 19.535517 Si / 1000 Ang^3
#
#
#
# Elastic Constant Matrix: (Units=GPa)
#
#
# Indices 1 2 3 4 5 6 
#
# 1 1013.2155 116.7169 -33.3248 0.0000 0.0000 0.0000
# 2 116.7169 72.6932 8.7800 0.0000 0.0000 0.0000
# 3 -33.3248 8.7800 27.0928 0.0000 0.0000 0.0000
# 4 0.0000 0.0000 0.0000 166.1369 0.0000 0.0000
# 5 0.0000 0.0000 0.0000 0.0000 5.8175 0.0000
# 6 0.0000 0.0000 0.0000 0.0000 0.0000 63.5505
#
#
#
# Elastic Compliance Matrix: (Units=1/GPa)
#
#
# Indices 1 2 3 4 5 6 
#
# 1 0.001352 -0.002469 0.002464 0.000000 0.000000 0.000000
# 2 -0.002469 0.018824 -0.009137 0.000000 0.000000 0.000000
# 3 0.002464 -0.009137 0.042902 0.000000 0.000000 0.000000
# 4 0.000000 0.000000 0.000000 0.006019 0.000000 0.000000
# 5 0.000000 0.000000 0.000000 0.000000 0.171895 0.000000
# 6 0.000000 0.000000 0.000000 0.000000 0.000000 0.015736
#
#
# Mechanical properties :
#
#
# Convention : Reuss Voigt Hill
#
# Bulk Modulus (GPa) = 22.32498 144.14952 83.23725
# Shear Modulus (GPa) = 17.24468 115.15629 66.20049
#
# Velocity S-wave (km/s) = 2.97431 7.68603 5.82759
# Velocity P-wave (km/s) = 4.82162 12.35781 9.37986
#
# Compressibility (1/GPa) = 0.04479288
#
# Stress axis : x y z
#
# Youngs Moduli (GPa) = 739.42699 53.12288 23.30916
#
# Poissons Ratio (x) = 0.13116 -0.05742
# Poissons Ratio (y) = 1.82563 0.21298
# Poissons Ratio (z) = -1.82166 0.48540
#
# Static dielectric constant tensor:
#      x y z
#    x 1.691060 0.000000 0.000000 
#    y 0.000000 1.669860 0.000000 
#    z 0.000000 0.000000 1.737500 
# 
# From -- ./inp_files/4119.got.cif
#   From: 2010.05.17/outbox.cif.g08.bks.cpg/sg47_3_cif.got.tgz:4119.got - 2010.06.03 20:15:42.
