data_PCOD9387637
_publ_section_title
;
Structure prediction by ZEFSAII (Michael W. Deem and Ramdas Pophale) SiO2 
 PCOD9387637
Probable space group: P M M M
;
_chemical_formula_sum "Si O2"
_cell_formula_units_Z 40
_cell_length_a 26.718752
_cell_length_b 9.574313
_cell_length_c 8.504639
_cell_angle_alpha 90.000000
_cell_angle_beta 90.000000
_cell_angle_gamma 90.000000
_cell_volume 2175.603124
_symmetry_space_group_name_H-M "P M M M"
_symmetry_group_IT_number 47
_symmetry_cell_setting 'orthorhombic'
loop_
_space_group_symop_operation_xyz
x,y,z
-x,-y,z
x,-y,-z
-x,y,-z
-x,-y,-z
x,y,-z
-x,y,z
x,-y,z
loop_
_atom_site_type_symbol
_atom_site_label
_atom_site_fract_x
_atom_site_fract_y
_atom_site_fract_z
Si Si1 0.794838 0.661801 0.811886
Si Si2 0.297687 0.839464 0.688235
Si Si3 0.500000 0.669835 0.181828
Si Si4 0.000000 0.160551 0.692197
Si Si5 0.904101 0.337876 0.310164
Si Si6 0.609316 0.662240 0.809241
O O1 0.787358 0.500000 0.760511
O O2 0.751824 0.758950 0.743561
O O3 0.850311 0.704383 0.757256
O O4 0.792272 0.665016 0.000000
O O5 0.299060 0.838622 0.500000
O O6 0.346114 0.758279 0.751273
O O7 0.297303 0.000000 0.743235
O O8 0.500000 0.500000 0.179224
O O9 0.445904 0.709085 0.249779
O O10 0.500000 0.717260 0.000000
O O11 0.049907 0.242122 0.742414
O O12 0.000000 0.162276 0.500000
O O13 0.000000 0.000000 0.742761
O O14 0.901444 0.331710 0.500000
O O15 0.913163 0.500000 0.266337
O O16 0.617434 0.500000 0.762792
O O17 0.608015 0.664184 0.000000
#
# Coordination Sequence:
#
# PCOD9387637 Si02
#       6
#     8   8   4   4   8   8
#     4  10  21  37  57  80 103 130 169 216 264 311
#     4  11  24  38  51  72 104 140 175 211 255 307
#     4   7  12  26  50  79 106 130 162 207 254 299
#     4   9  17  29  48  75 104 134 170 209 246 289
#     4   9  17  31  52  76 102 133 168 206 250 300
#     4   9  17  32  56  82 105 132 169 212 256 303
#
# _framework density 18.385705999999999
#
# number of rings (size 3 to 8) (size 9 to 14) (size 15 to 20)
#    0.000    2.600    0.000    3.300    0.000    7.600 
#    0.000    3.500    0.000    7.800    0.000    0.000 
#    0.000    0.000    0.000    0.000    0.000    0.000 
#
# Total GULP energy -223116.390103 kJ/mol
# GULP energy per Si atom -5577.909753 kJ/mol
# Density = 1.834386 g / cm^3
# Si number density = 18.385706 Si / 1000 Ang^3
#
#
#
# Elastic Constant Matrix: (Units=GPa)
#
#
# Indices 1 2 3 4 5 6 
#
# 1 215.5815 123.9230 31.6352 0.0000 0.0000 0.0000
# 2 123.9230 114.1425 25.2515 0.0000 0.0000 0.0000
# 3 31.6352 25.2515 15.2583 0.0000 0.0000 0.0000
# 4 0.0000 0.0000 0.0000 18.4716 0.0000 0.0000
# 5 0.0000 0.0000 0.0000 0.0000 29.5909 0.0000
# 6 0.0000 0.0000 0.0000 0.0000 0.0000 -9.3474
#
#
#
# Elastic Compliance Matrix: (Units=1/GPa)
#
#
# Indices 1 2 3 4 5 6 
#
# 1 0.012626 -0.012490 -0.005509 0.000000 0.000000 0.000000
# 2 -0.012490 0.026175 -0.017424 0.000000 0.000000 0.000000
# 3 -0.005509 -0.017424 0.105795 0.000000 0.000000 0.000000
# 4 0.000000 0.000000 0.000000 0.054137 0.000000 0.000000
# 5 0.000000 0.000000 0.000000 0.000000 0.033794 0.000000
# 6 0.000000 0.000000 0.000000 0.000000 0.000000 -0.106982
#
#
# Mechanical properties :
#
#
# Convention : Reuss Voigt Hill
#
# Bulk Modulus (GPa) = 13.55889 78.51128 46.03508
# Shear Modulus (GPa) = 22.62696 18.68788 20.65742
#
# Velocity S-wave (km/s) = 3.51191 3.19162 3.35559
# Velocity P-wave (km/s) = 4.88215 7.50846 6.33294
#
# Compressibility (1/GPa) = 0.07375237
#
# Stress axis : x y z
#
# Youngs Moduli (GPa) = 79.19862 38.20378 9.45221
#
# Poissons Ratio (x) = 0.47715 0.05207
# Poissons Ratio (y) = 0.98916 0.16469
# Poissons Ratio (z) = 0.43631 0.66565
#
# Static dielectric constant tensor:
#      x y z
#    x 1.626490 0.000000 0.000000 
#    y 0.000000 1.616060 0.000000 
#    z 0.000000 0.000000 1.634770 
# 
# From -- ./inp_files/13066.got.cif
#   From: 2010.05.17/outbox.cif.g08.bks.cpg/sg47_7_cif.got.tgz:13066.got - 2010.06.03 20:15:42.
