data_PCOD9387550
_publ_section_title
;
Structure prediction by ZEFSAII (Michael W. Deem and Ramdas Pophale) SiO2 
 PCOD9387550
Probable space group: P M M M
;
_chemical_formula_sum "Si O2"
_cell_formula_units_Z 48
_cell_length_a 32.348927
_cell_length_b 8.259516
_cell_length_c 9.718379
_cell_angle_alpha 90.000000
_cell_angle_beta 90.000000
_cell_angle_gamma 90.000000
_cell_volume 2596.619478
_symmetry_space_group_name_H-M "P M M M"
_symmetry_group_IT_number 47
_symmetry_cell_setting 'orthorhombic'
loop_
_space_group_symop_operation_xyz
x,y,z
-x,-y,z
x,-y,-z
-x,y,-z
-x,-y,-z
x,y,-z
-x,y,z
x,-y,z
loop_
_atom_site_type_symbol
_atom_site_label
_atom_site_fract_x
_atom_site_fract_y
_atom_site_fract_z
Si Si1 0.044460 0.192756 0.333396
Si Si2 0.622116 0.193118 0.343644
Si Si3 0.697916 0.306654 0.157862
Si Si4 0.452860 0.695526 0.157115
Si Si5 0.134523 0.801659 0.340073
Si Si6 0.788497 0.804480 0.841738
O O1 0.045061 0.206772 0.500000
O O2 0.089317 0.255069 0.287477
O O3 0.000000 0.260743 0.285638
O O4 0.043803 0.000000 0.303391
O O5 0.622913 0.257185 0.500000
O O6 0.661529 0.249472 0.256285
O O7 0.580775 0.244274 0.263887
O O8 0.623138 0.000000 0.349451
O O9 0.697210 0.500000 0.153496
O O10 0.743263 0.250923 0.205702
O O11 0.692086 0.246076 0.000000
O O12 0.500000 0.746994 0.187939
O O13 0.452245 0.500000 0.157957
O O14 0.442942 0.747034 0.000000
O O15 0.139272 0.755399 0.500000
O O16 0.173362 0.747301 0.250654
O O17 0.133671 0.000000 0.337019
O O18 0.788943 0.000000 0.840370
O O19 0.793420 0.750338 0.000000
#
# Coordination Sequence:
#
# PCOD9387550 Si02
#       6
#     8   8   8   8   8   8
#     4   7   9  14  26  46  73 105 141 179 217 260
#     4  11  24  38  53  78 110 139 167 203 248 295
#     4  10  21  37  56  75  95 124 165 208 247 292
#     4   9  19  37  60  84 109 139 176 213 246 284
#     4   8  13  21  35  56  81 111 147 184 222 269
#     4   9  17  29  45  65  90 119 149 185 234 288
#
# _framework density 18.485575000000001
#
# number of rings (size 3 to 8) (size 9 to 14) (size 15 to 20)
#    0.000    3.000    0.000    3.500    0.000    6.000 
#    0.000    4.167    0.000    0.500    0.000    3.500 
#    0.000    0.667    0.000    8.333    0.000    7.667 
#
# Total GULP energy -267439.367445 kJ/mol
# GULP energy per Si atom -5571.653488 kJ/mol
# Density = 1.844350 g / cm^3
# Si number density = 18.485575 Si / 1000 Ang^3
#
#
#
# Elastic Constant Matrix: (Units=GPa)
#
#
# Indices 1 2 3 4 5 6 
#
# 1 208.6975 19.9941 106.3941 0.0000 0.0000 0.0000
# 2 19.9941 11.3142 12.2606 0.0000 0.0000 0.0000
# 3 106.3941 12.2606 85.3186 0.0000 0.0000 0.0000
# 4 0.0000 0.0000 0.0000 17.5227 0.0000 0.0000
# 5 0.0000 0.0000 0.0000 0.0000 33.2282 0.0000
# 6 0.0000 0.0000 0.0000 0.0000 0.0000 88.8810
#
#
#
# Elastic Compliance Matrix: (Units=1/GPa)
#
#
# Indices 1 2 3 4 5 6 
#
# 1 0.013568 -0.006683 -0.015959 0.000000 0.000000 0.000000
# 2 -0.006683 0.107978 -0.007184 0.000000 0.000000 0.000000
# 3 -0.015959 -0.007184 0.032654 0.000000 0.000000 0.000000
# 4 0.000000 0.000000 0.000000 0.057069 0.000000 0.000000
# 5 0.000000 0.000000 0.000000 0.000000 0.030095 0.000000
# 6 0.000000 0.000000 0.000000 0.000000 0.000000 0.011251
#
#
# Mechanical properties :
#
#
# Convention : Reuss Voigt Hill
#
# Bulk Modulus (GPa) = 10.57643 64.73645 37.65644
# Shear Modulus (GPa) = 14.54413 39.03849 26.79131
#
# Velocity S-wave (km/s) = 2.80801 4.60046 3.81111
# Velocity P-wave (km/s) = 4.03077 7.95707 6.30722
#
# Compressibility (1/GPa) = 0.09454989
#
# Stress axis : x y z
#
# Youngs Moduli (GPa) = 73.70434 9.26114 30.62393
#
# Poissons Ratio (x) = 0.06189 0.48873
# Poissons Ratio (y) = 0.49254 0.21999
# Poissons Ratio (z) = 1.17624 0.06653
#
# Static dielectric constant tensor:
#      x y z
#    x 1.654540 0.000000 0.000000 
#    y 0.000000 1.648380 0.000000 
#    z 0.000000 0.000000 1.633780 
# 
# From -- ./inp_files/13791.got.cif
#   From: 2010.05.17/outbox.cif.g08.bks.cpg/sg47_7_cif.got.tgz:13791.got - 2010.06.03 20:15:42.
