data_PCOD9387790
_publ_section_title
;
Structure prediction by ZEFSAII (Michael W. Deem and Ramdas Pophale) SiO2 
 PCOD9387790
Probable space group: P M M M
;
_chemical_formula_sum "Si O2"
_cell_formula_units_Z 45
_cell_length_a 14.194320
_cell_length_b 7.175288
_cell_length_c 21.907954
_cell_angle_alpha 90.000000
_cell_angle_beta 90.000000
_cell_angle_gamma 90.000000
_cell_volume 2231.288615
_symmetry_space_group_name_H-M "P M M M"
_symmetry_group_IT_number 47
_symmetry_cell_setting 'orthorhombic'
loop_
_space_group_symop_operation_xyz
x,y,z
-x,-y,z
x,-y,-z
-x,y,-z
-x,-y,-z
x,y,-z
-x,y,z
x,-y,z
loop_
_atom_site_type_symbol
_atom_site_label
_atom_site_fract_x
_atom_site_fract_y
_atom_site_fract_z
Si Si1 0.500000 0.500000 0.000000
Si Si2 0.105232 0.773680 0.792907
Si Si3 0.721170 0.226900 0.430580
Si Si4 0.895979 0.225813 0.650564
Si Si5 0.605621 0.773770 0.682749
Si Si6 0.689937 0.225575 0.191195
Si Si7 0.500000 0.226654 0.883564
O O1 0.500000 0.662653 0.053627
O O2 0.114081 0.719337 0.721425
O O3 0.203080 0.715208 0.825350
O O4 0.000000 0.714552 0.813996
O O5 0.104049 0.000000 0.794662
O O6 0.713256 0.289861 0.500000
O O7 0.816020 0.286210 0.395863
O O8 0.639644 0.283905 0.383817
O O9 0.721344 0.000000 0.432304
O O10 0.000000 0.280187 0.629956
O O11 0.891618 0.000000 0.651752
O O12 0.500000 0.714922 0.695662
O O13 0.670904 0.716728 0.738853
O O14 0.607436 0.000000 0.683004
O O15 0.597180 0.277087 0.152459
O O16 0.690861 0.000000 0.189923
O O17 0.500000 0.000000 0.890169
#
# Coordination Sequence:
#
# PCOD9387790 Si02
#       7
#     1   8   8   8   8   8   4
#     4  12  26  44  60  90 134 148 168 220 248 292
#     4   8  12  18  32  57  89 120 157 218 276 309
#     4   9  15  19  22  32  57 102 158 209 262 321
#     4   8  12  17  24  35  58  98 148 203 262 315
#     4   9  14  20  30  45  70 104 151 214 265 305
#     4   9  14  24  44  70  94 125 175 216 254 314
#     4  10  21  37  61  88 114 153 184 206 255 311
#
# _framework density 20.167715999999999
#
# number of rings (size 3 to 8) (size 9 to 14) (size 15 to 20)
#    0.000    3.200    2.667    1.200    0.000    0.711 
#    0.000    3.556    0.000    0.000    0.000    1.867 
#    0.000    4.267    0.000    1.600    0.000    3.911 
#
# Total GULP energy -250555.866912 kJ/mol
# GULP energy per Si atom -5567.908154 kJ/mol
# Density = 2.012181 g / cm^3
# Si number density = 20.167716 Si / 1000 Ang^3
#
#
#
# Elastic Constant Matrix: (Units=GPa)
#
#
# Indices 1 2 3 4 5 6 
#
# 1 186.1317 7.1201 50.1961 0.0000 0.0000 0.0000
# 2 7.1201 109.2234 9.9563 0.0000 0.0000 0.0000
# 3 50.1961 9.9563 80.9249 0.0000 0.0000 0.0000
# 4 0.0000 0.0000 0.0000 1170.7331 0.0000 0.0000
# 5 0.0000 0.0000 0.0000 0.0000 -0.7697 0.0000
# 6 0.0000 0.0000 0.0000 0.0000 0.0000 -27.8903
#
#
#
# Elastic Compliance Matrix: (Units=1/GPa)
#
#
# Indices 1 2 3 4 5 6 
#
# 1 0.006452 -0.000056 -0.003995 0.000000 0.000000 0.000000
# 2 -0.000056 0.009260 -0.001104 0.000000 0.000000 0.000000
# 3 -0.003995 -0.001104 0.014971 0.000000 0.000000 0.000000
# 4 0.000000 0.000000 0.000000 0.000854 0.000000 0.000000
# 5 0.000000 0.000000 0.000000 0.000000 -1.299155 0.000000
# 6 0.000000 0.000000 0.000000 0.000000 0.000000 -0.035855
#
#
# Mechanical properties :
#
#
# Convention : Reuss Voigt Hill
#
# Bulk Modulus (GPa) = 49.08841 56.75832 52.92337
# Shear Modulus (GPa) = -3.88690 249.01512 122.56411
#
# Velocity S-wave (km/s) = -1.38977 11.12386 7.80412
# Velocity P-wave (km/s) = 4.67094 13.89932 10.36843
#
# Compressibility (1/GPa) = 0.02037141
#
# Stress axis : x y z
#
# Youngs Moduli (GPa) = 154.98782 107.99272 66.79526
#
# Poissons Ratio (x) = 0.00609 0.26686
# Poissons Ratio (y) = 0.00874 0.07376
# Poissons Ratio (z) = 0.61920 0.11925
#
# Static dielectric constant tensor:
#      x y z
#    x 1.753420 0.000000 0.000000 
#    y 0.000000 1.831400 0.000000 
#    z 0.000000 0.000000 1.635210 
# 
# From -- ./inp_files/30787.got.cif
#   From: 2010.05.17/outbox.cif.g08.bks.cpg/sg47_16_cif.got.tgz:30787.got - 2010.06.03 20:15:42.
