data_PCOD9387164
_publ_section_title
;
Structure prediction by ZEFSAII (Michael W. Deem and Ramdas Pophale) SiO2 
 PCOD9387164
Probable space group: P M M M
;
_chemical_formula_sum "Si O2"
_cell_formula_units_Z 52
_cell_length_a 9.075673
_cell_length_b 14.098165
_cell_length_c 21.770725
_cell_angle_alpha 90.000000
_cell_angle_beta 90.000000
_cell_angle_gamma 90.000000
_cell_volume 2785.571567
_symmetry_space_group_name_H-M "P M M M"
_symmetry_group_IT_number 47
_symmetry_cell_setting 'orthorhombic'
loop_
_space_group_symop_operation_xyz
x,y,z
-x,-y,z
x,-y,-z
-x,y,-z
-x,-y,-z
x,y,-z
-x,y,z
x,-y,z
loop_
_atom_site_type_symbol
_atom_site_label
_atom_site_fract_x
_atom_site_fract_y
_atom_site_fract_z
Si Si1 0.175184 0.298902 0.748140
Si Si2 0.679488 0.608406 0.500000
Si Si3 0.324420 0.713051 0.376167
Si Si4 0.675854 0.793863 0.070063
Si Si5 0.823469 0.391138 0.878562
Si Si6 0.174373 0.110253 0.427485
Si Si7 0.177526 0.892507 0.184274
O O1 0.258064 0.326652 0.686535
O O2 0.205041 0.364956 0.807083
O O3 0.218021 0.191596 0.768582
O O4 0.000000 0.299966 0.737108
O O5 0.726182 0.500000 0.500000
O O6 0.500000 0.611520 0.500000
O O7 0.727985 0.658759 0.562545
O O8 0.500000 0.709368 0.373850
O O9 0.267931 0.819777 0.386262
O O10 0.500000 0.793463 0.078676
O O11 0.739392 0.688545 0.082813
O O12 0.750205 0.862745 0.119763
O O13 0.708552 0.821519 0.000000
O O14 0.783370 0.500000 0.891744
O O15 0.000000 0.380504 0.888061
O O16 0.208004 0.124906 0.500000
O O17 0.000000 0.128587 0.419006
O O18 0.200838 0.000000 0.413788
O O19 0.000000 0.888150 0.177907
O O20 0.217601 0.000000 0.202019
#
# Coordination Sequence:
#
# PCOD9387164 Si02
#       7
#     8   4   8   8   8   8   8
#     4   9  19  35  54  78 108 139 172 218 271 321
#     4   9  20  38  54  71 102 140 173 209 258 315
#     4  11  21  34  54  79 105 137 175 217 263 312
#     4  10  21  35  52  80 117 150 179 217 267 320
#     4   9  19  37  59  80 104 138 181 228 274 318
#     4   9  18  33  53  75 100 132 166 203 255 314
#     4   9  19  37  59  80 105 143 188 228 265 309
#
# _framework density 18.667624
#
# number of rings (size 3 to 8) (size 9 to 14) (size 15 to 20)
#    0.000    2.538    0.769    2.308    0.000    6.462 
#    0.000    5.385    0.000    3.231    0.000    0.000 
#    0.000    0.000    0.000    0.000    0.000    0.000 
#
# Total GULP energy -290131.960396 kJ/mol
# GULP energy per Si atom -5579.460777 kJ/mol
# Density = 1.862514 g / cm^3
# Si number density = 18.667624 Si / 1000 Ang^3
#
#
#
# Elastic Constant Matrix: (Units=GPa)
#
#
# Indices 1 2 3 4 5 6 
#
# 1 8.8142 -0.8645 17.3799 0.0000 0.0000 0.0000
# 2 -0.8645 42.5629 -8.2966 0.0000 0.0000 0.0000
# 3 17.3799 -8.2966 68.6844 0.0000 0.0000 0.0000
# 4 0.0000 0.0000 0.0000 4.8291 0.0000 0.0000
# 5 0.0000 0.0000 0.0000 0.0000 33.5084 0.0000
# 6 0.0000 0.0000 0.0000 0.0000 0.0000 14.9045
#
#
#
# Elastic Compliance Matrix: (Units=1/GPa)
#
#
# Indices 1 2 3 4 5 6 
#
# 1 0.228326 -0.006784 -0.058595 0.000000 0.000000 0.000000
# 2 -0.006784 0.024263 0.004647 0.000000 0.000000 0.000000
# 3 -0.058595 0.004647 0.029948 0.000000 0.000000 0.000000
# 4 0.000000 0.000000 0.000000 0.207079 0.000000 0.000000
# 5 0.000000 0.000000 0.000000 0.000000 0.029843 0.000000
# 6 0.000000 0.000000 0.000000 0.000000 0.000000 0.067094
#
#
# Mechanical properties :
#
#
# Convention : Reuss Voigt Hill
#
# Bulk Modulus (GPa) = 6.20836 15.16657 10.68746
# Shear Modulus (GPa) = 6.56422 18.10459 12.33440
#
# Velocity S-wave (km/s) = 1.87723 3.11760 2.57327
# Velocity P-wave (km/s) = 2.83401 4.59363 3.81661
#
# Compressibility (1/GPa) = 0.16107315
#
# Stress axis : x y z
#
# Youngs Moduli (GPa) = 4.37971 41.21553 33.39169
#
# Poissons Ratio (x) = 0.27960 1.95658
# Poissons Ratio (y) = 0.02971 -0.15518
# Poissons Ratio (z) = 0.25663 -0.19154
#
# Static dielectric constant tensor:
#      x y z
#    x 1.623420 0.000000 0.000000 
#    y 0.000000 1.644540 0.000000 
#    z 0.000000 0.000000 1.648020 
# 
# From -- ./inp_files/11048.got.cif
#   From: 2010.05.17/outbox.cif.g08.bks.cpg/sg47_6_cif.got.tgz:11048.got - 2010.06.03 20:15:42.
