data_PCOD9387056
_publ_section_title
;
Structure prediction by ZEFSAII (Michael W. Deem and Ramdas Pophale) SiO2 
 PCOD9387056
Probable space group: P M M M
;
_chemical_formula_sum "Si O2"
_cell_formula_units_Z 64
_cell_length_a 14.770933
_cell_length_b 8.711063
_cell_length_c 25.317644
_cell_angle_alpha 90.000000
_cell_angle_beta 90.000000
_cell_angle_gamma 90.000000
_cell_volume 3257.634619
_symmetry_space_group_name_H-M "P M M M"
_symmetry_group_IT_number 47
_symmetry_cell_setting 'orthorhombic'
loop_
_space_group_symop_operation_xyz
x,y,z
-x,-y,z
x,-y,-z
-x,y,-z
-x,-y,-z
x,y,-z
-x,y,z
x,-y,z
loop_
_atom_site_type_symbol
_atom_site_label
_atom_site_fract_x
_atom_site_fract_y
_atom_site_fract_z
Si Si1 0.360739 0.319881 0.557603
Si Si2 0.835307 0.818805 0.557787
Si Si3 0.398226 0.187019 0.061416
Si Si4 0.892495 0.326450 0.333855
Si Si5 0.394952 0.832789 0.666744
Si Si6 0.734823 0.179507 0.150720
Si Si7 0.609081 0.328435 0.231431
Si Si8 0.105110 0.314599 0.782507
O O1 0.396613 0.273420 0.500000
O O2 0.378773 0.500000 0.564875
O O3 0.254229 0.284532 0.556096
O O4 0.393135 0.225153 0.607331
O O5 0.882300 0.795105 0.500000
O O6 0.879258 0.771846 0.613240
O O7 0.812642 0.000000 0.559877
O O8 0.500000 0.236535 0.078816
O O9 0.315592 0.240541 0.098037
O O10 0.398348 0.000000 0.063987
O O11 0.387533 0.229482 0.000000
O O12 0.855457 0.500000 0.342094
O O13 0.862202 0.263712 0.276518
O O14 0.000000 0.340462 0.326836
O O15 0.500000 0.849498 0.680820
O O16 0.361542 0.708584 0.708545
O O17 0.350276 0.000000 0.671544
O O18 0.657512 0.205803 0.194809
O O19 0.825111 0.258344 0.173178
O O20 0.753867 0.000000 0.143809
O O21 0.500000 0.323674 0.226439
O O22 0.639106 0.500000 0.216783
O O23 0.105647 0.500000 0.780878
O O24 0.000000 0.266020 0.791094
#
# Coordination Sequence:
#
# PCOD9387056 Si02
#       8
#     8   8   8   8   8   8   8   8
#     4  10  21  36  53  71  93 126 167 209 255 315
#     4  10  21  35  51  73 101 130 162 208 266 326
#     4   8  15  30  53  83 121 161 196 230 271 324
#     4   9  19  36  56  75  96 128 171 217 267 328
#     4  10  21  36  53  73  98 128 165 214 268 316
#     4  11  21  32  55  88 116 147 187 234 286 333
#     4  10  21  36  53  76 110 149 185 221 266 328
#     4   9  20  39  58  77 107 148 192 237 285 338
#
# _framework density 19.646156999999999
#
# number of rings (size 3 to 8) (size 9 to 14) (size 15 to 20)
#    0.000    2.375    0.000    3.375    1.750    5.000 
#    0.000    3.750    0.000    1.875    0.000    7.000 
#    0.000    0.000    0.000    0.000    0.000    0.000 
#
# Total GULP energy -356612.922542 kJ/mol
# GULP energy per Si atom -5572.076915 kJ/mol
# Density = 1.960144 g / cm^3
# Si number density = 19.646157 Si / 1000 Ang^3
#
#
#
# Elastic Constant Matrix: (Units=GPa)
#
#
# Indices 1 2 3 4 5 6 
#
# 1 80.4654 11.4781 45.3833 0.0000 0.0000 0.0000
# 2 11.4781 30.1143 13.6913 0.0000 0.0000 0.0000
# 3 45.3833 13.6913 108.0158 0.0000 0.0000 0.0000
# 4 0.0000 0.0000 0.0000 21.5380 0.0000 0.0000
# 5 0.0000 0.0000 0.0000 0.0000 23.2082 0.0000
# 6 0.0000 0.0000 0.0000 0.0000 0.0000 23.9378
#
#
#
# Elastic Compliance Matrix: (Units=1/GPa)
#
#
# Indices 1 2 3 4 5 6 
#
# 1 0.016600 -0.003349 -0.006550 0.000000 0.000000 0.000000
# 2 -0.003349 0.035913 -0.003145 0.000000 0.000000 0.000000
# 3 -0.006550 -0.003145 0.012409 0.000000 0.000000 0.000000
# 4 0.000000 0.000000 0.000000 0.046430 0.000000 0.000000
# 5 0.000000 0.000000 0.000000 0.000000 0.043088 0.000000
# 6 0.000000 0.000000 0.000000 0.000000 0.000000 0.041775
#
#
# Mechanical properties :
#
#
# Convention : Reuss Voigt Hill
#
# Bulk Modulus (GPa) = 25.75104 39.96677 32.85890
# Shear Modulus (GPa) = 21.25431 23.60632 22.43032
#
# Velocity S-wave (km/s) = 3.29273 3.47013 3.38259
# Velocity P-wave (km/s) = 5.25280 6.03682 5.65841
#
# Compressibility (1/GPa) = 0.03883339
#
# Stress axis : x y z
#
# Youngs Moduli (GPa) = 60.24221 27.84495 80.58992
#
# Poissons Ratio (x) = 0.09326 0.52786
# Poissons Ratio (y) = 0.20176 0.25345
# Poissons Ratio (z) = 0.39458 0.08757
#
# Static dielectric constant tensor:
#      x y z
#    x 1.723170 0.000000 0.000000 
#    y 0.000000 1.695220 0.000000 
#    z 0.000000 0.000000 1.721360 
# 
# From -- ./inp_files/21886.got.cif
#   From: 2010.05.17/outbox.cif.g08.bks.cpg/sg47_11_cif.got.tgz:21886.got - 2010.06.03 20:15:42.
