data_PCOD9387108
_publ_section_title
;
Structure prediction by ZEFSAII (Michael W. Deem and Ramdas Pophale) SiO2 
 PCOD9387108
Probable space group: P M M M
;
_chemical_formula_sum "Si O2"
_cell_formula_units_Z 64
_cell_length_a 15.030153
_cell_length_b 7.786848
_cell_length_c 26.271807
_cell_angle_alpha 90.000000
_cell_angle_beta 90.000000
_cell_angle_gamma 90.000000
_cell_volume 3074.787054
_symmetry_space_group_name_H-M "P M M M"
_symmetry_group_IT_number 47
_symmetry_cell_setting 'orthorhombic'
loop_
_space_group_symop_operation_xyz
x,y,z
-x,-y,z
x,-y,-z
-x,y,-z
-x,-y,-z
x,y,-z
-x,y,z
x,-y,z
loop_
_atom_site_type_symbol
_atom_site_label
_atom_site_fract_x
_atom_site_fract_y
_atom_site_fract_z
Si Si1 0.710947 0.203932 0.942301
Si Si2 0.098664 0.292590 0.404295
Si Si3 0.710597 0.203943 0.444312
Si Si4 0.401015 0.794958 0.150046
Si Si5 0.284314 0.296506 0.246316
Si Si6 0.904690 0.706629 0.939865
Si Si7 0.098228 0.709616 0.285083
Si Si8 0.602622 0.208113 0.346332
O O1 0.641205 0.276069 0.901990
O O2 0.810609 0.228322 0.920427
O O3 0.696618 0.000000 0.946474
O O4 0.706317 0.275613 0.000000
O O5 0.099986 0.500000 0.406568
O O6 0.184613 0.228352 0.433807
O O7 0.107807 0.243354 0.344723
O O8 0.000000 0.236359 0.421786
O O9 0.687901 0.275736 0.500000
O O10 0.653932 0.272467 0.396728
O O11 0.693553 0.000000 0.445689
O O12 0.500000 0.727040 0.160314
O O13 0.335757 0.767875 0.197127
O O14 0.407887 0.000000 0.143621
O O15 0.276593 0.500000 0.240878
O O16 0.184387 0.227296 0.254947
O O17 0.342338 0.259577 0.296541
O O18 0.903242 0.500000 0.936669
O O19 0.000000 0.765965 0.918234
O O20 0.905230 0.752808 0.000000
O O21 0.098548 0.500000 0.283730
O O22 0.000000 0.765485 0.267604
O O23 0.500000 0.265839 0.344358
O O24 0.601874 0.000000 0.347535
#
# Coordination Sequence:
#
# PCOD9387108 Si02
#       8
#     8   8   8   8   8   8   8   8
#     4   9  18  33  54  79 105 138 182 225 262 304
#     4   9  17  32  54  77 103 138 177 213 255 312
#     4  10  21  35  51  75 107 140 176 220 265 310
#     4  10  22  39  56  76 107 143 175 215 268 319
#     4  11  21  35  59  85 107 133 171 219 262 309
#     4   8  14  26  46  73 105 140 175 210 253 307
#     4   8  15  30  53  79 105 133 166 206 254 306
#     4  10  21  37  56  76 101 137 178 219 267 319
#
# _framework density 20.814449
#
# number of rings (size 3 to 8) (size 9 to 14) (size 15 to 20)
#    0.000    2.625    1.250    1.875    0.000    4.000 
#    0.000    5.625    0.000    3.750    0.000    4.375 
#    0.000    0.000    0.000    0.000    0.000    0.000 
#
# Total GULP energy -356972.965052 kJ/mol
# GULP energy per Si atom -5577.702579 kJ/mol
# Density = 2.076707 g / cm^3
# Si number density = 20.814449 Si / 1000 Ang^3
#
#
#
# Elastic Constant Matrix: (Units=GPa)
#
#
# Indices 1 2 3 4 5 6 
#
# 1 138.9975 -1.0789 72.0108 0.0000 0.0000 0.0000
# 2 -1.0789 24.1420 0.8358 0.0000 0.0000 0.0000
# 3 72.0108 0.8358 104.5678 0.0000 0.0000 0.0000
# 4 0.0000 0.0000 0.0000 -8.4164 0.0000 0.0000
# 5 0.0000 0.0000 0.0000 0.0000 -1.5274 0.0000
# 6 0.0000 0.0000 0.0000 0.0000 0.0000 23.6898
#
#
#
# Elastic Compliance Matrix: (Units=1/GPa)
#
#
# Indices 1 2 3 4 5 6 
#
# 1 0.011199 0.000768 -0.007718 0.000000 0.000000 0.000000
# 2 0.000768 0.041486 -0.000860 0.000000 0.000000 0.000000
# 3 -0.007718 -0.000860 0.014885 0.000000 0.000000 0.000000
# 4 0.000000 0.000000 0.000000 -0.118815 0.000000 0.000000
# 5 0.000000 0.000000 0.000000 0.000000 -0.654698 0.000000
# 6 0.000000 0.000000 0.000000 0.000000 0.000000 0.042212
#
#
# Mechanical properties :
#
#
# Convention : Reuss Voigt Hill
#
# Bulk Modulus (GPa) = 19.24999 45.69362 32.47181
# Shear Modulus (GPa) = -7.92652 15.81184 3.94266
#
# Velocity S-wave (km/s) = -1.95357 2.75918 1.37779
# Velocity P-wave (km/s) = 2.04447 5.67021 4.26211
#
# Compressibility (1/GPa) = 0.05194808
#
# Stress axis : x y z
#
# Youngs Moduli (GPa) = 89.29381 24.10474 67.18045
#
# Poissons Ratio (x) = -0.01851 0.51852
# Poissons Ratio (y) = -0.06855 0.05779
# Poissons Ratio (z) = 0.68920 0.02074
#
# Static dielectric constant tensor:
#      x y z
#    x 1.764400 0.000000 0.000000 
#    y 0.000000 1.768540 0.000000 
#    z 0.000000 0.000000 1.736460 
# 
# From -- ./inp_files/7857.got.cif
#   From: 2010.05.17/outbox.cif.g08.bks.cpg/sg47_4_cif.got.tgz:7857.got - 2010.06.03 20:15:42.
