data_PCOD9387732
_publ_section_title
;
Structure prediction by ZEFSAII (Michael W. Deem and Ramdas Pophale) SiO2 
 PCOD9387732
Probable space group: P M M M
;
_chemical_formula_sum "Si O2"
_cell_formula_units_Z 48
_cell_length_a 7.768767
_cell_length_b 9.416450
_cell_length_c 34.591193
_cell_angle_alpha 90.000000
_cell_angle_beta 90.000000
_cell_angle_gamma 90.000000
_cell_volume 2530.491259
_symmetry_space_group_name_H-M "P M M M"
_symmetry_group_IT_number 47
_symmetry_cell_setting 'orthorhombic'
loop_
_space_group_symop_operation_xyz
x,y,z
-x,-y,z
x,-y,-z
-x,y,-z
-x,-y,-z
x,y,-z
-x,y,z
x,-y,z
loop_
_atom_site_type_symbol
_atom_site_label
_atom_site_fract_x
_atom_site_fract_y
_atom_site_fract_z
Si Si1 0.796326 0.340773 0.381848
Si Si2 0.000000 0.829934 0.089845
Si Si3 0.292301 0.837623 0.543385
Si Si4 0.702709 0.668110 0.231999
Si Si5 0.000000 0.331507 0.829588
Si Si6 0.705046 0.159398 0.307235
Si Si7 0.701069 0.665879 0.046338
O O1 0.722247 0.500000 0.380371
O O2 0.761146 0.266585 0.422741
O O3 0.733910 0.244613 0.346578
O O4 0.000000 0.350760 0.377413
O O5 0.000000 0.764969 0.132748
O O6 0.832696 0.767372 0.068019
O O7 0.000000 0.000000 0.089854
O O8 0.234323 0.797744 0.500000
O O9 0.500000 0.839926 0.542902
O O10 0.234560 0.000000 0.551059
O O11 0.500000 0.699444 0.223824
O O12 0.713368 0.500000 0.240892
O O13 0.830473 0.695731 0.196461
O O14 0.764141 0.755096 0.269480
O O15 0.000000 0.500000 0.839746
O O16 0.500000 0.148844 0.302637
O O17 0.776918 0.000000 0.309402
O O18 0.500000 0.693415 0.055551
O O19 0.737091 0.500000 0.055899
O O20 0.721080 0.680384 0.000000
#
# Coordination Sequence:
#
# PCOD9387732 Si02
#       7
#     8   4   8   8   4   8   8
#     4  11  24  37  51  77 111 143 176 216 261 311
#     4  12  25  37  54  87 128 166 202 247 309 370
#     4   9  19  37  59  80 103 134 173 216 262 315
#     4   9  19  37  60  84 110 143 186 239 294 342
#     4  10  22  39  59  82 112 155 205 247 286 348
#     4  10  21  37  58  83 109 138 174 219 273 332
#     4   9  19  38  64  90 117 157 210 262 309 361
#
# _framework density 18.968648000000002
#
# number of rings (size 3 to 8) (size 9 to 14) (size 15 to 20)
#    0.000    2.167    0.000    3.500    1.167    8.333 
#    0.000    5.000    0.000    0.000    0.000    0.000 
#    0.000    0.000    0.000    0.000    0.000    0.000 
#
# Total GULP energy -267984.272000 kJ/mol
# GULP energy per Si atom -5583.005667 kJ/mol
# Density = 1.892547 g / cm^3
# Si number density = 18.968648 Si / 1000 Ang^3
#
#
#
# Elastic Constant Matrix: (Units=GPa)
#
#
# Indices 1 2 3 4 5 6 
#
# 1 69.6488 60.7594 52.5027 0.0000 0.0000 0.0000
# 2 60.7594 146.8171 104.2063 0.0000 0.0000 0.0000
# 3 52.5027 104.2063 123.0197 0.0000 0.0000 0.0000
# 4 0.0000 0.0000 0.0000 -19.5450 0.0000 0.0000
# 5 0.0000 0.0000 0.0000 0.0000 -73.7235 0.0000
# 6 0.0000 0.0000 0.0000 0.0000 0.0000 26.1739
#
#
#
# Elastic Compliance Matrix: (Units=1/GPa)
#
#
# Indices 1 2 3 4 5 6 
#
# 1 0.023413 -0.006513 -0.004476 0.000000 0.000000 0.000000
# 2 -0.006513 0.018892 -0.013223 0.000000 0.000000 0.000000
# 3 -0.004476 -0.013223 0.021240 0.000000 0.000000 0.000000
# 4 0.000000 0.000000 0.000000 -0.051164 0.000000 0.000000
# 5 0.000000 0.000000 0.000000 0.000000 -0.013564 0.000000
# 6 0.000000 0.000000 0.000000 0.000000 0.000000 0.038206
#
#
# Mechanical properties :
#
#
# Convention : Reuss Voigt Hill
#
# Bulk Modulus (GPa) = 66.12983 86.04691 76.08837
# Shear Modulus (GPa) = 55.25707 -5.28443 24.98632
#
# Velocity S-wave (km/s) = 5.40315 -1.67090 3.63332
# Velocity P-wave (km/s) = 8.59440 6.46054 7.60271
#
# Compressibility (1/GPa) = 0.01512177
#
# Stress axis : x y z
#
# Youngs Moduli (GPa) = 42.71131 52.93270 47.08128
#
# Poissons Ratio (x) = 0.34474 0.21071
# Poissons Ratio (y) = 0.27817 0.62257
# Poissons Ratio (z) = 0.19116 0.69994
#
# Static dielectric constant tensor:
#      x y z
#    x 1.673090 0.000000 0.000000 
#    y 0.000000 1.674970 0.000000 
#    z 0.000000 0.000000 1.630300 
# 
# From -- ./inp_files/2590.got.cif
#   From: 2010.05.17/outbox.cif.g08.bks.cpg/sg47_2_cif.got.tgz:2590.got - 2010.06.03 20:15:42.
