data_PCOD9387756
_publ_section_title
;
Structure prediction by ZEFSAII (Michael W. Deem and Ramdas Pophale) SiO2 
 PCOD9387756
Probable space group: P M M M
;
_chemical_formula_sum "Si O2"
_cell_formula_units_Z 38
_cell_length_a 8.247492
_cell_length_b 29.898951
_cell_length_c 7.559422
_cell_angle_alpha 90.000000
_cell_angle_beta 90.000000
_cell_angle_gamma 90.000000
_cell_volume 1864.088146
_symmetry_space_group_name_H-M "P M M M"
_symmetry_group_IT_number 47
_symmetry_cell_setting 'orthorhombic'
loop_
_space_group_symop_operation_xyz
x,y,z
-x,-y,z
x,-y,-z
-x,y,-z
-x,-y,-z
x,y,-z
-x,y,z
x,-y,z
loop_
_atom_site_type_symbol
_atom_site_label
_atom_site_fract_x
_atom_site_fract_y
_atom_site_fract_z
Si Si1 0.500000 0.685013 0.000000
Si Si2 0.819356 0.253401 0.000000
Si Si3 0.312770 0.809965 0.289801
Si Si4 0.500000 0.391350 0.714701
Si Si5 0.820485 0.903335 0.711029
Si Si6 0.818168 0.448312 0.714975
Si Si7 0.320649 0.000000 0.790566
O O1 0.666157 0.713407 0.000000
O O2 0.500000 0.654039 0.174593
O O3 0.797258 0.221625 0.828930
O O4 0.000000 0.273608 0.000000
O O5 0.277742 0.806180 0.500000
O O6 0.500000 0.797426 0.262068
O O7 0.289613 0.861778 0.232666
O O8 0.500000 0.385209 0.500000
O O9 0.663306 0.418732 0.764873
O O10 0.827807 0.899619 0.500000
O O11 0.000000 0.896781 0.785141
O O12 0.764480 0.953615 0.745032
O O13 0.819466 0.448371 0.500000
O O14 0.796787 0.500000 0.770783
O O15 0.000000 0.433571 0.771492
O O16 0.500000 0.000000 0.710358
O O17 0.333341 0.000000 0.000000
#
# Coordination Sequence:
#
# PCOD9387756 Si02
#       7
#     2   4   8   4   8   8   4
#     4  12  28  46  59  94 124 159 216 266 316 396
#     4  12  26  46  70  92 123 162 202 265 331 386
#     4  10  21  41  70  98 124 155 198 255 316 380
#     4  10  21  38  62  86 124 172 211 258 319 373
#     4  10  21  37  58  86 117 150 191 238 290 355
#     4   8  14  28  55  91 127 167 217 264 308 363
#     4  11  24  37  50  76 116 163 200 231 277 343
#
# _framework density 20.385303
#
# number of rings (size 3 to 8) (size 9 to 14) (size 15 to 20)
#    0.000    2.000    1.053    2.842    1.474    7.579 
#    0.000    1.053    0.000    1.263    0.000    0.000 
#    0.000    0.000    0.000    0.000    0.000    0.000 
#
# Total GULP energy -212082.250062 kJ/mol
# GULP energy per Si atom -5581.111844 kJ/mol
# Density = 2.033890 g / cm^3
# Si number density = 20.385303 Si / 1000 Ang^3
#
#
#
# Elastic Constant Matrix: (Units=GPa)
#
#
# Indices 1 2 3 4 5 6 
#
# 1 152.4707 68.4298 35.2644 0.0000 0.0000 0.0000
# 2 68.4298 100.2900 24.2362 0.0000 0.0000 0.0000
# 3 35.2644 24.2362 62.0881 0.0000 0.0000 0.0000
# 4 0.0000 0.0000 0.0000 43.9901 0.0000 0.0000
# 5 0.0000 0.0000 0.0000 0.0000 13.8340 0.0000
# 6 0.0000 0.0000 0.0000 0.0000 0.0000 17.7204
#
#
#
# Elastic Compliance Matrix: (Units=1/GPa)
#
#
# Indices 1 2 3 4 5 6 
#
# 1 0.010046 -0.006046 -0.003346 0.000000 0.000000 0.000000
# 2 -0.006046 0.014648 -0.002284 0.000000 0.000000 0.000000
# 3 -0.003346 -0.002284 0.018898 0.000000 0.000000 0.000000
# 4 0.000000 0.000000 0.000000 0.022732 0.000000 0.000000
# 5 0.000000 0.000000 0.000000 0.000000 0.072286 0.000000
# 6 0.000000 0.000000 0.000000 0.000000 0.000000 0.056432
#
#
# Mechanical properties :
#
#
# Convention : Reuss Voigt Hill
#
# Bulk Modulus (GPa) = 49.40539 63.41218 56.40878
# Shear Modulus (GPa) = 22.20830 27.57012 24.88921
#
# Velocity S-wave (km/s) = 3.30423 3.68156 3.49798
# Velocity P-wave (km/s) = 6.23263 7.01756 6.63671
#
# Compressibility (1/GPa) = 0.02024071
#
# Stress axis : x y z
#
# Youngs Moduli (GPa) = 99.54263 68.26701 52.91560
#
# Poissons Ratio (x) = 0.41274 0.17704
# Poissons Ratio (y) = 0.60184 0.12086
# Poissons Ratio (z) = 0.33304 0.15593
#
# Static dielectric constant tensor:
#      x y z
#    x 1.758600 0.000000 0.000000 
#    y 0.000000 1.799710 0.000000 
#    z 0.000000 0.000000 1.735640 
# 
# From -- ./inp_files/1608.got.cif
#   From: 2010.05.17/outbox.cif.g08.bks.cpg/sg47_1_cif.got.tgz:1608.got - 2010.06.03 20:15:42.
