data_PCOD9387305
_publ_section_title
;
Structure prediction by ZEFSAII (Michael W. Deem and Ramdas Pophale) SiO2 
 PCOD9387305
Probable space group: P M M M
;
_chemical_formula_sum "Si O2"
_cell_formula_units_Z 64
_cell_length_a 16.445863
_cell_length_b 23.515628
_cell_length_c 7.915163
_cell_angle_alpha 90.000000
_cell_angle_beta 90.000000
_cell_angle_gamma 90.000000
_cell_volume 3061.068952
_symmetry_space_group_name_H-M "P M M M"
_symmetry_group_IT_number 47
_symmetry_cell_setting 'orthorhombic'
loop_
_space_group_symop_operation_xyz
x,y,z
-x,-y,z
x,-y,-z
-x,y,-z
-x,-y,-z
x,y,-z
-x,y,z
x,-y,z
loop_
_atom_site_type_symbol
_atom_site_label
_atom_site_fract_x
_atom_site_fract_y
_atom_site_fract_z
Si Si1 0.914228 0.906371 0.802178
Si Si2 0.405644 0.286228 0.693536
Si Si3 0.771965 0.562444 0.796387
Si Si4 0.091117 0.345731 0.703529
Si Si5 0.408639 0.587022 0.196061
Si Si6 0.311640 0.182278 0.304959
Si Si7 0.876123 0.782823 0.302603
Si Si8 0.262797 0.938515 0.797306
O O1 0.911925 0.837819 0.788907
O O2 0.829264 0.928722 0.729149
O O3 0.000000 0.926175 0.727158
O O4 0.914239 0.922058 0.000000
O O5 0.373890 0.296089 0.500000
O O6 0.500000 0.273027 0.679830
O O7 0.399113 0.344979 0.791702
O O8 0.363629 0.232146 0.776675
O O9 0.803940 0.500000 0.745934
O O10 0.834752 0.612380 0.749306
O O11 0.678161 0.566495 0.731538
O O12 0.765974 0.564274 0.000000
O O13 0.090694 0.343286 0.500000
O O14 0.104526 0.280329 0.762273
O O15 0.000000 0.364332 0.759030
O O16 0.500000 0.573478 0.268030
O O17 0.411570 0.569260 0.000000
O O18 0.337271 0.179725 0.500000
O O19 0.219976 0.205579 0.295668
O O20 0.312802 0.118028 0.241907
O O21 0.901119 0.785579 0.500000
O O22 0.293291 0.000000 0.737833
O O23 0.257278 0.940330 0.000000
#
# Coordination Sequence:
#
# PCOD9387305 Si02
#       8
#     8   8   8   8   8   8   8   8
#     4   9  17  28  43  65  91 117 147 186 232 280
#     4   9  17  30  50  76 103 127 152 187 235 290
#     4  10  22  38  54  74 101 134 171 209 249 293
#     4  10  21  36  54  75  99 131 171 213 256 300
#     4   9  18  33  54  80 107 133 162 198 243 298
#     4   9  17  29  47  70  94 121 152 189 234 282
#     4   9  17  30  48  69  93 120 151 189 236 288
#     4   9  18  31  45  62  86 119 158 195 230 270
#
# _framework density 20.907727999999999
#
# number of rings (size 3 to 8) (size 9 to 14) (size 15 to 20)
#    0.000    2.750    0.000    1.125    0.000    4.750 
#    0.000    6.250    0.000    0.375    0.000    8.750 
#    0.000    0.000    0.000    0.000    0.000    0.000 
#
# Total GULP energy -356509.277811 kJ/mol
# GULP energy per Si atom -5570.457466 kJ/mol
# Density = 2.086014 g / cm^3
# Si number density = 20.907728 Si / 1000 Ang^3
#
#
#
# Elastic Constant Matrix: (Units=GPa)
#
#
# Indices 1 2 3 4 5 6 
#
# 1 51.8089 47.0223 5.8492 0.0000 0.0000 0.0000
# 2 47.0223 123.9489 5.3303 0.0000 0.0000 0.0000
# 3 5.8492 5.3303 23.1870 0.0000 0.0000 0.0000
# 4 0.0000 0.0000 0.0000 13.7119 0.0000 0.0000
# 5 0.0000 0.0000 0.0000 0.0000 11.4393 0.0000
# 6 0.0000 0.0000 0.0000 0.0000 0.0000 1.0562
#
#
#
# Elastic Compliance Matrix: (Units=1/GPa)
#
#
# Indices 1 2 3 4 5 6 
#
# 1 0.030001 -0.011166 -0.005001 0.000000 0.000000 0.000000
# 2 -0.011166 0.012305 -0.000012 0.000000 0.000000 0.000000
# 3 -0.005001 -0.000012 0.044392 0.000000 0.000000 0.000000
# 4 0.000000 0.000000 0.000000 0.072930 0.000000 0.000000
# 5 0.000000 0.000000 0.000000 0.000000 0.087418 0.000000
# 6 0.000000 0.000000 0.000000 0.000000 0.000000 0.946756
#
#
# Mechanical properties :
#
#
# Convention : Reuss Voigt Hill
#
# Bulk Modulus (GPa) = 18.40300 35.03872 26.72086
# Shear Modulus (GPa) = 4.01841 14.62435 9.32138
#
# Velocity S-wave (km/s) = 1.38786 2.64762 2.11377
# Velocity P-wave (km/s) = 3.37481 5.11289 4.33191
#
# Compressibility (1/GPa) = 0.05433896
#
# Stress axis : x y z
#
# Youngs Moduli (GPa) = 33.33220 81.27101 22.52659
#
# Poissons Ratio (x) = 0.90750 0.11266
# Poissons Ratio (y) = 0.37220 0.00027
# Poissons Ratio (z) = 0.16670 0.00096
#
# Static dielectric constant tensor:
#      x y z
#    x 1.788630 0.000000 0.000000 
#    y 0.000000 1.772550 0.000000 
#    z 0.000000 0.000000 1.786260 
# 
# From -- ./inp_files/7902.got.cif
#   From: 2010.05.17/outbox.cif.g08.bks.cpg/sg47_4_cif.got.tgz:7902.got - 2010.06.03 20:15:42.
