data_PCOD9387543
_publ_section_title
;
Structure prediction by ZEFSAII (Michael W. Deem and Ramdas Pophale) SiO2 
 PCOD9387543
Probable space group: P M M M
;
_chemical_formula_sum "Si O2"
_cell_formula_units_Z 36
_cell_length_a 14.844372
_cell_length_b 7.990400
_cell_length_c 16.345000
_cell_angle_alpha 90.000000
_cell_angle_beta 90.000000
_cell_angle_gamma 90.000000
_cell_volume 1938.720823
_symmetry_space_group_name_H-M "P M M M"
_symmetry_group_IT_number 47
_symmetry_cell_setting 'orthorhombic'
loop_
_space_group_symop_operation_xyz
x,y,z
-x,-y,z
x,-y,-z
-x,y,-z
-x,-y,-z
x,y,-z
-x,y,z
x,-y,z
loop_
_atom_site_type_symbol
_atom_site_label
_atom_site_fract_x
_atom_site_fract_y
_atom_site_fract_z
Si Si1 0.108105 0.000000 0.587936
Si Si2 0.717648 0.799778 0.754442
Si Si3 0.103392 0.687792 0.700282
Si Si4 0.394808 0.297612 0.406517
Si Si5 0.603938 0.203991 0.910138
O O1 0.127121 0.830180 0.635078
O O2 0.151914 0.000000 0.500000
O O3 0.000000 0.000000 0.580544
O O4 0.814712 0.711553 0.762053
O O5 0.667700 0.763275 0.667985
O O6 0.657213 0.741224 0.830327
O O7 0.730213 0.000000 0.759838
O O8 0.106491 0.500000 0.666121
O O9 0.000000 0.716045 0.728958
O O10 0.370065 0.244698 0.500000
O O11 0.500000 0.248205 0.393060
O O12 0.391490 0.500000 0.405652
O O13 0.500000 0.256082 0.904039
O O14 0.604825 0.000000 0.909265
O O15 0.638591 0.256071 0.000000
#
# Coordination Sequence:
#
# PCOD9387543 Si02
#       5
#     4   8   8   8   8
#     4   9  18  34  54  76 102 133 178 232 278 325
#     4  11  20  31  53  81 107 140 183 228 276 328
#     4  10  21  37  55  76 106 144 183 227 281 331
#     4   9  19  35  51  69 100 142 183 221 262 315
#     4   8  15  29  50  79 113 144 177 221 274 332
#
# _framework density 18.568946
#
# number of rings (size 3 to 8) (size 9 to 14) (size 15 to 20)
#    0.000    2.556    1.111    2.667    0.000    3.111 
#    0.000    3.333    0.000    3.333    0.000   12.444 
#    0.000    0.000    0.000    0.000    0.000    0.000 
#
# Total GULP energy -200528.976282 kJ/mol
# GULP energy per Si atom -5570.249341 kJ/mol
# Density = 1.852668 g / cm^3
# Si number density = 18.568946 Si / 1000 Ang^3
#
#
#
# Elastic Constant Matrix: (Units=GPa)
#
#
# Indices 1 2 3 4 5 6 
#
# 1 111.6623 25.3377 75.1660 0.0000 0.0000 0.0000
# 2 25.3377 62.6201 21.9038 0.0000 0.0000 0.0000
# 3 75.1660 21.9038 125.3270 0.0000 0.0000 0.0000
# 4 0.0000 0.0000 0.0000 -6.0634 0.0000 0.0000
# 5 0.0000 0.0000 0.0000 0.0000 7.9674 0.0000
# 6 0.0000 0.0000 0.0000 0.0000 0.0000 24.8292
#
#
#
# Elastic Compliance Matrix: (Units=1/GPa)
#
#
# Indices 1 2 3 4 5 6 
#
# 1 0.015613 -0.003240 -0.008798 0.000000 0.000000 0.000000
# 2 -0.003240 0.017682 -0.001147 0.000000 0.000000 0.000000
# 3 -0.008798 -0.001147 0.013456 0.000000 0.000000 0.000000
# 4 0.000000 0.000000 0.000000 -0.164923 0.000000 0.000000
# 5 0.000000 0.000000 0.000000 0.000000 0.125512 0.000000
# 6 0.000000 0.000000 0.000000 0.000000 0.000000 0.040275
#
#
# Mechanical properties :
#
#
# Convention : Reuss Voigt Hill
#
# Bulk Modulus (GPa) = 49.06527 60.49160 54.77844
# Shear Modulus (GPa) = 61.89805 17.16009 39.52907
#
# Velocity S-wave (km/s) = 5.77984 3.04325 4.61887
# Velocity P-wave (km/s) = 8.42750 6.70790 7.61639
#
# Compressibility (1/GPa) = 0.02038101
#
# Stress axis : x y z
#
# Youngs Moduli (GPa) = 64.04893 56.55616 74.31553
#
# Poissons Ratio (x) = 0.18325 0.65381
# Poissons Ratio (y) = 0.20752 0.08524
# Poissons Ratio (z) = 0.56349 0.06487
#
# Static dielectric constant tensor:
#      x y z
#    x 1.663870 0.000000 0.000000 
#    y 0.000000 1.557570 0.000000 
#    z 0.000000 0.000000 1.653910 
# 
# From -- ./inp_files/23260.got.cif
#   From: 2010.05.17/outbox.cif.g08.bks.cpg/sg47_12_cif.got.tgz:23260.got - 2010.06.03 20:15:42.
