data_PCOD9387119
_publ_section_title
;
Structure prediction by ZEFSAII (Michael W. Deem and Ramdas Pophale) SiO2 
 PCOD9387119
Probable space group: P M M M
;
_chemical_formula_sum "Si O2"
_cell_formula_units_Z 56
_cell_length_a 24.781954
_cell_length_b 7.777714
_cell_length_c 15.176181
_cell_angle_alpha 90.000000
_cell_angle_beta 90.000000
_cell_angle_gamma 90.000000
_cell_volume 2925.162609
_symmetry_space_group_name_H-M "P M M M"
_symmetry_group_IT_number 47
_symmetry_cell_setting 'orthorhombic'
loop_
_space_group_symop_operation_xyz
x,y,z
-x,-y,z
x,-y,-z
-x,y,-z
-x,-y,-z
x,y,-z
-x,y,z
x,-y,z
loop_
_atom_site_type_symbol
_atom_site_label
_atom_site_fract_x
_atom_site_fract_y
_atom_site_fract_z
Si Si1 0.564675 0.807631 0.000000
Si Si2 0.861022 0.703007 0.596130
Si Si3 0.323640 0.800112 0.766871
Si Si4 0.128374 0.710586 0.204201
Si Si5 0.439098 0.698775 0.193977
Si Si6 0.236372 0.702964 0.099678
Si Si7 0.264775 0.208684 0.595283
Si Si8 0.935593 0.000000 0.102957
O O1 0.575925 0.713355 0.090566
O O2 0.500000 0.824354 0.000000
O O3 0.588562 0.000000 0.000000
O O4 0.879325 0.775136 0.500000
O O5 0.872701 0.500000 0.594111
O O6 0.879261 0.762404 0.692967
O O7 0.796616 0.729263 0.598736
O O8 0.387880 0.782587 0.760687
O O9 0.293941 0.727552 0.853022
O O10 0.296708 0.724286 0.679302
O O11 0.310432 0.000000 0.770134
O O12 0.122147 0.500000 0.197141
O O13 0.188103 0.758487 0.165821
O O14 0.088200 0.827565 0.147567
O O15 0.500000 0.771132 0.205919
O O16 0.440940 0.500000 0.218772
O O17 0.228223 0.500000 0.091182
O O18 0.233813 0.776828 0.000000
O O19 0.287678 0.260197 0.500000
O O20 0.264203 0.000000 0.597736
O O21 0.000000 0.000000 0.110558
O O22 0.920483 0.000000 0.000000
#
# Coordination Sequence:
#
# PCOD9387119 Si02
#       8
#     4   8   8   8   8   8   8   4
#     4   9  17  31  51  71  91 119 165 219 263 312
#     4   9  17  30  53  86 119 153 193 234 284 350
#     4  11  22  33  51  77 106 139 178 229 279 334
#     4  10  21  39  63  89 124 162 198 247 302 350
#     4  10  21  36  52  68  93 134 180 224 273 329
#     4  10  21  35  51  76 112 152 187 222 275 340
#     4   9  18  32  50  76 110 144 178 221 278 342
#     4  11  26  44  65  93 121 159 213 259 291 340
#
# _framework density 19.144234999999998
#
# number of rings (size 3 to 8) (size 9 to 14) (size 15 to 20)
#    0.000    2.143    1.429    1.500    3.000    3.714 
#    0.000    0.714    0.000    1.286    0.000    5.000 
#    0.000    0.000    0.000    0.000    0.000    0.000 
#
# Total GULP energy -311908.563764 kJ/mol
# GULP energy per Si atom -5569.795781 kJ/mol
# Density = 1.910066 g / cm^3
# Si number density = 19.144235 Si / 1000 Ang^3
#
#
#
# Elastic Constant Matrix: (Units=GPa)
#
#
# Indices 1 2 3 4 5 6 
#
# 1 57.8954 10.3929 39.4550 0.0000 0.0000 0.0000
# 2 10.3929 36.7720 23.7850 0.0000 0.0000 0.0000
# 3 39.4550 23.7850 145.4854 0.0000 0.0000 0.0000
# 4 0.0000 0.0000 0.0000 16.9753 0.0000 0.0000
# 5 0.0000 0.0000 0.0000 0.0000 -62.1966 0.0000
# 6 0.0000 0.0000 0.0000 0.0000 0.0000 23.9213
#
#
#
# Elastic Compliance Matrix: (Units=1/GPa)
#
#
# Indices 1 2 3 4 5 6 
#
# 1 0.021403 -0.002566 -0.005385 0.000000 0.000000 0.000000
# 2 -0.002566 0.030718 -0.004326 0.000000 0.000000 0.000000
# 3 -0.005385 -0.004326 0.009041 0.000000 0.000000 0.000000
# 4 0.000000 0.000000 0.000000 0.058909 0.000000 0.000000
# 5 0.000000 0.000000 0.000000 0.000000 -0.016078 0.000000
# 6 0.000000 0.000000 0.000000 0.000000 0.000000 0.041804
#
#
# Mechanical properties :
#
#
# Convention : Reuss Voigt Hill
#
# Bulk Modulus (GPa) = 27.31639 43.04651 35.18145
# Shear Modulus (GPa) = 27.38923 6.84133 17.11528
#
# Velocity S-wave (km/s) = 3.78653 1.89244 2.99326
# Velocity P-wave (km/s) = 5.78073 5.22583 5.51027
#
# Compressibility (1/GPa) = 0.03660806
#
# Stress axis : x y z
#
# Youngs Moduli (GPa) = 46.72271 32.55416 110.60534
#
# Poissons Ratio (x) = 0.08354 0.59559
# Poissons Ratio (y) = 0.11989 0.47849
# Poissons Ratio (z) = 0.25159 0.14083
#
# Static dielectric constant tensor:
#      x y z
#    x 1.648860 0.000000 0.000000 
#    y 0.000000 1.702420 0.000000 
#    z 0.000000 0.000000 1.731700 
# 
# From -- ./inp_files/25182.got.cif
#   From: 2010.05.17/outbox.cif.g08.bks.cpg/sg47_13_cif.got.tgz:25182.got - 2010.06.03 20:15:42.
