data_PCOD9387193
_publ_section_title
;
Structure prediction by ZEFSAII (Michael W. Deem and Ramdas Pophale) SiO2 
 PCOD9387193
Probable space group: P M M M
;
_chemical_formula_sum "Si O2"
_cell_formula_units_Z 56
_cell_length_a 21.780578
_cell_length_b 9.050534
_cell_length_c 14.133532
_cell_angle_alpha 90.000000
_cell_angle_beta 90.000000
_cell_angle_gamma 90.000000
_cell_volume 2786.084675
_symmetry_space_group_name_H-M "P M M M"
_symmetry_group_IT_number 47
_symmetry_cell_setting 'orthorhombic'
loop_
_space_group_symop_operation_xyz
x,y,z
-x,-y,z
x,-y,-z
-x,y,-z
-x,-y,-z
x,y,-z
-x,y,z
x,-y,z
loop_
_atom_site_type_symbol
_atom_site_label
_atom_site_fract_x
_atom_site_fract_y
_atom_site_fract_z
Si Si1 0.567350 0.821942 0.800577
Si Si2 0.747472 0.668423 0.385265
Si Si3 0.932592 0.321821 0.196002
Si Si4 0.686875 0.670822 0.114020
Si Si5 0.621513 0.822903 0.607046
Si Si6 0.188097 0.829745 0.885585
Si Si7 0.883197 0.679685 0.393097
O O1 0.500000 0.775082 0.835564
O O2 0.625540 0.751361 0.851526
O O3 0.574127 0.784060 0.689190
O O4 0.571127 0.000000 0.809293
O O5 0.748372 0.662181 0.500000
O O6 0.741877 0.500000 0.350679
O O7 0.687702 0.761305 0.361289
O O8 0.814802 0.729608 0.362174
O O9 0.927313 0.500000 0.187679
O O10 0.874429 0.248295 0.146641
O O11 0.928008 0.283818 0.307746
O O12 0.000000 0.278290 0.159396
O O13 0.685630 0.500000 0.142722
O O14 0.750167 0.746456 0.147844
O O15 0.687687 0.676865 0.000000
O O16 0.607932 0.769879 0.500000
O O17 0.624907 0.000000 0.603291
O O18 0.189458 0.000000 0.854394
O O19 0.189290 0.827521 0.000000
O O20 0.897557 0.730531 0.500000
O O21 0.880029 0.500000 0.397707
#
# Coordination Sequence:
#
# PCOD9387193 Si02
#       7
#     8   8   8   8   8   8   8
#     4  10  22  38  56  83 119 157 194 231 277 333
#     4   8  14  26  45  69  97 133 180 232 282 326
#     4  10  21  35  54  85 121 155 193 237 284 332
#     4  10  22  41  65  90 114 142 181 233 290 345
#     4   9  18  32  50  75 109 148 191 235 275 320
#     4  10  22  41  64  87 112 145 186 233 287 348
#     4   8  15  29  49  75 109 149 191 232 276 329
#
# _framework density 20.099889999999998
#
# number of rings (size 3 to 8) (size 9 to 14) (size 15 to 20)
#    0.000    2.714    0.000    1.714    2.000    4.000 
#    0.000    5.714    0.000    0.429    0.000    4.000 
#    0.000    0.000    0.000    0.000    0.000    0.000 
#
# Total GULP energy -312383.312389 kJ/mol
# GULP energy per Si atom -5578.273436 kJ/mol
# Density = 2.005414 g / cm^3
# Si number density = 20.099890 Si / 1000 Ang^3
#
#
#
# Elastic Constant Matrix: (Units=GPa)
#
#
# Indices 1 2 3 4 5 6 
#
# 1 177.5673 62.4099 32.1050 0.0000 0.0000 0.0000
# 2 62.4099 50.3297 21.1200 0.0000 0.0000 0.0000
# 3 32.1050 21.1200 35.8832 0.0000 0.0000 0.0000
# 4 0.0000 0.0000 0.0000 17.1048 0.0000 0.0000
# 5 0.0000 0.0000 0.0000 0.0000 18.8723 0.0000
# 6 0.0000 0.0000 0.0000 0.0000 0.0000 27.5037
#
#
#
# Elastic Compliance Matrix: (Units=1/GPa)
#
#
# Indices 1 2 3 4 5 6 
#
# 1 0.010113 -0.011611 -0.002214 0.000000 0.000000 0.000000
# 2 -0.011611 0.039717 -0.012988 0.000000 0.000000 0.000000
# 3 -0.002214 -0.012988 0.037494 0.000000 0.000000 0.000000
# 4 0.000000 0.000000 0.000000 0.058463 0.000000 0.000000
# 5 0.000000 0.000000 0.000000 0.000000 0.052988 0.000000
# 6 0.000000 0.000000 0.000000 0.000000 0.000000 0.036359
#
#
# Mechanical properties :
#
#
# Convention : Reuss Voigt Hill
#
# Bulk Modulus (GPa) = 29.67597 55.00555 42.34076
# Shear Modulus (GPa) = 16.66708 22.57252 19.61980
#
# Velocity S-wave (km/s) = 2.88273 3.35478 3.12767
# Velocity P-wave (km/s) = 5.08689 6.51395 5.84414
#
# Compressibility (1/GPa) = 0.03369730
#
# Stress axis : x y z
#
# Youngs Moduli (GPa) = 98.88246 25.17792 26.67123
#
# Poissons Ratio (x) = 0.29235 0.05905
# Poissons Ratio (y) = 1.14815 0.34641
# Poissons Ratio (z) = 0.21894 0.32701
#
# Static dielectric constant tensor:
#      x y z
#    x 1.704620 0.000000 0.000000 
#    y 0.000000 1.688150 0.000000 
#    z 0.000000 0.000000 1.760060 
# 
# From -- ./inp_files/7301.got.cif
#   From: 2010.05.17/outbox.cif.g08.bks.cpg/sg47_4_cif.got.tgz:7301.got - 2010.06.03 20:15:42.
