data_PCOD9387333
_publ_section_title
;
Structure prediction by ZEFSAII (Michael W. Deem and Ramdas Pophale) SiO2 
 PCOD9387333
Probable space group: P M M M
;
_chemical_formula_sum "Si O2"
_cell_formula_units_Z 48
_cell_length_a 31.804151
_cell_length_b 7.793207
_cell_length_c 9.420417
_cell_angle_alpha 90.000000
_cell_angle_beta 90.000000
_cell_angle_gamma 90.000000
_cell_volume 2334.910005
_symmetry_space_group_name_H-M "P M M M"
_symmetry_group_IT_number 47
_symmetry_cell_setting 'orthorhombic'
loop_
_space_group_symop_operation_xyz
x,y,z
-x,-y,z
x,-y,-z
-x,y,-z
-x,-y,-z
x,y,-z
-x,y,z
x,-y,z
loop_
_atom_site_type_symbol
_atom_site_label
_atom_site_fract_x
_atom_site_fract_y
_atom_site_fract_z
Si Si1 0.661888 0.295437 0.660222
Si Si2 0.000000 0.709840 0.836602
Si Si3 0.082367 0.289832 0.336907
Si Si4 0.417195 0.293937 0.161192
Si Si5 0.742895 0.795775 0.838136
Si Si6 0.836977 0.706473 0.162291
Si Si7 0.500000 0.204924 0.661815
O O1 0.661264 0.225435 0.500000
O O2 0.655466 0.500000 0.650197
O O3 0.623916 0.226152 0.756925
O O4 0.706265 0.268255 0.736675
O O5 0.041850 0.764062 0.753552
O O6 0.000000 0.500000 0.837488
O O7 0.000000 0.765828 0.000000
O O8 0.079639 0.234691 0.500000
O O9 0.082458 0.500000 0.336949
O O10 0.125378 0.232183 0.261838
O O11 0.413046 0.500000 0.151365
O O12 0.458647 0.258744 0.252399
O O13 0.420451 0.227348 0.000000
O O14 0.789991 0.751142 0.789176
O O15 0.739583 0.000000 0.844313
O O16 0.737984 0.727445 0.000000
O O17 0.839806 0.500000 0.157672
O O18 0.841816 0.770270 0.000000
O O19 0.500000 0.272830 0.500000
O O20 0.500000 0.000000 0.654475
#
# Coordination Sequence:
#
# PCOD9387333 Si02
#       7
#     8   4   8   8   8   8   4
#     4  10  21  37  58  83 109 139 176 218 265 315
#     4   9  15  23  37  59  90 125 158 195 244 300
#     4   9  16  25  39  62  92 124 159 201 248 297
#     4  10  21  38  61  86 110 140 180 222 264 312
#     4  10  21  36  54  77 105 138 175 215 261 312
#     4   9  17  30  48  69  95 129 168 208 250 299
#     4  11  24  39  56  82 116 151 184 219 262 310
#
# _framework density 20.557538000000001
#
# number of rings (size 3 to 8) (size 9 to 14) (size 15 to 20)
#    0.000    2.333    0.000    2.750    0.000    9.000 
#    0.000    1.667    0.000    0.000    0.000    0.583 
#    0.000    4.667    0.000    0.000    0.000    0.000 
#
# Total GULP energy -268098.399193 kJ/mol
# GULP energy per Si atom -5585.383317 kJ/mol
# Density = 2.051075 g / cm^3
# Si number density = 20.557538 Si / 1000 Ang^3
#
#
#
# Elastic Constant Matrix: (Units=GPa)
#
#
# Indices 1 2 3 4 5 6 
#
# 1 206.1348 -2.6343 145.4371 0.0000 0.0000 0.0000
# 2 -2.6343 26.1963 8.0833 0.0000 0.0000 0.0000
# 3 145.4371 8.0833 202.4232 0.0000 0.0000 0.0000
# 4 0.0000 0.0000 0.0000 9.9226 0.0000 0.0000
# 5 0.0000 0.0000 0.0000 0.0000 57.0802 0.0000
# 6 0.0000 0.0000 0.0000 0.0000 0.0000 -126.4896
#
#
#
# Elastic Compliance Matrix: (Units=1/GPa)
#
#
# Indices 1 2 3 4 5 6 
#
# 1 0.010113 0.003300 -0.007397 0.000000 0.000000 0.000000
# 2 0.003300 0.039726 -0.003957 0.000000 0.000000 0.000000
# 3 -0.007397 -0.003957 0.010413 0.000000 0.000000 0.000000
# 4 0.000000 0.000000 0.000000 0.100780 0.000000 0.000000
# 5 0.000000 0.000000 0.000000 0.000000 0.017519 0.000000
# 6 0.000000 0.000000 0.000000 0.000000 0.000000 -0.007906
#
#
# Mechanical properties :
#
#
# Convention : Reuss Voigt Hill
#
# Bulk Modulus (GPa) = 22.65420 81.83628 52.24524
# Shear Modulus (GPa) = 24.81767 7.02717 15.92242
#
# Velocity S-wave (km/s) = 3.47829 1.85087 2.78606
# Velocity P-wave (km/s) = 5.21298 6.66802 5.98488
#
# Compressibility (1/GPa) = 0.04414193
#
# Stress axis : x y z
#
# Youngs Moduli (GPa) = 98.88669 25.17233 96.03300
#
# Poissons Ratio (x) = -0.08306 0.71040
# Poissons Ratio (y) = -0.32628 0.38001
# Poissons Ratio (z) = 0.73151 0.09961
#
# Static dielectric constant tensor:
#      x y z
#    x 1.689250 0.000000 0.000000 
#    y 0.000000 1.743920 0.000000 
#    z 0.000000 0.000000 1.728740 
# 
# From -- ./inp_files/13862.got.cif
#   From: 2010.05.17/outbox.cif.g08.bks.cpg/sg47_7_cif.got.tgz:13862.got - 2010.06.03 20:15:42.
