data_PCOD9387789
_publ_section_title
;
Structure prediction by ZEFSAII (Michael W. Deem and Ramdas Pophale) SiO2 
 PCOD9387789
Probable space group: P M M M
;
_chemical_formula_sum "Si O2"
_cell_formula_units_Z 38
_cell_length_a 23.898314
_cell_length_b 9.785928
_cell_length_c 7.994364
_cell_angle_alpha 90.000000
_cell_angle_beta 90.000000
_cell_angle_gamma 90.000000
_cell_volume 1869.619366
_symmetry_space_group_name_H-M "P M M M"
_symmetry_group_IT_number 47
_symmetry_cell_setting 'orthorhombic'
loop_
_space_group_symop_operation_xyz
x,y,z
-x,-y,z
x,-y,-z
-x,y,-z
-x,-y,-z
x,y,-z
-x,y,z
x,-y,z
loop_
_atom_site_type_symbol
_atom_site_label
_atom_site_fract_x
_atom_site_fract_y
_atom_site_fract_z
Si Si1 0.000000 0.500000 0.500000
Si Si2 0.000000 0.000000 0.000000
Si Si3 0.882550 0.500000 0.686411
Si Si4 0.165321 0.221590 0.191130
Si Si5 0.500000 0.840692 0.204782
Si Si6 0.290599 0.157083 0.700368
Si Si7 0.394809 0.657602 0.798929
Si Si8 0.914219 0.000000 0.683310
O O1 0.050866 0.500000 0.644372
O O2 0.047483 0.000000 0.151947
O O3 0.855948 0.500000 0.500000
O O4 0.860221 0.370269 0.784269
O O5 0.229858 0.206192 0.239401
O O6 0.126664 0.128217 0.305276
O O7 0.159477 0.176972 0.000000
O O8 0.554173 0.754002 0.260004
O O9 0.500000 0.000000 0.258984
O O10 0.500000 0.843468 0.000000
O O11 0.290464 0.154347 0.500000
O O12 0.337912 0.262554 0.757874
O O13 0.300610 0.000000 0.759584
O O14 0.396444 0.500000 0.736693
O O15 0.399681 0.649953 0.000000
O O16 0.941554 0.000000 0.500000
#
# Coordination Sequence:
#
# PCOD9387789 Si02
#       8
#     1   1   4   8   4   8   8   4
#     4   8  24  48  70  94 132 176 226 252 336 434
#     4  12  26  48  68 112 136 184 238 280 340 426
#     4  10  23  45  69  95 129 175 221 266 341 408
#     4  12  24  44  69 100 134 175 229 284 345 417
#     4   9  17  33  60  91 130 175 226 276 338 403
#     4  11  24  41  64  91 126 173 223 278 345 412
#     4  10  21  37  60  94 131 173 220 278 339 406
#     4  12  25  47  71 102 143 180 225 288 349 411
#
# _framework density 20.324992999999999
#
# number of rings (size 3 to 8) (size 9 to 14) (size 15 to 20)
#    0.316    0.947    2.105    3.947    1.474    4.632 
#    0.000    1.053    0.000    3.158    0.000    0.000 
#    0.000    0.000    0.000    0.000    0.000    0.000 
#
# Total GULP energy -211618.904982 kJ/mol
# GULP energy per Si atom -5568.918552 kJ/mol
# Density = 2.027873 g / cm^3
# Si number density = 20.324993 Si / 1000 Ang^3
#
#
#
# Elastic Constant Matrix: (Units=GPa)
#
#
# Indices 1 2 3 4 5 6 
#
# 1 183.0368 97.4121 34.7716 0.0000 0.0000 0.0000
# 2 97.4121 192.0144 18.8861 0.0000 0.0000 0.0000
# 3 34.7716 18.8861 86.9924 0.0000 0.0000 0.0000
# 4 0.0000 0.0000 0.0000 25.7957 0.0000 0.0000
# 5 0.0000 0.0000 0.0000 0.0000 -25.2516 0.0000
# 6 0.0000 0.0000 0.0000 0.0000 0.0000 33.0384
#
#
#
# Elastic Compliance Matrix: (Units=1/GPa)
#
#
# Indices 1 2 3 4 5 6 
#
# 1 0.007926 -0.003790 -0.002345 0.000000 0.000000 0.000000
# 2 -0.003790 0.007134 -0.000034 0.000000 0.000000 0.000000
# 3 -0.002345 -0.000034 0.012440 0.000000 0.000000 0.000000
# 4 0.000000 0.000000 0.000000 0.038766 0.000000 0.000000
# 5 0.000000 0.000000 0.000000 0.000000 -0.039601 0.000000
# 6 0.000000 0.000000 0.000000 0.000000 0.000000 0.030268
#
#
# Mechanical properties :
#
#
# Convention : Reuss Voigt Hill
#
# Bulk Modulus (GPa) = 65.95654 84.90923 75.43289
# Shear Modulus (GPa) = 67.27159 27.44809 47.35984
#
# Velocity S-wave (km/s) = 5.75932 3.67885 4.83238
# Velocity P-wave (km/s) = 8.76058 7.74026 8.26618
#
# Compressibility (1/GPa) = 0.01516150
#
# Stress axis : x y z
#
# Youngs Moduli (GPa) = 126.16450 140.16989 80.38575
#
# Poissons Ratio (x) = 0.53130 0.18852
# Poissons Ratio (y) = 0.47821 0.00272
# Poissons Ratio (z) = 0.29589 0.00474
#
# Static dielectric constant tensor:
#      x y z
#    x 1.686080 0.000000 0.000000 
#    y 0.000000 1.717950 0.000000 
#    z 0.000000 0.000000 1.733430 
# 
# From -- ./inp_files/12222.got.cif
#   From: 2010.05.17/outbox.cif.g08.bks.cpg/sg47_7_cif.got.tgz:12222.got - 2010.06.03 20:15:42.
