data_PCOD9387488
_publ_section_title
;
Structure prediction by ZEFSAII (Michael W. Deem and Ramdas Pophale) SiO2 
 PCOD9387488
Probable space group: P M M M
;
_chemical_formula_sum "Si O2"
_cell_formula_units_Z 64
_cell_length_a 9.266118
_cell_length_b 25.315361
_cell_length_c 14.657224
_cell_angle_alpha 90.000000
_cell_angle_beta 90.000000
_cell_angle_gamma 90.000000
_cell_volume 3438.220111
_symmetry_space_group_name_H-M "P M M M"
_symmetry_group_IT_number 47
_symmetry_cell_setting 'orthorhombic'
loop_
_space_group_symop_operation_xyz
x,y,z
-x,-y,z
x,-y,-z
-x,y,-z
-x,-y,-z
x,y,-z
-x,y,z
x,-y,z
loop_
_atom_site_type_symbol
_atom_site_label
_atom_site_fract_x
_atom_site_fract_y
_atom_site_fract_z
Si Si1 0.830354 0.561057 0.215700
Si Si2 0.832944 0.064232 0.601134
Si Si3 0.671457 0.652520 0.891169
Si Si4 0.331042 0.279705 0.396048
Si Si5 0.671417 0.937985 0.217323
Si Si6 0.829230 0.852741 0.894871
Si Si7 0.172101 0.746919 0.216349
Si Si8 0.330888 0.407386 0.395836
O O1 0.814788 0.500000 0.188612
O O2 0.741740 0.599779 0.150222
O O3 0.767328 0.568299 0.317590
O O4 0.000000 0.574899 0.214373
O O5 0.786830 0.082120 0.500000
O O6 0.736331 0.080809 0.685770
O O7 0.000000 0.079679 0.615229
O O8 0.829636 0.000000 0.599564
O O9 0.500000 0.653330 0.872322
O O10 0.747988 0.701053 0.840099
O O11 0.693042 0.655678 0.000000
O O12 0.293591 0.264834 0.500000
O O13 0.500000 0.267025 0.380620
O O14 0.232375 0.254698 0.318804
O O15 0.318746 0.343585 0.389563
O O16 0.500000 0.933052 0.218138
O O17 0.741014 0.902848 0.139183
O O18 0.708007 0.000000 0.206270
O O19 0.796687 0.802484 0.832005
O O20 0.000000 0.863953 0.886754
O O21 0.798127 0.839930 0.000000
O O22 0.000000 0.738112 0.214975
O O23 0.293639 0.422608 0.500000
O O24 0.500000 0.420662 0.380898
#
# Coordination Sequence:
#
# PCOD9387488 Si02
#       8
#     8   8   8   8   8   8   8   8
#     4  11  24  39  56  83 118 153 191 240 293 341
#     4   8  14  27  50  79 110 147 190 231 272 325
#     4  11  24  41  62  86 111 146 192 237 287 349
#     4   9  18  34  58  88 121 155 190 228 275 337
#     4  10  21  36  56  85 119 153 191 238 290 341
#     4  10  23  42  61  83 113 151 194 238 286 342
#     4  11  22  38  63  92 119 146 184 237 289 339
#     4   9  18  34  57  84 115 153 194 234 279 337
#
# _framework density 18.614283
#
# number of rings (size 3 to 8) (size 9 to 14) (size 15 to 20)
#    0.000    2.125    1.250    3.000    0.000    6.000 
#    0.000    6.875    0.000    0.750    0.000    0.000 
#    0.000    0.000    0.000    0.000    0.000    0.000 
#
# Total GULP energy -357394.473442 kJ/mol
# GULP energy per Si atom -5584.288648 kJ/mol
# Density = 1.857192 g / cm^3
# Si number density = 18.614283 Si / 1000 Ang^3
#
#
#
# Elastic Constant Matrix: (Units=GPa)
#
#
# Indices 1 2 3 4 5 6 
#
# 1 81.6144 58.1988 69.8488 0.0000 0.0000 0.0000
# 2 58.1988 64.8075 55.7251 0.0000 0.0000 0.0000
# 3 69.8488 55.7251 109.3925 0.0000 0.0000 0.0000
# 4 0.0000 0.0000 0.0000 -31.6275 0.0000 0.0000
# 5 0.0000 0.0000 0.0000 0.0000 24.1343 0.0000
# 6 0.0000 0.0000 0.0000 0.0000 0.0000 11.1590
#
#
#
# Elastic Compliance Matrix: (Units=1/GPa)
#
#
# Indices 1 2 3 4 5 6 
#
# 1 0.043536 -0.027036 -0.014026 0.000000 0.000000 0.000000
# 2 -0.027036 0.044246 -0.005276 0.000000 0.000000 0.000000
# 3 -0.014026 -0.005276 0.020785 0.000000 0.000000 0.000000
# 4 0.000000 0.000000 0.000000 -0.031618 0.000000 0.000000
# 5 0.000000 0.000000 0.000000 0.000000 0.041435 0.000000
# 6 0.000000 0.000000 0.000000 0.000000 0.000000 0.089614
#
#
# Mechanical properties :
#
#
# Convention : Reuss Voigt Hill
#
# Bulk Modulus (GPa) = 62.93125 69.26221 66.09673
# Shear Modulus (GPa) = 16.34134 5.53595 10.93864
#
# Velocity S-wave (km/s) = 2.96614 1.72641 2.42677
# Velocity P-wave (km/s) = 6.75367 6.42370 6.59075
#
# Compressibility (1/GPa) = 0.01589036
#
# Stress axis : x y z
#
# Youngs Moduli (GPa) = 22.96934 22.60078 48.11130
#
# Poissons Ratio (x) = 0.61104 0.67482
# Poissons Ratio (y) = 0.62100 0.25385
# Poissons Ratio (z) = 0.32217 0.11925
#
# Static dielectric constant tensor:
#      x y z
#    x 1.616330 0.000000 0.000000 
#    y 0.000000 1.635370 0.000000 
#    z 0.000000 0.000000 1.640300 
# 
# From -- ./inp_files/12765.got.cif
#   From: 2010.05.17/outbox.cif.g08.bks.cpg/sg47_7_cif.got.tgz:12765.got - 2010.06.03 20:15:42.
