data_PCOD9387591
_publ_section_title
;
Structure prediction by ZEFSAII (Michael W. Deem and Ramdas Pophale) SiO2 
 PCOD9387591
Probable space group: P M M M
;
_chemical_formula_sum "Si O2"
_cell_formula_units_Z 64
_cell_length_a 14.103988
_cell_length_b 26.600339
_cell_length_c 9.103022
_cell_angle_alpha 90.000000
_cell_angle_beta 90.000000
_cell_angle_gamma 90.000000
_cell_volume 3415.188611
_symmetry_space_group_name_H-M "P M M M"
_symmetry_group_IT_number 47
_symmetry_cell_setting 'orthorhombic'
loop_
_space_group_symop_operation_xyz
x,y,z
-x,-y,z
x,-y,-z
-x,y,-z
-x,-y,-z
x,y,-z
-x,y,z
x,-y,z
loop_
_atom_site_type_symbol
_atom_site_label
_atom_site_fract_x
_atom_site_fract_y
_atom_site_fract_z
Si Si1 0.885283 0.256214 0.672092
Si Si2 0.885604 0.847151 0.169746
Si Si3 0.387962 0.690193 0.326369
Si Si4 0.215064 0.350828 0.174438
Si Si5 0.886643 0.441829 0.672429
Si Si6 0.608932 0.894997 0.673551
Si Si7 0.800449 0.944405 0.675047
Si Si8 0.614984 0.792616 0.166515
O O1 0.859773 0.256868 0.500000
O O2 0.855160 0.203496 0.745690
O O3 0.841029 0.303919 0.753729
O O4 0.000000 0.259309 0.682351
O O5 0.849425 0.897977 0.244850
O O6 0.000000 0.847714 0.174048
O O7 0.855713 0.845004 0.000000
O O8 0.371749 0.686264 0.500000
O O9 0.500000 0.683175 0.298444
O O10 0.321344 0.652725 0.237584
O O11 0.360460 0.745851 0.269355
O O12 0.166418 0.401920 0.228030
O O13 0.214113 0.346302 0.000000
O O14 0.865695 0.432056 0.500000
O O15 0.862588 0.500000 0.703818
O O16 0.000000 0.436404 0.690452
O O17 0.610202 0.881857 0.500000
O O18 0.500000 0.908232 0.710968
O O19 0.687294 0.937455 0.696479
O O20 0.640323 0.846228 0.765271
O O21 0.818457 0.940522 0.500000
O O22 0.830551 0.000000 0.724472
O O23 0.500000 0.793090 0.161502
O O24 0.649615 0.785567 0.000000
#
# Coordination Sequence:
#
# PCOD9387591 Si02
#       8
#     8   8   8   8   8   8   8   8
#     4  10  21  38  60  85 115 150 187 229 278 337
#     4  10  22  40  60  81 107 139 176 224 284 344
#     4  10  21  37  56  78 109 152 200 244 285 334
#     4  12  24  35  55  88 124 160 194 236 290 343
#     4   9  19  38  63  89 120 160 204 247 288 334
#     4   9  18  33  53  76 104 139 177 218 267 327
#     4  10  22  38  56  79 105 137 180 228 276 332
#     4   9  17  30  49  74 104 137 175 221 275 333
#
# _framework density 18.739813000000002
#
# number of rings (size 3 to 8) (size 9 to 14) (size 15 to 20)
#    0.000    2.125    0.000    3.375    1.750    7.000 
#    0.000    3.125    0.000    0.375    0.000    5.250 
#    0.000    0.000    0.000    0.000    0.000    0.000 
#
# Total GULP energy -357550.399573 kJ/mol
# GULP energy per Si atom -5586.724993 kJ/mol
# Density = 1.869716 g / cm^3
# Si number density = 18.739813 Si / 1000 Ang^3
#
#
#
# Elastic Constant Matrix: (Units=GPa)
#
#
# Indices 1 2 3 4 5 6 
#
# 1 56.5469 45.8258 50.0038 0.0000 0.0000 0.0000
# 2 45.8258 114.7115 84.0263 0.0000 0.0000 0.0000
# 3 50.0038 84.0263 131.5921 0.0000 0.0000 0.0000
# 4 0.0000 0.0000 0.0000 -16.4805 0.0000 0.0000
# 5 0.0000 0.0000 0.0000 0.0000 22.1443 0.0000
# 6 0.0000 0.0000 0.0000 0.0000 0.0000 25.7935
#
#
#
# Elastic Compliance Matrix: (Units=1/GPa)
#
#
# Indices 1 2 3 4 5 6 
#
# 1 0.029084 -0.006619 -0.006825 0.000000 0.000000 0.000000
# 2 -0.006619 0.017885 -0.008905 0.000000 0.000000 0.000000
# 3 -0.006825 -0.008905 0.015879 0.000000 0.000000 0.000000
# 4 0.000000 0.000000 0.000000 -0.060678 0.000000 0.000000
# 5 0.000000 0.000000 0.000000 0.000000 0.045158 0.000000
# 6 0.000000 0.000000 0.000000 0.000000 0.000000 0.038769
#
#
# Mechanical properties :
#
#
# Convention : Reuss Voigt Hill
#
# Bulk Modulus (GPa) = 55.09876 73.61803 64.35839
# Shear Modulus (GPa) = 36.53769 14.49109 25.51439
#
# Velocity S-wave (km/s) = 4.42037 2.78380 3.69386
# Velocity P-wave (km/s) = 7.45109 7.04999 7.25331
#
# Compressibility (1/GPa) = 0.01814923
#
# Stress axis : x y z
#
# Youngs Moduli (GPa) = 34.38304 55.91431 62.97811
#
# Poissons Ratio (x) = 0.37012 0.42982
# Poissons Ratio (y) = 0.22760 0.56079
# Poissons Ratio (z) = 0.23466 0.49789
#
# Static dielectric constant tensor:
#      x y z
#    x 1.692410 0.000000 0.000000 
#    y 0.000000 1.612540 0.000000 
#    z 0.000000 0.000000 1.627400 
# 
# From -- ./inp_files/7901.got.cif
#   From: 2010.05.17/outbox.cif.g08.bks.cpg/sg47_4_cif.got.tgz:7901.got - 2010.06.03 20:15:42.
