data_PCOD9387486
_publ_section_title
;
Structure prediction by ZEFSAII (Michael W. Deem and Ramdas Pophale) SiO2 
 PCOD9387486
Probable space group: P M M M
;
_chemical_formula_sum "Si O2"
_cell_formula_units_Z 56
_cell_length_a 8.757179
_cell_length_b 20.417278
_cell_length_c 15.945094
_cell_angle_alpha 90.000000
_cell_angle_beta 90.000000
_cell_angle_gamma 90.000000
_cell_volume 2850.947061
_symmetry_space_group_name_H-M "P M M M"
_symmetry_group_IT_number 47
_symmetry_cell_setting 'orthorhombic'
loop_
_space_group_symop_operation_xyz
x,y,z
-x,-y,z
x,-y,-z
-x,y,-z
-x,-y,-z
x,y,-z
-x,y,z
x,-y,z
loop_
_atom_site_type_symbol
_atom_site_label
_atom_site_fract_x
_atom_site_fract_y
_atom_site_fract_z
Si Si1 0.683609 0.571914 0.725717
Si Si2 0.332915 0.737095 0.098981
Si Si3 0.317021 0.924379 0.500000
Si Si4 0.180098 0.169758 0.638401
Si Si5 0.182374 0.000000 0.099702
Si Si6 0.320477 0.873875 0.809939
Si Si7 0.684812 0.312974 0.597931
Si Si8 0.178155 0.605416 0.096897
O O1 0.500000 0.575254 0.727429
O O2 0.728010 0.500000 0.691891
O O3 0.735537 0.631106 0.664536
O O4 0.740811 0.575232 0.822009
O O5 0.500000 0.712312 0.130194
O O6 0.308262 0.807981 0.135933
O O7 0.205750 0.682717 0.113398
O O8 0.342129 0.744268 0.000000
O O9 0.500000 0.923687 0.500000
O O10 0.255143 0.883263 0.422401
O O11 0.266142 0.000000 0.500000
O O12 0.220752 0.142705 0.729425
O O13 0.250800 0.241824 0.623339
O O14 0.000000 0.173609 0.624113
O O15 0.257531 0.936179 0.140975
O O16 0.000000 0.000000 0.113964
O O17 0.209350 0.000000 0.000000
O O18 0.500000 0.883362 0.788479
O O19 0.725868 0.326651 0.500000
O O20 0.500000 0.309708 0.601573
O O21 0.000000 0.588816 0.098114
O O22 0.233802 0.591831 0.000000
#
# Coordination Sequence:
#
# PCOD9387486 Si02
#       8
#     8   8   4   8   4   8   8   8
#     4  10  22  39  60  89 122 159 207 260 312 367
#     4   9  18  34  57  84 112 147 195 248 297 348
#     4  11  25  45  69  93 122 159 202 249 304 367
#     4  12  25  41  64  95 129 162 202 252 308 368
#     4  11  25  43  61  86 123 164 207 259 315 367
#     4  11  23  39  61  86 117 158 205 251 300 363
#     4  10  21  40  66  92 124 165 209 257 311 378
#     4  10  21  36  56  84 118 157 199 246 307 375
#
# _framework density 19.642596000000001
#
# number of rings (size 3 to 8) (size 9 to 14) (size 15 to 20)
#    0.000    1.571    0.714    3.857    1.000    8.571 
#    0.000    4.286    0.000    0.000    0.000    2.000 
#    0.000    0.000    0.000    0.000    0.000    0.000 
#
# Total GULP energy -312597.025351 kJ/mol
# GULP energy per Si atom -5582.089738 kJ/mol
# Density = 1.959789 g / cm^3
# Si number density = 19.642596 Si / 1000 Ang^3
#
#
#
# Elastic Constant Matrix: (Units=GPa)
#
#
# Indices 1 2 3 4 5 6 
#
# 1 45.4653 34.7604 30.8946 0.0000 0.0000 0.0000
# 2 34.7604 137.2544 75.5523 0.0000 0.0000 0.0000
# 3 30.8946 75.5523 85.6891 0.0000 0.0000 0.0000
# 4 0.0000 0.0000 0.0000 33.2841 0.0000 0.0000
# 5 0.0000 0.0000 0.0000 0.0000 -338.3034 0.0000
# 6 0.0000 0.0000 0.0000 0.0000 0.0000 -31.0205
#
#
#
# Elastic Compliance Matrix: (Units=1/GPa)
#
#
# Indices 1 2 3 4 5 6 
#
# 1 0.029828 -0.003176 -0.007954 0.000000 0.000000 0.000000
# 2 -0.003176 0.014494 -0.011635 0.000000 0.000000 0.000000
# 3 -0.007954 -0.011635 0.024796 0.000000 0.000000 0.000000
# 4 0.000000 0.000000 0.000000 0.030044 0.000000 0.000000
# 5 0.000000 0.000000 0.000000 0.000000 -0.002956 0.000000
# 6 0.000000 0.000000 0.000000 0.000000 0.000000 -0.032237
#
#
# Mechanical properties :
#
#
# Convention : Reuss Voigt Hill
#
# Bulk Modulus (GPa) = 42.39222 61.20259 51.79741
# Shear Modulus (GPa) = 42.60293 -58.72787 -8.06247
#
# Velocity S-wave (km/s) = 4.66220 -5.47386 -2.02818
# Velocity P-wave (km/s) = 7.11408 2.95383 4.57630
#
# Compressibility (1/GPa) = 0.02358923
#
# Stress axis : x y z
#
# Youngs Moduli (GPa) = 33.52582 68.99202 40.32837
#
# Poissons Ratio (x) = 0.21909 0.32078
# Poissons Ratio (y) = 0.10646 0.46921
# Poissons Ratio (z) = 0.26667 0.80271
#
# Static dielectric constant tensor:
#      x y z
#    x 1.687410 0.000000 0.000000 
#    y 0.000000 1.563540 0.000000 
#    z 0.000000 0.000000 1.565680 
# 
# From -- ./inp_files/21672.got.cif
#   From: 2010.05.17/outbox.cif.g08.bks.cpg/sg47_11_cif.got.tgz:21672.got - 2010.06.03 20:15:42.
