data_PCOD9387929
_publ_section_title
;
Structure prediction by ZEFSAII (Michael W. Deem and Ramdas Pophale) SiO2 
 PCOD9387929
Probable space group: P M M M
;
_chemical_formula_sum "Si O2"
_cell_formula_units_Z 49
_cell_length_a 31.439962
_cell_length_b 8.262182
_cell_length_c 9.535777
_cell_angle_alpha 90.000000
_cell_angle_beta 90.000000
_cell_angle_gamma 90.000000
_cell_volume 2477.039067
_symmetry_space_group_name_H-M "P M M M"
_symmetry_group_IT_number 47
_symmetry_cell_setting 'orthorhombic'
loop_
_space_group_symop_operation_xyz
x,y,z
-x,-y,z
x,-y,-z
-x,y,-z
-x,-y,-z
x,y,-z
-x,y,z
x,-y,z
loop_
_atom_site_type_symbol
_atom_site_label
_atom_site_fract_x
_atom_site_fract_y
_atom_site_fract_z
Si Si1 0.500000 0.306662 0.161370
Si Si2 0.163874 0.306906 0.335632
Si Si3 0.257557 0.193791 0.337319
Si Si4 0.662159 0.306699 0.161523
Si Si5 0.000000 0.000000 0.500000
Si Si6 0.581227 0.193295 0.338549
Si Si7 0.084403 0.190136 0.840220
Si Si8 0.000000 0.314030 0.287643
O O1 0.500000 0.500000 0.153920
O O2 0.541384 0.253585 0.247922
O O3 0.500000 0.244461 0.000000
O O4 0.159873 0.266216 0.500000
O O5 0.161963 0.500000 0.320066
O O6 0.210430 0.246549 0.290984
O O7 0.124649 0.228946 0.255760
O O8 0.263650 0.249343 0.500000
O O9 0.293724 0.261227 0.236159
O O10 0.260017 0.000000 0.337291
O O11 0.658220 0.500000 0.157961
O O12 0.624030 0.240237 0.256922
O O13 0.660047 0.247233 0.000000
O O14 0.000000 0.850008 0.617424
O O15 0.580748 0.254840 0.500000
O O16 0.578819 0.000000 0.345240
O O17 0.043404 0.293759 0.798925
O O18 0.073796 0.000000 0.827007
O O19 0.096320 0.223098 0.000000
O O20 0.000000 0.500000 0.345770
#
# Coordination Sequence:
#
# PCOD9387929 Si02
#       8
#     4   8   8   8   1   8   8   4
#     4  11  24  41  62  90 124 159 200 247 296 352
#     4  10  22  39  62  92 124 161 209 261 315 375
#     4  10  21  39  62  89 119 157 201 251 309 370
#     4  11  24  40  60  88 121 157 200 249 301 361
#     4  12  26  48  66 102 136 168 208 280 316 386
#     4  11  24  41  62  90 121 157 201 248 297 357
#     4  11  24  43  65  92 130 173 214 262 320 381
#     4  12  26  44  70  99 130 173 217 264 325 383
#
# _framework density 19.781682
#
# number of rings (size 3 to 8) (size 9 to 14) (size 15 to 20)
#    0.000    1.224    0.816    4.286    1.143   13.061 
#    0.000    0.000    0.000    0.000    0.000    0.000 
#    0.000    0.000    0.000    0.000    0.000    0.000 
#
# Total GULP energy -273554.117345 kJ/mol
# GULP energy per Si atom -5582.737089 kJ/mol
# Density = 1.973666 g / cm^3
# Si number density = 19.781682 Si / 1000 Ang^3
#
#
#
# Elastic Constant Matrix: (Units=GPa)
#
#
# Indices 1 2 3 4 5 6 
#
# 1 134.3012 33.8477 77.9115 0.0000 0.0000 0.0000
# 2 33.8477 73.8388 42.5364 0.0000 0.0000 0.0000
# 3 77.9115 42.5364 131.8076 0.0000 0.0000 0.0000
# 4 0.0000 0.0000 0.0000 25.1638 0.0000 0.0000
# 5 0.0000 0.0000 0.0000 0.0000 -486.9877 0.0000
# 6 0.0000 0.0000 0.0000 0.0000 0.0000 42.5283
#
#
#
# Elastic Compliance Matrix: (Units=1/GPa)
#
#
# Indices 1 2 3 4 5 6 
#
# 1 0.011496 -0.001665 -0.006258 0.000000 0.000000 0.000000
# 2 -0.001665 0.016877 -0.004462 0.000000 0.000000 0.000000
# 3 -0.006258 -0.004462 0.012726 0.000000 0.000000 0.000000
# 4 0.000000 0.000000 0.000000 0.039740 0.000000 0.000000
# 5 0.000000 0.000000 0.000000 0.000000 -0.002053 0.000000
# 6 0.000000 0.000000 0.000000 0.000000 0.000000 0.023514
#
#
# Mechanical properties :
#
#
# Convention : Reuss Voigt Hill
#
# Bulk Modulus (GPa) = 61.24261 72.05988 66.65124
# Shear Modulus (GPa) = 37.73248 -71.48233 -16.87492
#
# Velocity S-wave (km/s) = 4.37217 -6.01781 -2.92388
# Velocity P-wave (km/s) = 7.51760 3.43202 4.72946
#
# Compressibility (1/GPa) = 0.01632850
#
# Stress axis : x y z
#
# Youngs Moduli (GPa) = 86.98721 59.25307 78.57909
#
# Poissons Ratio (x) = 0.09864 0.49175
# Poissons Ratio (y) = 0.14481 0.35065
# Poissons Ratio (z) = 0.54437 0.26441
#
# Static dielectric constant tensor:
#      x y z
#    x 1.726910 0.000000 0.000000 
#    y 0.000000 1.690330 0.000000 
#    z 0.000000 0.000000 1.697540 
# 
# From -- ./inp_files/14027.got.cif
#   From: 2010.05.17/outbox.cif.g08.bks.cpg/sg47_8_cif.got.tgz:14027.got - 2010.06.03 20:15:42.
