data_PCOD9387381
_publ_section_title
;
Structure prediction by ZEFSAII (Michael W. Deem and Ramdas Pophale) SiO2 
 PCOD9387381
Probable space group: P M M M
;
_chemical_formula_sum "Si O2"
_cell_formula_units_Z 56
_cell_length_a 23.657842
_cell_length_b 8.024404
_cell_length_c 13.758713
_cell_angle_alpha 90.000000
_cell_angle_beta 90.000000
_cell_angle_gamma 90.000000
_cell_volume 2611.955204
_symmetry_space_group_name_H-M "P M M M"
_symmetry_group_IT_number 47
_symmetry_cell_setting 'orthorhombic'
loop_
_space_group_symop_operation_xyz
x,y,z
-x,-y,z
x,-y,-z
-x,y,-z
-x,-y,-z
x,y,-z
-x,y,z
x,-y,z
loop_
_atom_site_type_symbol
_atom_site_label
_atom_site_fract_x
_atom_site_fract_y
_atom_site_fract_z
Si Si1 0.562124 0.193469 0.810770
Si Si2 0.399261 0.693724 0.611728
Si Si3 0.933182 0.688295 0.775314
Si Si4 0.151061 0.202675 0.613504
Si Si5 0.724426 0.806955 0.617757
Si Si6 0.248630 0.000000 0.881018
Si Si7 0.881871 0.000000 0.884494
Si Si8 0.680058 0.318499 0.116954
O O1 0.500000 0.253556 0.840818
O O2 0.567443 0.208681 0.694107
O O3 0.615114 0.290588 0.853903
O O4 0.567753 0.000000 0.839017
O O5 0.405905 0.752461 0.500000
O O6 0.415627 0.500000 0.615314
O O7 0.332845 0.709608 0.639482
O O8 0.922982 0.500000 0.812102
O O9 0.897399 0.716982 0.677682
O O10 0.000000 0.706588 0.758011
O O11 0.912111 0.834390 0.845802
O O12 0.145163 0.245738 0.500000
O O13 0.213850 0.253572 0.649441
O O14 0.148301 0.000000 0.620337
O O15 0.728419 0.806591 0.500000
O O16 0.716635 0.000000 0.646510
O O17 0.183527 0.000000 0.850389
O O18 0.281907 0.835117 0.848045
O O19 0.249263 0.000000 0.000000
O O20 0.882145 0.000000 0.000000
O O21 0.699647 0.500000 0.151020
O O22 0.683040 0.316353 0.000000
#
# Coordination Sequence:
#
# PCOD9387381 Si02
#       8
#     8   8   8   8   8   4   4   8
#     4  11  24  40  59  84 116 159 211 258 299 359
#     4  10  21  36  54  78 112 155 201 254 312 363
#     4  11  25  43  64  95 132 171 220 266 309 375
#     4   9  18  35  61  92 128 171 213 257 313 375
#     4   8  15  30  53  81 114 153 199 248 299 360
#     4   9  20  41  67  98 129 157 198 250 310 384
#     4  11  25  46  72  95 124 167 211 267 331 376
#     4  10  21  40  67  96 128 162 194 241 308 375
#
# _framework density 21.439876999999999
#
# number of rings (size 3 to 8) (size 9 to 14) (size 15 to 20)
#    0.000    2.143    1.429    1.929    0.000    6.286 
#    0.000    7.857    0.000    0.000    0.000    0.000 
#    0.000    0.000    0.000    0.000    0.000    0.000 
#
# Total GULP energy -313061.296654 kJ/mol
# GULP energy per Si atom -5590.380297 kJ/mol
# Density = 2.139108 g / cm^3
# Si number density = 21.439877 Si / 1000 Ang^3
#
#
#
# Elastic Constant Matrix: (Units=GPa)
#
#
# Indices 1 2 3 4 5 6 
#
# 1 105.1774 47.0061 16.8654 0.0000 0.0000 0.0000
# 2 47.0061 106.7145 23.3657 0.0000 0.0000 0.0000
# 3 16.8654 23.3657 56.2772 0.0000 0.0000 0.0000
# 4 0.0000 0.0000 0.0000 16.4765 0.0000 0.0000
# 5 0.0000 0.0000 0.0000 0.0000 19.6672 0.0000
# 6 0.0000 0.0000 0.0000 0.0000 0.0000 -5.5799
#
#
#
# Elastic Compliance Matrix: (Units=1/GPa)
#
#
# Indices 1 2 3 4 5 6 
#
# 1 0.011958 -0.004931 -0.001536 0.000000 0.000000 0.000000
# 2 -0.004931 0.012341 -0.003646 0.000000 0.000000 0.000000
# 3 -0.001536 -0.003646 0.019743 0.000000 0.000000 0.000000
# 4 0.000000 0.000000 0.000000 0.060692 0.000000 0.000000
# 5 0.000000 0.000000 0.000000 0.000000 0.050846 0.000000
# 6 0.000000 0.000000 0.000000 0.000000 0.000000 -0.179215
#
#
# Mechanical properties :
#
#
# Convention : Reuss Voigt Hill
#
# Bulk Modulus (GPa) = 41.98923 49.18261 45.58592
# Shear Modulus (GPa) = 1103.45650 18.17488 560.81569
#
# Velocity S-wave (km/s) = 22.71106 2.91471 16.19086
# Velocity P-wave (km/s) = 26.59605 5.85807 19.25704
#
# Compressibility (1/GPa) = 0.02381563
#
# Stress axis : x y z
#
# Youngs Moduli (GPa) = 83.62740 81.02994 50.64961
#
# Poissons Ratio (x) = 0.39955 0.07781
# Poissons Ratio (y) = 0.41235 0.18468
# Poissons Ratio (z) = 0.12848 0.29545
#
# Static dielectric constant tensor:
#      x y z
#    x 1.747900 0.000000 0.000000 
#    y 0.000000 1.772950 0.000000 
#    z 0.000000 0.000000 1.812790 
# 
# From -- ./inp_files/25246.got.cif
#   From: 2010.05.17/outbox.cif.g08.bks.cpg/sg47_13_cif.got.tgz:25246.got - 2010.06.03 20:15:42.
