data_PCOD9387859
_publ_section_title
;
Structure prediction by ZEFSAII (Michael W. Deem and Ramdas Pophale) SiO2 
 PCOD9387859
Probable space group: P M M M
;
_chemical_formula_sum "Si O2"
_cell_formula_units_Z 44
_cell_length_a 29.687804
_cell_length_b 8.050217
_cell_length_c 9.289904
_cell_angle_alpha 90.000000
_cell_angle_beta 90.000000
_cell_angle_gamma 90.000000
_cell_volume 2220.224483
_symmetry_space_group_name_H-M "P M M M"
_symmetry_group_IT_number 47
_symmetry_cell_setting 'orthorhombic'
loop_
_space_group_symop_operation_xyz
x,y,z
-x,-y,z
x,-y,-z
-x,y,-z
-x,-y,-z
x,y,-z
-x,y,z
x,-y,z
loop_
_atom_site_type_symbol
_atom_site_label
_atom_site_fract_x
_atom_site_fract_y
_atom_site_fract_z
Si Si1 0.323383 0.199738 0.336405
Si Si2 0.951581 0.802581 0.325554
Si Si3 0.410871 0.200458 0.835707
Si Si4 0.764872 0.301752 0.163482
Si Si5 0.500000 0.698731 0.664421
Si Si6 0.146447 0.201192 0.666717
O O1 0.323539 0.263819 0.500000
O O2 0.366273 0.262348 0.246240
O O3 0.276953 0.238742 0.256857
O O4 0.327326 0.000000 0.343401
O O5 0.950961 0.789848 0.500000
O O6 0.902699 0.737389 0.279165
O O7 0.000000 0.732303 0.276064
O O8 0.952296 0.000000 0.292497
O O9 0.455526 0.244996 0.748346
O O10 0.408237 0.000000 0.841345
O O11 0.412860 0.261978 0.000000
O O12 0.762009 0.500000 0.158915
O O13 0.811871 0.254426 0.237320
O O14 0.762398 0.236669 0.000000
O O15 0.500000 0.500000 0.659967
O O16 0.500000 0.762344 0.500000
O O17 0.152801 0.254606 0.500000
O O18 0.144742 0.000000 0.665265
#
# Coordination Sequence:
#
# PCOD9387859 Si02
#       6
#     8   8   8   8   4   8
#     4  10  21  38  61  86 108 133 170 216 265 316
#     4   7  10  19  39  69 101 127 154 197 253 306
#     4  10  21  38  61  87 113 143 179 218 263 314
#     4  11  24  38  51  71 102 140 178 214 256 308
#     4  11  24  39  56  82 116 153 190 225 262 304
#     4   9  17  30  51  78 103 129 166 211 258 309
#
# _framework density 19.817816000000001
#
# number of rings (size 3 to 8) (size 9 to 14) (size 15 to 20)
#    0.000    2.455    0.000    4.364    0.000    8.727 
#    0.000    0.000    0.000    1.091    0.000    6.364 
#    0.000    0.000    0.000    0.000    0.000    0.000 
#
# Total GULP energy -245480.519979 kJ/mol
# GULP energy per Si atom -5579.102727 kJ/mol
# Density = 1.977271 g / cm^3
# Si number density = 19.817816 Si / 1000 Ang^3
#
#
#
# Elastic Constant Matrix: (Units=GPa)
#
#
# Indices 1 2 3 4 5 6 
#
# 1 223.1091 3.8171 110.5733 0.0000 0.0000 0.0000
# 2 3.8171 12.7659 12.2468 0.0000 0.0000 0.0000
# 3 110.5733 12.2468 160.0363 0.0000 0.0000 0.0000
# 4 0.0000 0.0000 0.0000 35.5064 0.0000 0.0000
# 5 0.0000 0.0000 0.0000 0.0000 -166.8014 0.0000
# 6 0.0000 0.0000 0.0000 0.0000 0.0000 -93.8454
#
#
#
# Elastic Compliance Matrix: (Units=1/GPa)
#
#
# Indices 1 2 3 4 5 6 
#
# 1 0.006902 0.002710 -0.004976 0.000000 0.000000 0.000000
# 2 0.002710 0.085604 -0.008423 0.000000 0.000000 0.000000
# 3 -0.004976 -0.008423 0.010331 0.000000 0.000000 0.000000
# 4 0.000000 0.000000 0.000000 0.028164 0.000000 0.000000
# 5 0.000000 0.000000 0.000000 0.000000 -0.005995 0.000000
# 6 0.000000 0.000000 0.000000 0.000000 0.000000 -0.010656
#
#
# Mechanical properties :
#
#
# Convention : Reuss Voigt Hill
#
# Bulk Modulus (GPa) = 12.27616 72.13174 42.20395
# Shear Modulus (GPa) = 30.69709 -27.07645 1.81032
#
# Velocity S-wave (km/s) = 3.93996 -3.70032 0.95680
# Velocity P-wave (km/s) = 5.18707 4.26849 4.75003
#
# Compressibility (1/GPa) = 0.08145867
#
# Stress axis : x y z
#
# Youngs Moduli (GPa) = 144.88750 11.68167 96.79339
#
# Poissons Ratio (x) = -0.03166 0.48165
# Poissons Ratio (y) = -0.39265 0.81532
# Poissons Ratio (z) = 0.72097 0.09840
#
# Static dielectric constant tensor:
#      x y z
#    x 1.696760 0.000000 0.000000 
#    y 0.000000 1.703260 0.000000 
#    z 0.000000 0.000000 1.685000 
# 
# From -- ./inp_files/13690.got.cif
#   From: 2010.05.17/outbox.cif.g08.bks.cpg/sg47_7_cif.got.tgz:13690.got - 2010.06.03 20:15:42.
