data_PCOD9387318
_publ_section_title
;
Structure prediction by ZEFSAII (Michael W. Deem and Ramdas Pophale) SiO2 
 PCOD9387318
Probable space group: P M M M
;
_chemical_formula_sum "Si O2"
_cell_formula_units_Z 64
_cell_length_a 14.324468
_cell_length_b 9.013500
_cell_length_c 26.681573
_cell_angle_alpha 90.000000
_cell_angle_beta 90.000000
_cell_angle_gamma 90.000000
_cell_volume 3444.953739
_symmetry_space_group_name_H-M "P M M M"
_symmetry_group_IT_number 47
_symmetry_cell_setting 'orthorhombic'
loop_
_space_group_symop_operation_xyz
x,y,z
-x,-y,z
x,-y,-z
-x,y,-z
-x,-y,-z
x,y,-z
-x,y,z
x,-y,z
loop_
_atom_site_type_symbol
_atom_site_label
_atom_site_fract_x
_atom_site_fract_y
_atom_site_fract_z
Si Si1 0.782016 0.176208 0.352012
Si Si2 0.112611 0.674791 0.741258
Si Si3 0.609688 0.676663 0.309970
Si Si4 0.110890 0.324470 0.558152
Si Si5 0.888900 0.823577 0.845525
Si Si6 0.390735 0.322982 0.898564
Si Si7 0.221024 0.178372 0.054979
Si Si8 0.613133 0.168837 0.205885
O O1 0.839296 0.242412 0.304891
O O2 0.678540 0.244569 0.348402
O O3 0.832154 0.229087 0.402490
O O4 0.778794 0.000000 0.348323
O O5 0.133714 0.500000 0.738673
O O6 0.142422 0.740435 0.795117
O O7 0.000000 0.692991 0.737594
O O8 0.500000 0.709873 0.317921
O O9 0.621445 0.500000 0.310944
O O10 0.637460 0.739502 0.255268
O O11 0.133067 0.292556 0.500000
O O12 0.128074 0.500000 0.566971
O O13 0.000000 0.300258 0.565006
O O14 0.840118 0.775089 0.897093
O O15 0.000000 0.800476 0.850412
O O16 0.873109 0.000000 0.839076
O O17 0.500000 0.288718 0.907577
O O18 0.381326 0.500000 0.896005
O O19 0.321621 0.253389 0.938768
O O20 0.362064 0.250100 0.845472
O O21 0.230772 0.000000 0.057716
O O22 0.181142 0.214371 0.000000
O O23 0.500000 0.161751 0.205790
O O24 0.648928 0.000000 0.207620
#
# Coordination Sequence:
#
# PCOD9387318 Si02
#       8
#     8   8   8   8   8   8   8   8
#     4  12  24  35  55  87 122 159 195 237 288 340
#     4  10  21  37  57  82 114 150 187 229 280 339
#     4  10  21  37  56  79 111 152 197 241 284 334
#     4   9  19  38  63  89 120 159 201 245 291 339
#     4   9  19  37  59  81 107 138 174 221 278 340
#     4  10  21  36  54  76 104 140 179 220 269 328
#     4  10  22  38  56  79 105 135 175 225 280 338
#     4   9  17  31  52  77 105 137 175 221 273 330
#
# _framework density 18.577898000000001
#
# number of rings (size 3 to 8) (size 9 to 14) (size 15 to 20)
#    0.000    2.125    0.000    3.375    1.750    7.000 
#    0.000    3.125    0.000    0.375    0.000    5.250 
#    0.000    0.000    0.000    0.000    0.000    0.000 
#
# Total GULP energy -357541.961168 kJ/mol
# GULP energy per Si atom -5586.593143 kJ/mol
# Density = 1.853561 g / cm^3
# Si number density = 18.577898 Si / 1000 Ang^3
#
#
#
# Elastic Constant Matrix: (Units=GPa)
#
#
# Indices 1 2 3 4 5 6 
#
# 1 72.5634 49.3401 57.0429 0.0000 0.0000 0.0000
# 2 49.3401 82.6200 62.8147 0.0000 0.0000 0.0000
# 3 57.0429 62.8147 106.0256 0.0000 0.0000 0.0000
# 4 0.0000 0.0000 0.0000 2.7882 0.0000 0.0000
# 5 0.0000 0.0000 0.0000 0.0000 31.4176 0.0000
# 6 0.0000 0.0000 0.0000 0.0000 0.0000 23.4584
#
#
#
# Elastic Compliance Matrix: (Units=1/GPa)
#
#
# Indices 1 2 3 4 5 6 
#
# 1 0.027359 -0.009366 -0.009170 0.000000 0.000000 0.000000
# 2 -0.009366 0.025230 -0.009908 0.000000 0.000000 0.000000
# 3 -0.009170 -0.009908 0.020236 0.000000 0.000000 0.000000
# 4 0.000000 0.000000 0.000000 0.358649 0.000000 0.000000
# 5 0.000000 0.000000 0.000000 0.000000 0.031829 0.000000
# 6 0.000000 0.000000 0.000000 0.000000 0.000000 0.042629
#
#
# Mechanical properties :
#
#
# Convention : Reuss Voigt Hill
#
# Bulk Modulus (GPa) = 62.75677 66.62271 64.68974
# Shear Modulus (GPa) = 8.80075 17.66695 13.23385
#
# Velocity S-wave (km/s) = 2.17888 3.08712 2.67187
# Velocity P-wave (km/s) = 6.33906 6.97468 6.66445
#
# Compressibility (1/GPa) = 0.01593454
#
# Stress axis : x y z
#
# Youngs Moduli (GPa) = 36.55165 39.63464 49.41801
#
# Poissons Ratio (x) = 0.37124 0.45316
# Poissons Ratio (y) = 0.34236 0.48966
# Poissons Ratio (z) = 0.33518 0.39272
#
# Static dielectric constant tensor:
#      x y z
#    x 1.670020 0.000000 0.000000 
#    y 0.000000 1.616960 0.000000 
#    z 0.000000 0.000000 1.623840 
# 
# From -- ./inp_files/7900.got.cif
#   From: 2010.05.17/outbox.cif.g08.bks.cpg/sg47_4_cif.got.tgz:7900.got - 2010.06.03 20:15:42.
