data_PCOD9387233
_publ_section_title
;
Structure prediction by ZEFSAII (Michael W. Deem and Ramdas Pophale) SiO2 
 PCOD9387233
Probable space group: P M M M
;
_chemical_formula_sum "Si O2"
_cell_formula_units_Z 37
_cell_length_a 23.039624
_cell_length_b 7.645809
_cell_length_c 10.505763
_cell_angle_alpha 90.000000
_cell_angle_beta 90.000000
_cell_angle_gamma 90.000000
_cell_volume 1850.659118
_symmetry_space_group_name_H-M "P M M M"
_symmetry_group_IT_number 47
_symmetry_cell_setting 'orthorhombic'
loop_
_space_group_symop_operation_xyz
x,y,z
-x,-y,z
x,-y,-z
-x,y,-z
-x,-y,-z
x,y,-z
-x,y,z
x,-y,z
loop_
_atom_site_type_symbol
_atom_site_label
_atom_site_fract_x
_atom_site_fract_y
_atom_site_fract_z
Si Si1 0.000000 0.209260 0.226147
Si Si2 0.000000 0.500000 0.000000
Si Si3 0.340660 0.292584 0.857346
Si Si4 0.877239 0.788416 0.357390
Si Si5 0.565741 0.789683 0.356855
Si Si6 0.791132 0.205976 0.142538
O O1 0.057694 0.241090 0.308865
O O2 0.000000 0.344295 0.110382
O O3 0.000000 0.000000 0.189530
O O4 0.334370 0.500000 0.864526
O O5 0.388526 0.255438 0.751477
O O6 0.276852 0.221277 0.825424
O O7 0.356475 0.227630 0.000000
O O8 0.867784 0.721261 0.500000
O O9 0.832198 0.719684 0.251891
O O10 0.869829 0.000000 0.362924
O O11 0.581515 0.728459 0.500000
O O12 0.500000 0.727760 0.328829
O O13 0.563655 0.000000 0.361733
O O14 0.804744 0.000000 0.133797
O O15 0.799925 0.281026 0.000000
#
# Coordination Sequence:
#
# PCOD9387233 Si02
#       6
#     4   1   8   8   8   8
#     4  10  22  41  63  89 124 157 198 248 294 354
#     4  12  26  40  58  98 120 160 204 240 298 354
#     4  10  21  36  52  77 112 149 183 222 276 331
#     4   9  18  35  61  88 115 151 190 234 294 349
#     4   9  19  36  57  80 105 136 178 228 278 329
#     4   9  18  33  54  80 110 147 193 237 276 331
#
# _framework density 19.992878000000001
#
# number of rings (size 3 to 8) (size 9 to 14) (size 15 to 20)
#    0.000    2.595    0.000    1.784    1.514    4.757 
#    1.946    6.486    0.000    0.000    0.000    0.000 
#    0.000    0.000    0.000    0.000    0.000    0.000 
#
# Total GULP energy -206131.583396 kJ/mol
# GULP energy per Si atom -5571.123876 kJ/mol
# Density = 1.994737 g / cm^3
# Si number density = 19.992878 Si / 1000 Ang^3
#
#
#
# Elastic Constant Matrix: (Units=GPa)
#
#
# Indices 1 2 3 4 5 6 
#
# 1 134.3171 6.9454 132.3060 0.0000 0.0000 0.0000
# 2 6.9454 54.4334 22.7902 0.0000 0.0000 0.0000
# 3 132.3060 22.7902 195.8287 0.0000 0.0000 0.0000
# 4 0.0000 0.0000 0.0000 126.3448 0.0000 0.0000
# 5 0.0000 0.0000 0.0000 0.0000 19.4827 0.0000
# 6 0.0000 0.0000 0.0000 0.0000 0.0000 -252.4616
#
#
#
# Elastic Compliance Matrix: (Units=1/GPa)
#
#
# Indices 1 2 3 4 5 6 
#
# 1 0.022963 0.003748 -0.015950 0.000000 0.000000 0.000000
# 2 0.003748 0.019924 -0.004851 0.000000 0.000000 0.000000
# 3 -0.015950 -0.004851 0.016447 0.000000 0.000000 0.000000
# 4 0.000000 0.000000 0.000000 0.007915 0.000000 0.000000
# 5 0.000000 0.000000 0.000000 0.000000 0.051328 0.000000
# 6 0.000000 0.000000 0.000000 0.000000 0.000000 -0.003961
#
#
# Mechanical properties :
#
#
# Convention : Reuss Voigt Hill
#
# Bulk Modulus (GPa) = 39.63908 78.74028 59.18968
# Shear Modulus (GPa) = 31.82053 -6.49098 12.66477
#
# Velocity S-wave (km/s) = 3.99381 -1.80380 2.51960
# Velocity P-wave (km/s) = 6.41381 5.92718 6.17529
#
# Compressibility (1/GPa) = 0.02522763
#
# Stress axis : x y z
#
# Youngs Moduli (GPa) = 43.54867 50.19111 60.79964
#
# Poissons Ratio (x) = -0.18812 0.96978
# Poissons Ratio (y) = -0.16323 0.29494
# Poissons Ratio (z) = 0.69462 0.24348
#
# Static dielectric constant tensor:
#      x y z
#    x 1.675140 0.000000 0.000000 
#    y 0.000000 1.732480 0.000000 
#    z 0.000000 0.000000 1.722290 
# 
# From -- ./inp_files/1540.got.cif
#   From: 2010.05.17/outbox.cif.g08.bks.cpg/sg47_1_cif.got.tgz:1540.got - 2010.06.03 20:15:42.
