data_PCOD9387191
_publ_section_title
;
Structure prediction by ZEFSAII (Michael W. Deem and Ramdas Pophale) SiO2 
 PCOD9387191
Probable space group: P M M M
;
_chemical_formula_sum "Si O2"
_cell_formula_units_Z 56
_cell_length_a 14.427190
_cell_length_b 21.932892
_cell_length_c 9.108186
_cell_angle_alpha 90.000000
_cell_angle_beta 90.000000
_cell_angle_gamma 90.000000
_cell_volume 2882.103297
_symmetry_space_group_name_H-M "P M M M"
_symmetry_group_IT_number 47
_symmetry_cell_setting 'orthorhombic'
loop_
_space_group_symop_operation_xyz
x,y,z
-x,-y,z
x,-y,-z
-x,y,-z
-x,-y,-z
x,y,-z
-x,y,z
x,-y,z
loop_
_atom_site_type_symbol
_atom_site_label
_atom_site_fract_x
_atom_site_fract_y
_atom_site_fract_z
Si Si1 0.108456 0.378035 0.825216
Si Si2 0.292917 0.067023 0.175869
Si Si3 0.607405 0.684292 0.321183
Si Si4 0.893530 0.127791 0.824853
Si Si5 0.276210 0.566985 0.323498
Si Si6 0.387998 0.818792 0.671965
Si Si7 0.887585 0.252831 0.333958
O O1 0.175885 0.425613 0.748684
O O2 0.136105 0.311882 0.760745
O O3 0.000000 0.388196 0.790749
O O4 0.118876 0.378686 0.000000
O O5 0.183508 0.077241 0.205785
O O6 0.346530 0.123886 0.244018
O O7 0.322573 0.000000 0.228886
O O8 0.304858 0.068713 0.000000
O O9 0.608837 0.685375 0.500000
O O10 0.500000 0.678781 0.276945
O O11 0.663266 0.624789 0.273121
O O12 0.642969 0.751317 0.274481
O O13 0.863375 0.189091 0.741004
O O14 0.000000 0.112543 0.784775
O O15 0.892628 0.139820 0.000000
O O16 0.267839 0.571045 0.500000
O O17 0.315628 0.500000 0.288667
O O18 0.363768 0.824158 0.500000
O O19 0.500000 0.819133 0.682508
O O20 0.851216 0.258146 0.500000
O O21 0.000000 0.252409 0.340926
#
# Coordination Sequence:
#
# PCOD9387191 Si02
#       7
#     8   8   8   8   8   8   8
#     4  10  21  36  53  74 106 149 192 230 270 320
#     4  10  22  37  53  79 113 147 185 229 276 323
#     4   8  16  34  59  85 111 139 175 221 273 329
#     4   9  18  33  52  75 107 146 186 224 266 322
#     4  10  21  35  54  84 116 145 181 226 276 326
#     4   9  19  37  60  83 107 139 181 228 277 331
#     4   9  17  30  50  76 103 133 175 227 278 320
#
# _framework density 19.430256
#
# number of rings (size 3 to 8) (size 9 to 14) (size 15 to 20)
#    0.000    2.714    0.000    1.714    2.000    5.143 
#    0.000    5.714    0.000    1.286    0.000    4.000 
#    0.000    0.000    0.000    0.000    0.000    0.000 
#
# Total GULP energy -312396.103590 kJ/mol
# GULP energy per Si atom -5578.501850 kJ/mol
# Density = 1.938603 g / cm^3
# Si number density = 19.430256 Si / 1000 Ang^3
#
#
#
# Elastic Constant Matrix: (Units=GPa)
#
#
# Indices 1 2 3 4 5 6 
#
# 1 60.6065 60.9597 22.5044 0.0000 0.0000 0.0000
# 2 60.9597 176.0369 40.6424 0.0000 0.0000 0.0000
# 3 22.5044 40.6424 18.1446 0.0000 0.0000 0.0000
# 4 0.0000 0.0000 0.0000 20.6986 0.0000 0.0000
# 5 0.0000 0.0000 0.0000 0.0000 20.3244 0.0000
# 6 0.0000 0.0000 0.0000 0.0000 0.0000 19.8474
#
#
#
# Elastic Compliance Matrix: (Units=1/GPa)
#
#
# Indices 1 2 3 4 5 6 
#
# 1 0.031862 -0.003955 -0.030659 0.000000 0.000000 0.000000
# 2 -0.003955 0.012256 -0.022546 0.000000 0.000000 0.000000
# 3 -0.030659 -0.022546 0.143638 0.000000 0.000000 0.000000
# 4 0.000000 0.000000 0.000000 0.048312 0.000000 0.000000
# 5 0.000000 0.000000 0.000000 0.000000 0.049202 0.000000
# 6 0.000000 0.000000 0.000000 0.000000 0.000000 0.050384
#
#
# Mechanical properties :
#
#
# Convention : Reuss Voigt Hill
#
# Bulk Modulus (GPa) = 13.61713 55.88902 34.75307
# Shear Modulus (GPa) = 10.53844 20.88618 15.71231
#
# Velocity S-wave (km/s) = 2.33142 3.28217 2.84677
# Velocity P-wave (km/s) = 3.77767 6.57190 5.36007
#
# Compressibility (1/GPa) = 0.07343691
#
# Stress axis : x y z
#
# Youngs Moduli (GPa) = 31.38489 81.59585 6.96193
#
# Poissons Ratio (x) = 0.32274 0.21344
# Poissons Ratio (y) = 0.12414 0.15696
# Poissons Ratio (z) = 0.96222 1.83963
#
# Static dielectric constant tensor:
#      x y z
#    x 1.712580 0.000000 0.000000 
#    y 0.000000 1.684090 0.000000 
#    z 0.000000 0.000000 1.648770 
# 
# From -- ./inp_files/7229.got.cif
#   From: 2010.05.17/outbox.cif.g08.bks.cpg/sg47_4_cif.got.tgz:7229.got - 2010.06.03 20:15:42.
