data_PCOD9387655
_publ_section_title
;
Structure prediction by ZEFSAII (Michael W. Deem and Ramdas Pophale) SiO2 
 PCOD9387655
Probable space group: P M M M
;
_chemical_formula_sum "Si O2"
_cell_formula_units_Z 48
_cell_length_a 9.497602
_cell_length_b 7.796949
_cell_length_c 32.169209
_cell_angle_alpha 90.000000
_cell_angle_beta 90.000000
_cell_angle_gamma 90.000000
_cell_volume 2382.204508
_symmetry_space_group_name_H-M "P M M M"
_symmetry_group_IT_number 47
_symmetry_cell_setting 'orthorhombic'
loop_
_space_group_symop_operation_xyz
x,y,z
-x,-y,z
x,-y,-z
-x,y,-z
-x,-y,-z
x,y,-z
-x,y,z
x,-y,z
loop_
_atom_site_type_symbol
_atom_site_label
_atom_site_fract_x
_atom_site_fract_y
_atom_site_fract_z
Si Si1 0.659721 0.206104 0.581040
Si Si2 0.338347 0.289551 0.169090
Si Si3 0.161024 0.204075 0.000000
Si Si4 0.838882 0.206197 0.341161
Si Si5 0.839018 0.293607 0.248299
Si Si6 0.161058 0.705123 0.910021
Si Si7 0.839697 0.295358 0.500000
O O1 0.500000 0.271943 0.576763
O O2 0.738545 0.271715 0.622325
O O3 0.753877 0.242298 0.540816
O O4 0.650856 0.000000 0.584782
O O5 0.500000 0.234890 0.168438
O O6 0.337455 0.500000 0.168988
O O7 0.258594 0.232725 0.210827
O O8 0.254119 0.231460 0.128203
O O9 0.222866 0.258744 0.044219
O O10 0.000000 0.275019 0.000000
O O11 0.154833 0.000000 0.000000
O O12 0.789628 0.247995 0.294602
O O13 0.000000 0.270907 0.345695
O O14 0.844423 0.000000 0.344652
O O15 0.843686 0.500000 0.245710
O O16 0.000000 0.229836 0.243754
O O17 0.152334 0.500000 0.905794
O O18 0.000000 0.773247 0.908302
O O19 0.847763 0.500000 0.500000
O O20 0.000000 0.226593 0.500000
#
# Coordination Sequence:
#
# PCOD9387655 Si02
#       7
#     8   8   4   8   8   8   4
#     4  10  21  37  57  80 106 138 175 212 253 304
#     4   9  17  29  46  69  95 122 155 195 237 282
#     4   9  17  29  46  69  94 118 148 189 234 278
#     4   9  18  33  52  74 101 133 168 205 245 291
#     4   9  17  30  49  72  97 126 161 201 243 286
#     4   9  16  28  48  70  90 116 153 193 230 273
#     4  11  24  39  56  80 108 137 172 215 260 304
#
# _framework density 20.149401999999998
#
# number of rings (size 3 to 8) (size 9 to 14) (size 15 to 20)
#    0.000    2.667    0.000    1.750    0.000    7.000 
#    0.000    2.917    0.000    8.000    0.000    0.000 
#    0.000    0.000    0.000    0.000    0.000    0.000 
#
# Total GULP energy -267827.771731 kJ/mol
# GULP energy per Si atom -5579.745244 kJ/mol
# Density = 2.010354 g / cm^3
# Si number density = 20.149402 Si / 1000 Ang^3
#
#
#
# Elastic Constant Matrix: (Units=GPa)
#
#
# Indices 1 2 3 4 5 6 
#
# 1 136.0501 7.5835 128.8826 0.0000 0.0000 0.0000
# 2 7.5835 24.7069 1.8307 0.0000 0.0000 0.0000
# 3 128.8826 1.8307 233.8901 0.0000 0.0000 0.0000
# 4 0.0000 0.0000 0.0000 27.5280 0.0000 0.0000
# 5 0.0000 0.0000 0.0000 0.0000 -23.4000 0.0000
# 6 0.0000 0.0000 0.0000 0.0000 0.0000 9.0989
#
#
#
# Elastic Compliance Matrix: (Units=1/GPa)
#
#
# Indices 1 2 3 4 5 6 
#
# 1 0.015803 -0.004208 -0.008675 0.000000 0.000000 0.000000
# 2 -0.004208 0.041618 0.001993 0.000000 0.000000 0.000000
# 3 -0.008675 0.001993 0.009040 0.000000 0.000000 0.000000
# 4 0.000000 0.000000 0.000000 0.036327 0.000000 0.000000
# 5 0.000000 0.000000 0.000000 0.000000 -0.042735 0.000000
# 6 0.000000 0.000000 0.000000 0.000000 0.000000 0.109903
#
#
# Mechanical properties :
#
#
# Convention : Reuss Voigt Hill
#
# Bulk Modulus (GPa) = 22.38059 74.58228 48.48143
# Shear Modulus (GPa) = 24.19788 19.73540 21.96664
#
# Velocity S-wave (km/s) = 3.46919 3.13302 3.30538
# Velocity P-wave (km/s) = 5.21330 7.08398 6.21937
#
# Compressibility (1/GPa) = 0.04468158
#
# Stress axis : x y z
#
# Youngs Moduli (GPa) = 63.28014 24.02789 110.61731
#
# Poissons Ratio (x) = 0.10110 0.95960
# Poissons Ratio (y) = 0.26626 -0.22044
# Poissons Ratio (z) = 0.54896 -0.04788
#
# Static dielectric constant tensor:
#      x y z
#    x 1.703230 0.000000 0.000000 
#    y 0.000000 1.733200 0.000000 
#    z 0.000000 0.000000 1.697370 
# 
# From -- ./inp_files/13896.got.cif
#   From: 2010.05.17/outbox.cif.g08.bks.cpg/sg47_7_cif.got.tgz:13896.got - 2010.06.03 20:15:42.
