data_PCOD9387930
_publ_section_title
;
Structure prediction by ZEFSAII (Michael W. Deem and Ramdas Pophale) SiO2 
 PCOD9387930
Probable space group: P M M M
;
_chemical_formula_sum "Si O2"
_cell_formula_units_Z 48
_cell_length_a 8.215590
_cell_length_b 29.400170
_cell_length_c 10.004052
_cell_angle_alpha 90.000000
_cell_angle_beta 90.000000
_cell_angle_gamma 90.000000
_cell_volume 2416.376146
_symmetry_space_group_name_H-M "P M M M"
_symmetry_group_IT_number 47
_symmetry_cell_setting 'orthorhombic'
loop_
_space_group_symop_operation_xyz
x,y,z
-x,-y,z
x,-y,-z
-x,y,-z
-x,-y,-z
x,y,-z
-x,y,z
x,-y,z
loop_
_atom_site_type_symbol
_atom_site_label
_atom_site_fract_x
_atom_site_fract_y
_atom_site_fract_z
Si Si1 0.691821 0.948191 0.000000
Si Si2 0.802708 0.203338 0.656683
Si Si3 0.000000 0.048674 0.651110
Si Si4 0.312038 0.103651 0.271749
Si Si5 0.804114 0.712680 0.154960
Si Si6 0.306163 0.630539 0.345570
Si Si7 0.196572 0.446931 0.150686
O O1 0.720670 0.915363 0.875990
O O2 0.500000 0.955743 0.000000
O O3 0.763790 0.000000 0.000000
O O4 0.764632 0.213330 0.500000
O O5 0.718564 0.156621 0.701497
O O6 0.752874 0.243103 0.759201
O O7 0.000000 0.198060 0.664703
O O8 0.835178 0.077062 0.662257
O O9 0.000000 0.038570 0.500000
O O10 0.000000 0.000000 0.728294
O O11 0.500000 0.092578 0.308269
O O12 0.758562 0.669700 0.246633
O O13 0.000000 0.713974 0.147284
O O14 0.744154 0.711079 0.000000
O O15 0.244166 0.633025 0.500000
O O16 0.500000 0.635006 0.351829
O O17 0.263192 0.583767 0.269731
O O18 0.241293 0.500000 0.165079
O O19 0.000000 0.444095 0.153317
O O20 0.248090 0.431926 0.000000
#
# Coordination Sequence:
#
# PCOD9387930 Si02
#       7
#     4   8   4   8   8   8   8
#     4   9  20  39  61  89 122 157 203 250 298 363
#     4  10  21  39  62  89 124 161 199 245 300 367
#     4  11  24  41  61  89 123 160 207 253 300 367
#     4  11  23  40  64  90 123 161 202 253 308 365
#     4  10  22  40  64  92 121 155 201 253 304 363
#     4  11  24  39  56  84 123 164 207 253 305 366
#     4   9  19  37  61  88 118 155 203 257 311 369
#
# _framework density 19.864456000000001
#
# number of rings (size 3 to 8) (size 9 to 14) (size 15 to 20)
#    0.000    1.833    0.833    3.000    1.167    8.667 
#    0.000    4.167    0.000    0.000    0.000    0.000 
#    0.000    0.000    0.000    0.000    0.000    0.000 
#
# Total GULP energy -267332.862925 kJ/mol
# GULP energy per Si atom -5569.434644 kJ/mol
# Density = 1.981924 g / cm^3
# Si number density = 19.864456 Si / 1000 Ang^3
#
#
#
# Elastic Constant Matrix: (Units=GPa)
#
#
# Indices 1 2 3 4 5 6 
#
# 1 52.3539 35.0658 38.5695 0.0000 0.0000 0.0000
# 2 35.0658 123.0677 87.7567 0.0000 0.0000 0.0000
# 3 38.5695 87.7567 194.9316 0.0000 0.0000 0.0000
# 4 0.0000 0.0000 0.0000 31.3024 0.0000 0.0000
# 5 0.0000 0.0000 0.0000 0.0000 30.4500 0.0000
# 6 0.0000 0.0000 0.0000 0.0000 0.0000 35.7223
#
#
#
# Elastic Compliance Matrix: (Units=1/GPa)
#
#
# Indices 1 2 3 4 5 6 
#
# 1 0.024407 -0.005171 -0.002501 0.000000 0.000000 0.000000
# 2 -0.005171 0.013063 -0.004858 0.000000 0.000000 0.000000
# 3 -0.002501 -0.004858 0.007812 0.000000 0.000000 0.000000
# 4 0.000000 0.000000 0.000000 0.031946 0.000000 0.000000
# 5 0.000000 0.000000 0.000000 0.000000 0.032841 0.000000
# 6 0.000000 0.000000 0.000000 0.000000 0.000000 0.027994
#
#
# Mechanical properties :
#
#
# Convention : Reuss Voigt Hill
#
# Bulk Modulus (GPa) = 49.45107 77.01526 63.23316
# Shear Modulus (GPa) = 29.43561 33.42567 31.43064
#
# Velocity S-wave (km/s) = 3.85362 4.10651 3.98207
# Velocity P-wave (km/s) = 6.68946 7.83193 7.28313
#
# Compressibility (1/GPa) = 0.02022201
#
# Stress axis : x y z
#
# Youngs Moduli (GPa) = 40.97235 76.55345 128.01068
#
# Poissons Ratio (x) = 0.39582 0.32021
# Poissons Ratio (y) = 0.21185 0.62184
# Poissons Ratio (z) = 0.10249 0.37187
#
# Static dielectric constant tensor:
#      x y z
#    x 1.697050 0.000000 0.000000 
#    y 0.000000 1.697330 0.000000 
#    z 0.000000 0.000000 1.448920 
# 
# From -- ./inp_files/2788.got.cif
#   From: 2010.05.17/outbox.cif.g08.bks.cpg/sg47_2_cif.got.tgz:2788.got - 2010.06.03 20:15:42.
