data_PCOD9387433
_publ_section_title
;
Structure prediction by ZEFSAII (Michael W. Deem and Ramdas Pophale) SiO2 
 PCOD9387433
Probable space group: P M M M
;
_chemical_formula_sum "Si O2"
_cell_formula_units_Z 52
_cell_length_a 21.544511
_cell_length_b 8.573124
_cell_length_c 13.833733
_cell_angle_alpha 90.000000
_cell_angle_beta 90.000000
_cell_angle_gamma 90.000000
_cell_volume 2555.142560
_symmetry_space_group_name_H-M "P M M M"
_symmetry_group_IT_number 47
_symmetry_cell_setting 'orthorhombic'
loop_
_space_group_symop_operation_xyz
x,y,z
-x,-y,z
x,-y,-z
-x,y,-z
-x,-y,-z
x,y,-z
-x,y,z
x,-y,z
loop_
_atom_site_type_symbol
_atom_site_label
_atom_site_fract_x
_atom_site_fract_y
_atom_site_fract_z
Si Si1 0.874181 0.814116 0.304005
Si Si2 0.000000 0.676206 0.385364
Si Si3 0.430887 0.688732 0.183675
Si Si4 0.744925 0.314286 0.691363
Si Si5 0.071947 0.810069 0.892671
Si Si6 0.696903 0.186399 0.107828
Si Si7 0.614221 0.310333 0.393558
O O1 0.811054 0.744646 0.345040
O O2 0.883808 0.758847 0.193073
O O3 0.937569 0.763028 0.354300
O O4 0.869466 0.000000 0.305306
O O5 0.000000 0.500000 0.345033
O O6 0.000000 0.667245 0.500000
O O7 0.500000 0.729116 0.150170
O O8 0.423860 0.500000 0.178371
O O9 0.374723 0.765250 0.125617
O O10 0.423090 0.734293 0.297074
O O11 0.744487 0.500000 0.691681
O O12 0.733371 0.256075 0.800922
O O13 0.685456 0.263053 0.628453
O O14 0.000000 0.765571 0.873637
O O15 0.072611 0.000000 0.893035
O O16 0.089087 0.757113 0.000000
O O17 0.702982 0.000000 0.111960
O O18 0.716281 0.238151 0.000000
O O19 0.594148 0.255376 0.500000
O O20 0.612012 0.500000 0.395854
#
# Coordination Sequence:
#
# PCOD9387433 Si02
#       7
#     8   4   8   8   8   8   8
#     4  11  21  36  59  85 111 142 181 227 279 334
#     4  11  25  43  60  79 108 148 191 235 284 336
#     4   9  18  32  52  81 113 143 178 223 278 336
#     4  10  21  36  55  81 111 144 181 224 276 332
#     4   8  14  27  49  76 103 131 163 201 251 313
#     4  10  21  37  56  78 107 147 193 235 273 316
#     4   8  15  30  52  76 103 137 178 222 266 318
#
# _framework density 20.351116000000001
#
# number of rings (size 3 to 8) (size 9 to 14) (size 15 to 20)
#    0.000    2.538    0.769    3.000    0.000    4.000 
#    0.000    6.154    0.000   12.923    0.000    4.308 
#    0.000    0.000    0.000    0.000    0.000    0.000 
#
# Total GULP energy -290106.541778 kJ/mol
# GULP energy per Si atom -5578.971957 kJ/mol
# Density = 2.030480 g / cm^3
# Si number density = 20.351116 Si / 1000 Ang^3
#
#
#
# Elastic Constant Matrix: (Units=GPa)
#
#
# Indices 1 2 3 4 5 6 
#
# 1 72.4267 7.7377 -19.0616 0.0000 0.0000 0.0000
# 2 7.7377 25.9496 1.9091 0.0000 0.0000 0.0000
# 3 -19.0616 1.9091 42.0960 0.0000 0.0000 0.0000
# 4 0.0000 0.0000 0.0000 42.0379 0.0000 0.0000
# 5 0.0000 0.0000 0.0000 0.0000 1.3970 0.0000
# 6 0.0000 0.0000 0.0000 0.0000 0.0000 16.9517
#
#
#
# Elastic Compliance Matrix: (Units=1/GPa)
#
#
# Indices 1 2 3 4 5 6 
#
# 1 0.016411 -0.005458 0.007679 0.000000 0.000000 0.000000
# 2 -0.005458 0.040481 -0.004307 0.000000 0.000000 0.000000
# 3 0.007679 -0.004307 0.027428 0.000000 0.000000 0.000000
# 4 0.000000 0.000000 0.000000 0.023788 0.000000 0.000000
# 5 0.000000 0.000000 0.000000 0.000000 0.715813 0.000000
# 6 0.000000 0.000000 0.000000 0.000000 0.000000 0.058991
#
#
# Mechanical properties :
#
#
# Convention : Reuss Voigt Hill
#
# Bulk Modulus (GPa) = 12.47737 13.51586 12.99662
# Shear Modulus (GPa) = 5.47165 22.06978 13.77072
#
# Velocity S-wave (km/s) = 1.64148 3.29667 2.60408
# Velocity P-wave (km/s) = 3.12041 4.59853 3.92960
#
# Compressibility (1/GPa) = 0.08014508
#
# Stress axis : x y z
#
# Youngs Moduli (GPa) = 60.93421 24.70305 36.45962
#
# Poissons Ratio (x) = 0.13484 -0.27996
# Poissons Ratio (y) = 0.33261 0.15705
# Poissons Ratio (z) = -0.46790 0.10641
#
# Static dielectric constant tensor:
#      x y z
#    x 1.787920 0.000000 0.000000 
#    y 0.000000 1.700900 0.000000 
#    z 0.000000 0.000000 1.744780 
# 
# From -- ./inp_files/25003.got.cif
#   From: 2010.05.17/outbox.cif.g08.bks.cpg/sg47_13_cif.got.tgz:25003.got - 2010.06.03 20:15:42.
