data_PCOD9387689
_publ_section_title
;
Structure prediction by ZEFSAII (Michael W. Deem and Ramdas Pophale) SiO2 
 PCOD9387689
Probable space group: P M M M
;
_chemical_formula_sum "Si O2"
_cell_formula_units_Z 64
_cell_length_a 15.042215
_cell_length_b 24.673875
_cell_length_c 8.376544
_cell_angle_alpha 90.000000
_cell_angle_beta 90.000000
_cell_angle_gamma 90.000000
_cell_volume 3108.952066
_symmetry_space_group_name_H-M "P M M M"
_symmetry_group_IT_number 47
_symmetry_cell_setting 'orthorhombic'
loop_
_space_group_symop_operation_xyz
x,y,z
-x,-y,z
x,-y,-z
-x,y,-z
-x,-y,-z
x,y,-z
-x,y,z
x,-y,z
loop_
_atom_site_type_symbol
_atom_site_label
_atom_site_fract_x
_atom_site_fract_y
_atom_site_fract_z
Si Si1 0.101749 0.221646 0.189719
Si Si2 0.601447 0.271762 0.694235
Si Si3 0.279453 0.827730 0.690842
Si Si4 0.397838 0.604067 0.693073
Si Si5 0.906200 0.935063 0.183018
Si Si6 0.897507 0.341070 0.310238
Si Si7 0.708874 0.060647 0.193483
Si Si8 0.218818 0.559493 0.189801
O O1 0.177314 0.181766 0.254978
O O2 0.127174 0.283315 0.234528
O O3 0.000000 0.213022 0.249174
O O4 0.100174 0.216707 0.000000
O O5 0.604112 0.271772 0.500000
O O6 0.500000 0.259814 0.741566
O O7 0.667963 0.225524 0.749998
O O8 0.621678 0.333498 0.742033
O O9 0.280954 0.828978 0.500000
O O10 0.329615 0.881921 0.752677
O O11 0.392309 0.601213 0.500000
O O12 0.500000 0.591543 0.736956
O O13 0.322141 0.567272 0.767079
O O14 0.809589 0.930931 0.258815
O O15 0.000000 0.915805 0.255350
O O16 0.913224 0.000000 0.169020
O O17 0.902487 0.913694 0.000000
O O18 0.893231 0.333842 0.500000
O O19 0.835577 0.390782 0.262869
O O20 0.000000 0.352466 0.263852
O O21 0.677424 0.000000 0.242417
O O22 0.711747 0.059623 0.000000
O O23 0.188881 0.500000 0.247356
O O24 0.208010 0.561541 0.000000
#
# Coordination Sequence:
#
# PCOD9387689 Si02
#       8
#     8   8   8   8   8   8   8   8
#     4  10  21  37  57  81 111 147 183 218 263 326
#     4   8  16  33  56  81 106 132 167 213 268 328
#     4  11  21  32  53  82 109 138 173 222 275 317
#     4   9  18  35  60  85 108 139 181 229 281 337
#     4   7  10  19  37  58  77 104 150 200 236 274
#     4  10  21  38  60  83 108 141 184 237 290 330
#     4   9  18  32  48  67  97 139 180 215 259 320
#     4  11  24  38  53  78 114 155 194 230 270 324
#
# _framework density 20.585716000000001
#
# number of rings (size 3 to 8) (size 9 to 14) (size 15 to 20)
#    0.000    2.625    0.000    4.125    0.000    5.000 
#    0.000    4.375    0.000    3.375    0.000    5.250 
#    0.000    0.000    0.000    0.000    0.000    0.000 
#
# Total GULP energy -356728.542380 kJ/mol
# GULP energy per Si atom -5573.883475 kJ/mol
# Density = 2.053886 g / cm^3
# Si number density = 20.585716 Si / 1000 Ang^3
#
#
#
# Elastic Constant Matrix: (Units=GPa)
#
#
# Indices 1 2 3 4 5 6 
#
# 1 33.9868 34.9969 7.4468 0.0000 0.0000 0.0000
# 2 34.9969 133.6438 21.2875 0.0000 0.0000 0.0000
# 3 7.4468 21.2875 22.1644 0.0000 0.0000 0.0000
# 4 0.0000 0.0000 0.0000 -20.9209 0.0000 0.0000
# 5 0.0000 0.0000 0.0000 0.0000 8.8299 0.0000
# 6 0.0000 0.0000 0.0000 0.0000 0.0000 5.5174
#
#
#
# Elastic Compliance Matrix: (Units=1/GPa)
#
#
# Indices 1 2 3 4 5 6 
#
# 1 0.040592 -0.009985 -0.004048 0.000000 0.000000 0.000000
# 2 -0.009985 0.011290 -0.007489 0.000000 0.000000 0.000000
# 3 -0.004048 -0.007489 0.053670 0.000000 0.000000 0.000000
# 4 0.000000 0.000000 0.000000 -0.047799 0.000000 0.000000
# 5 0.000000 0.000000 0.000000 0.000000 0.113252 0.000000
# 6 0.000000 0.000000 0.000000 0.000000 0.000000 0.181244
#
#
# Mechanical properties :
#
#
# Convention : Reuss Voigt Hill
#
# Bulk Modulus (GPa) = 15.99789 35.25083 25.62436
# Shear Modulus (GPa) = 12.01552 7.08953 9.55252
#
# Velocity S-wave (km/s) = 2.41857 1.85779 2.15649
# Velocity P-wave (km/s) = 3.94811 4.66508 4.32149
#
# Compressibility (1/GPa) = 0.06250823
#
# Stress axis : x y z
#
# Youngs Moduli (GPa) = 24.63551 88.57302 18.63238
#
# Poissons Ratio (x) = 0.88439 0.07543
# Poissons Ratio (y) = 0.24598 0.13953
# Poissons Ratio (z) = 0.09973 0.66330
#
# Static dielectric constant tensor:
#      x y z
#    x 1.794060 0.000000 0.000000 
#    y 0.000000 1.777080 0.000000 
#    z 0.000000 0.000000 1.719630 
# 
# From -- ./inp_files/7960.got.cif
#   From: 2010.05.17/outbox.cif.g08.bks.cpg/sg47_4_cif.got.tgz:7960.got - 2010.06.03 20:15:42.
