data_PCOD9387449
_publ_section_title
;
Structure prediction by ZEFSAII (Michael W. Deem and Ramdas Pophale) SiO2 
 PCOD9387449
Probable space group: P M M M
;
_chemical_formula_sum "Si O2"
_cell_formula_units_Z 44
_cell_length_a 31.173442
_cell_length_b 7.686974
_cell_length_c 9.332593
_cell_angle_alpha 90.000000
_cell_angle_beta 90.000000
_cell_angle_gamma 90.000000
_cell_volume 2236.364017
_symmetry_space_group_name_H-M "P M M M"
_symmetry_group_IT_number 47
_symmetry_cell_setting 'orthorhombic'
loop_
_space_group_symop_operation_xyz
x,y,z
-x,-y,z
x,-y,-z
-x,y,-z
-x,-y,-z
x,y,-z
-x,y,z
x,-y,z
loop_
_atom_site_type_symbol
_atom_site_label
_atom_site_fract_x
_atom_site_fract_y
_atom_site_fract_z
Si Si1 0.948653 0.000000 0.668817
Si Si2 0.810415 0.707003 0.338600
Si Si3 0.104444 0.708897 0.829046
Si Si4 0.631264 0.208452 0.162039
Si Si5 0.546542 0.708887 0.663586
Si Si6 0.274296 0.790387 0.834794
O O1 0.929620 0.170311 0.747572
O O2 0.936592 0.000000 0.500000
O O3 0.000000 0.000000 0.678467
O O4 0.813029 0.780082 0.500000
O O5 0.815260 0.500000 0.349584
O O6 0.849389 0.763481 0.236539
O O7 0.764659 0.739020 0.265909
O O8 0.098128 0.500000 0.805374
O O9 0.103440 0.737995 0.000000
O O10 0.589254 0.247341 0.251919
O O11 0.678212 0.269669 0.214363
O O12 0.634193 0.000000 0.155484
O O13 0.625855 0.274621 0.000000
O O14 0.549889 0.772154 0.500000
O O15 0.500000 0.769455 0.722185
O O16 0.544763 0.500000 0.659430
O O17 0.274633 0.000000 0.837925
O O18 0.267963 0.731261 0.000000
#
# Coordination Sequence:
#
# PCOD9387449 Si02
#       6
#     4   8   8   8   8   8
#     4  11  25  43  65  95 129 167 209 253 308 369
#     4  10  21  36  55  82 115 149 187 232 283 339
#     4  10  22  41  65  92 124 164 209 257 306 359
#     4   9  19  35  52  73 102 134 171 216 266 321
#     4   9  19  35  52  71  97 129 166 210 262 321
#     4   9  19  35  53  74 104 142 180 220 269 326
#
# _framework density 19.674792
#
# number of rings (size 3 to 8) (size 9 to 14) (size 15 to 20)
#    0.000    2.455    0.000    3.000    1.273    6.545 
#    0.000   10.000    0.000    0.000    0.000    0.000 
#    0.000    0.000    0.000    0.000    0.000    0.000 
#
# Total GULP energy -245390.012250 kJ/mol
# GULP energy per Si atom -5577.045733 kJ/mol
# Density = 1.963001 g / cm^3
# Si number density = 19.674792 Si / 1000 Ang^3
#
#
#
# Elastic Constant Matrix: (Units=GPa)
#
#
# Indices 1 2 3 4 5 6 
#
# 1 171.7985 35.7921 98.8450 0.0000 0.0000 0.0000
# 2 35.7921 52.0627 39.9032 0.0000 0.0000 0.0000
# 3 98.8450 39.9032 129.6890 0.0000 0.0000 0.0000
# 4 0.0000 0.0000 0.0000 26.4640 0.0000 0.0000
# 5 0.0000 0.0000 0.0000 0.0000 39.4187 0.0000
# 6 0.0000 0.0000 0.0000 0.0000 0.0000 36.1109
#
#
#
# Elastic Compliance Matrix: (Units=1/GPa)
#
#
# Indices 1 2 3 4 5 6 
#
# 1 0.010446 -0.001412 -0.007527 0.000000 0.000000 0.000000
# 2 -0.001412 0.025326 -0.006716 0.000000 0.000000 0.000000
# 3 -0.007527 -0.006716 0.015514 0.000000 0.000000 0.000000
# 4 0.000000 0.000000 0.000000 0.037787 0.000000 0.000000
# 5 0.000000 0.000000 0.000000 0.000000 0.025369 0.000000
# 6 0.000000 0.000000 0.000000 0.000000 0.000000 0.027692
#
#
# Mechanical properties :
#
#
# Convention : Reuss Voigt Hill
#
# Bulk Modulus (GPa) = 50.06187 78.07008 64.06597
# Shear Modulus (GPa) = 27.76203 32.33271 30.04737
#
# Velocity S-wave (km/s) = 3.76046 4.05823 3.91218
# Velocity P-wave (km/s) = 6.65993 7.85655 7.28286
#
# Compressibility (1/GPa) = 0.01997528
#
# Stress axis : x y z
#
# Youngs Moduli (GPa) = 95.73464 39.48521 64.45868
#
# Poissons Ratio (x) = 0.05576 0.48516
# Poissons Ratio (y) = 0.13520 0.43290
# Poissons Ratio (z) = 0.72057 0.26518
#
# Static dielectric constant tensor:
#      x y z
#    x 1.697260 0.000000 0.000000 
#    y 0.000000 1.722580 0.000000 
#    z 0.000000 0.000000 1.682480 
# 
# From -- ./inp_files/13582.got.cif
#   From: 2010.05.17/outbox.cif.g08.bks.cpg/sg47_7_cif.got.tgz:13582.got - 2010.06.03 20:15:42.
