data_PCOD9387823
_publ_section_title
;
Structure prediction by ZEFSAII (Michael W. Deem and Ramdas Pophale) SiO2 
 PCOD9387823
Probable space group: P M M M
;
_chemical_formula_sum "Si O2"
_cell_formula_units_Z 56
_cell_length_a 8.210359
_cell_length_b 21.748190
_cell_length_c 15.524677
_cell_angle_alpha 90.000000
_cell_angle_beta 90.000000
_cell_angle_gamma 90.000000
_cell_volume 2772.093272
_symmetry_space_group_name_H-M "P M M M"
_symmetry_group_IT_number 47
_symmetry_cell_setting 'orthorhombic'
loop_
_space_group_symop_operation_xyz
x,y,z
-x,-y,z
x,-y,-z
-x,y,-z
-x,-y,-z
x,y,-z
-x,y,z
x,-y,z
loop_
_atom_site_type_symbol
_atom_site_label
_atom_site_fract_x
_atom_site_fract_y
_atom_site_fract_z
Si Si1 0.303599 0.293743 0.596604
Si Si2 0.807294 0.930786 0.314417
Si Si3 0.191443 0.196816 0.743240
Si Si4 0.305648 0.431773 0.645009
Si Si5 0.317337 0.570758 0.000000
Si Si6 0.682861 0.073721 0.500000
Si Si7 0.309750 0.263327 0.900667
Si Si8 0.189689 0.386449 0.176716
O O1 0.252754 0.273332 0.500000
O O2 0.500000 0.296117 0.598149
O O3 0.255008 0.247112 0.673415
O O4 0.245662 0.365247 0.609349
O O5 0.735542 0.871541 0.267234
O O6 0.779701 0.912848 0.413907
O O7 0.000000 0.934717 0.296759
O O8 0.739416 0.000000 0.299879
O O9 0.217420 0.214473 0.842635
O O10 0.000000 0.193911 0.725698
O O11 0.500000 0.432537 0.630106
O O12 0.244254 0.500000 0.616182
O O13 0.267917 0.424935 0.746509
O O14 0.214124 0.583116 0.084589
O O15 0.348433 0.500000 0.000000
O O16 0.500000 0.602499 0.000000
O O17 0.500000 0.100750 0.500000
O O18 0.666131 0.000000 0.500000
O O19 0.500000 0.248676 0.903553
O O20 0.283969 0.323486 0.841779
O O21 0.253074 0.272444 0.000000
O O22 0.000000 0.375040 0.195638
#
# Coordination Sequence:
#
# PCOD9387823 Si02
#       8
#     8   8   8   8   4   4   8   8
#     4  10  22  39  59  84 116 157 201 246 295 349
#     4   9  19  36  56  81 118 162 200 236 288 350
#     4  11  23  38  61  90 119 154 195 244 293 346
#     4  10  21  38  59  80 109 152 198 243 293 351
#     4  11  23  37  53  75 107 147 186 225 282 353
#     4   9  17  29  49  81 117 153 196 241 280 327
#     4  11  23  40  63  86 114 151 190 236 294 361
#     4  12  23  35  55  82 111 144 184 236 293 349
#
# _framework density 20.201340999999999
#
# number of rings (size 3 to 8) (size 9 to 14) (size 15 to 20)
#    0.000    1.571    2.143    3.000    1.000    6.000 
#    0.000    1.429    0.000    0.429    0.000    5.000 
#    0.000    0.000    0.000    0.000    0.000    0.000 
#
# Total GULP energy -311998.546444 kJ/mol
# GULP energy per Si atom -5571.402615 kJ/mol
# Density = 2.015536 g / cm^3
# Si number density = 20.201341 Si / 1000 Ang^3
#
#
#
# Elastic Constant Matrix: (Units=GPa)
#
#
# Indices 1 2 3 4 5 6 
#
# 1 23.4812 9.9068 4.2756 0.0000 0.0000 0.0000
# 2 9.9068 112.9594 37.5731 0.0000 0.0000 0.0000
# 3 4.2756 37.5731 67.2555 0.0000 0.0000 0.0000
# 4 0.0000 0.0000 0.0000 21.7222 0.0000 0.0000
# 5 0.0000 0.0000 0.0000 0.0000 18.0901 0.0000
# 6 0.0000 0.0000 0.0000 0.0000 0.0000 15.8120
#
#
#
# Elastic Compliance Matrix: (Units=1/GPa)
#
#
# Indices 1 2 3 4 5 6 
#
# 1 0.044258 -0.003618 -0.000792 0.000000 0.000000 0.000000
# 2 -0.003618 0.011169 -0.006010 0.000000 0.000000 0.000000
# 3 -0.000792 -0.006010 0.018276 0.000000 0.000000 0.000000
# 4 0.000000 0.000000 0.000000 0.046036 0.000000 0.000000
# 5 0.000000 0.000000 0.000000 0.000000 0.055279 0.000000
# 6 0.000000 0.000000 0.000000 0.000000 0.000000 0.063243
#
#
# Mechanical properties :
#
#
# Convention : Reuss Voigt Hill
#
# Bulk Modulus (GPa) = 18.91667 34.13412 26.52539
# Shear Modulus (GPa) = 18.06866 21.25426 19.66146
#
# Velocity S-wave (km/s) = 2.99395 3.24716 3.12312
# Velocity P-wave (km/s) = 4.61909 5.56708 5.11509
#
# Compressibility (1/GPa) = 0.05286343
#
# Stress axis : x y z
#
# Youngs Moduli (GPa) = 22.59476 89.53332 54.71527
#
# Poissons Ratio (x) = 0.32393 0.04335
# Poissons Ratio (y) = 0.08175 0.32882
# Poissons Ratio (z) = 0.01790 0.53807
#
# Static dielectric constant tensor:
#      x y z
#    x 1.733470 0.000000 0.000000 
#    y 0.000000 1.818560 0.000000 
#    z 0.000000 0.000000 1.736310 
# 
# From -- ./inp_files/21615.got.cif
#   From: 2010.05.17/outbox.cif.g08.bks.cpg/sg47_11_cif.got.tgz:21615.got - 2010.06.03 20:15:42.
