data_PCOD9387628
_publ_section_title
;
Structure prediction by ZEFSAII (Michael W. Deem and Ramdas Pophale) SiO2 
 PCOD9387628
Probable space group: P M M M
;
_chemical_formula_sum "Si O2"
_cell_formula_units_Z 48
_cell_length_a 33.973538
_cell_length_b 7.813473
_cell_length_c 9.610463
_cell_angle_alpha 90.000000
_cell_angle_beta 90.000000
_cell_angle_gamma 90.000000
_cell_volume 2551.110107
_symmetry_space_group_name_H-M "P M M M"
_symmetry_group_IT_number 47
_symmetry_cell_setting 'orthorhombic'
loop_
_space_group_symop_operation_xyz
x,y,z
-x,-y,z
x,-y,-z
-x,y,-z
-x,-y,-z
x,y,-z
-x,y,z
x,-y,z
loop_
_atom_site_type_symbol
_atom_site_label
_atom_site_fract_x
_atom_site_fract_y
_atom_site_fract_z
Si Si1 0.764737 0.790066 0.159691
Si Si2 0.602152 0.803615 0.669478
Si Si3 0.074498 0.296488 0.342236
Si Si4 0.454751 0.500000 0.669930
Si Si5 0.000000 0.796950 0.843738
Si Si6 0.690307 0.208675 0.659683
Si Si7 0.161970 0.204623 0.341763
O O1 0.725677 0.735206 0.242068
O O2 0.803647 0.731500 0.241728
O O3 0.764799 0.000000 0.160042
O O4 0.764701 0.734945 0.000000
O O5 0.602269 0.806845 0.500000
O O6 0.569287 0.668755 0.714034
O O7 0.646330 0.744957 0.708080
O O8 0.595578 0.000000 0.715451
O O9 0.068486 0.227154 0.500000
O O10 0.075589 0.500000 0.351698
O O11 0.117554 0.238442 0.292685
O O12 0.038831 0.250782 0.242180
O O13 0.500000 0.500000 0.715469
O O14 0.454816 0.500000 0.500000
O O15 0.000000 0.000000 0.855071
O O16 0.000000 0.723004 0.000000
O O17 0.696224 0.265878 0.500000
O O18 0.690564 0.000000 0.656784
O O19 0.165486 0.272770 0.500000
O O20 0.166750 0.000000 0.349620
#
# Coordination Sequence:
#
# PCOD9387628 Si02
#       7
#     8   8   8   4   4   8   8
#     4   9  16  25  41  68  97 122 155 200 242 282
#     4   8  14  24  38  57  83 117 156 195 238 291
#     4  10  21  37  57  79 103 132 167 206 247 294
#     4   9  16  24  36  58  89 121 153 193 243 296
#     4  11  24  39  56  80 106 131 164 205 248 298
#     4   8  13  23  40  60  84 118 157 194 234 283
#     4   9  17  30  49  72  98 130 165 199 239 289
#
# _framework density 18.815339000000002
#
# number of rings (size 3 to 8) (size 9 to 14) (size 15 to 20)
#    0.000    3.000    0.000    2.500    0.000    5.667 
#    0.000    3.333    1.833    0.000    0.000    0.000 
#    0.000    1.333    0.000    6.500    0.000    6.667 
#
# Total GULP energy -267611.248575 kJ/mol
# GULP energy per Si atom -5575.234345 kJ/mol
# Density = 1.877251 g / cm^3
# Si number density = 18.815339 Si / 1000 Ang^3
#
#
#
# Elastic Constant Matrix: (Units=GPa)
#
#
# Indices 1 2 3 4 5 6 
#
# 1 216.8161 42.3490 94.5312 0.0000 0.0000 0.0000
# 2 42.3490 45.9634 20.1618 0.0000 0.0000 0.0000
# 3 94.5312 20.1618 75.6652 0.0000 0.0000 0.0000
# 4 0.0000 0.0000 0.0000 5.3108 0.0000 0.0000
# 5 0.0000 0.0000 0.0000 0.0000 -3.7323 0.0000
# 6 0.0000 0.0000 0.0000 0.0000 0.0000 119.7099
#
#
#
# Elastic Compliance Matrix: (Units=1/GPa)
#
#
# Indices 1 2 3 4 5 6 
#
# 1 0.010934 -0.004622 -0.012428 0.000000 0.000000 0.000000
# 2 -0.004622 0.026590 -0.001310 0.000000 0.000000 0.000000
# 3 -0.012428 -0.001310 0.029092 0.000000 0.000000 0.000000
# 4 0.000000 0.000000 0.000000 0.188297 0.000000 0.000000
# 5 0.000000 0.000000 0.000000 0.000000 -0.267932 0.000000
# 6 0.000000 0.000000 0.000000 0.000000 0.000000 0.008354
#
#
# Mechanical properties :
#
#
# Convention : Reuss Voigt Hill
#
# Bulk Modulus (GPa) = 33.45132 72.50320 52.97726
# Shear Modulus (GPa) = 118.98726 36.35118 77.66922
#
# Velocity S-wave (km/s) = 7.96095 4.40022 6.43190
# Velocity P-wave (km/s) = 10.11532 8.02706 9.13108
#
# Compressibility (1/GPa) = 0.02989419
#
# Stress axis : x y z
#
# Youngs Moduli (GPa) = 91.46045 37.60804 34.37341
#
# Poissons Ratio (x) = 0.17383 0.42720
# Poissons Ratio (y) = 0.42275 0.04504
# Poissons Ratio (z) = 1.13669 0.04928
#
# Static dielectric constant tensor:
#      x y z
#    x 1.847720 0.000000 0.000000 
#    y 0.000000 1.676680 0.000000 
#    z 0.000000 0.000000 1.646620 
# 
# From -- ./inp_files/13917.got.cif
#   From: 2010.05.17/outbox.cif.g08.bks.cpg/sg47_7_cif.got.tgz:13917.got - 2010.06.03 20:15:42.
