data_PCOD9387005
_publ_section_title
;
Structure prediction by ZEFSAII (Michael W. Deem and Ramdas Pophale) SiO2 
 PCOD9387005
Probable space group: P M M M
;
_chemical_formula_sum "Si O2"
_cell_formula_units_Z 44
_cell_length_a 7.685799
_cell_length_b 29.042062
_cell_length_c 10.047377
_cell_angle_alpha 90.000000
_cell_angle_beta 90.000000
_cell_angle_gamma 90.000000
_cell_volume 2242.689600
_symmetry_space_group_name_H-M "P M M M"
_symmetry_group_IT_number 47
_symmetry_cell_setting 'orthorhombic'
loop_
_space_group_symop_operation_xyz
x,y,z
-x,-y,z
x,-y,-z
-x,y,-z
-x,-y,-z
x,y,-z
-x,y,z
x,-y,z
loop_
_atom_site_type_symbol
_atom_site_label
_atom_site_fract_x
_atom_site_fract_y
_atom_site_fract_z
Si Si1 0.706905 0.264584 0.150599
Si Si2 0.287812 0.081497 0.347604
Si Si3 0.287296 0.813643 0.651689
Si Si4 0.793782 0.366526 0.150309
Si Si5 0.709151 0.551519 0.349125
Si Si6 0.286898 0.000000 0.153761
O O1 0.500000 0.257154 0.141915
O O2 0.776456 0.225032 0.246888
O O3 0.731828 0.316694 0.200653
O O4 0.778475 0.262365 0.000000
O O5 0.234254 0.070413 0.500000
O O6 0.500000 0.080723 0.348246
O O7 0.234540 0.133931 0.316513
O O8 0.230956 0.044605 0.238541
O O9 0.234669 0.803631 0.500000
O O10 0.500000 0.813301 0.653448
O O11 0.753831 0.408738 0.246337
O O12 0.000000 0.363392 0.140582
O O13 0.722139 0.373303 0.000000
O O14 0.771167 0.561139 0.500000
O O15 0.500000 0.549717 0.354339
O O16 0.770574 0.500000 0.311087
O O17 0.500000 0.000000 0.152284
O O18 0.230374 0.000000 0.000000
#
# Coordination Sequence:
#
# PCOD9387005 Si02
#       6
#     8   8   8   8   8   4
#     4   9  17  29  45  64  86 114 149 189 231 271
#     4   8  13  21  31  43  64  96 132 169 211 260
#     4   8  14  24  38  56  76 101 138 182 224 267
#     4  10  21  35  50  71 100 131 161 193 231 278
#     4   9  19  36  56  77 100 126 158 196 236 277
#     4   9  15  19  25  41  65  95 132 171 210 255
#
# _framework density 19.619299999999999
#
# number of rings (size 3 to 8) (size 9 to 14) (size 15 to 20)
#    0.000    3.182    0.000    2.455    0.000    4.727 
#    0.000    8.182    0.000    0.000    0.000    0.000 
#    0.000    0.000    0.000    0.818    0.000   17.455 
#
# Total GULP energy -245296.209697 kJ/mol
# GULP energy per Si atom -5574.913857 kJ/mol
# Density = 1.957465 g / cm^3
# Si number density = 19.619300 Si / 1000 Ang^3
#
#
#
# Elastic Constant Matrix: (Units=GPa)
#
#
# Indices 1 2 3 4 5 6 
#
# 1 32.4751 2.0796 4.8467 0.0000 0.0000 0.0000
# 2 2.0796 193.0222 138.3958 0.0000 0.0000 0.0000
# 3 4.8467 138.3958 135.4361 0.0000 0.0000 0.0000
# 4 0.0000 0.0000 0.0000 56.1573 0.0000 0.0000
# 5 0.0000 0.0000 0.0000 0.0000 53.4352 0.0000
# 6 0.0000 0.0000 0.0000 0.0000 0.0000 -39.9984
#
#
#
# Elastic Compliance Matrix: (Units=1/GPa)
#
#
# Indices 1 2 3 4 5 6 
#
# 1 0.031112 0.001732 -0.002883 0.000000 0.000000 0.000000
# 2 0.001732 0.019476 -0.019963 0.000000 0.000000 0.000000
# 3 -0.002883 -0.019963 0.027886 0.000000 0.000000 0.000000
# 4 0.000000 0.000000 0.000000 0.017807 0.000000 0.000000
# 5 0.000000 0.000000 0.000000 0.000000 0.018714 0.000000
# 6 0.000000 0.000000 0.000000 0.000000 0.000000 -0.025001
#
#
# Mechanical properties :
#
#
# Convention : Reuss Voigt Hill
#
# Bulk Modulus (GPa) = 27.58991 72.39753 49.99372
# Shear Modulus (GPa) = 34.64888 28.29290 31.47089
#
# Velocity S-wave (km/s) = 4.20701 3.80161 4.00944
# Velocity P-wave (km/s) = 6.13936 7.50006 6.85357
#
# Compressibility (1/GPa) = 0.03624513
#
# Stress axis : x y z
#
# Youngs Moduli (GPa) = 32.14172 51.34642 35.86009
#
# Poissons Ratio (x) = -0.08894 0.10340
# Poissons Ratio (y) = -0.05568 0.71588
# Poissons Ratio (z) = 0.09268 1.02504
#
# Static dielectric constant tensor:
#      x y z
#    x 1.719330 0.000000 0.000000 
#    y 0.000000 1.675080 0.000000 
#    z 0.000000 0.000000 1.685910 
# 
# From -- ./inp_files/2166.got.cif
#   From: 2010.05.17/outbox.cif.g08.bks.cpg/sg47_2_cif.got.tgz:2166.got - 2010.06.03 20:15:42.
