data_PCOD9387316
_publ_section_title
;
Structure prediction by ZEFSAII (Michael W. Deem and Ramdas Pophale) SiO2 
 PCOD9387316
Probable space group: P M M M
;
_chemical_formula_sum "Si O2"
_cell_formula_units_Z 52
_cell_length_a 8.642921
_cell_length_b 22.014306
_cell_length_c 14.156438
_cell_angle_alpha 90.000000
_cell_angle_beta 90.000000
_cell_angle_gamma 90.000000
_cell_volume 2693.515838
_symmetry_space_group_name_H-M "P M M M"
_symmetry_group_IT_number 47
_symmetry_cell_setting 'orthorhombic'
loop_
_space_group_symop_operation_xyz
x,y,z
-x,-y,z
x,-y,-z
-x,y,-z
-x,-y,-z
x,y,-z
-x,y,z
x,-y,z
loop_
_atom_site_type_symbol
_atom_site_label
_atom_site_fract_x
_atom_site_fract_y
_atom_site_fract_z
Si Si1 0.688504 0.000000 0.609021
Si Si2 0.313476 0.432779 0.205993
Si Si3 0.312863 0.691177 0.107056
Si Si4 0.186941 0.624671 0.607257
Si Si5 0.815633 0.749296 0.706488
Si Si6 0.814777 0.071316 0.108584
Si Si7 0.683487 0.123069 0.708419
O O1 0.742974 0.062052 0.657439
O O2 0.500000 0.000000 0.616169
O O3 0.730603 0.000000 0.500000
O O4 0.500000 0.432230 0.206907
O O5 0.261720 0.500000 0.176327
O O6 0.264706 0.377137 0.138680
O O7 0.254939 0.418117 0.311482
O O8 0.500000 0.693817 0.109252
O O9 0.249160 0.734406 0.189127
O O10 0.262282 0.704596 0.000000
O O11 0.236944 0.611817 0.500000
O O12 0.230692 0.693240 0.638990
O O13 0.000000 0.620576 0.610245
O O14 0.755752 0.814369 0.673532
O O15 0.000000 0.750271 0.711177
O O16 0.726837 0.112718 0.182433
O O17 0.000000 0.077359 0.121219
O O18 0.775692 0.000000 0.124228
O O19 0.778401 0.085674 0.000000
O O20 0.500000 0.126297 0.696719
#
# Coordination Sequence:
#
# PCOD9387316 Si02
#       7
#     4   8   8   8   8   8   8
#     4   9  20  38  56  77 106 136 167 207 258 315
#     4   9  18  32  51  79 112 141 172 213 260 309
#     4   9  18  34  55  78 106 141 180 218 254 300
#     4   9  19  36  55  74 100 136 177 220 264 310
#     4  10  21  36  54  76 103 136 173 218 266 311
#     4   9  18  33  53  76 103 134 165 201 249 303
#     4  11  21  35  56  80 105 136 172 213 260 311
#
# _framework density 19.305622
#
# number of rings (size 3 to 8) (size 9 to 14) (size 15 to 20)
#    0.000    2.538    0.769    1.385    0.000    3.692 
#    0.000    3.846    0.000    3.231    0.000    4.308 
#    0.000    0.000    0.000    0.000    0.000    0.000 
#
# Total GULP energy -290137.447024 kJ/mol
# GULP energy per Si atom -5579.566289 kJ/mol
# Density = 1.926168 g / cm^3
# Si number density = 19.305622 Si / 1000 Ang^3
#
#
#
# Elastic Constant Matrix: (Units=GPa)
#
#
# Indices 1 2 3 4 5 6 
#
# 1 6.8360 9.1667 0.7670 0.0000 0.0000 0.0000
# 2 9.1667 82.0335 -8.3876 0.0000 0.0000 0.0000
# 3 0.7670 -8.3876 40.3001 0.0000 0.0000 0.0000
# 4 0.0000 0.0000 0.0000 5.7349 0.0000 0.0000
# 5 0.0000 0.0000 0.0000 0.0000 10.9524 0.0000
# 6 0.0000 0.0000 0.0000 0.0000 0.0000 23.4784
#
#
#
# Elastic Compliance Matrix: (Units=1/GPa)
#
#
# Indices 1 2 3 4 5 6 
#
# 1 0.174276 -0.020244 -0.007530 0.000000 0.000000 0.000000
# 2 -0.020244 0.014807 0.003467 0.000000 0.000000 0.000000
# 3 -0.007530 0.003467 0.025679 0.000000 0.000000 0.000000
# 4 0.000000 0.000000 0.000000 0.174371 0.000000 0.000000
# 5 0.000000 0.000000 0.000000 0.000000 0.091304 0.000000
# 6 0.000000 0.000000 0.000000 0.000000 0.000000 0.042592
#
#
# Mechanical properties :
#
#
# Convention : Reuss Voigt Hill
#
# Bulk Modulus (GPa) = 6.01875 14.69572 10.35723
# Shear Modulus (GPa) = 7.97414 16.54138 12.25776
#
# Velocity S-wave (km/s) = 2.03456 2.93032 2.52252
# Velocity P-wave (km/s) = 2.94001 4.36780 3.72299
#
# Compressibility (1/GPa) = 0.16614758
#
# Stress axis : x y z
#
# Youngs Moduli (GPa) = 5.73801 67.53663 38.94270
#
# Poissons Ratio (x) = 1.36722 0.29324
# Poissons Ratio (y) = 0.11616 -0.13501
# Poissons Ratio (z) = 0.04321 -0.23415
#
# Static dielectric constant tensor:
#      x y z
#    x 1.653600 0.000000 0.000000 
#    y 0.000000 1.693710 0.000000 
#    z 0.000000 0.000000 1.655960 
# 
# From -- ./inp_files/21434.got.cif
#   From: 2010.05.17/outbox.cif.g08.bks.cpg/sg47_11_cif.got.tgz:21434.got - 2010.06.03 20:15:42.
