data_PCOD9387351
_publ_section_title
;
Structure prediction by ZEFSAII (Michael W. Deem and Ramdas Pophale) SiO2 
 PCOD9387351
Probable space group: P M M M
;
_chemical_formula_sum "Si O2"
_cell_formula_units_Z 36
_cell_length_a 9.192786
_cell_length_b 20.482968
_cell_length_c 10.670826
_cell_angle_alpha 90.000000
_cell_angle_beta 90.000000
_cell_angle_gamma 90.000000
_cell_volume 2009.268960
_symmetry_space_group_name_H-M "P M M M"
_symmetry_group_IT_number 47
_symmetry_cell_setting 'orthorhombic'
loop_
_space_group_symop_operation_xyz
x,y,z
-x,-y,z
x,-y,-z
-x,y,-z
-x,-y,-z
x,y,-z
-x,y,z
x,-y,z
loop_
_atom_site_type_symbol
_atom_site_label
_atom_site_fract_x
_atom_site_fract_y
_atom_site_fract_z
Si Si1 0.668552 0.927948 0.151840
Si Si2 0.826777 0.305083 0.361571
Si Si3 0.835926 0.421263 0.000000
Si Si4 0.175071 0.794762 0.855046
Si Si5 0.326427 0.423764 0.256807
O O1 0.500000 0.919633 0.189723
O O2 0.762650 0.865127 0.185083
O O3 0.718807 0.000000 0.194844
O O4 0.670341 0.929673 0.000000
O O5 0.803614 0.275731 0.500000
O O6 0.779356 0.258755 0.247181
O O7 0.742610 0.373214 0.352521
O O8 0.000000 0.316943 0.347452
O O9 0.747401 0.405169 0.875700
O O10 0.847855 0.500000 0.000000
O O11 0.000000 0.393432 0.000000
O O12 0.000000 0.797223 0.854837
O O13 0.220789 0.780806 0.000000
O O14 0.500000 0.417706 0.249696
O O15 0.292662 0.500000 0.282884
#
# Coordination Sequence:
#
# PCOD9387351 Si02
#       5
#     8   8   4   8   8
#     4   8  14  26  46  74 106 135 164 203 252 305
#     4  10  22  38  54  74 103 140 179 220 268 321
#     4   9  17  31  53  79 105 133 164 203 256 313
#     4   9  18  32  51  76 103 132 170 216 260 305
#     4  10  21  36  54  78 106 134 171 220 271 320
#
# _framework density 17.916964
#
# number of rings (size 3 to 8) (size 9 to 14) (size 15 to 20)
#    0.000    2.778    0.000    1.667    1.556    4.889 
#    0.000    4.444    0.000    0.667    0.000    4.667 
#    0.000    0.000    0.000    0.000    0.000    0.000 
#
# Total GULP energy -200588.349258 kJ/mol
# GULP energy per Si atom -5571.898591 kJ/mol
# Density = 1.787618 g / cm^3
# Si number density = 17.916964 Si / 1000 Ang^3
#
#
#
# Elastic Constant Matrix: (Units=GPa)
#
#
# Indices 1 2 3 4 5 6 
#
# 1 32.3136 41.6726 30.1265 0.0000 0.0000 0.0000
# 2 41.6726 114.8486 59.1872 0.0000 0.0000 0.0000
# 3 30.1265 59.1872 85.0418 0.0000 0.0000 0.0000
# 4 0.0000 0.0000 0.0000 6.1118 0.0000 0.0000
# 5 0.0000 0.0000 0.0000 0.0000 10.4235 0.0000
# 6 0.0000 0.0000 0.0000 0.0000 0.0000 29.6951
#
#
#
# Elastic Compliance Matrix: (Units=1/GPa)
#
#
# Indices 1 2 3 4 5 6 
#
# 1 0.063208 -0.017768 -0.010025 0.000000 0.000000 0.000000
# 2 -0.017768 0.018572 -0.006631 0.000000 0.000000 0.000000
# 3 -0.010025 -0.006631 0.019925 0.000000 0.000000 0.000000
# 4 0.000000 0.000000 0.000000 0.163619 0.000000 0.000000
# 5 0.000000 0.000000 0.000000 0.000000 0.095937 0.000000
# 6 0.000000 0.000000 0.000000 0.000000 0.000000 0.033676
#
#
# Mechanical properties :
#
#
# Convention : Reuss Voigt Hill
#
# Bulk Modulus (GPa) = 30.43597 54.90850 42.67224
# Shear Modulus (GPa) = 10.53214 15.99392 13.26303
#
# Velocity S-wave (km/s) = 2.42715 2.99100 2.72370
# Velocity P-wave (km/s) = 4.98787 6.52999 5.81032
#
# Compressibility (1/GPa) = 0.03285586
#
# Stress axis : x y z
#
# Youngs Moduli (GPa) = 15.82074 53.84578 50.18719
#
# Poissons Ratio (x) = 0.95675 0.50315
# Poissons Ratio (y) = 0.28111 0.33278
# Poissons Ratio (z) = 0.15861 0.35704
#
# Static dielectric constant tensor:
#      x y z
#    x 1.597300 0.000000 0.000000 
#    y 0.000000 1.627710 0.000000 
#    z 0.000000 0.000000 1.622790 
# 
# From -- ./inp_files/15003.got.cif
#   From: 2010.05.17/outbox.cif.g08.bks.cpg/sg47_8_cif.got.tgz:15003.got - 2010.06.03 20:15:42.
