data_PCOD9387024
_publ_section_title
;
Structure prediction by ZEFSAII (Michael W. Deem and Ramdas Pophale) SiO2 
 PCOD9387024
Probable space group: P M M M
;
_chemical_formula_sum "Si O2"
_cell_formula_units_Z 48
_cell_length_a 31.322825
_cell_length_b 10.244969
_cell_length_c 8.499004
_cell_angle_alpha 90.000000
_cell_angle_beta 90.000000
_cell_angle_gamma 90.000000
_cell_volume 2727.342037
_symmetry_space_group_name_H-M "P M M M"
_symmetry_group_IT_number 47
_symmetry_cell_setting 'orthorhombic'
loop_
_space_group_symop_operation_xyz
x,y,z
-x,-y,z
x,-y,-z
-x,y,-z
-x,-y,-z
x,y,-z
-x,y,z
x,-y,z
loop_
_atom_site_type_symbol
_atom_site_label
_atom_site_fract_x
_atom_site_fract_y
_atom_site_fract_z
Si Si1 0.215258 0.149499 0.191902
Si Si2 0.048516 0.649376 0.689746
Si Si3 0.451115 0.149611 0.189940
Si Si4 0.287409 0.649948 0.809797
Si Si5 0.881790 0.850509 0.189773
Si Si6 0.618832 0.350104 0.311851
O O1 0.250718 0.251721 0.246123
O O2 0.166752 0.182214 0.240385
O O3 0.224443 0.000000 0.239504
O O4 0.215600 0.151114 0.000000
O O5 0.048897 0.650851 0.500000
O O6 0.057491 0.500000 0.740127
O O7 0.083345 0.750030 0.749972
O O8 0.000000 0.682175 0.740438
O O9 0.500000 0.178900 0.238348
O O10 0.417429 0.252205 0.254303
O O11 0.441458 0.000000 0.238112
O O12 0.449913 0.153087 0.000000
O O13 0.279432 0.500000 0.759658
O O14 0.334477 0.687792 0.751961
O O15 0.287559 0.652027 0.000000
O O16 0.890705 0.000000 0.239720
O O17 0.882197 0.848691 0.000000
O O18 0.620083 0.349248 0.500000
O O19 0.610622 0.500000 0.259024
#
# Coordination Sequence:
#
# PCOD9387024 Si02
#       6
#     8   8   8   8   8   8
#     4   8  15  29  48  70  96 124 155 195 242 288
#     4   9  19  35  51  68  94 128 165 203 242 287
#     4   9  19  36  56  77 100 127 163 206 248 291
#     4   9  17  30  49  71  94 124 164 204 239 280
#     4   9  18  32  50  74 102 128 157 197 244 293
#     4  10  21  35  50  72 104 137 166 199 242 291
#
# _framework density 17.599551999999999
#
# number of rings (size 3 to 8) (size 9 to 14) (size 15 to 20)
#    0.000    3.000    0.000    2.500    0.000    4.667 
#    0.000    9.167    0.000    3.000    0.000    0.000 
#    0.000    0.000    0.000    0.000    0.000    0.000 
#
# Total GULP energy -267560.121134 kJ/mol
# GULP energy per Si atom -5574.169190 kJ/mol
# Density = 1.755949 g / cm^3
# Si number density = 17.599552 Si / 1000 Ang^3
#
#
#
# Elastic Constant Matrix: (Units=GPa)
#
#
# Indices 1 2 3 4 5 6 
#
# 1 183.7691 142.1054 26.0019 0.0000 0.0000 0.0000
# 2 142.1054 133.8675 23.1885 0.0000 0.0000 0.0000
# 3 26.0019 23.1885 7.1128 0.0000 0.0000 0.0000
# 4 0.0000 0.0000 0.0000 21.5273 0.0000 0.0000
# 5 0.0000 0.0000 0.0000 0.0000 -207.5080 0.0000
# 6 0.0000 0.0000 0.0000 0.0000 0.0000 44.3160
#
#
#
# Elastic Compliance Matrix: (Units=1/GPa)
#
#
# Indices 1 2 3 4 5 6 
#
# 1 0.030962 -0.030465 -0.013865 0.000000 0.000000 0.000000
# 2 -0.030465 0.047138 -0.042306 0.000000 0.000000 0.000000
# 3 -0.013865 -0.042306 0.329201 0.000000 0.000000 0.000000
# 4 0.000000 0.000000 0.000000 0.046453 0.000000 0.000000
# 5 0.000000 0.000000 0.000000 0.000000 -0.004819 0.000000
# 6 0.000000 0.000000 0.000000 0.000000 0.000000 0.022565
#
#
# Mechanical properties :
#
#
# Convention : Reuss Voigt Hill
#
# Bulk Modulus (GPa) = 4.27298 78.59344 41.43321
# Shear Modulus (GPa) = 6.91772 -19.43603 -6.25915
#
# Velocity S-wave (km/s) = 1.98473 -3.32678 -1.88790
# Velocity P-wave (km/s) = 2.77225 5.47694 4.34063
#
# Compressibility (1/GPa) = 0.23402847
#
# Stress axis : x y z
#
# Youngs Moduli (GPa) = 32.29803 21.21412 3.03766
#
# Poissons Ratio (x) = 0.64629 0.04212
# Poissons Ratio (y) = 0.98397 0.12851
# Poissons Ratio (z) = 0.44780 0.89749
#
# Static dielectric constant tensor:
#      x y z
#    x 1.577660 0.000000 0.000000 
#    y 0.000000 1.592200 0.000000 
#    z 0.000000 0.000000 1.603140 
# 
# From -- ./inp_files/2473.got.cif
#   From: 2010.05.17/outbox.cif.g08.bks.cpg/sg47_2_cif.got.tgz:2473.got - 2010.06.03 20:15:42.
