data_PCOD9387308
_publ_section_title
;
Structure prediction by ZEFSAII (Michael W. Deem and Ramdas Pophale) SiO2 
 PCOD9387308
Probable space group: P M M M
;
_chemical_formula_sum "Si O2"
_cell_formula_units_Z 64
_cell_length_a 18.416273
_cell_length_b 7.471141
_cell_length_c 21.066298
_cell_angle_alpha 90.000000
_cell_angle_beta 90.000000
_cell_angle_gamma 90.000000
_cell_volume 2898.523998
_symmetry_space_group_name_H-M "P M M M"
_symmetry_group_IT_number 47
_symmetry_cell_setting 'orthorhombic'
loop_
_space_group_symop_operation_xyz
x,y,z
-x,-y,z
x,-y,-z
-x,y,-z
-x,-y,-z
x,y,-z
-x,y,z
x,-y,z
loop_
_atom_site_type_symbol
_atom_site_label
_atom_site_fract_x
_atom_site_fract_y
_atom_site_fract_z
Si Si1 0.709200 0.208369 0.791882
Si Si2 0.209810 0.784497 0.428008
Si Si3 0.921571 0.781633 0.658463
Si Si4 0.891367 0.792132 0.068173
Si Si5 0.124567 0.780250 0.796199
Si Si6 0.720156 0.284798 0.931119
Si Si7 0.421427 0.207881 0.290638
Si Si8 0.378005 0.705867 0.570739
O O1 0.791363 0.281511 0.789976
O O2 0.685108 0.221448 0.865501
O O3 0.648779 0.286793 0.744975
O O4 0.718062 0.000000 0.774102
O O5 0.186728 0.744765 0.500000
O O6 0.148865 0.719844 0.379713
O O7 0.290903 0.712763 0.419868
O O8 0.216101 0.000000 0.421573
O O9 0.914932 0.730055 0.731891
O O10 0.000000 0.725454 0.632634
O O11 0.919766 0.000000 0.656207
O O12 0.909791 0.717067 0.137361
O O13 0.803194 0.784723 0.069267
O O14 0.913546 0.000000 0.067181
O O15 0.913588 0.712654 0.000000
O O16 0.124878 0.000000 0.799729
O O17 0.723068 0.500000 0.929056
O O18 0.688557 0.232158 0.000000
O O19 0.500000 0.288043 0.274830
O O20 0.411516 0.210704 0.366505
O O21 0.423496 0.000000 0.270890
O O22 0.392982 0.781878 0.500000
O O23 0.401467 0.500000 0.569882
#
# Coordination Sequence:
#
# PCOD9387308 Si02
#       8
#     8   8   8   8   8   8   8   8
#     4   9  17  30  48  68  92 124 160 196 236 285
#     4   9  17  30  49  71  94 121 155 196 238 280
#     4   9  16  25  40  65  95 123 152 191 239 287
#     4   8  13  22  37  57  82 113 149 189 234 282
#     4   8  13  22  38  59  83 114 149 183 223 273
#     4   9  16  25  40  66  96 120 149 195 244 285
#     4  10  21  36  54  76 101 129 162 200 240 283
#     4  10  21  36  54  76 101 129 161 197 239 289
#
# _framework density 22.080202
#
# number of rings (size 3 to 8) (size 9 to 14) (size 15 to 20)
#    0.000    3.000    0.000    2.250    0.000    4.750 
#    0.000    2.500    0.000    1.125    0.000    7.000 
#    0.000    0.000    0.000   31.500    0.000   29.000 
#
# Total GULP energy -356895.592379 kJ/mol
# GULP energy per Si atom -5576.493631 kJ/mol
# Density = 2.202995 g / cm^3
# Si number density = 22.080202 Si / 1000 Ang^3
#
#
#
# Elastic Constant Matrix: (Units=GPa)
#
#
# Indices 1 2 3 4 5 6 
#
# 1 77.6840 3.0056 39.1682 0.0000 0.0000 0.0000
# 2 3.0056 62.4920 -3.6136 0.0000 0.0000 0.0000
# 3 39.1682 -3.6136 89.8055 0.0000 0.0000 0.0000
# 4 0.0000 0.0000 0.0000-1635.4989 0.0000 0.0000
# 5 0.0000 0.0000 0.0000 0.0000 -77.4227 0.0000
# 6 0.0000 0.0000 0.0000 0.0000 0.0000 80.4524
#
#
#
# Elastic Compliance Matrix: (Units=1/GPa)
#
#
# Indices 1 2 3 4 5 6 
#
# 1 0.016594 -0.001219 -0.007286 0.000000 0.000000 0.000000
# 2 -0.001219 0.016129 0.001181 0.000000 0.000000 0.000000
# 3 -0.007286 0.001181 0.014361 0.000000 0.000000 0.000000
# 4 0.000000 0.000000 0.000000 -0.000611 0.000000 0.000000
# 5 0.000000 0.000000 0.000000 0.000000 -0.012916 0.000000
# 6 0.000000 0.000000 0.000000 0.000000 0.000000 0.012430
#
#
# Mechanical properties :
#
#
# Convention : Reuss Voigt Hill
#
# Bulk Modulus (GPa) = 30.83239 34.12244 32.47742
# Shear Modulus (GPa) = 69.98283 -313.73242 -121.87480
#
# Velocity S-wave (km/s) = 5.63592 -11.93298 -7.43749
# Velocity P-wave (km/s) = 7.50637 13.20508 7.68207
#
# Compressibility (1/GPa) = 0.03243342
#
# Stress axis : x y z
#
# Youngs Moduli (GPa) = 60.26432 62.00021 69.63516
#
# Poissons Ratio (x) = 0.07560 0.50738
# Poissons Ratio (y) = 0.07349 -0.08223
# Poissons Ratio (z) = 0.43910 -0.07321
#
# Static dielectric constant tensor:
#      x y z
#    x 1.800280 0.000000 0.000000 
#    y 0.000000 1.874170 0.000000 
#    z 0.000000 0.000000 1.836240 
# 
# From -- ./inp_files/28769.got.cif
#   From: 2010.05.17/outbox.cif.g08.bks.cpg/sg47_15_cif.got.tgz:28769.got - 2010.06.03 20:15:42.
