data_PCOD9387602
_publ_section_title
;
Structure prediction by ZEFSAII (Michael W. Deem and Ramdas Pophale) SiO2 
 PCOD9387602
Probable space group: P M M M
;
_chemical_formula_sum "Si O2"
_cell_formula_units_Z 48
_cell_length_a 9.389848
_cell_length_b 8.023079
_cell_length_c 33.645420
_cell_angle_alpha 90.000000
_cell_angle_beta 90.000000
_cell_angle_gamma 90.000000
_cell_volume 2534.694279
_symmetry_space_group_name_H-M "P M M M"
_symmetry_group_IT_number 47
_symmetry_cell_setting 'orthorhombic'
loop_
_space_group_symop_operation_xyz
x,y,z
-x,-y,z
x,-y,-z
-x,y,-z
-x,-y,-z
x,y,-z
-x,y,z
x,-y,z
loop_
_atom_site_type_symbol
_atom_site_label
_atom_site_fract_x
_atom_site_fract_y
_atom_site_fract_z
Si Si1 0.162917 0.198873 0.346486
Si Si2 0.339272 0.301772 0.576832
Si Si3 0.826954 0.000000 0.954593
Si Si4 0.828608 0.694958 0.898080
Si Si5 0.662443 0.297138 0.182536
Si Si6 0.836679 0.700898 0.258738
Si Si7 0.839440 0.198092 0.500000
O O1 0.261780 0.256518 0.382217
O O2 0.214030 0.251867 0.302754
O O3 0.000000 0.263433 0.351351
O O4 0.157104 0.000000 0.347587
O O5 0.500000 0.232110 0.575070
O O6 0.348698 0.500000 0.574856
O O7 0.246141 0.246563 0.539361
O O8 0.786346 0.168507 0.931011
O O9 0.000000 0.000000 0.955580
O O10 0.775826 0.000000 0.000000
O O11 0.794285 0.500000 0.907663
O O12 0.752549 0.741446 0.856793
O O13 0.000000 0.703108 0.893045
O O14 0.500000 0.238297 0.179808
O O15 0.659083 0.500000 0.184529
O O16 0.740140 0.237604 0.222548
O O17 0.839923 0.500000 0.256584
O O18 0.000000 0.761285 0.254570
O O19 0.000000 0.269178 0.500000
O O20 0.850817 0.000000 0.500000
#
# Coordination Sequence:
#
# PCOD9387602 Si02
#       7
#     8   8   4   8   8   8   4
#     4  10  21  37  56  80 110 144 182 222 267 321
#     4  11  24  40  59  84 112 143 181 223 267 318
#     4   9  18  32  51  79 109 135 173 225 273 320
#     4   9  17  31  52  76 103 138 177 218 269 325
#     4   9  17  30  50  75 103 136 175 219 264 313
#     4   9  17  31  52  76 104 140 180 221 265 315
#     4  11  24  41  62  88 114 141 176 219 268 322
#
# _framework density 18.937194000000002
#
# number of rings (size 3 to 8) (size 9 to 14) (size 15 to 20)
#    0.000    2.333    0.000    2.500    0.000    9.000 
#    1.500    3.750    0.000    1.000    0.000    2.333 
#    0.000    0.000    0.000    0.000    0.000    0.000 
#
# Total GULP energy -267858.566994 kJ/mol
# GULP energy per Si atom -5580.386812 kJ/mol
# Density = 1.889409 g / cm^3
# Si number density = 18.937194 Si / 1000 Ang^3
#
#
#
# Elastic Constant Matrix: (Units=GPa)
#
#
# Indices 1 2 3 4 5 6 
#
# 1 95.5505 33.0000 96.4003 0.0000 0.0000 0.0000
# 2 33.0000 58.4178 55.7836 0.0000 0.0000 0.0000
# 3 96.4003 55.7836 203.7253 0.0000 0.0000 0.0000
# 4 0.0000 0.0000 0.0000 46.6137 0.0000 0.0000
# 5 0.0000 0.0000 0.0000 0.0000 -11.2297 0.0000
# 6 0.0000 0.0000 0.0000 0.0000 0.0000 14.0680
#
#
#
# Elastic Compliance Matrix: (Units=1/GPa)
#
#
# Indices 1 2 3 4 5 6 
#
# 1 0.020440 -0.003129 -0.008815 0.000000 0.000000 0.000000
# 2 -0.003129 0.023657 -0.004997 0.000000 0.000000 0.000000
# 3 -0.008815 -0.004997 0.010448 0.000000 0.000000 0.000000
# 4 0.000000 0.000000 0.000000 0.021453 0.000000 0.000000
# 5 0.000000 0.000000 0.000000 0.000000 -0.089050 0.000000
# 6 0.000000 0.000000 0.000000 0.000000 0.000000 0.071083
#
#
# Mechanical properties :
#
#
# Convention : Reuss Voigt Hill
#
# Bulk Modulus (GPa) = 48.39575 80.89570 64.64573
# Shear Modulus (GPa) = 50.60620 21.39104 35.99862
#
# Velocity S-wave (km/s) = 5.17505 3.36457 4.36472
# Velocity P-wave (km/s) = 7.83069 7.60949 7.72088
#
# Compressibility (1/GPa) = 0.02066297
#
# Stress axis : x y z
#
# Youngs Moduli (GPa) = 48.92424 42.26991 95.71056
#
# Poissons Ratio (x) = 0.13225 0.84370
# Poissons Ratio (y) = 0.15307 0.47830
# Poissons Ratio (z) = 0.43127 0.21124
#
# Static dielectric constant tensor:
#      x y z
#    x 1.663630 0.000000 0.000000 
#    y 0.000000 1.666160 0.000000 
#    z 0.000000 0.000000 1.599500 
# 
# From -- ./inp_files/34135.got.cif
#   From: 2010.05.17/outbox.cif.g08.bks.cpg/sg47_18_cif.got.tgz:34135.got - 2010.06.03 20:15:42.
