data_PCOD9387171
_publ_section_title
;
Structure prediction by ZEFSAII (Michael W. Deem and Ramdas Pophale) SiO2 
 PCOD9387171
Probable space group: P M M M
;
_chemical_formula_sum "Si O2"
_cell_formula_units_Z 64
_cell_length_a 14.491468
_cell_length_b 26.919854
_cell_length_c 9.090022
_cell_angle_alpha 90.000000
_cell_angle_beta 90.000000
_cell_angle_gamma 90.000000
_cell_volume 3546.092146
_symmetry_space_group_name_H-M "P M M M"
_symmetry_group_IT_number 47
_symmetry_cell_setting 'orthorhombic'
loop_
_space_group_symop_operation_xyz
x,y,z
-x,-y,z
x,-y,-z
-x,y,-z
-x,-y,-z
x,y,-z
-x,y,z
x,-y,z
loop_
_atom_site_type_symbol
_atom_site_label
_atom_site_fract_x
_atom_site_fract_y
_atom_site_fract_z
Si Si1 0.111901 0.199737 0.666098
Si Si2 0.289036 0.647051 0.174997
Si Si3 0.388352 0.739582 0.326310
Si Si4 0.607689 0.442996 0.323225
Si Si5 0.107661 0.097635 0.824747
Si Si6 0.393286 0.149813 0.320985
Si Si7 0.893473 0.698609 0.824609
Si Si8 0.276994 0.054479 0.323102
O O1 0.148356 0.194598 0.500000
O O2 0.134758 0.151960 0.762849
O O3 0.137023 0.251796 0.739271
O O4 0.000000 0.200394 0.658863
O O5 0.342737 0.695044 0.237569
O O6 0.329331 0.597839 0.247917
O O7 0.180825 0.656221 0.207372
O O8 0.300996 0.644821 0.000000
O O9 0.366693 0.733889 0.500000
O O10 0.500000 0.737659 0.313253
O O11 0.358895 0.795194 0.277100
O O12 0.615053 0.438964 0.500000
O O13 0.500000 0.433962 0.285490
O O14 0.629789 0.500000 0.282593
O O15 0.176585 0.059880 0.747829
O O16 0.000000 0.089016 0.787961
O O17 0.116812 0.096352 0.000000
O O18 0.392459 0.150173 0.500000
O O19 0.500000 0.145193 0.275445
O O20 0.336612 0.101760 0.272028
O O21 0.000000 0.687150 0.786223
O O22 0.890795 0.708760 0.000000
O O23 0.269288 0.057772 0.500000
O O24 0.316709 0.000000 0.287829
#
# Coordination Sequence:
#
# PCOD9387171 Si02
#       8
#     8   8   8   8   8   8   8   8
#     4   9  17  30  50  75  99 126 167 216 261 305
#     4  11  22  32  50  82 112 141 180 224 266 306
#     4   9  18  33  52  74 104 141 175 208 255 319
#     4   9  19  37  59  81 108 145 185 221 263 319
#     4  10  21  36  53  72  99 136 172 207 254 317
#     4   8  16  33  55  77 101 132 169 208 257 317
#     4   9  19  35  50  69 106 150 185 216 256 309
#     4  10  21  35  53  79 104 127 166 221 269 308
#
# _framework density 18.048034999999999
#
# number of rings (size 3 to 8) (size 9 to 14) (size 15 to 20)
#    0.000    2.625    0.000    2.625    1.750    6.250 
#    0.000    3.125    0.000    1.500    0.000    3.500 
#    0.000    0.000    0.000    0.000    0.000    0.000 
#
# Total GULP energy -357077.690310 kJ/mol
# GULP energy per Si atom -5579.338911 kJ/mol
# Density = 1.800696 g / cm^3
# Si number density = 18.048035 Si / 1000 Ang^3
#
#
#
# Elastic Constant Matrix: (Units=GPa)
#
#
# Indices 1 2 3 4 5 6 
#
# 1 72.5640 66.4640 26.6037 0.0000 0.0000 0.0000
# 2 66.4640 134.1926 37.5547 0.0000 0.0000 0.0000
# 3 26.6037 37.5547 21.6332 0.0000 0.0000 0.0000
# 4 0.0000 0.0000 0.0000 13.1018 0.0000 0.0000
# 5 0.0000 0.0000 0.0000 0.0000 20.2603 0.0000
# 6 0.0000 0.0000 0.0000 0.0000 0.0000 31.3037
#
#
#
# Elastic Compliance Matrix: (Units=1/GPa)
#
#
# Indices 1 2 3 4 5 6 
#
# 1 0.029510 -0.008674 -0.021233 0.000000 0.000000 0.000000
# 2 -0.008674 0.017043 -0.018919 0.000000 0.000000 0.000000
# 3 -0.021233 -0.018919 0.105179 0.000000 0.000000 0.000000
# 4 0.000000 0.000000 0.000000 0.076325 0.000000 0.000000
# 5 0.000000 0.000000 0.000000 0.000000 0.049358 0.000000
# 6 0.000000 0.000000 0.000000 0.000000 0.000000 0.031945
#
#
# Mechanical properties :
#
#
# Convention : Reuss Voigt Hill
#
# Bulk Modulus (GPa) = 18.49079 54.40384 36.44732
# Shear Modulus (GPa) = 11.76368 19.45099 15.60734
#
# Velocity S-wave (km/s) = 2.55580 3.28645 2.94388
# Velocity P-wave (km/s) = 4.35627 6.67910 5.63859
#
# Compressibility (1/GPa) = 0.05408097
#
# Stress axis : x y z
#
# Youngs Moduli (GPa) = 33.88677 58.67650 9.50760
#
# Poissons Ratio (x) = 0.50895 0.20187
# Poissons Ratio (y) = 0.29393 0.17987
# Poissons Ratio (z) = 0.71951 1.11009
#
# Static dielectric constant tensor:
#      x y z
#    x 1.649460 0.000000 0.000000 
#    y 0.000000 1.608960 0.000000 
#    z 0.000000 0.000000 1.598850 
# 
# From -- ./inp_files/7778.got.cif
#   From: 2010.05.17/outbox.cif.g08.bks.cpg/sg47_4_cif.got.tgz:7778.got - 2010.06.03 20:15:42.
