data_PCOD9387332
_publ_section_title
;
Structure prediction by ZEFSAII (Michael W. Deem and Ramdas Pophale) SiO2 
 PCOD9387332
Probable space group: P M M M
;
_chemical_formula_sum "Si O2"
_cell_formula_units_Z 56
_cell_length_a 15.095271
_cell_length_b 20.697695
_cell_length_c 9.344801
_cell_angle_alpha 90.000000
_cell_angle_beta 90.000000
_cell_angle_gamma 90.000000
_cell_volume 2919.664535
_symmetry_space_group_name_H-M "P M M M"
_symmetry_group_IT_number 47
_symmetry_cell_setting 'orthorhombic'
loop_
_space_group_symop_operation_xyz
x,y,z
-x,-y,z
x,-y,-z
-x,y,-z
-x,-y,-z
x,y,-z
-x,y,z
x,-y,z
loop_
_atom_site_type_symbol
_atom_site_label
_atom_site_fract_x
_atom_site_fract_y
_atom_site_fract_z
Si Si1 0.102975 0.336850 0.670862
Si Si2 0.853999 0.930450 0.834294
Si Si3 0.358876 0.928174 0.836290
Si Si4 0.105628 0.209524 0.162292
Si Si5 0.393249 0.325774 0.831297
Si Si6 0.394765 0.199489 0.339883
Si Si7 0.267807 0.424386 0.328488
O O1 0.104573 0.327115 0.500000
O O2 0.134582 0.271186 0.747494
O O3 0.171681 0.393630 0.705493
O O4 0.000000 0.350327 0.710663
O O5 0.747728 0.931364 0.838625
O O6 0.878078 0.861140 0.770383
O O7 0.883495 0.000000 0.772642
O O8 0.886196 0.928799 0.000000
O O9 0.382638 0.869638 0.734048
O O10 0.390609 0.000000 0.793640
O O11 0.388469 0.915844 0.000000
O O12 0.000000 0.215410 0.151252
O O13 0.143441 0.210685 0.000000
O O14 0.500000 0.332382 0.813924
O O15 0.363080 0.258431 0.758489
O O16 0.341644 0.383467 0.754176
O O17 0.374513 0.324412 0.000000
O O18 0.356112 0.201504 0.500000
O O19 0.500000 0.208952 0.351684
O O20 0.281229 0.417493 0.500000
O O21 0.270987 0.500000 0.293203
#
# Coordination Sequence:
#
# PCOD9387332 Si02
#       7
#     8   8   8   8   8   8   8
#     4   9  19  36  56  80 113 150 186 226 271 323
#     4   8  15  28  45  68  99 134 174 220 267 313
#     4   9  18  32  49  71 102 141 184 228 274 325
#     4   9  17  29  48  75 103 134 176 224 272 319
#     4  10  22  40  61  85 114 148 186 228 276 334
#     4  10  21  36  54  77 105 137 177 227 279 328
#     4  10  22  39  60  88 117 147 185 225 272 329
#
# _framework density 19.180285000000001
#
# number of rings (size 3 to 8) (size 9 to 14) (size 15 to 20)
#    0.000    2.714    0.000    1.714    2.000    4.000 
#    0.000    5.714    0.000    1.286    0.000    5.000 
#    0.000    0.000    0.000    0.000    0.000    0.000 
#
# Total GULP energy -312170.045837 kJ/mol
# GULP energy per Si atom -5574.465104 kJ/mol
# Density = 1.913663 g / cm^3
# Si number density = 19.180285 Si / 1000 Ang^3
#
#
#
# Elastic Constant Matrix: (Units=GPa)
#
#
# Indices 1 2 3 4 5 6 
#
# 1 49.0299 42.0565 36.0382 0.0000 0.0000 0.0000
# 2 42.0565 194.9499 88.4362 0.0000 0.0000 0.0000
# 3 36.0382 88.4362 72.4672 0.0000 0.0000 0.0000
# 4 0.0000 0.0000 0.0000 32.3480 0.0000 0.0000
# 5 0.0000 0.0000 0.0000 0.0000 18.3663 0.0000
# 6 0.0000 0.0000 0.0000 0.0000 0.0000 42.2237
#
#
#
# Elastic Compliance Matrix: (Units=1/GPa)
#
#
# Indices 1 2 3 4 5 6 
#
# 1 0.032190 0.000711 -0.016876 0.000000 0.000000 0.000000
# 2 0.000711 0.011507 -0.014396 0.000000 0.000000 0.000000
# 3 -0.016876 -0.014396 0.039760 0.000000 0.000000 0.000000
# 4 0.000000 0.000000 0.000000 0.030914 0.000000 0.000000
# 5 0.000000 0.000000 0.000000 0.000000 0.054448 0.000000
# 6 0.000000 0.000000 0.000000 0.000000 0.000000 0.023683
#
#
# Mechanical properties :
#
#
# Convention : Reuss Voigt Hill
#
# Bulk Modulus (GPa) = 44.77269 72.16765 58.47017
# Shear Modulus (GPa) = 19.15202 28.58199 23.86700
#
# Velocity S-wave (km/s) = 3.16337 3.86447 3.53136
# Velocity P-wave (km/s) = 6.06105 7.59077 6.86863
#
# Compressibility (1/GPa) = 0.02233504
#
# Stress axis : x y z
#
# Youngs Moduli (GPa) = 31.06541 86.90673 25.15064
#
# Poissons Ratio (x) = -0.06183 0.42445
# Poissons Ratio (y) = -0.02210 0.36207
# Poissons Ratio (z) = 0.52427 1.25111
#
# Static dielectric constant tensor:
#      x y z
#    x 1.694400 0.000000 0.000000 
#    y 0.000000 1.669450 0.000000 
#    z 0.000000 0.000000 1.666140 
# 
# From -- ./inp_files/7335.got.cif
#   From: 2010.05.17/outbox.cif.g08.bks.cpg/sg47_4_cif.got.tgz:7335.got - 2010.06.03 20:15:42.
