data_PCOD9387991
_publ_section_title
;
Structure prediction by ZEFSAII (Michael W. Deem and Ramdas Pophale) SiO2 
 PCOD9387991
Probable space group: P M M M
;
_chemical_formula_sum "Si O2"
_cell_formula_units_Z 64
_cell_length_a 25.527965
_cell_length_b 14.234518
_cell_length_c 7.372429
_cell_angle_alpha 90.000000
_cell_angle_beta 90.000000
_cell_angle_gamma 90.000000
_cell_volume 2678.980550
_symmetry_space_group_name_H-M "P M M M"
_symmetry_group_IT_number 47
_symmetry_cell_setting 'orthorhombic'
loop_
_space_group_symop_operation_xyz
x,y,z
-x,-y,z
x,-y,-z
-x,y,-z
-x,-y,-z
x,y,-z
-x,y,z
x,-y,z
loop_
_atom_site_type_symbol
_atom_site_label
_atom_site_fract_x
_atom_site_fract_y
_atom_site_fract_z
Si Si1 0.610268 0.892850 0.220901
Si Si2 0.943215 0.793999 0.287567
Si Si3 0.274408 0.108611 0.783396
Si Si4 0.662839 0.389859 0.779047
Si Si5 0.776136 0.385002 0.788102
Si Si6 0.108943 0.393161 0.219448
Si Si7 0.839274 0.892770 0.716105
Si Si8 0.442944 0.289781 0.778657
O O1 0.668443 0.857425 0.277581
O O2 0.566908 0.818245 0.274503
O O3 0.603108 0.000000 0.280929
O O4 0.610098 0.894585 0.000000
O O5 0.944874 0.818986 0.500000
O O6 0.933497 0.682799 0.274023
O O7 0.890624 0.841168 0.210362
O O8 0.000000 0.819519 0.209776
O O9 0.217948 0.153010 0.745256
O O10 0.271387 0.000000 0.717518
O O11 0.277658 0.106567 0.000000
O O12 0.660472 0.500000 0.736816
O O13 0.719740 0.353386 0.713887
O O14 0.609001 0.343645 0.717212
O O15 0.664280 0.380709 0.000000
O O16 0.775056 0.500000 0.783023
O O17 0.833308 0.361175 0.712173
O O18 0.776724 0.357550 0.000000
O O19 0.099048 0.500000 0.278514
O O20 0.111388 0.394572 0.000000
O O21 0.844534 0.897506 0.500000
O O22 0.837756 0.000000 0.786744
O O23 0.500000 0.323672 0.718623
O O24 0.442854 0.294758 0.000000
#
# Coordination Sequence:
#
# PCOD9387991 Si02
#       8
#     8   8   8   8   8   8   8   8
#     4   8  14  24  36  51  74 103 134 171 214 258
#     4  10  22  37  50  68  95 126 159 189 221 270
#     4   8  14  26  45  68  91 114 143 180 225 277
#     4   8  13  21  32  46  68  98 130 168 212 253
#     4   7  11  22  40  61  82 103 133 175 221 266
#     4   9  18  33  53  75  96 119 152 195 236 272
#     4   9  18  33  52  72  94 120 151 190 232 271
#     4   9  16  22  28  43  68 101 142 177 204 244
#
# _framework density 23.889683999999999
#
# number of rings (size 3 to 8) (size 9 to 14) (size 15 to 20)
#    0.000    3.500    0.000    2.250    0.000    3.000 
#    0.000    7.500    0.000    0.000    0.000    2.625 
#    0.000    0.500    0.000    5.125    0.000    6.875 
#
# Total GULP energy -357043.644310 kJ/mol
# GULP energy per Si atom -5578.806942 kJ/mol
# Density = 2.383531 g / cm^3
# Si number density = 23.889684 Si / 1000 Ang^3
#
#
#
# Elastic Constant Matrix: (Units=GPa)
#
#
# Indices 1 2 3 4 5 6 
#
# 1 142.5160 17.3592 2.8330 0.0000 0.0000 0.0000
# 2 17.3592 30.7810 -6.7352 0.0000 0.0000 0.0000
# 3 2.8330 -6.7352 84.6083 0.0000 0.0000 0.0000
# 4 0.0000 0.0000 0.0000 -0.0940 0.0000 0.0000
# 5 0.0000 0.0000 0.0000 0.0000 10.5438 0.0000
# 6 0.0000 0.0000 0.0000 0.0000 0.0000 21.5797
#
#
#
# Elastic Compliance Matrix: (Units=1/GPa)
#
#
# Indices 1 2 3 4 5 6 
#
# 1 0.007564 -0.004398 -0.000603 0.000000 0.000000 0.000000
# 2 -0.004398 0.035621 0.002983 0.000000 0.000000 0.000000
# 3 -0.000603 0.002983 0.012077 0.000000 0.000000 0.000000
# 4 0.000000 0.000000 0.000000-10.638503 0.000000 0.000000
# 5 0.000000 0.000000 0.000000 0.000000 0.094842 0.000000
# 6 0.000000 0.000000 0.000000 0.000000 0.000000 0.046340
#
#
# Mechanical properties :
#
#
# Convention : Reuss Voigt Hill
#
# Bulk Modulus (GPa) = 19.52191 31.64660 25.58425
# Shear Modulus (GPa) = -0.47980 22.70246 11.11133
#
# Velocity S-wave (km/s) = -0.44864 3.08604 2.15898
# Velocity P-wave (km/s) = 2.81444 5.09646 4.11674
#
# Compressibility (1/GPa) = 0.05122450
#
# Stress axis : x y z
#
# Youngs Moduli (GPa) = 132.19723 28.07371 82.80323
#
# Poissons Ratio (x) = 0.12347 0.04996
# Poissons Ratio (y) = 0.58141 -0.24699
# Poissons Ratio (z) = 0.07977 -0.08374
#
# Static dielectric constant tensor:
#      x y z
#    x 1.916030 0.000000 0.000000 
#    y 0.000000 1.919400 0.000000 
#    z 0.000000 0.000000 1.996780 
# 
# From -- ./inp_files/12742.got.cif
#   From: 2010.05.17/outbox.cif.g08.bks.cpg/sg47_7_cif.got.tgz:12742.got - 2010.06.03 20:15:42.
