data_PCOD9387166
_publ_section_title
;
Structure prediction by ZEFSAII (Michael W. Deem and Ramdas Pophale) SiO2 
 PCOD9387166
Probable space group: P M M M
;
_chemical_formula_sum "Si O2"
_cell_formula_units_Z 48
_cell_length_a 30.511531
_cell_length_b 9.990500
_cell_length_c 7.683387
_cell_angle_alpha 90.000000
_cell_angle_beta 90.000000
_cell_angle_gamma 90.000000
_cell_volume 2342.091903
_symmetry_space_group_name_H-M "P M M M"
_symmetry_group_IT_number 47
_symmetry_cell_setting 'orthorhombic'
loop_
_space_group_symop_operation_xyz
x,y,z
-x,-y,z
x,-y,-z
-x,y,-z
-x,-y,-z
x,y,-z
-x,y,z
x,-y,z
loop_
_atom_site_type_symbol
_atom_site_label
_atom_site_fract_x
_atom_site_fract_y
_atom_site_fract_z
Si Si1 0.547038 0.661528 0.207295
Si Si2 0.051207 0.500000 0.709153
Si Si3 0.797645 0.347714 0.298108
Si Si4 0.107476 0.751078 0.799919
Si Si5 0.356541 0.344223 0.213820
Si Si6 0.050888 0.000000 0.786081
Si Si7 0.720544 0.151914 0.794920
O O1 0.500000 0.710097 0.278907
O O2 0.547058 0.500000 0.224877
O O3 0.594937 0.702341 0.272808
O O4 0.546606 0.689782 0.000000
O O5 0.057411 0.500000 0.500000
O O6 0.074842 0.627307 0.787865
O O7 0.000000 0.500000 0.746543
O O8 0.785978 0.357284 0.500000
O O9 0.795203 0.500000 0.223927
O O10 0.847062 0.292977 0.284805
O O11 0.764529 0.239572 0.220612
O O12 0.079301 0.873424 0.727052
O O13 0.118315 0.782836 0.000000
O O14 0.349065 0.500000 0.265132
O O15 0.318938 0.243889 0.275971
O O16 0.356750 0.345342 0.000000
O O17 0.000000 0.000000 0.729586
O O18 0.049537 0.000000 0.000000
O O19 0.724081 0.000000 0.723855
O O20 0.711655 0.138621 0.000000
#
# Coordination Sequence:
#
# PCOD9387166 Si02
#       7
#     8   4   8   8   8   4   8
#     4   7   9  14  28  54  88 125 166 211 259 309
#     4  11  23  39  59  87 123 155 185 223 264 309
#     4  11  24  41  59  80 108 138 173 222 279 331
#     4  11  22  38  63  89 113 146 185 224 267 316
#     4   8  13  23  41  65  94 131 174 220 265 310
#     4   9  20  38  59  87 119 145 177 221 260 301
#     4  10  21  35  53  77 105 138 179 223 266 319
#
# _framework density 20.494499000000001
#
# number of rings (size 3 to 8) (size 9 to 14) (size 15 to 20)
#    0.000    2.500    0.833    3.750    1.167    3.333 
#    0.000    1.250    0.000    3.500    0.000    3.500 
#    0.000    0.667    0.000    7.667    0.000    8.833 
#
# Total GULP energy -267597.138277 kJ/mol
# GULP energy per Si atom -5574.940381 kJ/mol
# Density = 2.044785 g / cm^3
# Si number density = 20.494499 Si / 1000 Ang^3
#
#
#
# Elastic Constant Matrix: (Units=GPa)
#
#
# Indices 1 2 3 4 5 6 
#
# 1 162.8943 87.1425 0.5640 0.0000 0.0000 0.0000
# 2 87.1425 159.8234 0.3812 0.0000 0.0000 0.0000
# 3 0.5640 0.3812 33.0458 0.0000 0.0000 0.0000
# 4 0.0000 0.0000 0.0000 -17.8927 0.0000 0.0000
# 5 0.0000 0.0000 0.0000 0.0000 236.9567 0.0000
# 6 0.0000 0.0000 0.0000 0.0000 0.0000 19.4872
#
#
#
# Elastic Compliance Matrix: (Units=1/GPa)
#
#
# Indices 1 2 3 4 5 6 
#
# 1 0.008667 -0.004726 -0.000093 0.000000 0.000000 0.000000
# 2 -0.004726 0.008834 -0.000021 0.000000 0.000000 0.000000
# 3 -0.000093 -0.000021 0.030263 0.000000 0.000000 0.000000
# 4 0.000000 0.000000 0.000000 -0.055889 0.000000 0.000000
# 5 0.000000 0.000000 0.000000 0.000000 0.004220 0.000000
# 6 0.000000 0.000000 0.000000 0.000000 0.000000 0.051316
#
#
# Mechanical properties :
#
#
# Convention : Reuss Voigt Hill
#
# Bulk Modulus (GPa) = 26.25827 59.10434 42.68131
# Shear Modulus (GPa) = 71.64799 65.55529 68.60164
#
# Velocity S-wave (km/s) = 5.91908 5.66182 5.79188
# Velocity P-wave (km/s) = 7.71714 8.46424 8.09931
#
# Compressibility (1/GPa) = 0.03808323
#
# Stress axis : x y z
#
# Youngs Moduli (GPa) = 115.37664 113.20510 33.04381
#
# Poissons Ratio (x) = 0.53496 0.00309
# Poissons Ratio (y) = 0.54522 0.00070
# Poissons Ratio (z) = 0.01078 0.00241
#
# Static dielectric constant tensor:
#      x y z
#    x 1.751640 0.000000 0.000000 
#    y 0.000000 1.705020 0.000000 
#    z 0.000000 0.000000 1.795470 
# 
# From -- ./inp_files/13986.got.cif
#   From: 2010.05.17/outbox.cif.g08.bks.cpg/sg47_7_cif.got.tgz:13986.got - 2010.06.03 20:15:42.
