data_PCOD9387468
_publ_section_title
;
Structure prediction by ZEFSAII (Michael W. Deem and Ramdas Pophale) SiO2 
 PCOD9387468
Probable space group: P M M M
;
_chemical_formula_sum "Si O2"
_cell_formula_units_Z 44
_cell_length_a 17.508960
_cell_length_b 15.998247
_cell_length_c 8.330682
_cell_angle_alpha 90.000000
_cell_angle_beta 90.000000
_cell_angle_gamma 90.000000
_cell_volume 2333.529551
_symmetry_space_group_name_H-M "P M M M"
_symmetry_group_IT_number 47
_symmetry_cell_setting 'orthorhombic'
loop_
_space_group_symop_operation_xyz
x,y,z
-x,-y,z
x,-y,-z
-x,y,-z
-x,-y,-z
x,y,-z
-x,y,z
x,-y,z
loop_
_atom_site_type_symbol
_atom_site_label
_atom_site_fract_x
_atom_site_fract_y
_atom_site_fract_z
Si Si1 0.913721 0.319442 0.807584
Si Si2 0.666501 0.592496 0.691471
Si Si3 0.760565 0.247265 0.806808
Si Si4 0.500000 0.639219 0.189107
Si Si5 0.500000 0.827388 0.310647
Si Si6 0.092645 0.500000 0.318500
Si Si7 0.343172 0.094927 0.194702
O O1 0.847044 0.259253 0.746349
O O2 0.887692 0.413834 0.767281
O O3 0.000000 0.306480 0.744140
O O4 0.917673 0.312174 0.000000
O O5 0.674926 0.596142 0.500000
O O6 0.692144 0.500000 0.746886
O O7 0.712324 0.670191 0.764014
O O8 0.577378 0.603536 0.735024
O O9 0.717326 0.164500 0.749442
O O10 0.763656 0.242395 0.000000
O O11 0.500000 0.738985 0.218889
O O12 0.500000 0.621931 0.000000
O O13 0.500000 0.809597 0.500000
O O14 0.574953 0.878641 0.262933
O O15 0.122571 0.500000 0.500000
O O16 0.000000 0.500000 0.324029
O O17 0.323938 0.000000 0.239978
O O18 0.347501 0.098617 0.000000
#
# Coordination Sequence:
#
# PCOD9387468 Si02
#       7
#     8   8   8   4   4   4   8
#     4   9  18  33  52  75 105 142 184 226 269 320
#     4  11  24  39  55  79 112 149 186 230 276 316
#     4  10  21  36  56  80 107 145 186 227 273 328
#     4  12  23  38  59  80 108 148 191 227 266 321
#     4  12  23  36  57  84 112 142 179 225 276 327
#     4   9  17  29  47  73 103 136 175 218 269 323
#     4  10  21  38  59  82 109 142 181 226 277 330
#
# _framework density 18.855557999999998
#
# number of rings (size 3 to 8) (size 9 to 14) (size 15 to 20)
#    0.000    1.727    1.818    3.000    1.273    5.818 
#    0.000    0.000    0.000    0.545    0.000    3.818 
#    0.000    0.000    0.000    7.818    0.000    8.364 
#
# Total GULP energy -245761.560391 kJ/mol
# GULP energy per Si atom -5585.490009 kJ/mol
# Density = 1.881264 g / cm^3
# Si number density = 18.855558 Si / 1000 Ang^3
#
#
#
# Elastic Constant Matrix: (Units=GPa)
#
#
# Indices 1 2 3 4 5 6 
#
# 1 133.2065 70.3413 5.1660 0.0000 0.0000 0.0000
# 2 70.3413 138.0414 5.2928 0.0000 0.0000 0.0000
# 3 5.1660 5.2928 10.8297 0.0000 0.0000 0.0000
# 4 0.0000 0.0000 0.0000 -25.1685 0.0000 0.0000
# 5 0.0000 0.0000 0.0000 0.0000 -4.3149 0.0000
# 6 0.0000 0.0000 0.0000 0.0000 0.0000 -42.5440
#
#
#
# Elastic Compliance Matrix: (Units=1/GPa)
#
#
# Indices 1 2 3 4 5 6 
#
# 1 0.010332 -0.005173 -0.002400 0.000000 0.000000 0.000000
# 2 -0.005173 0.009972 -0.002406 0.000000 0.000000 0.000000
# 3 -0.002400 -0.002406 0.094660 0.000000 0.000000 0.000000
# 4 0.000000 0.000000 0.000000 -0.039732 0.000000 0.000000
# 5 0.000000 0.000000 0.000000 0.000000 -0.231754 0.000000
# 6 0.000000 0.000000 0.000000 0.000000 0.000000 -0.023505
#
#
# Mechanical properties :
#
#
# Convention : Reuss Voigt Hill
#
# Bulk Modulus (GPa) = 10.52575 49.29753 29.91164
# Shear Modulus (GPa) = -38.94059 -0.98697 -19.96378
#
# Velocity S-wave (km/s) = -4.54938 -0.72427 -3.25741
# Velocity P-wave (km/s) = 4.69057 5.04997 1.32301
#
# Compressibility (1/GPa) = 0.09500510
#
# Stress axis : x y z
#
# Youngs Moduli (GPa) = 96.78935 100.27801 10.56415
#
# Poissons Ratio (x) = 0.51870 0.02536
# Poissons Ratio (y) = 0.50066 0.02542
# Poissons Ratio (z) = 0.23234 0.24129
#
# Static dielectric constant tensor:
#      x y z
#    x 1.680880 0.000000 0.000000 
#    y 0.000000 1.644630 0.000000 
#    z 0.000000 0.000000 1.640840 
# 
# From -- ./inp_files/9086.got.cif
#   From: 2010.05.17/outbox.cif.g08.bks.cpg/sg47_5_cif.got.tgz:9086.got - 2010.06.03 20:15:42.
