data_PCOD9387078
_publ_section_title
;
Structure prediction by ZEFSAII (Michael W. Deem and Ramdas Pophale) SiO2 
 PCOD9387078
Probable space group: P M M M
;
_chemical_formula_sum "Si O2"
_cell_formula_units_Z 52
_cell_length_a 7.871071
_cell_length_b 9.922015
_cell_length_c 36.370140
_cell_angle_alpha 90.000000
_cell_angle_beta 90.000000
_cell_angle_gamma 90.000000
_cell_volume 2840.394624
_symmetry_space_group_name_H-M "P M M M"
_symmetry_group_IT_number 47
_symmetry_cell_setting 'orthorhombic'
loop_
_space_group_symop_operation_xyz
x,y,z
-x,-y,z
x,-y,-z
-x,y,-z
-x,-y,-z
x,y,-z
-x,y,z
x,-y,z
loop_
_atom_site_type_symbol
_atom_site_label
_atom_site_fract_x
_atom_site_fract_y
_atom_site_fract_z
Si Si1 0.795982 0.653108 0.252207
Si Si2 0.298960 0.161145 0.597036
Si Si3 0.796834 0.846929 0.811616
Si Si4 0.000000 0.163300 0.458205
Si Si5 0.204649 0.346282 0.958918
Si Si6 0.298133 0.847288 0.892480
Si Si7 0.295773 0.345807 0.334231
O O1 0.729635 0.500000 0.248689
O O2 0.729202 0.750836 0.220425
O O3 0.758653 0.699915 0.293639
O O4 0.000000 0.647033 0.248399
O O5 0.500000 0.186818 0.589136
O O6 0.247071 0.245388 0.633125
O O7 0.170079 0.199813 0.564386
O O8 0.282331 0.000000 0.603435
O O9 0.764874 0.795772 0.852918
O O10 0.000000 0.854625 0.806931
O O11 0.728591 0.000000 0.809368
O O12 0.000000 0.214305 0.500000
O O13 0.000000 0.000000 0.459848
O O14 0.263522 0.500000 0.952234
O O15 0.254644 0.246652 0.926608
O O16 0.000000 0.349449 0.959819
O O17 0.263124 0.305547 0.000000
O O18 0.500000 0.855120 0.890091
O O19 0.229657 0.000000 0.897475
O O20 0.500000 0.350493 0.334388
O O21 0.232762 0.500000 0.339701
#
# Coordination Sequence:
#
# PCOD9387078 Si02
#       7
#     8   8   8   4   8   8   8
#     4   9  18  31  47  69  95 124 161 204 247 292
#     4   9  18  32  50  74 102 132 169 211 254 303
#     4   9  18  33  50  68  94 129 167 205 246 291
#     4   9  18  32  51  77 105 133 169 213 259 305
#     4   9  19  36  56  77 100 127 162 203 246 294
#     4  10  21  35  51  74 103 133 165 202 246 296
#     4   9  18  32  49  70  98 132 166 202 249 300
#
# _framework density 18.307314999999999
#
# number of rings (size 3 to 8) (size 9 to 14) (size 15 to 20)
#    0.000    2.846    0.000    0.923    1.077    4.000 
#    0.000    5.385    0.000    0.923    0.000    2.154 
#    0.000    0.000    0.000    0.000    0.000    0.000 
#
# Total GULP energy -289811.479080 kJ/mol
# GULP energy per Si atom -5573.297675 kJ/mol
# Density = 1.826565 g / cm^3
# Si number density = 18.307315 Si / 1000 Ang^3
#
#
#
# Elastic Constant Matrix: (Units=GPa)
#
#
# Indices 1 2 3 4 5 6 
#
# 1 37.5672 22.6850 35.6952 0.0000 0.0000 0.0000
# 2 22.6850 60.7588 90.8438 0.0000 0.0000 0.0000
# 3 35.6952 90.8438 197.0729 0.0000 0.0000 0.0000
# 4 0.0000 0.0000 0.0000 33.1697 0.0000 0.0000
# 5 0.0000 0.0000 0.0000 0.0000 101.7434 0.0000
# 6 0.0000 0.0000 0.0000 0.0000 0.0000 11.8611
#
#
#
# Elastic Compliance Matrix: (Units=1/GPa)
#
#
# Indices 1 2 3 4 5 6 
#
# 1 0.034428 -0.011360 -0.000999 0.000000 0.000000 0.000000
# 2 -0.011360 0.056706 -0.024082 0.000000 0.000000 0.000000
# 3 -0.000999 -0.024082 0.016356 0.000000 0.000000 0.000000
# 4 0.000000 0.000000 0.000000 0.030148 0.000000 0.000000
# 5 0.000000 0.000000 0.000000 0.000000 0.009829 0.000000
# 6 0.000000 0.000000 0.000000 0.000000 0.000000 0.084309
#
#
# Mechanical properties :
#
#
# Convention : Reuss Voigt Hill
#
# Bulk Modulus (GPa) = 28.89508 65.98298 47.43903
# Shear Modulus (GPa) = 15.81300 39.09985 27.45643
#
# Velocity S-wave (km/s) = 2.94216 4.62643 3.87686
# Velocity P-wave (km/s) = 5.23061 8.04106 6.78299
#
# Compressibility (1/GPa) = 0.03460797
#
# Stress axis : x y z
#
# Youngs Moduli (GPa) = 29.04591 17.63469 61.13864
#
# Poissons Ratio (x) = 0.20033 0.06109
# Poissons Ratio (y) = 0.32997 1.47235
# Poissons Ratio (z) = 0.02902 0.42468
#
# Static dielectric constant tensor:
#      x y z
#    x 1.657470 0.000000 0.000000 
#    y 0.000000 1.639250 0.000000 
#    z 0.000000 0.000000 1.612870 
# 
# From -- ./inp_files/33239.got.cif
#   From: 2010.05.17/outbox.cif.g08.bks.cpg/sg47_17_cif.got.tgz:33239.got - 2010.06.03 20:15:42.
