data_PCOD9387666
_publ_section_title
;
Structure prediction by ZEFSAII (Michael W. Deem and Ramdas Pophale) SiO2 
 PCOD9387666
Probable space group: P M M M
;
_chemical_formula_sum "Si O2"
_cell_formula_units_Z 41
_cell_length_a 7.493982
_cell_length_b 12.291454
_cell_length_c 21.127066
_cell_angle_alpha 90.000000
_cell_angle_beta 90.000000
_cell_angle_gamma 90.000000
_cell_volume 1946.054931
_symmetry_space_group_name_H-M "P M M M"
_symmetry_group_IT_number 47
_symmetry_cell_setting 'orthorhombic'
loop_
_space_group_symop_operation_xyz
x,y,z
-x,-y,z
x,-y,-z
-x,y,-z
-x,-y,-z
x,y,-z
-x,y,z
x,-y,z
loop_
_atom_site_type_symbol
_atom_site_label
_atom_site_fract_x
_atom_site_fract_y
_atom_site_fract_z
Si Si1 0.217436 0.372641 0.069985
Si Si2 0.789498 0.260669 0.428153
Si Si3 0.500000 0.000000 0.000000
Si Si4 0.712629 0.500000 0.572343
Si Si5 0.208670 0.775896 0.816890
Si Si6 0.199612 0.000000 0.107332
Si Si7 0.780609 0.125601 0.310609
O O1 0.262805 0.500000 0.074204
O O2 0.284378 0.306951 0.130831
O O3 0.000000 0.365009 0.069781
O O4 0.275829 0.331743 0.000000
O O5 0.714522 0.256763 0.500000
O O6 0.768941 0.383392 0.401294
O O7 0.720189 0.174491 0.377569
O O8 0.000000 0.240278 0.433586
O O9 0.653931 0.000000 0.945430
O O10 0.500000 0.500000 0.570723
O O11 0.783500 0.500000 0.500000
O O12 0.215509 0.893532 0.849636
O O13 0.281421 0.796818 0.746772
O O14 0.000000 0.744709 0.809003
O O15 0.000000 0.000000 0.079948
O O16 0.000000 0.126442 0.309081
O O17 0.727266 0.000000 0.302064
#
# Coordination Sequence:
#
# PCOD9387666 Si02
#       7
#     8   8   1   4   8   4   8
#     4   8  14  24  39  65  99 127 159 208 257 304
#     4   9  17  29  48  75 104 135 174 222 271 317
#     4  12  26  36  52  90 118 132 184 236 264 332
#     4   9  17  31  51  71  97 131 168 213 268 325
#     4   9  16  29  50  73 100 138 177 214 263 321
#     4  10  21  37  57  80 110 145 178 224 281 325
#     4   9  16  28  46  71 104 138 176 219 262 319
#
# _framework density 21.068263000000002
#
# number of rings (size 3 to 8) (size 9 to 14) (size 15 to 20)
#    0.000    3.024    0.976    1.024    1.366    1.561 
#    1.756    1.951    2.146    0.585    0.000    4.098 
#    0.000    0.000    0.000    0.000    0.000    0.000 
#
# Total GULP energy -228296.597594 kJ/mol
# GULP energy per Si atom -5568.209697 kJ/mol
# Density = 2.102031 g / cm^3
# Si number density = 21.068263 Si / 1000 Ang^3
#
#
#
# Elastic Constant Matrix: (Units=GPa)
#
#
# Indices 1 2 3 4 5 6 
#
# 1 70.8111 -6.0243 18.8288 0.0000 0.0000 0.0000
# 2 -6.0243 88.3256 69.9400 0.0000 0.0000 0.0000
# 3 18.8288 69.9400 159.2699 0.0000 0.0000 0.0000
# 4 0.0000 0.0000 0.0000 15.2597 0.0000 0.0000
# 5 0.0000 0.0000 0.0000 0.0000 2.9748 0.0000
# 6 0.0000 0.0000 0.0000 0.0000 0.0000 -26.0609
#
#
#
# Elastic Compliance Matrix: (Units=1/GPa)
#
#
# Indices 1 2 3 4 5 6 
#
# 1 0.015375 0.003814 -0.003493 0.000000 0.000000 0.000000
# 2 0.003814 0.018303 -0.008488 0.000000 0.000000 0.000000
# 3 -0.003493 -0.008488 0.010419 0.000000 0.000000 0.000000
# 4 0.000000 0.000000 0.000000 0.065532 0.000000 0.000000
# 5 0.000000 0.000000 0.000000 0.000000 0.336153 0.000000
# 6 0.000000 0.000000 0.000000 0.000000 0.000000 -0.038372
#
#
# Mechanical properties :
#
#
# Convention : Reuss Voigt Hill
#
# Bulk Modulus (GPa) = 36.01767 53.76619 44.89193
# Shear Modulus (GPa) = 11.54736 14.14554 12.84645
#
# Velocity S-wave (km/s) = 2.34368 2.59398 2.47200
# Velocity P-wave (km/s) = 4.94536 5.87767 5.43156
#
# Compressibility (1/GPa) = 0.02776415
#
# Stress axis : x y z
#
# Youngs Moduli (GPa) = 65.03950 54.63454 95.97772
#
# Poissons Ratio (x) = -0.20839 0.33521
# Poissons Ratio (y) = -0.24808 0.81471
# Poissons Ratio (z) = 0.22716 0.46376
#
# Static dielectric constant tensor:
#      x y z
#    x 1.769260 0.000000 0.000000 
#    y 0.000000 1.739770 0.000000 
#    z 0.000000 0.000000 1.776550 
# 
# From -- ./inp_files/31817.got.cif
#   From: 2010.05.17/outbox.cif.g08.bks.cpg/sg47_16_cif.got.tgz:31817.got - 2010.06.03 20:15:42.
