data_PCOD9387499
_publ_section_title
;
Structure prediction by ZEFSAII (Michael W. Deem and Ramdas Pophale) SiO2 
 PCOD9387499
Probable space group: P M M M
;
_chemical_formula_sum "Si O2"
_cell_formula_units_Z 34
_cell_length_a 23.184974
_cell_length_b 7.562300
_cell_length_c 9.059421
_cell_angle_alpha 90.000000
_cell_angle_beta 90.000000
_cell_angle_gamma 90.000000
_cell_volume 1588.403947
_symmetry_space_group_name_H-M "P M M M"
_symmetry_group_IT_number 47
_symmetry_cell_setting 'orthorhombic'
loop_
_space_group_symop_operation_xyz
x,y,z
-x,-y,z
x,-y,-z
-x,y,-z
-x,-y,-z
x,y,-z
-x,y,z
x,-y,z
loop_
_atom_site_type_symbol
_atom_site_label
_atom_site_fract_x
_atom_site_fract_y
_atom_site_fract_z
Si Si1 0.794032 0.285281 0.668766
Si Si2 0.680882 0.710295 0.165210
Si Si3 0.088464 0.796394 0.174926
Si Si4 0.436203 0.212931 0.330756
Si Si5 0.000000 0.500000 0.729438
O O1 0.802781 0.227542 0.500000
O O2 0.794823 0.500000 0.669318
O O3 0.732285 0.223318 0.730587
O O4 0.845781 0.222499 0.772518
O O5 0.689714 0.500000 0.155792
O O6 0.617736 0.736430 0.232211
O O7 0.684850 0.783949 0.000000
O O8 0.049948 0.655386 0.261037
O O9 0.070596 0.000000 0.196657
O O10 0.082561 0.755096 0.000000
O O11 0.427760 0.273791 0.500000
O O12 0.500000 0.273253 0.281002
O O13 0.437603 0.000000 0.333755
#
# Coordination Sequence:
#
# PCOD9387499 Si02
#       5
#     8   8   8   8   2
#     4  10  21  39  62  86 116 157 201 247 304 361
#     4  10  21  36  57  86 118 153 195 245 300 355
#     4  11  23  39  64  96 125 161 207 248 299 363
#     4   9  19  36  56  79 111 153 199 246 298 356
#     4  12  23  42  69  94 131 168 197 252 303 350
#
# _framework density 21.405137
#
# number of rings (size 3 to 8) (size 9 to 14) (size 15 to 20)
#    0.000    1.882    1.176    3.529    0.000    6.118 
#    0.000    4.706    0.000    1.412    0.000    0.000 
#    0.000    0.000    0.000    0.000    0.000    0.000 
#
# Total GULP energy -189464.538489 kJ/mol
# GULP energy per Si atom -5572.486426 kJ/mol
# Density = 2.135642 g / cm^3
# Si number density = 21.405137 Si / 1000 Ang^3
#
#
#
# Elastic Constant Matrix: (Units=GPa)
#
#
# Indices 1 2 3 4 5 6 
#
# 1 126.8416 7.7453 12.7993 0.0000 0.0000 0.0000
# 2 7.7453 76.6306 4.5861 0.0000 0.0000 0.0000
# 3 12.7993 4.5861 28.1014 0.0000 0.0000 0.0000
# 4 0.0000 0.0000 0.0000 13.5570 0.0000 0.0000
# 5 0.0000 0.0000 0.0000 0.0000 203.1269 0.0000
# 6 0.0000 0.0000 0.0000 0.0000 0.0000 53.4664
#
#
#
# Elastic Compliance Matrix: (Units=1/GPa)
#
#
# Indices 1 2 3 4 5 6 
#
# 1 0.008293 -0.000618 -0.003676 0.000000 0.000000 0.000000
# 2 -0.000618 0.013224 -0.001877 0.000000 0.000000 0.000000
# 3 -0.003676 -0.001877 0.037566 0.000000 0.000000 0.000000
# 4 0.000000 0.000000 0.000000 0.073763 0.000000 0.000000
# 5 0.000000 0.000000 0.000000 0.000000 0.004923 0.000000
# 6 0.000000 0.000000 0.000000 0.000000 0.000000 0.018703
#
#
# Mechanical properties :
#
#
# Convention : Reuss Voigt Hill
#
# Bulk Modulus (GPa) = 21.39440 31.31500 26.35470
# Shear Modulus (GPa) = 27.11582 67.79291 47.45437
#
# Velocity S-wave (km/s) = 3.56306 5.63383 4.71357
# Velocity P-wave (km/s) = 5.19075 7.54861 6.47786
#
# Compressibility (1/GPa) = 0.04674121
#
# Stress axis : x y z
#
# Youngs Moduli (GPa) = 120.59020 75.61777 26.61976
#
# Poissons Ratio (x) = 0.04674 0.09786
# Poissons Ratio (y) = 0.07454 0.04996
# Poissons Ratio (z) = 0.44330 0.14191
#
# Static dielectric constant tensor:
#      x y z
#    x 1.750480 0.000000 0.000000 
#    y 0.000000 1.799310 0.000000 
#    z 0.000000 0.000000 1.770140 
# 
# From -- ./inp_files/10397.got.cif
#   From: 2010.05.17/outbox.cif.g08.bks.cpg/sg47_6_cif.got.tgz:10397.got - 2010.06.03 20:15:42.
