data_PCOD9387701
_publ_section_title
;
Structure prediction by ZEFSAII (Michael W. Deem and Ramdas Pophale) SiO2 
 PCOD9387701
Probable space group: P M M M
;
_chemical_formula_sum "Si O2"
_cell_formula_units_Z 48
_cell_length_a 28.299016
_cell_length_b 9.918716
_cell_length_c 8.026235
_cell_angle_alpha 90.000000
_cell_angle_beta 90.000000
_cell_angle_gamma 90.000000
_cell_volume 2252.883122
_symmetry_space_group_name_H-M "P M M M"
_symmetry_group_IT_number 47
_symmetry_cell_setting 'orthorhombic'
loop_
_space_group_symop_operation_xyz
x,y,z
-x,-y,z
x,-y,-z
-x,y,-z
-x,-y,-z
x,y,-z
-x,y,z
x,-y,z
loop_
_atom_site_type_symbol
_atom_site_label
_atom_site_fract_x
_atom_site_fract_y
_atom_site_fract_z
Si Si1 0.443740 0.500000 0.186924
Si Si2 0.553883 0.794038 0.693572
Si Si3 0.273198 0.347882 0.302413
Si Si4 0.103584 0.655872 0.797711
Si Si5 0.346018 0.856982 0.193833
Si Si6 0.189860 0.845299 0.700781
Si Si7 0.000000 0.336655 0.190832
O O1 0.500000 0.500000 0.164521
O O2 0.435030 0.635545 0.286531
O O3 0.422097 0.500000 0.000000
O O4 0.555331 0.832480 0.500000
O O5 0.500000 0.819123 0.754265
O O6 0.597547 0.857960 0.787867
O O7 0.265020 0.358783 0.500000
O O8 0.271915 0.500000 0.232962
O O9 0.322666 0.272133 0.277126
O O10 0.233330 0.246128 0.234335
O O11 0.113779 0.500000 0.745312
O O12 0.142832 0.761452 0.742730
O O13 0.051105 0.697057 0.734870
O O14 0.101742 0.653910 0.000000
O O15 0.327820 0.000000 0.265064
O O16 0.334053 0.851043 0.000000
O O17 0.193871 0.852175 0.500000
O O18 0.189823 0.000000 0.762994
O O19 0.000000 0.500000 0.182963
O O20 0.000000 0.285513 0.000000
#
# Coordination Sequence:
#
# PCOD9387701 Si02
#       7
#     4   8   8   8   8   8   4
#     4   9  17  31  53  81 113 147 183 227 275 318
#     4  10  21  37  59  86 116 152 193 233 275 329
#     4  10  22  41  65  88 109 140 185 235 285 340
#     4   9  17  31  54  82 111 147 193 242 288 335
#     4  11  25  42  60  85 118 154 188 228 283 341
#     4  10  21  37  57  82 114 151 188 229 283 344
#     4   7  12  26  48  75 108 146 190 239 286 331
#
# _framework density 21.306032999999999
#
# number of rings (size 3 to 8) (size 9 to 14) (size 15 to 20)
#    0.000    2.333    0.000    3.250    1.167    6.667 
#    0.000    2.500    0.000    4.000    0.000    0.000 
#    0.000    0.000    0.000    0.000    0.000    0.000 
#
# Total GULP energy -267711.789434 kJ/mol
# GULP energy per Si atom -5577.328947 kJ/mol
# Density = 2.125754 g / cm^3
# Si number density = 21.306033 Si / 1000 Ang^3
#
#
#
# Elastic Constant Matrix: (Units=GPa)
#
#
# Indices 1 2 3 4 5 6 
#
# 1 138.0680 73.0344 -1.0906 0.0000 0.0000 0.0000
# 2 73.0344 175.2721 11.6583 0.0000 0.0000 0.0000
# 3 -1.0906 11.6583 24.4405 0.0000 0.0000 0.0000
# 4 0.0000 0.0000 0.0000 16.4610 0.0000 0.0000
# 5 0.0000 0.0000 0.0000 0.0000 27.0002 0.0000
# 6 0.0000 0.0000 0.0000 0.0000 0.0000 -89.3047
#
#
#
# Elastic Compliance Matrix: (Units=1/GPa)
#
#
# Indices 1 2 3 4 5 6 
#
# 1 0.009422 -0.004083 0.002368 0.000000 0.000000 0.000000
# 2 -0.004083 0.007662 -0.003837 0.000000 0.000000 0.000000
# 3 0.002368 -0.003837 0.042852 0.000000 0.000000 0.000000
# 4 0.000000 0.000000 0.000000 0.060750 0.000000 0.000000
# 5 0.000000 0.000000 0.000000 0.000000 0.037037 0.000000
# 6 0.000000 0.000000 0.000000 0.000000 0.000000 -0.011198
#
#
# Mechanical properties :
#
#
# Convention : Reuss Voigt Hill
#
# Bulk Modulus (GPa) = 20.47887 56.10943 38.29415
# Shear Modulus (GPa) = 28.75123 7.77653 18.26388
#
# Velocity S-wave (km/s) = 3.67746 1.91255 2.93100
# Velocity P-wave (km/s) = 5.25968 5.59189 5.42833
#
# Compressibility (1/GPa) = 0.04883081
#
# Stress axis : x y z
#
# Youngs Moduli (GPa) = 106.13992 130.51155 23.33629
#
# Poissons Ratio (x) = 0.53293 -0.05527
# Poissons Ratio (y) = 0.43341 0.08954
# Poissons Ratio (z) = -0.25136 0.50079
#
# Static dielectric constant tensor:
#      x y z
#    x 1.801060 0.000000 0.000000 
#    y 0.000000 4.805710 0.000000 
#    z 0.000000 0.000000 1.781270 
# 
# From -- ./inp_files/13933.got.cif
#   From: 2010.05.17/outbox.cif.g08.bks.cpg/sg47_7_cif.got.tgz:13933.got - 2010.06.03 20:15:42.
