data_PCOD9387248
_publ_section_title
;
Structure prediction by ZEFSAII (Michael W. Deem and Ramdas Pophale) SiO2 
 PCOD9387248
Probable space group: P M M M
;
_chemical_formula_sum "Si O2"
_cell_formula_units_Z 48
_cell_length_a 31.527878
_cell_length_b 9.783938
_cell_length_c 7.502825
_cell_angle_alpha 90.000000
_cell_angle_beta 90.000000
_cell_angle_gamma 90.000000
_cell_volume 2314.372446
_symmetry_space_group_name_H-M "P M M M"
_symmetry_group_IT_number 47
_symmetry_cell_setting 'orthorhombic'
loop_
_space_group_symop_operation_xyz
x,y,z
-x,-y,z
x,-y,-z
-x,y,-z
-x,-y,-z
x,y,-z
-x,y,z
x,-y,z
loop_
_atom_site_type_symbol
_atom_site_label
_atom_site_fract_x
_atom_site_fract_y
_atom_site_fract_z
Si Si1 0.720018 0.343910 0.214875
Si Si2 0.951611 0.153745 0.214866
Si Si3 0.799226 0.154418 0.711231
Si Si4 0.873879 0.654173 0.710938
Si Si5 0.452946 0.158234 0.782578
Si Si6 0.624503 0.657182 0.782678
O O1 0.729479 0.500000 0.275538
O O2 0.755437 0.235980 0.267528
O O3 0.672331 0.306189 0.274267
O O4 0.719402 0.347955 0.000000
O O5 0.918323 0.267924 0.269121
O O6 0.000000 0.179150 0.274604
O O7 0.939093 0.000000 0.274619
O O8 0.952177 0.151471 0.000000
O O9 0.806963 0.142131 0.500000
O O10 0.836961 0.248608 0.786648
O O11 0.798036 0.000000 0.784046
O O12 0.865729 0.642059 0.500000
O O13 0.874140 0.500000 0.784364
O O14 0.500000 0.206084 0.727431
O O15 0.413460 0.247265 0.719768
O O16 0.448397 0.000000 0.730542
O O17 0.452550 0.161529 0.000000
O O18 0.617052 0.500000 0.732147
O O19 0.624470 0.662187 0.000000
#
# Coordination Sequence:
#
# PCOD9387248 Si02
#       6
#     8   8   8   8   8   8
#     4   9  18  32  49  70  96 125 158 196 239 288
#     4   9  19  36  56  78 105 136 168 201 238 281
#     4  10  21  36  53  73  97 126 162 202 242 286
#     4  10  21  36  54  76 101 130 164 201 242 287
#     4   8  13  20  30  47  74 109 147 184 223 269
#     4   8  14  24  37  55  81 112 146 185 227 272
#
# _framework density 20.739961999999998
#
# number of rings (size 3 to 8) (size 9 to 14) (size 15 to 20)
#    0.000    3.000    0.000    3.000    0.000    5.000 
#    0.000    5.833    0.000    0.000    0.000    0.000 
#    0.000    0.667    0.000    7.333    0.000   12.000 
#
# Total GULP energy -267828.700951 kJ/mol
# GULP energy per Si atom -5579.764603 kJ/mol
# Density = 2.069276 g / cm^3
# Si number density = 20.739962 Si / 1000 Ang^3
#
#
#
# Elastic Constant Matrix: (Units=GPa)
#
#
# Indices 1 2 3 4 5 6 
#
# 1 167.5387 139.6668 -1.2173 0.0000 0.0000 0.0000
# 2 139.6668 184.5346 7.5127 0.0000 0.0000 0.0000
# 3 -1.2173 7.5127 54.2833 0.0000 0.0000 0.0000
# 4 0.0000 0.0000 0.0000 12.0981 0.0000 0.0000
# 5 0.0000 0.0000 0.0000 0.0000 17.9443 0.0000
# 6 0.0000 0.0000 0.0000 0.0000 0.0000 34.4761
#
#
#
# Elastic Compliance Matrix: (Units=1/GPa)
#
#
# Indices 1 2 3 4 5 6 
#
# 1 0.016408 -0.012504 0.002098 0.000000 0.000000 0.000000
# 2 -0.012504 0.014978 -0.002353 0.000000 0.000000 0.000000
# 3 0.002098 -0.002353 0.018795 0.000000 0.000000 0.000000
# 4 0.000000 0.000000 0.000000 0.082657 0.000000 0.000000
# 5 0.000000 0.000000 0.000000 0.000000 0.055728 0.000000
# 6 0.000000 0.000000 0.000000 0.000000 0.000000 0.029006
#
#
# Mechanical properties :
#
#
# Convention : Reuss Voigt Hill
#
# Bulk Modulus (GPa) = 40.54599 77.58678 59.06639
# Shear Modulus (GPa) = 19.89575 30.26333 25.07954
#
# Velocity S-wave (km/s) = 3.10061 3.82406 3.48118
# Velocity P-wave (km/s) = 5.69302 7.54907 6.68577
#
# Compressibility (1/GPa) = 0.02466335
#
# Stress axis : x y z
#
# Youngs Moduli (GPa) = 60.94751 66.76295 53.20666
#
# Poissons Ratio (x) = 0.83478 -0.11165
# Poissons Ratio (y) = 0.76207 0.12522
# Poissons Ratio (z) = -0.12789 0.15712
#
# Static dielectric constant tensor:
#      x y z
#    x 1.720920 0.000000 0.000000 
#    y 0.000000 1.718700 0.000000 
#    z 0.000000 0.000000 1.826870 
# 
# From -- ./inp_files/2462.got.cif
#   From: 2010.05.17/outbox.cif.g08.bks.cpg/sg47_2_cif.got.tgz:2462.got - 2010.06.03 20:15:42.
