data_PCOD9387818
_publ_section_title
;
Structure prediction by ZEFSAII (Michael W. Deem and Ramdas Pophale) SiO2 
 PCOD9387818
Probable space group: P M M M
;
_chemical_formula_sum "Si O2"
_cell_formula_units_Z 64
_cell_length_a 15.386760
_cell_length_b 25.395833
_cell_length_c 7.600619
_cell_angle_alpha 90.000000
_cell_angle_beta 90.000000
_cell_angle_gamma 90.000000
_cell_volume 2970.014744
_symmetry_space_group_name_H-M "P M M M"
_symmetry_group_IT_number 47
_symmetry_cell_setting 'orthorhombic'
loop_
_space_group_symop_operation_xyz
x,y,z
-x,-y,z
x,-y,-z
-x,y,-z
-x,-y,-z
x,y,-z
-x,y,z
x,-y,z
loop_
_atom_site_type_symbol
_atom_site_label
_atom_site_fract_x
_atom_site_fract_y
_atom_site_fract_z
Si Si1 0.774092 0.245744 0.703022
Si Si2 0.902104 0.844506 0.207038
Si Si3 0.600487 0.559809 0.214732
Si Si4 0.251516 0.362952 0.201411
Si Si5 0.901987 0.439186 0.712766
Si Si6 0.405796 0.921360 0.792516
Si Si7 0.787027 0.942407 0.784811
Si Si8 0.593492 0.797813 0.286640
O O1 0.773555 0.229957 0.500000
O O2 0.851545 0.210890 0.779829
O O3 0.778082 0.308470 0.713566
O O4 0.680210 0.229833 0.779849
O O5 0.842430 0.892313 0.278419
O O6 0.000000 0.842457 0.280789
O O7 0.909994 0.855646 0.000000
O O8 0.500000 0.568707 0.264853
O O9 0.625143 0.500000 0.269685
O O10 0.666269 0.604861 0.277942
O O11 0.603967 0.559905 0.000000
O O12 0.171355 0.402814 0.209036
O O13 0.272847 0.350033 0.000000
O O14 0.896863 0.436362 0.500000
O O15 0.888800 0.500000 0.762991
O O16 0.000000 0.423841 0.763685
O O17 0.500000 0.938486 0.719074
O O18 0.313154 0.940106 0.721916
O O19 0.403317 0.858318 0.771461
O O20 0.406945 0.934501 0.000000
O O21 0.823806 0.000000 0.739383
O O22 0.783478 0.939423 0.000000
O O23 0.593846 0.796224 0.500000
O O24 0.500000 0.775386 0.228666
#
# Coordination Sequence:
#
# PCOD9387818 Si02
#       8
#     8   8   8   8   8   8   8   8
#     4  11  23  38  56  77 105 143 181 221 273 328
#     4  10  21  38  59  80 104 136 178 228 276 324
#     4   8  15  30  52  79 113 150 184 219 263 314
#     4  11  22  34  54  84 114 143 181 228 272 317
#     4   9  19  37  59  81 108 143 179 217 267 325
#     4   9  16  27  48  77 107 139 172 208 253 307
#     4   9  17  30  51  81 114 141 169 213 268 325
#     4   9  18  33  53  75 100 134 175 216 259 309
#
# _framework density 21.548714
#
# number of rings (size 3 to 8) (size 9 to 14) (size 15 to 20)
#    0.000    2.500    1.250    1.875    0.000    3.250 
#    0.000    3.125    0.000    2.625    0.000    7.000 
#    0.000    0.000    0.000    0.000    0.000    0.000 
#
# Total GULP energy -357079.488880 kJ/mol
# GULP energy per Si atom -5579.367014 kJ/mol
# Density = 2.149967 g / cm^3
# Si number density = 21.548714 Si / 1000 Ang^3
#
#
#
# Elastic Constant Matrix: (Units=GPa)
#
#
# Indices 1 2 3 4 5 6 
#
# 1 161.3731 83.6607 7.5214 0.0000 0.0000 0.0000
# 2 83.6607 108.1119 -2.9159 0.0000 0.0000 0.0000
# 3 7.5214 -2.9159 43.9900 0.0000 0.0000 0.0000
# 4 0.0000 0.0000 0.0000 4.0842 0.0000 0.0000
# 5 0.0000 0.0000 0.0000 0.0000 -8.9917 0.0000
# 6 0.0000 0.0000 0.0000 0.0000 0.0000 -13.5394
#
#
#
# Elastic Compliance Matrix: (Units=1/GPa)
#
#
# Indices 1 2 3 4 5 6 
#
# 1 0.010587 -0.008256 -0.002357 0.000000 0.000000 0.000000
# 2 -0.008256 0.015705 0.002453 0.000000 0.000000 0.000000
# 3 -0.002357 0.002453 0.023298 0.000000 0.000000 0.000000
# 4 0.000000 0.000000 0.000000 0.244848 0.000000 0.000000
# 5 0.000000 0.000000 0.000000 0.000000 -0.111213 0.000000
# 6 0.000000 0.000000 0.000000 0.000000 0.000000 -0.073859
#
#
# Mechanical properties :
#
#
# Convention : Reuss Voigt Hill
#
# Bulk Modulus (GPa) = 30.05901 54.44528 42.25215
# Shear Modulus (GPa) = 36.55591 11.32453 23.94022
#
# Velocity S-wave (km/s) = 4.12324 2.29494 3.33675
# Velocity P-wave (km/s) = 6.05374 5.68712 5.87329
#
# Compressibility (1/GPa) = 0.03326789
#
# Stress axis : x y z
#
# Youngs Moduli (GPa) = 94.45642 63.67540 42.92198
#
# Poissons Ratio (x) = 0.52571 0.10118
# Poissons Ratio (y) = 0.77984 -0.10527
# Poissons Ratio (z) = 0.22267 -0.15617
#
# Static dielectric constant tensor:
#      x y z
#    x 1.795800 0.000000 0.000000 
#    y 0.000000 1.753150 0.000000 
#    z 0.000000 0.000000 1.829420 
# 
# From -- ./inp_files/7898.got.cif
#   From: 2010.05.17/outbox.cif.g08.bks.cpg/sg47_4_cif.got.tgz:7898.got - 2010.06.03 20:15:42.
