data_PCOD9387186
_publ_section_title
;
Structure prediction by ZEFSAII (Michael W. Deem and Ramdas Pophale) SiO2 
 PCOD9387186
Probable space group: P M M M
;
_chemical_formula_sum "Si O2"
_cell_formula_units_Z 37
_cell_length_a 9.745527
_cell_length_b 23.351026
_cell_length_c 7.579552
_cell_angle_alpha 90.000000
_cell_angle_beta 90.000000
_cell_angle_gamma 90.000000
_cell_volume 1724.863902
_symmetry_space_group_name_H-M "P M M M"
_symmetry_group_IT_number 47
_symmetry_cell_setting 'orthorhombic'
loop_
_space_group_symop_operation_xyz
x,y,z
-x,-y,z
x,-y,-z
-x,y,-z
-x,-y,-z
x,y,-z
-x,y,z
x,-y,z
loop_
_atom_site_type_symbol
_atom_site_label
_atom_site_fract_x
_atom_site_fract_y
_atom_site_fract_z
Si Si1 0.343297 0.565130 0.284960
Si Si2 0.655368 0.775718 0.289344
Si Si3 0.269580 0.000000 0.693704
Si Si4 0.157748 0.329492 0.716160
Si Si5 0.150641 0.880266 0.210757
Si Si6 0.500000 0.000000 0.000000
O O1 0.342516 0.565201 0.500000
O O2 0.500000 0.579329 0.232008
O O3 0.312919 0.500000 0.228960
O O4 0.234901 0.612536 0.227747
O O5 0.646048 0.767961 0.500000
O O6 0.500000 0.774552 0.219055
O O7 0.752139 0.724536 0.223103
O O8 0.730784 0.835635 0.257539
O O9 0.180624 0.942586 0.713042
O O10 0.333288 0.000000 0.500000
O O11 0.381008 0.000000 0.846641
O O12 0.156767 0.329033 0.500000
O O13 0.000000 0.326477 0.773526
O O14 0.000000 0.859113 0.268817
O O15 0.149688 0.885570 0.000000
#
# Coordination Sequence:
#
# PCOD9387186 Si02
#       6
#     8   8   4   8   8   1
#     4   8  13  21  34  54  85 128 175 224 284 352
#     4  10  21  35  54  80 109 146 193 241 295 361
#     4  12  26  44  72  99 130 175 213 256 315 369
#     4   9  16  26  41  63  95 134 179 234 289 350
#     4  11  24  43  64  89 123 159 199 252 311 369
#     4  12  26  48  66 102 144 168 208 272 302 370
#
# _framework density 21.450966999999999
#
# number of rings (size 3 to 8) (size 9 to 14) (size 15 to 20)
#    0.000    2.162    1.081    3.081    1.514    7.351 
#    0.000    2.162    0.000    0.000    0.000    0.000 
#    0.000    0.865    0.000    9.081    0.000   12.541 
#
# Total GULP energy -206498.842512 kJ/mol
# GULP energy per Si atom -5581.049798 kJ/mol
# Density = 2.140214 g / cm^3
# Si number density = 21.450967 Si / 1000 Ang^3
#
#
#
# Elastic Constant Matrix: (Units=GPa)
#
#
# Indices 1 2 3 4 5 6 
#
# 1 211.8199 117.5478 19.1485 0.0000 0.0000 0.0000
# 2 117.5478 163.7942 -5.1650 0.0000 0.0000 0.0000
# 3 19.1485 -5.1650 77.4453 0.0000 0.0000 0.0000
# 4 0.0000 0.0000 0.0000 -174.5328 0.0000 0.0000
# 5 0.0000 0.0000 0.0000 0.0000 58.6182 0.0000
# 6 0.0000 0.0000 0.0000 0.0000 0.0000 66.0290
#
#
#
# Elastic Compliance Matrix: (Units=1/GPa)
#
#
# Indices 1 2 3 4 5 6 
#
# 1 0.008285 -0.006023 -0.002450 0.000000 0.000000 0.000000
# 2 -0.006023 0.010497 0.002189 0.000000 0.000000 0.000000
# 3 -0.002450 0.002189 0.013664 0.000000 0.000000 0.000000
# 4 0.000000 0.000000 0.000000 -0.005730 0.000000 0.000000
# 5 0.000000 0.000000 0.000000 0.000000 0.017060 0.000000
# 6 0.000000 0.000000 0.000000 0.000000 0.000000 0.015145
#
#
# Mechanical properties :
#
#
# Convention : Reuss Voigt Hill
#
# Bulk Modulus (GPa) = 50.30692 79.56911 64.93802
# Shear Modulus (GPa) = 64.00888 11.45809 37.73349
#
# Velocity S-wave (km/s) = 5.46849 2.31368 4.19866
# Velocity P-wave (km/s) = 7.96087 6.65669 7.33781
#
# Compressibility (1/GPa) = 0.01987798
#
# Stress axis : x y z
#
# Youngs Moduli (GPa) = 120.70200 95.26850 73.18420
#
# Poissons Ratio (x) = 0.57380 0.17931
# Poissons Ratio (y) = 0.72698 -0.16022
# Poissons Ratio (z) = 0.29574 -0.20856
#
# Static dielectric constant tensor:
#      x y z
#    x 1.744430 0.000000 0.000000 
#    y 0.000000 1.743450 0.000000 
#    z 0.000000 0.000000 1.800230 
# 
# From -- ./inp_files/1525.got.cif
#   From: 2010.05.17/outbox.cif.g08.bks.cpg/sg47_1_cif.got.tgz:1525.got - 2010.06.03 20:15:42.
