data_PCOD9387851
_publ_section_title
;
Structure prediction by ZEFSAII (Michael W. Deem and Ramdas Pophale) SiO2 
 PCOD9387851
Probable space group: P M M M
;
_chemical_formula_sum "Si O2"
_cell_formula_units_Z 33
_cell_length_a 13.313414
_cell_length_b 15.071951
_cell_length_c 8.897642
_cell_angle_alpha 90.000000
_cell_angle_beta 90.000000
_cell_angle_gamma 90.000000
_cell_volume 1785.393044
_symmetry_space_group_name_H-M "P M M M"
_symmetry_group_IT_number 47
_symmetry_cell_setting 'orthorhombic'
loop_
_space_group_symop_operation_xyz
x,y,z
-x,-y,z
x,-y,-z
-x,y,-z
-x,-y,-z
x,y,-z
-x,y,z
x,-y,z
loop_
_atom_site_type_symbol
_atom_site_label
_atom_site_fract_x
_atom_site_fract_y
_atom_site_fract_z
Si Si1 0.500000 0.680119 0.166532
Si Si2 0.000000 0.107100 0.329061
Si Si3 0.708180 0.727099 0.678472
Si Si4 0.790588 0.104511 0.821577
Si Si5 0.116004 0.605140 0.181223
Si Si6 0.500000 0.500000 0.000000
O O1 0.398795 0.699250 0.255558
O O2 0.500000 0.577235 0.127041
O O3 0.500000 0.726063 0.000000
O O4 0.098295 0.129733 0.235636
O O5 0.000000 0.142589 0.500000
O O6 0.000000 0.000000 0.340634
O O7 0.711492 0.720256 0.500000
O O8 0.721608 0.828508 0.731507
O O9 0.798811 0.666854 0.746165
O O10 0.774192 0.000000 0.790520
O O11 0.782418 0.118009 0.000000
O O12 0.131857 0.500000 0.215918
O O13 0.000000 0.627404 0.224376
O O14 0.122821 0.613939 0.000000
#
# Coordination Sequence:
#
# PCOD9387851 Si02
#       6
#     4   4   8   8   8   1
#     4  10  23  45  68  92 116 156 209 251 302 364
#     4   9  17  31  53  83 120 157 200 257 315 363
#     4  12  25  39  61  92 129 162 200 257 317 374
#     4  10  21  38  60  86 118 165 216 259 304 364
#     4   9  20  39  62  87 119 162 208 251 301 368
#     4   8  24  44  78  92 112 164 206 268 304 354
#
# _framework density 18.483324
#
# number of rings (size 3 to 8) (size 9 to 14) (size 15 to 20)
#    0.364    1.576    0.000    4.364    3.394    3.879 
#    0.000    2.424    0.000    3.636    0.000    0.000 
#    0.000    0.000    0.000    0.000    0.000    0.000 
#
# Total GULP energy -183852.383591 kJ/mol
# GULP energy per Si atom -5571.284351 kJ/mol
# Density = 1.844126 g / cm^3
# Si number density = 18.483324 Si / 1000 Ang^3
#
#
#
# Elastic Constant Matrix: (Units=GPa)
#
#
# Indices 1 2 3 4 5 6 
#
# 1 141.5930 75.6329 74.0413 0.0000 0.0000 0.0000
# 2 75.6329 88.2397 62.2103 0.0000 0.0000 0.0000
# 3 74.0413 62.2103 121.7530 0.0000 0.0000 0.0000
# 4 0.0000 0.0000 0.0000 14.4746 0.0000 0.0000
# 5 0.0000 0.0000 0.0000 0.0000 -91.7600 0.0000
# 6 0.0000 0.0000 0.0000 0.0000 0.0000 -83.3364
#
#
#
# Elastic Compliance Matrix: (Units=1/GPa)
#
#
# Indices 1 2 3 4 5 6 
#
# 1 0.014034 -0.009397 -0.003733 0.000000 0.000000 0.000000
# 2 -0.009397 0.024006 -0.006551 0.000000 0.000000 0.000000
# 3 -0.003733 -0.006551 0.013831 0.000000 0.000000 0.000000
# 4 0.000000 0.000000 0.000000 0.069087 0.000000 0.000000
# 5 0.000000 0.000000 0.000000 0.000000 -0.010898 0.000000
# 6 0.000000 0.000000 0.000000 0.000000 0.000000 -0.012000
#
#
# Mechanical properties :
#
#
# Convention : Reuss Voigt Hill
#
# Bulk Modulus (GPa) = 79.94822 86.15051 83.04937
# Shear Modulus (GPa) = 35.31242 -22.81095 6.25074
#
# Velocity S-wave (km/s) = 4.37567 -3.51684 1.84097
# Velocity P-wave (km/s) = 8.29920 5.49729 7.03907
#
# Compressibility (1/GPa) = 0.01250810
#
# Stress axis : x y z
#
# Youngs Moduli (GPa) = 71.25477 41.65570 72.30174
#
# Poissons Ratio (x) = 0.39145 0.26990
# Poissons Ratio (y) = 0.66960 0.47368
# Poissons Ratio (z) = 0.26599 0.27290
#
# Static dielectric constant tensor:
#      x y z
#    x 1.437030 0.000000 0.000000 
#    y 0.000000 1.645660 0.000000 
#    z 0.000000 0.000000 1.625420 
# 
# From -- ./inp_files/3447.got.cif
#   From: 2010.05.17/outbox.cif.g08.bks.cpg/sg47_2_cif.got.tgz:3447.got - 2010.06.03 20:15:42.
