data_PCOD9387700
_publ_section_title
;
Structure prediction by ZEFSAII (Michael W. Deem and Ramdas Pophale) SiO2 
 PCOD9387700
Probable space group: P M M M
;
_chemical_formula_sum "Si O2"
_cell_formula_units_Z 44
_cell_length_a 7.981358
_cell_length_b 9.199884
_cell_length_c 32.179175
_cell_angle_alpha 90.000000
_cell_angle_beta 90.000000
_cell_angle_gamma 90.000000
_cell_volume 2362.838553
_symmetry_space_group_name_H-M "P M M M"
_symmetry_group_IT_number 47
_symmetry_cell_setting 'orthorhombic'
loop_
_space_group_symop_operation_xyz
x,y,z
-x,-y,z
x,-y,-z
-x,y,-z
-x,-y,-z
x,y,-z
-x,y,z
x,-y,z
loop_
_atom_site_type_symbol
_atom_site_label
_atom_site_fract_x
_atom_site_fract_y
_atom_site_fract_z
Si Si1 0.500000 0.675122 0.224495
Si Si2 0.500000 0.824167 0.686322
Si Si3 0.187877 0.326520 0.166203
Si Si4 0.701715 0.327885 0.453499
Si Si5 0.813541 0.825482 0.370650
Si Si6 0.300583 0.168308 0.916194
Si Si7 0.798718 0.332603 0.000000
O O1 0.500000 0.500000 0.229730
O O2 0.500000 0.752337 0.268717
O O3 0.665192 0.715132 0.197977
O O4 0.335315 0.780065 0.660159
O O5 0.500000 0.000000 0.690043
O O6 0.203211 0.500000 0.158843
O O7 0.213616 0.245221 0.122727
O O8 0.000000 0.297884 0.182196
O O9 0.753781 0.281429 0.500000
O O10 0.500000 0.309691 0.450824
O O11 0.736377 0.500000 0.449748
O O12 0.783912 0.242912 0.415829
O O13 0.000000 0.786599 0.355561
O O14 0.804181 0.000000 0.374300
O O15 0.500000 0.173516 0.908938
O O16 0.249136 0.000000 0.919547
O O17 0.261968 0.251067 0.958815
O O18 0.741003 0.500000 0.000000
O O19 0.000000 0.331914 0.000000
#
# Coordination Sequence:
#
# PCOD9387700 Si02
#       7
#     4   4   8   8   8   8   4
#     4  10  22  40  62  88 116 146 184 235 285 339
#     4  10  22  40  59  81 113 148 184 232 286 339
#     4  10  21  39  63  89 117 151 190 231 282 342
#     4   9  18  33  54  81 113 149 189 233 281 332
#     4  10  21  37  57  82 112 149 192 233 278 335
#     4  11  23  38  58  86 119 154 195 239 285 337
#     4  11  24  39  56  82 116 157 202 242 285 337
#
# _framework density 18.621670000000002
#
# number of rings (size 3 to 8) (size 9 to 14) (size 15 to 20)
#    0.000    1.909    1.818    2.182    0.000    8.727 
#    0.000    2.727    0.000    0.000    0.000    0.000 
#    0.000    0.000    0.000    0.000    0.000    0.000 
#
# Total GULP energy -245760.087880 kJ/mol
# GULP energy per Si atom -5585.456543 kJ/mol
# Density = 1.857929 g / cm^3
# Si number density = 18.621670 Si / 1000 Ang^3
#
#
#
# Elastic Constant Matrix: (Units=GPa)
#
#
# Indices 1 2 3 4 5 6 
#
# 1 135.2748 48.4182 81.4644 0.0000 0.0000 0.0000
# 2 48.4182 42.3464 50.7478 0.0000 0.0000 0.0000
# 3 81.4644 50.7478 152.1597 0.0000 0.0000 0.0000
# 4 0.0000 0.0000 0.0000 44.4597 0.0000 0.0000
# 5 0.0000 0.0000 0.0000 0.0000 0.5518 0.0000
# 6 0.0000 0.0000 0.0000 0.0000 0.0000 20.3050
#
#
#
# Elastic Compliance Matrix: (Units=1/GPa)
#
#
# Indices 1 2 3 4 5 6 
#
# 1 0.013532 -0.011311 -0.003473 0.000000 0.000000 0.000000
# 2 -0.011311 0.048792 -0.010217 0.000000 0.000000 0.000000
# 3 -0.003473 -0.010217 0.011839 0.000000 0.000000 0.000000
# 4 0.000000 0.000000 0.000000 0.022492 0.000000 0.000000
# 5 0.000000 0.000000 0.000000 0.000000 1.812309 0.000000
# 6 0.000000 0.000000 0.000000 0.000000 0.000000 0.049249
#
#
# Mechanical properties :
#
#
# Convention : Reuss Voigt Hill
#
# Bulk Modulus (GPa) = 41.38834 76.78241 59.08538
# Shear Modulus (GPa) = 2.47983 23.00667 12.74325
#
# Velocity S-wave (km/s) = 1.15524 3.51875 2.61880
# Velocity P-wave (km/s) = 4.90445 7.60468 6.39862
#
# Compressibility (1/GPa) = 0.02416139
#
# Stress axis : x y z
#
# Youngs Moduli (GPa) = 73.89909 20.49537 84.46834
#
# Poissons Ratio (x) = 0.23182 0.29332
# Poissons Ratio (y) = 0.83586 0.86302
# Poissons Ratio (z) = 0.25662 0.20940
#
# Static dielectric constant tensor:
#      x y z
#    x 1.673110 0.000000 0.000000 
#    y 0.000000 1.622470 0.000000 
#    z 0.000000 0.000000 1.591710 
# 
# From -- ./inp_files/33967.got.cif
#   From: 2010.05.17/outbox.cif.g08.bks.cpg/sg47_17_cif.got.tgz:33967.got - 2010.06.03 20:15:42.
