data_PCOD9387407
_publ_section_title
;
Structure prediction by ZEFSAII (Michael W. Deem and Ramdas Pophale) SiO2 
 PCOD9387407
Probable space group: P M M M
;
_chemical_formula_sum "Si O2"
_cell_formula_units_Z 52
_cell_length_a 15.317066
_cell_length_b 8.167555
_cell_length_c 20.984915
_cell_angle_alpha 90.000000
_cell_angle_beta 90.000000
_cell_angle_gamma 90.000000
_cell_volume 2625.275380
_symmetry_space_group_name_H-M "P M M M"
_symmetry_group_IT_number 47
_symmetry_cell_setting 'orthorhombic'
loop_
_space_group_symop_operation_xyz
x,y,z
-x,-y,z
x,-y,-z
-x,y,-z
-x,-y,-z
x,y,-z
-x,y,z
x,-y,z
loop_
_atom_site_type_symbol
_atom_site_label
_atom_site_fract_x
_atom_site_fract_y
_atom_site_fract_z
Si Si1 0.150662 0.191473 0.428346
Si Si2 0.901023 0.699739 0.926899
Si Si3 0.771389 0.304559 0.817219
Si Si4 0.399093 0.194839 0.762192
Si Si5 0.500000 0.816977 0.425936
Si Si6 0.325542 0.687137 0.372499
Si Si7 0.095852 0.801661 0.291334
O O1 0.137190 0.260720 0.500000
O O2 0.251671 0.206750 0.407064
O O3 0.104132 0.258278 0.364661
O O4 0.126678 0.000000 0.432257
O O5 0.900740 0.500000 0.925491
O O6 0.829399 0.756824 0.876510
O O7 0.000000 0.751581 0.910173
O O8 0.883623 0.748506 0.000000
O O9 0.765902 0.500000 0.820053
O O10 0.672763 0.237936 0.815355
O O11 0.827154 0.259610 0.753975
O O12 0.500000 0.253622 0.769223
O O13 0.353371 0.265657 0.698875
O O14 0.402655 0.000000 0.755917
O O15 0.500000 0.840560 0.500000
O O16 0.415149 0.716747 0.408523
O O17 0.500000 0.000000 0.394626
O O18 0.295980 0.500000 0.374512
O O19 0.000000 0.754493 0.266455
O O20 0.101440 0.000000 0.292650
#
# Coordination Sequence:
#
# PCOD9387407 Si02
#       7
#     8   8   8   8   4   8   8
#     4  10  21  37  55  73 101 144 188 229 280 343
#     4   8  15  30  54  87 126 162 191 220 264 325
#     4  11  21  34  58  89 118 148 185 234 284 330
#     4  11  23  39  59  79 107 147 188 230 281 345
#     4  11  23  37  53  73 101 139 178 219 280 355
#     4  12  23  35  54  78 103 133 176 234 292 340
#     4  10  21  36  55  79 109 148 191 233 279 336
#
# _framework density 19.807445999999999
#
# number of rings (size 3 to 8) (size 9 to 14) (size 15 to 20)
#    0.000    1.615    2.308    3.923    0.000    4.923 
#    0.000    1.538    0.000    2.308    0.000   10.769 
#    0.000    0.000    0.000    0.000    0.000    0.000 
#
# Total GULP energy -290115.265038 kJ/mol
# GULP energy per Si atom -5579.139712 kJ/mol
# Density = 1.976236 g / cm^3
# Si number density = 19.807446 Si / 1000 Ang^3
#
#
#
# Elastic Constant Matrix: (Units=GPa)
#
#
# Indices 1 2 3 4 5 6 
#
# 1 106.2876 1.4327 47.4216 0.0000 0.0000 0.0000
# 2 1.4327 33.0278 5.6999 0.0000 0.0000 0.0000
# 3 47.4216 5.6999 103.9691 0.0000 0.0000 0.0000
# 4 0.0000 0.0000 0.0000 16.4566 0.0000 0.0000
# 5 0.0000 0.0000 0.0000 0.0000 24.8375 0.0000
# 6 0.0000 0.0000 0.0000 0.0000 0.0000 17.5741
#
#
#
# Elastic Compliance Matrix: (Units=1/GPa)
#
#
# Indices 1 2 3 4 5 6 
#
# 1 0.011818 0.000422 -0.005413 0.000000 0.000000 0.000000
# 2 0.000422 0.030582 -0.001869 0.000000 0.000000 0.000000
# 3 -0.005413 -0.001869 0.012190 0.000000 0.000000 0.000000
# 4 0.000000 0.000000 0.000000 0.060766 0.000000 0.000000
# 5 0.000000 0.000000 0.000000 0.000000 0.040262 0.000000
# 6 0.000000 0.000000 0.000000 0.000000 0.000000 0.056902
#
#
# Mechanical properties :
#
#
# Convention : Reuss Voigt Hill
#
# Bulk Modulus (GPa) = 24.46891 39.15475 31.81183
# Shear Modulus (GPa) = 20.84519 24.35566 22.60043
#
# Velocity S-wave (km/s) = 3.24758 3.51040 3.38154
# Velocity P-wave (km/s) = 5.14223 6.02006 5.59838
#
# Compressibility (1/GPa) = 0.04086819
#
# Stress axis : x y z
#
# Youngs Moduli (GPa) = 84.61637 32.69921 82.03541
#
# Poissons Ratio (x) = -0.01379 0.44410
# Poissons Ratio (y) = -0.03568 0.15331
# Poissons Ratio (z) = 0.45807 0.06111
#
# Static dielectric constant tensor:
#      x y z
#    x 1.742090 0.000000 0.000000 
#    y 0.000000 1.720130 0.000000 
#    z 0.000000 0.000000 1.724660 
# 
# From -- ./inp_files/30891.got.cif
#   From: 2010.05.17/outbox.cif.g08.bks.cpg/sg47_16_cif.got.tgz:30891.got - 2010.06.03 20:15:42.
