data_PCOD9387958
_publ_section_title
;
Structure prediction by ZEFSAII (Michael W. Deem and Ramdas Pophale) SiO2 
 PCOD9387958
Probable space group: P M M M
;
_chemical_formula_sum "Si O2"
_cell_formula_units_Z 29
_cell_length_a 21.854817
_cell_length_b 8.333868
_cell_length_c 7.571794
_cell_angle_alpha 90.000000
_cell_angle_beta 90.000000
_cell_angle_gamma 90.000000
_cell_volume 1379.089912
_symmetry_space_group_name_H-M "P M M M"
_symmetry_group_IT_number 47
_symmetry_cell_setting 'orthorhombic'
loop_
_space_group_symop_operation_xyz
x,y,z
-x,-y,z
x,-y,-z
-x,y,-z
-x,-y,-z
x,y,-z
-x,y,z
x,-y,z
loop_
_atom_site_type_symbol
_atom_site_label
_atom_site_fract_x
_atom_site_fract_y
_atom_site_fract_z
Si Si1 0.887383 0.500000 0.218919
Si Si2 0.818740 0.826324 0.795888
Si Si3 0.000000 0.500000 0.500000
Si Si4 0.433046 0.186783 0.786888
Si Si5 0.302221 0.677529 0.293277
O O1 0.849822 0.337913 0.268161
O O2 0.946884 0.500000 0.341776
O O3 0.896517 0.500000 0.000000
O O4 0.745697 0.800450 0.788100
O O5 0.834360 0.000000 0.713816
O O6 0.836948 0.834947 0.000000
O O7 0.500000 0.247683 0.728285
O O8 0.372999 0.277603 0.726110
O O9 0.428434 0.000000 0.733515
O O10 0.432780 0.191152 0.000000
O O11 0.287967 0.674993 0.500000
O O12 0.291996 0.500000 0.217536
#
# Coordination Sequence:
#
# PCOD9387958 Si02
#       5
#     4   8   1   8   8
#     4  10  23  45  69 100 138 174 211 261 312 359
#     4  10  21  39  65  93 124 165 211 259 311 368
#     4  12  26  44  78 102 140 178 216 252 298 382
#     4   9  19  36  55  75 104 147 201 257 314 379
#     4  11  23  35  52  82 120 156 200 257 316 377
#
# _framework density 21.028362000000001
#
# number of rings (size 3 to 8) (size 9 to 14) (size 15 to 20)
#    0.000    1.931    1.379    2.690    1.931    7.172 
#    0.000    5.517    0.000    3.310    0.000    0.000 
#    0.000    0.000    0.000    0.000    0.000    0.000 
#
# Total GULP energy -161492.904427 kJ/mol
# GULP energy per Si atom -5568.720842 kJ/mol
# Density = 2.098050 g / cm^3
# Si number density = 21.028362 Si / 1000 Ang^3
#
#
#
# Elastic Constant Matrix: (Units=GPa)
#
#
# Indices 1 2 3 4 5 6 
#
# 1 127.6849 63.9083 14.0551 0.0000 0.0000 0.0000
# 2 63.9083 153.9669 18.1310 0.0000 0.0000 0.0000
# 3 14.0551 18.1310 68.7335 0.0000 0.0000 0.0000
# 4 0.0000 0.0000 0.0000 52.0706 0.0000 0.0000
# 5 0.0000 0.0000 0.0000 0.0000 55.4948 0.0000
# 6 0.0000 0.0000 0.0000 0.0000 0.0000 -8.4112
#
#
#
# Elastic Compliance Matrix: (Units=1/GPa)
#
#
# Indices 1 2 3 4 5 6 
#
# 1 0.009948 -0.004015 -0.000975 0.000000 0.000000 0.000000
# 2 -0.004015 0.008323 -0.001375 0.000000 0.000000 0.000000
# 3 -0.000975 -0.001375 0.015111 0.000000 0.000000 0.000000
# 4 0.000000 0.000000 0.000000 0.019205 0.000000 0.000000
# 5 0.000000 0.000000 0.000000 0.000000 0.018020 0.000000
# 6 0.000000 0.000000 0.000000 0.000000 0.000000 -0.118890
#
#
# Mechanical properties :
#
#
# Convention : Reuss Voigt Hill
#
# Bulk Modulus (GPa) = 48.41769 60.28599 54.35184
# Shear Modulus (GPa) = -174.40374 36.78357 -68.81008
#
# Velocity S-wave (km/s) = -9.11688 4.18692 -5.72657
# Velocity P-wave (km/s) = 9.36741 7.21837 4.22158
#
# Compressibility (1/GPa) = 0.02065361
#
# Stress axis : x y z
#
# Youngs Moduli (GPa) = 100.51785 120.14718 66.17693
#
# Poissons Ratio (x) = 0.48234 0.06455
# Poissons Ratio (y) = 0.40353 0.09097
# Poissons Ratio (z) = 0.09804 0.16516
#
# Static dielectric constant tensor:
#      x y z
#    x 1.723690 0.000000 0.000000 
#    y 0.000000 1.795560 0.000000 
#    z 0.000000 0.000000 1.782700 
# 
# From -- ./inp_files/1015.got.cif
#   From: 2010.05.17/outbox.cif.g08.bks.cpg/sg47_1_cif.got.tgz:1015.got - 2010.06.03 20:15:42.
