data_PCOD9387176
_publ_section_title
;
Structure prediction by ZEFSAII (Michael W. Deem and Ramdas Pophale) SiO2 
 PCOD9387176
Probable space group: P M M M
;
_chemical_formula_sum "Si O2"
_cell_formula_units_Z 48
_cell_length_a 17.432282
_cell_length_b 16.167769
_cell_length_c 8.345105
_cell_angle_alpha 90.000000
_cell_angle_beta 90.000000
_cell_angle_gamma 90.000000
_cell_volume 2351.993644
_symmetry_space_group_name_H-M "P M M M"
_symmetry_group_IT_number 47
_symmetry_cell_setting 'orthorhombic'
loop_
_space_group_symop_operation_xyz
x,y,z
-x,-y,z
x,-y,-z
-x,y,-z
-x,-y,-z
x,y,-z
-x,y,z
x,-y,z
loop_
_atom_site_type_symbol
_atom_site_label
_atom_site_fract_x
_atom_site_fract_y
_atom_site_fract_z
Si Si1 0.088855 0.402252 0.500000
Si Si2 0.411079 0.594399 0.195401
Si Si3 0.156768 0.167866 0.814663
Si Si4 0.685077 0.752053 0.803794
Si Si5 0.911809 0.335848 0.826079
Si Si6 0.411023 0.910321 0.805131
Si Si7 0.086945 0.000000 0.310720
O O1 0.085582 0.500000 0.500000
O O2 0.124554 0.373372 0.332953
O O3 0.000000 0.369550 0.500000
O O4 0.500000 0.613031 0.240827
O O5 0.393268 0.500000 0.246094
O O6 0.352012 0.665368 0.250058
O O7 0.409881 0.594850 0.000000
O O8 0.230472 0.218628 0.751905
O O9 0.090647 0.236960 0.809541
O O10 0.131972 0.082996 0.735869
O O11 0.173329 0.147758 0.000000
O O12 0.631810 0.828555 0.752103
O O13 0.686029 0.748386 0.000000
O O14 0.000000 0.364999 0.832500
O O15 0.875483 0.355651 0.000000
O O16 0.500000 0.906896 0.759114
O O17 0.378969 0.000000 0.753227
O O18 0.408370 0.909870 0.000000
O O19 0.079736 0.000000 0.500000
O O20 0.000000 0.000000 0.240075
#
# Coordination Sequence:
#
# PCOD9387176 Si02
#       7
#     4   8   8   8   8   8   4
#     4   9  18  32  54  81 105 135 174 220 273 327
#     4   8  13  22  38  62  97 144 190 225 260 309
#     4  10  21  35  53  79 109 140 174 220 280 335
#     4   9  16  25  40  64  99 138 175 215 266 323
#     4   9  18  33  53  76 105 141 181 225 274 332
#     4   8  13  20  32  53  85 127 169 206 248 303
#     4  11  25  41  59  81 102 135 182 226 271 333
#
# _framework density 20.408217
#
# number of rings (size 3 to 8) (size 9 to 14) (size 15 to 20)
#    0.000    3.000    0.000    2.250    2.333    3.667 
#    0.000    2.500    0.000    3.000    0.000    0.000 
#    0.000    5.333    0.000    1.833    0.000    1.667 
#
# Total GULP energy -267248.165449 kJ/mol
# GULP energy per Si atom -5567.670114 kJ/mol
# Density = 2.036177 g / cm^3
# Si number density = 20.408217 Si / 1000 Ang^3
#
#
#
# Elastic Constant Matrix: (Units=GPa)
#
#
# Indices 1 2 3 4 5 6 
#
# 1 87.5333 65.6185 7.9528 0.0000 0.0000 0.0000
# 2 65.6185 139.2838 40.2967 0.0000 0.0000 0.0000
# 3 7.9528 40.2967 71.9085 0.0000 0.0000 0.0000
# 4 0.0000 0.0000 0.0000 17.9152 0.0000 0.0000
# 5 0.0000 0.0000 0.0000 0.0000 92.3462 0.0000
# 6 0.0000 0.0000 0.0000 0.0000 0.0000 8.8420
#
#
#
# Elastic Compliance Matrix: (Units=1/GPa)
#
#
# Indices 1 2 3 4 5 6 
#
# 1 0.018315 -0.009599 0.003353 0.000000 0.000000 0.000000
# 2 -0.009599 0.013599 -0.006559 0.000000 0.000000 0.000000
# 3 0.003353 -0.006559 0.017211 0.000000 0.000000 0.000000
# 4 0.000000 0.000000 0.000000 0.055819 0.000000 0.000000
# 5 0.000000 0.000000 0.000000 0.000000 0.010829 0.000000
# 6 0.000000 0.000000 0.000000 0.000000 0.000000 0.113097
#
#
# Mechanical properties :
#
#
# Convention : Reuss Voigt Hill
#
# Bulk Modulus (GPa) = 42.52295 58.49573 50.50934
# Shear Modulus (GPa) = 19.06081 36.14452 27.60267
#
# Velocity S-wave (km/s) = 3.05942 4.21298 3.68166
# Velocity P-wave (km/s) = 5.77594 7.23814 6.54798
#
# Compressibility (1/GPa) = 0.02351671
#
# Stress axis : x y z
#
# Youngs Moduli (GPa) = 54.59972 73.53284 58.10074
#
# Poissons Ratio (x) = 0.70582 -0.19484
# Poissons Ratio (y) = 0.52409 0.38110
# Poissons Ratio (z) = -0.18310 0.48233
#
# Static dielectric constant tensor:
#      x y z
#    x 1.773640 0.000000 0.000000 
#    y 0.000000 1.707190 0.000000 
#    z 0.000000 0.000000 1.766230 
# 
# From -- ./inp_files/9237.got.cif
#   From: 2010.05.17/outbox.cif.g08.bks.cpg/sg47_5_cif.got.tgz:9237.got - 2010.06.03 20:15:42.
