data_PCOD9387519
_publ_section_title
;
Structure prediction by ZEFSAII (Michael W. Deem and Ramdas Pophale) SiO2 
 PCOD9387519
Probable space group: P M M M
;
_chemical_formula_sum "Si O2"
_cell_formula_units_Z 48
_cell_length_a 9.432181
_cell_length_b 17.390244
_cell_length_c 15.212568
_cell_angle_alpha 90.000000
_cell_angle_beta 90.000000
_cell_angle_gamma 90.000000
_cell_volume 2495.286024
_symmetry_space_group_name_H-M "P M M M"
_symmetry_group_IT_number 47
_symmetry_cell_setting 'orthorhombic'
loop_
_space_group_symop_operation_xyz
x,y,z
-x,-y,z
x,-y,-z
-x,y,-z
-x,-y,-z
x,y,-z
-x,y,z
x,-y,z
loop_
_atom_site_type_symbol
_atom_site_label
_atom_site_fract_x
_atom_site_fract_y
_atom_site_fract_z
Si Si1 0.329860 0.368050 0.785541
Si Si2 0.837959 0.852037 0.350153
Si Si3 0.840273 0.089472 0.151916
Si Si4 0.828718 0.500000 0.894560
Si Si5 0.668942 0.697739 0.601445
Si Si6 0.344500 0.000000 0.397542
Si Si7 0.667869 0.772739 0.094464
O O1 0.500000 0.381765 0.796978
O O2 0.240699 0.428335 0.842339
O O3 0.300995 0.362315 0.680753
O O4 0.294286 0.284831 0.827224
O O5 0.845125 0.868578 0.246220
O O6 0.759853 0.774011 0.378167
O O7 0.745296 0.924188 0.379749
O O8 0.000000 0.853254 0.383549
O O9 0.737860 0.144189 0.098787
O O10 0.000000 0.090137 0.115701
O O11 0.797512 0.000000 0.161027
O O12 0.000000 0.500000 0.886775
O O13 0.795176 0.500000 0.000000
O O14 0.694746 0.673104 0.500000
O O15 0.500000 0.715891 0.608577
O O16 0.500000 0.000000 0.352540
O O17 0.366560 0.000000 0.500000
O O18 0.500000 0.782535 0.099195
O O19 0.704087 0.735987 0.000000
#
# Coordination Sequence:
#
# PCOD9387519 Si02
#       7
#     8   8   8   4   8   4   8
#     4  10  21  40  66  93 124 162 199 240 294 357
#     4  11  21  35  54  78 110 150 197 249 304 360
#     4  10  21  37  54  76 110 153 200 247 300 360
#     4  11  25  43  66  99 132 160 195 243 298 353
#     4  10  21  38  61  90 121 155 199 245 290 347
#     4  11  23  35  49  73 106 147 198 255 311 362
#     4  10  21  37  59  87 114 147 197 249 298 356
#
# _framework density 19.236270999999999
#
# number of rings (size 3 to 8) (size 9 to 14) (size 15 to 20)
#    0.000    1.667    2.500    2.000    0.000    7.333 
#    0.000    2.083    0.000    2.500    0.000    0.000 
#    0.000    0.000    0.000    0.000    0.000    0.000 
#
# Total GULP energy -267557.675480 kJ/mol
# GULP energy per Si atom -5574.118239 kJ/mol
# Density = 1.919249 g / cm^3
# Si number density = 19.236271 Si / 1000 Ang^3
#
#
#
# Elastic Constant Matrix: (Units=GPa)
#
#
# Indices 1 2 3 4 5 6 
#
# 1 77.4300 52.2560 53.5356 0.0000 0.0000 0.0000
# 2 52.2560 93.1874 51.1039 0.0000 0.0000 0.0000
# 3 53.5356 51.1039 141.3127 0.0000 0.0000 0.0000
# 4 0.0000 0.0000 0.0000 18.1161 0.0000 0.0000
# 5 0.0000 0.0000 0.0000 0.0000 18.1499 0.0000
# 6 0.0000 0.0000 0.0000 0.0000 0.0000 960.5921
#
#
#
# Elastic Compliance Matrix: (Units=1/GPa)
#
#
# Indices 1 2 3 4 5 6 
#
# 1 0.023439 -0.010321 -0.005147 0.000000 0.000000 0.000000
# 2 -0.010321 0.017930 -0.002574 0.000000 0.000000 0.000000
# 3 -0.005147 -0.002574 0.009957 0.000000 0.000000 0.000000
# 4 0.000000 0.000000 0.000000 0.055200 0.000000 0.000000
# 5 0.000000 0.000000 0.000000 0.000000 0.055097 0.000000
# 6 0.000000 0.000000 0.000000 0.000000 0.000000 0.001041
#
#
# Mechanical properties :
#
#
# Convention : Reuss Voigt Hill
#
# Bulk Modulus (GPa) = 65.60865 69.52457 67.56661
# Shear Modulus (GPa) = 24.53017 209.70724 117.11871
#
# Velocity S-wave (km/s) = 3.57487 10.45243 7.81130
# Velocity P-wave (km/s) = 7.15684 13.48673 10.79612
#
# Compressibility (1/GPa) = 0.01524189
#
# Stress axis : x y z
#
# Youngs Moduli (GPa) = 42.66340 55.77111 100.42681
#
# Poissons Ratio (x) = 0.57562 0.51693
# Poissons Ratio (y) = 0.44033 0.25852
# Poissons Ratio (z) = 0.21960 0.14357
#
# Static dielectric constant tensor:
#      x y z
#    x 1.698400 0.000000 0.000000 
#    y 0.000000 1.619310 0.000000 
#    z 0.000000 0.000000 1.735700 
# 
# From -- ./inp_files/21066.got.cif
#   From: 2010.05.17/outbox.cif.g08.bks.cpg/sg47_11_cif.got.tgz:21066.got - 2010.06.03 20:15:42.
