data_PCOD9387955
_publ_section_title
;
Structure prediction by ZEFSAII (Michael W. Deem and Ramdas Pophale) SiO2 
 PCOD9387955
Probable space group: P M M M
;
_chemical_formula_sum "Si O2"
_cell_formula_units_Z 56
_cell_length_a 16.212320
_cell_length_b 19.763370
_cell_length_c 8.847158
_cell_angle_alpha 90.000000
_cell_angle_beta 90.000000
_cell_angle_gamma 90.000000
_cell_volume 2834.718591
_symmetry_space_group_name_H-M "P M M M"
_symmetry_group_IT_number 47
_symmetry_cell_setting 'orthorhombic'
loop_
_space_group_symop_operation_xyz
x,y,z
-x,-y,z
x,-y,-z
-x,y,-z
-x,-y,-z
x,y,-z
-x,y,z
x,-y,z
loop_
_atom_site_type_symbol
_atom_site_label
_atom_site_fract_x
_atom_site_fract_y
_atom_site_fract_z
Si Si1 0.666812 0.790085 0.321822
Si Si2 0.591347 0.663370 0.818666
Si Si3 0.400596 0.923186 0.177018
Si Si4 0.900465 0.076014 0.676470
Si Si5 0.247370 0.578561 0.817693
Si Si6 0.843235 0.212442 0.178000
Si Si7 0.908634 0.343869 0.680598
O O1 0.680274 0.784093 0.500000
O O2 0.601649 0.735026 0.263907
O O3 0.638928 0.865351 0.277841
O O4 0.750467 0.774048 0.232318
O O5 0.500000 0.634887 0.787859
O O6 0.667928 0.616196 0.772232
O O7 0.597318 0.674002 0.000000
O O8 0.500000 0.919610 0.188672
O O9 0.375784 0.000000 0.216753
O O10 0.379549 0.911581 0.000000
O O11 0.877706 0.086222 0.500000
O O12 0.864845 0.136141 0.775250
O O13 0.000000 0.078188 0.684650
O O14 0.874434 0.000000 0.721233
O O15 0.249630 0.500000 0.773351
O O16 0.166872 0.614744 0.751113
O O17 0.242696 0.582275 0.000000
O O18 0.899466 0.266643 0.263914
O O19 0.851146 0.222140 0.000000
O O20 0.902104 0.345825 0.500000
O O21 0.000000 0.369272 0.724272
#
# Coordination Sequence:
#
# PCOD9387955 Si02
#       7
#     8   8   8   8   8   8   8
#     4  12  24  37  57  85 119 159 204 255 309 365
#     4  10  21  39  64  93 127 167 208 252 304 363
#     4   9  19  37  59  82 112 153 201 253 309 368
#     4   9  19  37  59  83 115 155 198 247 305 368
#     4  10  22  41  66  97 131 167 208 252 298 357
#     4  12  24  38  59  86 118 157 204 258 312 364
#     4  11  24  42  65  93 126 166 209 254 310 371
#
# _framework density 19.755047000000001
#
# number of rings (size 3 to 8) (size 9 to 14) (size 15 to 20)
#    0.000    1.571    1.429    4.714    0.000    7.429 
#    0.000    4.286    0.000    0.000    0.000    2.000 
#    0.000    0.000    0.000    0.000    0.000    0.000 
#
# Total GULP energy -312991.138041 kJ/mol
# GULP energy per Si atom -5589.127465 kJ/mol
# Density = 1.971008 g / cm^3
# Si number density = 19.755047 Si / 1000 Ang^3
#
#
#
# Elastic Constant Matrix: (Units=GPa)
#
#
# Indices 1 2 3 4 5 6 
#
# 1 108.4013 43.8046 21.2060 0.0000 0.0000 0.0000
# 2 43.8046 101.0997 23.6766 0.0000 0.0000 0.0000
# 3 21.2060 23.6766 22.8953 0.0000 0.0000 0.0000
# 4 0.0000 0.0000 0.0000 -21.1054 0.0000 0.0000
# 5 0.0000 0.0000 0.0000 0.0000 28.1735 0.0000
# 6 0.0000 0.0000 0.0000 0.0000 0.0000 14.0212
#
#
#
# Elastic Compliance Matrix: (Units=1/GPa)
#
#
# Indices 1 2 3 4 5 6 
#
# 1 0.012119 -0.003460 -0.007647 0.000000 0.000000 0.000000
# 2 -0.003460 0.014040 -0.011314 0.000000 0.000000 0.000000
# 3 -0.007647 -0.011314 0.062460 0.000000 0.000000 0.000000
# 4 0.000000 0.000000 0.000000 -0.047381 0.000000 0.000000
# 5 0.000000 0.000000 0.000000 0.000000 0.035494 0.000000
# 6 0.000000 0.000000 0.000000 0.000000 0.000000 0.071320
#
#
# Mechanical properties :
#
#
# Convention : Reuss Voigt Hill
#
# Bulk Modulus (GPa) = 22.84316 45.53005 34.18661
# Shear Modulus (GPa) = 24.09785 13.79847 18.94816
#
# Velocity S-wave (km/s) = 3.49640 2.64574 3.10038
# Velocity P-wave (km/s) = 5.28091 5.69479 5.49175
#
# Compressibility (1/GPa) = 0.04377678
#
# Stress axis : x y z
#
# Youngs Moduli (GPa) = 82.51433 71.22413 16.01029
#
# Poissons Ratio (x) = 0.24645 0.12242
# Poissons Ratio (y) = 0.28552 0.18115
# Poissons Ratio (z) = 0.63095 0.80586
#
# Static dielectric constant tensor:
#      x y z
#    x 1.715910 0.000000 0.000000 
#    y 0.000000 1.684270 0.000000 
#    z 0.000000 0.000000 1.658340 
# 
# From -- ./inp_files/7206.got.cif
#   From: 2010.05.17/outbox.cif.g08.bks.cpg/sg47_4_cif.got.tgz:7206.got - 2010.06.03 20:15:42.
