data_PCOD9387867
_publ_section_title
;
Structure prediction by ZEFSAII (Michael W. Deem and Ramdas Pophale) SiO2 
 PCOD9387867
Probable space group: P M M M
;
_chemical_formula_sum "Si O2"
_cell_formula_units_Z 32
_cell_length_a 9.072221
_cell_length_b 7.425072
_cell_length_c 25.257678
_cell_angle_alpha 90.000000
_cell_angle_beta 90.000000
_cell_angle_gamma 90.000000
_cell_volume 1701.405031
_symmetry_space_group_name_H-M "P M M M"
_symmetry_group_IT_number 47
_symmetry_cell_setting 'orthorhombic'
loop_
_space_group_symop_operation_xyz
x,y,z
-x,-y,z
x,-y,-z
-x,y,-z
-x,-y,-z
x,y,-z
-x,y,z
x,-y,z
loop_
_atom_site_type_symbol
_atom_site_label
_atom_site_fract_x
_atom_site_fract_y
_atom_site_fract_z
Si Si1 0.679272 0.500000 0.060144
Si Si2 0.676315 0.788088 0.854002
Si Si3 0.169214 0.219080 0.745593
Si Si4 0.325324 0.214752 0.636679
Si Si5 0.823939 0.500000 0.437678
O O1 0.500000 0.500000 0.057621
O O2 0.721792 0.327219 0.095125
O O3 0.734146 0.500000 0.000000
O O4 0.500000 0.767067 0.846662
O O5 0.756374 0.724964 0.800578
O O6 0.706076 0.000000 0.861725
O O7 0.259472 0.271790 0.693537
O O8 0.000000 0.277733 0.742004
O O9 0.170762 0.000000 0.746279
O O10 0.500000 0.247522 0.635643
O O11 0.245332 0.327283 0.591327
O O12 0.300812 0.000000 0.630632
O O13 0.790698 0.500000 0.500000
O O14 0.000000 0.500000 0.430781
#
# Coordination Sequence:
#
# PCOD9387867 Si02
#       5
#     4   8   8   8   4
#     4   9  18  31  47  70  97 126 168 217 258 303
#     4   9  17  30  49  72  99 131 166 208 259 312
#     4   9  17  31  53  80 109 139 172 213 264 323
#     4  10  21  38  61  87 115 147 183 227 278 329
#     4  11  25  42  59  82 113 150 192 233 272 321
#
# _framework density 18.807984999999999
#
# number of rings (size 3 to 8) (size 9 to 14) (size 15 to 20)
#    0.000    2.500    0.000    1.875    0.000    7.500 
#    0.000    9.375    0.000    1.500    0.000    3.500 
#    0.000    0.000    0.000    0.000    0.000    0.000 
#
# Total GULP energy -178675.853776 kJ/mol
# GULP energy per Si atom -5583.620430 kJ/mol
# Density = 1.876518 g / cm^3
# Si number density = 18.807985 Si / 1000 Ang^3
#
#
#
# Elastic Constant Matrix: (Units=GPa)
#
#
# Indices 1 2 3 4 5 6 
#
# 1 84.2090 53.8946 92.7703 0.0000 0.0000 0.0000
# 2 53.8946 90.2752 80.2591 0.0000 0.0000 0.0000
# 3 92.7703 80.2591 216.4824 0.0000 0.0000 0.0000
# 4 0.0000 0.0000 0.0000 31.9181 0.0000 0.0000
# 5 0.0000 0.0000 0.0000 0.0000 242.4171 0.0000
# 6 0.0000 0.0000 0.0000 0.0000 0.0000 15.1398
#
#
#
# Elastic Compliance Matrix: (Units=1/GPa)
#
#
# Indices 1 2 3 4 5 6 
#
# 1 0.026198 -0.008442 -0.008097 0.000000 0.000000 0.000000
# 2 -0.008442 0.019244 -0.003517 0.000000 0.000000 0.000000
# 3 -0.008097 -0.003517 0.009393 0.000000 0.000000 0.000000
# 4 0.000000 0.000000 0.000000 0.031330 0.000000 0.000000
# 5 0.000000 0.000000 0.000000 0.000000 0.004125 0.000000
# 6 0.000000 0.000000 0.000000 0.000000 0.000000 0.066051
#
#
# Mechanical properties :
#
#
# Convention : Reuss Voigt Hill
#
# Bulk Modulus (GPa) = 67.91830 93.86828 80.89329
# Shear Modulus (GPa) = 24.83101 68.83118 46.83110
#
# Velocity S-wave (km/s) = 3.63745 6.05609 4.99536
# Velocity P-wave (km/s) = 7.33697 9.94579 8.73928
#
# Compressibility (1/GPa) = 0.01472357
#
# Stress axis : x y z
#
# Youngs Moduli (GPa) = 38.17015 51.96524 106.46091
#
# Poissons Ratio (x) = 0.43868 0.86204
# Poissons Ratio (y) = 0.32222 0.37441
# Poissons Ratio (z) = 0.30907 0.18275
#
# Static dielectric constant tensor:
#      x y z
#    x 1.625200 0.000000 0.000000 
#    y 0.000000 1.684990 0.000000 
#    z 0.000000 0.000000 1.612960 
# 
# From -- ./inp_files/31613.got.cif
#   From: 2010.05.17/outbox.cif.g08.bks.cpg/sg47_16_cif.got.tgz:31613.got - 2010.06.03 20:15:42.
