data_PCOD9387023
_publ_section_title
;
Structure prediction by ZEFSAII (Michael W. Deem and Ramdas Pophale) SiO2 
 PCOD9387023
Probable space group: P M M M
;
_chemical_formula_sum "Si O2"
_cell_formula_units_Z 56
_cell_length_a 15.803388
_cell_length_b 8.907221
_cell_length_c 20.832210
_cell_angle_alpha 90.000000
_cell_angle_beta 90.000000
_cell_angle_gamma 90.000000
_cell_volume 2932.430822
_symmetry_space_group_name_H-M "P M M M"
_symmetry_group_IT_number 47
_symmetry_cell_setting 'orthorhombic'
loop_
_space_group_symop_operation_xyz
x,y,z
-x,-y,z
x,-y,-z
-x,y,-z
-x,-y,-z
x,y,-z
-x,y,z
x,-y,z
loop_
_atom_site_type_symbol
_atom_site_label
_atom_site_fract_x
_atom_site_fract_y
_atom_site_fract_z
Si Si1 0.668534 0.322865 0.930147
Si Si2 0.402215 0.183298 0.664146
Si Si3 0.751168 0.816716 0.426285
Si Si4 0.852421 0.821238 0.069928
Si Si5 0.901431 0.180753 0.667154
Si Si6 0.600929 0.169743 0.194200
Si Si7 0.100263 0.666984 0.798416
O O1 0.687103 0.500000 0.926323
O O2 0.754965 0.229233 0.930826
O O3 0.620762 0.270098 0.866942
O O4 0.625725 0.296610 0.000000
O O5 0.500000 0.231217 0.652930
O O6 0.333704 0.230639 0.611527
O O7 0.371891 0.228228 0.735790
O O8 0.403596 0.000000 0.665197
O O9 0.751832 0.766788 0.500000
O O10 0.835326 0.770684 0.387418
O O11 0.750775 0.000000 0.426439
O O12 0.888166 0.747103 0.133699
O O13 0.860477 0.000000 0.074297
O O14 0.888596 0.774034 0.000000
O O15 0.870353 0.242223 0.736029
O O16 0.000000 0.225459 0.655468
O O17 0.900555 0.000000 0.670067
O O18 0.500000 0.158205 0.199782
O O19 0.635178 0.000000 0.184330
O O20 0.138066 0.500000 0.800495
O O21 0.000000 0.654568 0.789190
#
# Coordination Sequence:
#
# PCOD9387023 Si02
#       7
#     8   8   8   8   8   8   8
#     4  10  21  35  50  72 103 136 173 219 269 318
#     4   8  15  28  45  69 102 136 173 220 268 313
#     4   9  17  28  46  75 105 136 176 218 267 323
#     4  10  21  36  54  76 103 137 176 217 262 314
#     4   9  18  32  50  75 107 141 178 220 264 314
#     4   9  18  32  50  72  98 133 178 223 268 318
#     4  10  21  36  54  77 105 137 174 218 267 314
#
# _framework density 19.096786000000002
#
# number of rings (size 3 to 8) (size 9 to 14) (size 15 to 20)
#    0.000    2.714    0.000    2.143    2.000    4.000 
#    0.000    5.714    0.000    0.429    0.000    2.000 
#    0.000    0.000    0.000    4.429    0.000    4.571 
#
# Total GULP energy -311998.129551 kJ/mol
# GULP energy per Si atom -5571.395171 kJ/mol
# Density = 1.905332 g / cm^3
# Si number density = 19.096786 Si / 1000 Ang^3
#
#
#
# Elastic Constant Matrix: (Units=GPa)
#
#
# Indices 1 2 3 4 5 6 
#
# 1 64.9395 14.4420 69.0883 0.0000 0.0000 0.0000
# 2 14.4420 21.8531 33.8208 0.0000 0.0000 0.0000
# 3 69.0883 33.8208 198.1570 0.0000 0.0000 0.0000
# 4 0.0000 0.0000 0.0000 -8.2116 0.0000 0.0000
# 5 0.0000 0.0000 0.0000 0.0000 48.8625 0.0000
# 6 0.0000 0.0000 0.0000 0.0000 0.0000 9.9241
#
#
#
# Elastic Compliance Matrix: (Units=1/GPa)
#
#
# Indices 1 2 3 4 5 6 
#
# 1 0.024743 -0.004078 -0.007931 0.000000 0.000000 0.000000
# 2 -0.004078 0.062859 -0.009307 0.000000 0.000000 0.000000
# 3 -0.007931 -0.009307 0.009400 0.000000 0.000000 0.000000
# 4 0.000000 0.000000 0.000000 -0.121779 0.000000 0.000000
# 5 0.000000 0.000000 0.000000 0.000000 0.020466 0.000000
# 6 0.000000 0.000000 0.000000 0.000000 0.000000 0.100765
#
#
# Mechanical properties :
#
#
# Convention : Reuss Voigt Hill
#
# Bulk Modulus (GPa) = 18.39215 57.73909 38.06562
# Shear Modulus (GPa) = 31.80506 21.28825 26.54665
#
# Velocity S-wave (km/s) = 4.08544 3.34242 3.73246
# Velocity P-wave (km/s) = 5.64857 6.72282 6.20897
#
# Compressibility (1/GPa) = 0.05437102
#
# Stress axis : x y z
#
# Youngs Moduli (GPa) = 40.41477 15.90874 106.38192
#
# Poissons Ratio (x) = 0.06487 0.84371
# Poissons Ratio (y) = 0.16481 0.99007
# Poissons Ratio (z) = 0.32053 0.14806
#
# Static dielectric constant tensor:
#      x y z
#    x 1.684170 0.000000 0.000000 
#    y 0.000000 1.649760 0.000000 
#    z 0.000000 0.000000 1.685590 
# 
# From -- ./inp_files/7247.got.cif
#   From: 2010.05.17/outbox.cif.g08.bks.cpg/sg47_4_cif.got.tgz:7247.got - 2010.06.03 20:15:42.
