data_PCOD9387146
_publ_section_title
;
Structure prediction by ZEFSAII (Michael W. Deem and Ramdas Pophale) SiO2 
 PCOD9387146
Probable space group: P M M M
;
_chemical_formula_sum "Si O2"
_cell_formula_units_Z 56
_cell_length_a 7.784980
_cell_length_b 22.190285
_cell_length_c 14.355987
_cell_angle_alpha 90.000000
_cell_angle_beta 90.000000
_cell_angle_gamma 90.000000
_cell_volume 2480.010032
_symmetry_space_group_name_H-M "P M M M"
_symmetry_group_IT_number 47
_symmetry_cell_setting 'orthorhombic'
loop_
_space_group_symop_operation_xyz
x,y,z
-x,-y,z
x,-y,-z
-x,y,-z
-x,-y,-z
x,y,-z
-x,y,z
x,-y,z
loop_
_atom_site_type_symbol
_atom_site_label
_atom_site_fract_x
_atom_site_fract_y
_atom_site_fract_z
Si Si1 0.293222 0.185200 0.607176
Si Si2 0.291788 0.374623 0.106312
Si Si3 0.801305 0.890337 0.105502
Si Si4 0.795483 0.565497 0.289606
Si Si5 0.206468 0.683992 0.392812
Si Si6 0.700164 0.935112 0.702815
Si Si7 0.304060 0.756865 0.887033
O O1 0.232345 0.184709 0.500000
O O2 0.500000 0.182370 0.606986
O O3 0.249100 0.250484 0.649071
O O4 0.225097 0.125654 0.658104
O O5 0.500000 0.371673 0.105909
O O6 0.233845 0.423405 0.180285
O O7 0.230135 0.308179 0.139882
O O8 0.235987 0.385476 0.000000
O O9 0.709222 0.926620 0.186162
O O10 0.789497 0.819348 0.131349
O O11 0.000000 0.908305 0.104984
O O12 0.732720 0.897063 0.000000
O O13 0.725789 0.500000 0.317820
O O14 0.725011 0.624822 0.340986
O O15 0.000000 0.564420 0.306763
O O16 0.268827 0.683762 0.500000
O O17 0.000000 0.680264 0.394401
O O18 0.500000 0.936740 0.675303
O O19 0.777277 0.000000 0.676925
O O20 0.500000 0.763170 0.852150
O O21 0.312167 0.752312 0.000000
#
# Coordination Sequence:
#
# PCOD9387146 Si02
#       7
#     8   8   8   8   8   8   8
#     4   9  19  37  61  87 112 139 175 223 276 328
#     4   9  19  35  54  77 107 145 187 229 274 326
#     4  10  21  35  52  77 110 147 186 229 275 321
#     4  10  22  37  53  79 113 148 187 229 274 323
#     4   9  19  37  60  84 110 142 180 223 273 330
#     4  10  22  38  56  81 112 148 187 224 269 325
#     4   8  15  30  51  74 100 133 177 226 273 320
#
# _framework density 22.580553999999999
#
# number of rings (size 3 to 8) (size 9 to 14) (size 15 to 20)
#    0.000    2.714    0.000    1.286    2.000    4.571 
#    0.000    7.143    0.000    0.000    0.000    6.000 
#    0.000    0.000    0.000    0.000    0.000    0.000 
#
# Total GULP energy -312577.955275 kJ/mol
# GULP energy per Si atom -5581.749201 kJ/mol
# Density = 2.252916 g / cm^3
# Si number density = 22.580554 Si / 1000 Ang^3
#
#
#
# Elastic Constant Matrix: (Units=GPa)
#
#
# Indices 1 2 3 4 5 6 
#
# 1 31.9340 7.0846 -3.6751 0.0000 0.0000 0.0000
# 2 7.0846 204.5854 70.8134 0.0000 0.0000 0.0000
# 3 -3.6751 70.8134 69.6224 0.0000 0.0000 0.0000
# 4 0.0000 0.0000 0.0000 10.9246 0.0000 0.0000
# 5 0.0000 0.0000 0.0000 0.0000 13.0941 0.0000
# 6 0.0000 0.0000 0.0000 0.0000 0.0000 20.3671
#
#
#
# Elastic Compliance Matrix: (Units=1/GPa)
#
#
# Indices 1 2 3 4 5 6 
#
# 1 0.032408 -0.002646 0.004402 0.000000 0.000000 0.000000
# 2 -0.002646 0.007760 -0.008032 0.000000 0.000000 0.000000
# 3 0.004402 -0.008032 0.022765 0.000000 0.000000 0.000000
# 4 0.000000 0.000000 0.000000 0.091536 0.000000 0.000000
# 5 0.000000 0.000000 0.000000 0.000000 0.076370 0.000000
# 6 0.000000 0.000000 0.000000 0.000000 0.000000 0.049099
#
#
# Mechanical properties :
#
#
# Convention : Reuss Voigt Hill
#
# Bulk Modulus (GPa) = 19.84892 50.50973 35.17932
# Shear Modulus (GPa) = 16.16636 24.33844 20.25240
#
# Velocity S-wave (km/s) = 2.67861 3.28662 2.99807
# Velocity P-wave (km/s) = 4.28672 6.06793 5.25337
#
# Compressibility (1/GPa) = 0.05038058
#
# Stress axis : x y z
#
# Youngs Moduli (GPa) = 30.85645 128.87041 43.92691
#
# Poissons Ratio (x) = 0.34097 -0.19336
# Poissons Ratio (y) = 0.08164 0.35283
# Poissons Ratio (z) = -0.13582 1.03511
#
# Static dielectric constant tensor:
#      x y z
#    x 1.833310 0.000000 0.000000 
#    y 0.000000 1.872270 0.000000 
#    z 0.000000 0.000000 1.850840 
# 
# From -- ./inp_files/7357.got.cif
#   From: 2010.05.17/outbox.cif.g08.bks.cpg/sg47_4_cif.got.tgz:7357.got - 2010.06.03 20:15:42.
