data_PCOD9387052
_publ_section_title
;
Structure prediction by ZEFSAII (Michael W. Deem and Ramdas Pophale) SiO2 
 PCOD9387052
Probable space group: P M M M
;
_chemical_formula_sum "Si O2"
_cell_formula_units_Z 56
_cell_length_a 14.686346
_cell_length_b 23.852674
_cell_length_c 8.984826
_cell_angle_alpha 90.000000
_cell_angle_beta 90.000000
_cell_angle_gamma 90.000000
_cell_volume 3147.462027
_symmetry_space_group_name_H-M "P M M M"
_symmetry_group_IT_number 47
_symmetry_cell_setting 'orthorhombic'
loop_
_space_group_symop_operation_xyz
x,y,z
-x,-y,z
x,-y,-z
-x,y,-z
-x,-y,-z
x,y,-z
-x,y,z
x,-y,z
loop_
_atom_site_type_symbol
_atom_site_label
_atom_site_fract_x
_atom_site_fract_y
_atom_site_fract_z
Si Si1 0.106926 0.784797 0.177413
Si Si2 0.395700 0.066050 0.821509
Si Si3 0.211669 0.562612 0.820478
Si Si4 0.890635 0.666077 0.672444
Si Si5 0.729371 0.158537 0.321704
Si Si6 0.605904 0.264657 0.677655
Si Si7 0.602850 0.383874 0.178880
O O1 0.132268 0.723718 0.243174
O O2 0.172116 0.830541 0.251306
O O3 0.000000 0.794016 0.210892
O O4 0.118433 0.784331 0.000000
O O5 0.500000 0.081019 0.778603
O O6 0.323054 0.104645 0.739966
O O7 0.383178 0.000000 0.789997
O O8 0.388350 0.073365 0.000000
O O9 0.183267 0.500000 0.775524
O O10 0.154947 0.612177 0.746260
O O11 0.317725 0.573047 0.781640
O O12 0.203177 0.566680 0.000000
O O13 0.862873 0.671172 0.500000
O O14 0.000000 0.660007 0.678777
O O15 0.735004 0.156465 0.500000
O O16 0.668775 0.212901 0.278444
O O17 0.614147 0.272535 0.500000
O O18 0.500000 0.251808 0.711056
O O19 0.628336 0.322966 0.757155
O O20 0.500000 0.397680 0.229980
O O21 0.600792 0.380291 0.000000
#
# Coordination Sequence:
#
# PCOD9387052 Si02
#       7
#     8   8   8   8   8   8   8
#     4  10  21  37  57  80 106 137 173 214 262 317
#     4   9  19  36  56  79 111 152 194 230 262 302
#     4  10  21  35  51  72  97 128 168 211 254 305
#     4  10  21  37  56  77 102 131 163 205 261 319
#     4  11  21  32  52  81 111 143 178 219 267 315
#     4   9  18  31  46  69 102 134 163 199 248 306
#     4   9  18  32  49  69  94 126 164 205 249 297
#
# _framework density 17.792114000000002
#
# number of rings (size 3 to 8) (size 9 to 14) (size 15 to 20)
#    0.000    2.286    0.000    3.000    0.000    7.714 
#    0.000    5.000    0.000    0.429    0.000    6.000 
#    0.000    0.000    0.000    0.000    0.000    0.000 
#
# Total GULP energy -312625.152083 kJ/mol
# GULP energy per Si atom -5582.592001 kJ/mol
# Density = 1.775162 g / cm^3
# Si number density = 17.792114 Si / 1000 Ang^3
#
#
#
# Elastic Constant Matrix: (Units=GPa)
#
#
# Indices 1 2 3 4 5 6 
#
# 1 83.5668 67.1461 48.7991 0.0000 0.0000 0.0000
# 2 67.1461 89.7355 45.3361 0.0000 0.0000 0.0000
# 3 48.7991 45.3361 45.7881 0.0000 0.0000 0.0000
# 4 0.0000 0.0000 0.0000 120.9542 0.0000 0.0000
# 5 0.0000 0.0000 0.0000 0.0000 24.7639 0.0000
# 6 0.0000 0.0000 0.0000 0.0000 0.0000 27.8828
#
#
#
# Elastic Compliance Matrix: (Units=1/GPa)
#
#
# Indices 1 2 3 4 5 6 
#
# 1 0.042277 -0.017750 -0.027483 0.000000 0.000000 0.000000
# 2 -0.017750 0.029750 -0.010540 0.000000 0.000000 0.000000
# 3 -0.027483 -0.010540 0.061565 0.000000 0.000000 0.000000
# 4 0.000000 0.000000 0.000000 0.008268 0.000000 0.000000
# 5 0.000000 0.000000 0.000000 0.000000 0.040381 0.000000
# 6 0.000000 0.000000 0.000000 0.000000 0.000000 0.035864
#
#
# Mechanical properties :
#
#
# Convention : Reuss Voigt Hill
#
# Bulk Modulus (GPa) = 45.35458 60.18368 52.76913
# Shear Modulus (GPa) = 14.83683 38.57410 26.70546
#
# Velocity S-wave (km/s) = 2.89086 4.66128 3.87844
# Velocity P-wave (km/s) = 6.05719 7.92903 7.05546
#
# Compressibility (1/GPa) = 0.02204849
#
# Stress axis : x y z
#
# Youngs Moduli (GPa) = 23.65351 33.61317 16.24295
#
# Poissons Ratio (x) = 0.59663 0.44640
# Poissons Ratio (y) = 0.41984 0.17119
# Poissons Ratio (z) = 0.65006 0.35427
#
# Static dielectric constant tensor:
#      x y z
#    x 1.630800 0.000000 0.000000 
#    y 0.000000 1.574330 0.000000 
#    z 0.000000 0.000000 1.590730 
# 
# From -- ./inp_files/7250.got.cif
#   From: 2010.05.17/outbox.cif.g08.bks.cpg/sg47_4_cif.got.tgz:7250.got - 2010.06.03 20:15:42.
