data_PCOD9387148
_publ_section_title
;
Structure prediction by ZEFSAII (Michael W. Deem and Ramdas Pophale) SiO2 
 PCOD9387148
Probable space group: P M M M
;
_chemical_formula_sum "Si O2"
_cell_formula_units_Z 48
_cell_length_a 19.311887
_cell_length_b 13.756461
_cell_length_c 9.312680
_cell_angle_alpha 90.000000
_cell_angle_beta 90.000000
_cell_angle_gamma 90.000000
_cell_volume 2474.036559
_symmetry_space_group_name_H-M "P M M M"
_symmetry_group_IT_number 47
_symmetry_cell_setting 'orthorhombic'
loop_
_space_group_symop_operation_xyz
x,y,z
-x,-y,z
x,-y,-z
-x,y,-z
-x,-y,-z
x,y,-z
-x,y,z
x,-y,z
loop_
_atom_site_type_symbol
_atom_site_label
_atom_site_fract_x
_atom_site_fract_y
_atom_site_fract_z
Si Si1 0.577749 0.637166 0.164998
Si Si2 0.918068 0.182349 0.171075
Si Si3 0.714270 0.387481 0.342360
Si Si4 0.155313 0.000000 0.673405
Si Si5 0.422570 0.131372 0.833726
Si Si6 0.150953 0.614234 0.827857
Si Si7 0.319004 0.000000 0.329352
O O1 0.500000 0.605942 0.205432
O O2 0.639434 0.611318 0.269855
O O3 0.577957 0.753244 0.166441
O O4 0.590780 0.606733 0.000000
O O5 0.878112 0.097862 0.258094
O O6 0.899117 0.294952 0.210113
O O7 0.000000 0.168299 0.191599
O O8 0.902833 0.171277 0.000000
O O9 0.713837 0.339887 0.500000
O O10 0.732206 0.500000 0.360451
O O11 0.775274 0.352944 0.238586
O O12 0.146142 0.000000 0.500000
O O13 0.237775 0.000000 0.705094
O O14 0.500000 0.102552 0.784997
O O15 0.361099 0.089631 0.739088
O O16 0.414412 0.102256 0.000000
O O17 0.133576 0.500000 0.786246
O O18 0.156183 0.611803 0.000000
O O19 0.326264 0.000000 0.500000
#
# Coordination Sequence:
#
# PCOD9387148 Si02
#       7
#     8   8   8   4   8   8   4
#     4   9  19  35  54  77 105 141 188 238 287 342
#     4  10  22  41  66  94 122 154 195 243 292 349
#     4  10  21  35  52  77 112 151 189 234 285 339
#     4  11  26  43  58  86 126 165 204 243 290 348
#     4   9  19  36  56  78 106 142 185 234 289 345
#     4   9  19  37  62  92 123 155 192 237 295 357
#     4  11  24  37  52  80 112 145 188 237 282 336
#
# _framework density 19.401492000000001
#
# number of rings (size 3 to 8) (size 9 to 14) (size 15 to 20)
#    0.000    2.333    0.000    2.500    2.333    7.333 
#    0.000    5.000    0.000    0.000    0.000    3.500 
#    0.000    0.000    0.000    0.000    0.000    0.000 
#
# Total GULP energy -267372.070853 kJ/mol
# GULP energy per Si atom -5570.251476 kJ/mol
# Density = 1.935733 g / cm^3
# Si number density = 19.401492 Si / 1000 Ang^3
#
#
#
# Elastic Constant Matrix: (Units=GPa)
#
#
# Indices 1 2 3 4 5 6 
#
# 1 132.2790 56.9481 64.0308 0.0000 0.0000 0.0000
# 2 56.9481 139.6093 44.8947 0.0000 0.0000 0.0000
# 3 64.0308 44.8947 58.4725 0.0000 0.0000 0.0000
# 4 0.0000 0.0000 0.0000 18.8808 0.0000 0.0000
# 5 0.0000 0.0000 0.0000 0.0000 12.8988 0.0000
# 6 0.0000 0.0000 0.0000 0.0000 0.0000 41.0231
#
#
#
# Elastic Compliance Matrix: (Units=1/GPa)
#
#
# Indices 1 2 3 4 5 6 
#
# 1 0.016238 -0.001202 -0.016858 0.000000 0.000000 0.000000
# 2 -0.001202 0.009600 -0.006054 0.000000 0.000000 0.000000
# 3 -0.016858 -0.006054 0.040211 0.000000 0.000000 0.000000
# 4 0.000000 0.000000 0.000000 0.052964 0.000000 0.000000
# 5 0.000000 0.000000 0.000000 0.000000 0.077526 0.000000
# 6 0.000000 0.000000 0.000000 0.000000 0.000000 0.024377
#
#
# Mechanical properties :
#
#
# Convention : Reuss Voigt Hill
#
# Bulk Modulus (GPa) = 56.11827 73.56757 64.84292
# Shear Modulus (GPa) = 18.17621 25.52635 21.85128
#
# Velocity S-wave (km/s) = 3.06411 3.63118 3.35963
# Velocity P-wave (km/s) = 6.44251 7.45530 6.96733
#
# Compressibility (1/GPa) = 0.01781951
#
# Stress axis : x y z
#
# Youngs Moduli (GPa) = 61.58503 104.16429 24.86885
#
# Poissons Ratio (x) = 0.12525 0.41924
# Poissons Ratio (y) = 0.07405 0.15056
# Poissons Ratio (z) = 1.03820 0.63063
#
# Static dielectric constant tensor:
#      x y z
#    x 1.655950 0.000000 0.000000 
#    y 0.000000 1.743290 0.000000 
#    z 0.000000 0.000000 1.688060 
# 
# From -- ./inp_files/9176.got.cif
#   From: 2010.05.17/outbox.cif.g08.bks.cpg/sg47_5_cif.got.tgz:9176.got - 2010.06.03 20:15:42.
