data_PCOD9387398
_publ_section_title
;
Structure prediction by ZEFSAII (Michael W. Deem and Ramdas Pophale) SiO2 
 PCOD9387398
Probable space group: P M M M
;
_chemical_formula_sum "Si O2"
_cell_formula_units_Z 56
_cell_length_a 14.884195
_cell_length_b 9.737339
_cell_length_c 20.220741
_cell_angle_alpha 90.000000
_cell_angle_beta 90.000000
_cell_angle_gamma 90.000000
_cell_volume 2930.641584
_symmetry_space_group_name_H-M "P M M M"
_symmetry_group_IT_number 47
_symmetry_cell_setting 'orthorhombic'
loop_
_space_group_symop_operation_xyz
x,y,z
-x,-y,z
x,-y,-z
-x,y,-z
-x,-y,-z
x,y,-z
-x,y,z
x,-y,z
loop_
_atom_site_type_symbol
_atom_site_label
_atom_site_fract_x
_atom_site_fract_y
_atom_site_fract_z
Si Si1 0.393146 0.152770 0.500000
Si Si2 0.196488 0.843333 0.218603
Si Si3 0.601032 0.655438 0.097653
Si Si4 0.141333 0.658996 0.338702
Si Si5 0.400715 0.235527 0.240551
Si Si6 0.651599 0.347911 0.619961
Si Si7 0.771058 0.836416 0.071544
Si Si8 0.000000 0.835384 0.420408
O O1 0.500000 0.141996 0.500000
O O2 0.367232 0.236062 0.435115
O O3 0.353296 0.000000 0.500000
O O4 0.150362 0.736441 0.268259
O O5 0.305159 0.842712 0.232465
O O6 0.182656 0.802644 0.141656
O O7 0.164961 0.000000 0.229211
O O8 0.500000 0.691661 0.076731
O O9 0.620609 0.500000 0.077474
O O10 0.601534 0.664277 0.177495
O O11 0.676167 0.758856 0.073389
O O12 0.109377 0.500000 0.333649
O O13 0.242335 0.651876 0.366186
O O14 0.083247 0.754998 0.386991
O O15 0.500000 0.165634 0.237159
O O16 0.394359 0.310113 0.310725
O O17 0.623413 0.500000 0.598116
O O18 0.756235 0.000000 0.074367
O O19 0.814870 0.805380 0.000000
O O20 0.000000 0.819619 0.500000
O O21 0.000000 0.000000 0.406245
#
# Coordination Sequence:
#
# PCOD9387398 Si02
#       8
#     4   8   8   8   8   8   8   4
#     4  11  25  39  49  68 101 140 181 227 276 319
#     4   9  18  33  53  77 108 146 188 235 281 330
#     4   9  17  28  42  62  90 125 170 227 287 340
#     4  10  22  40  62  88 117 148 180 219 268 326
#     4   9  17  29  48  73  98 131 179 235 286 330
#     4  10  21  36  55  76  99 134 178 221 268 321
#     4   9  18  31  46  67  98 138 183 229 277 329
#     4  11  25  43  67  99 126 149 178 213 259 320
#
# _framework density 19.108443999999999
#
# number of rings (size 3 to 8) (size 9 to 14) (size 15 to 20)
#    0.000    2.429    0.000    1.714    1.000   10.000 
#    0.000    4.286    0.000    0.000    0.000    0.500 
#    0.000    4.000    0.000    0.000    0.000    0.000 
#
# Total GULP energy -312040.197277 kJ/mol
# GULP energy per Si atom -5572.146380 kJ/mol
# Density = 1.906495 g / cm^3
# Si number density = 19.108444 Si / 1000 Ang^3
#
#
#
# Elastic Constant Matrix: (Units=GPa)
#
#
# Indices 1 2 3 4 5 6 
#
# 1 40.2603 18.3542 29.8665 0.0000 0.0000 0.0000
# 2 18.3542 116.5752 80.4828 0.0000 0.0000 0.0000
# 3 29.8665 80.4828 166.9248 0.0000 0.0000 0.0000
# 4 0.0000 0.0000 0.0000 4.6564 0.0000 0.0000
# 5 0.0000 0.0000 0.0000 0.0000 7.9562 0.0000
# 6 0.0000 0.0000 0.0000 0.0000 0.0000 11.7133
#
#
#
# Elastic Compliance Matrix: (Units=1/GPa)
#
#
# Indices 1 2 3 4 5 6 
#
# 1 0.028806 -0.001465 -0.004448 0.000000 0.000000 0.000000
# 2 -0.001465 0.012933 -0.005974 0.000000 0.000000 0.000000
# 3 -0.004448 -0.005974 0.009667 0.000000 0.000000 0.000000
# 4 0.000000 0.000000 0.000000 0.214760 0.000000 0.000000
# 5 0.000000 0.000000 0.000000 0.000000 0.125688 0.000000
# 6 0.000000 0.000000 0.000000 0.000000 0.000000 0.085373
#
#
# Mechanical properties :
#
#
# Convention : Reuss Voigt Hill
#
# Bulk Modulus (GPa) = 36.18825 64.57416 50.38120
# Shear Modulus (GPa) = 9.79992 17.86896 13.83444
#
# Velocity S-wave (km/s) = 2.26709 3.06131 2.69364
# Velocity P-wave (km/s) = 5.08256 6.80899 6.00811
#
# Compressibility (1/GPa) = 0.02763328
#
# Stress axis : x y z
#
# Youngs Moduli (GPa) = 34.71551 77.32262 103.44825
#
# Poissons Ratio (x) = 0.11324 0.46012
# Poissons Ratio (y) = 0.05084 0.61795
# Poissons Ratio (z) = 0.15441 0.46189
#
# Static dielectric constant tensor:
#      x y z
#    x 1.678010 0.000000 0.000000 
#    y 0.000000 1.659220 0.000000 
#    z 0.000000 0.000000 1.279700 
# 
# From -- ./inp_files/31054.got.cif
#   From: 2010.05.17/outbox.cif.g08.bks.cpg/sg47_16_cif.got.tgz:31054.got - 2010.06.03 20:15:42.
