data_PCOD9387500
_publ_section_title
;
Structure prediction by ZEFSAII (Michael W. Deem and Ramdas Pophale) SiO2 
 PCOD9387500
Probable space group: P M M M
;
_chemical_formula_sum "Si O2"
_cell_formula_units_Z 56
_cell_length_a 9.738219
_cell_length_b 20.171678
_cell_length_c 14.917461
_cell_angle_alpha 90.000000
_cell_angle_beta 90.000000
_cell_angle_gamma 90.000000
_cell_volume 2930.329620
_symmetry_space_group_name_H-M "P M M M"
_symmetry_group_IT_number 47
_symmetry_cell_setting 'orthorhombic'
loop_
_space_group_symop_operation_xyz
x,y,z
-x,-y,z
x,-y,-z
-x,y,-z
-x,-y,-z
x,y,-z
-x,y,z
x,-y,z
loop_
_atom_site_type_symbol
_atom_site_label
_atom_site_fract_x
_atom_site_fract_y
_atom_site_fract_z
Si Si1 0.664360 0.599716 0.099462
Si Si2 0.840339 0.808157 0.723751
Si Si3 0.157177 0.920389 0.500000
Si Si4 0.281740 0.575003 0.303071
Si Si5 0.000000 0.421287 0.600355
Si Si6 0.849647 0.724719 0.097282
Si Si7 0.663292 0.921329 0.325391
Si Si8 0.653185 0.710871 0.393759
O O1 0.500000 0.597717 0.101999
O O2 0.712083 0.571891 0.195330
O O3 0.726952 0.672954 0.101306
O O4 0.705220 0.573006 0.000000
O O5 0.844185 0.771141 0.818216
O O6 0.745009 0.872516 0.739455
O O7 0.764411 0.758302 0.653954
O O8 0.000000 0.822592 0.697946
O O9 0.251675 0.904116 0.584518
O O10 0.000000 0.894188 0.500000
O O11 0.144463 0.000000 0.500000
O O12 0.320961 0.500000 0.335114
O O13 0.131483 0.591933 0.340185
O O14 0.356042 0.639357 0.343972
O O15 0.000000 0.500000 0.587882
O O16 0.000000 0.391000 0.500000
O O17 0.000000 0.689621 0.100935
O O18 0.843406 0.758654 0.000000
O O19 0.500000 0.908919 0.332390
O O20 0.679916 0.000000 0.307955
O O21 0.682963 0.701592 0.500000
O O22 0.500000 0.741396 0.386580
#
# Coordination Sequence:
#
# PCOD9387500 Si02
#       8
#     8   8   4   8   4   8   8   8
#     4  10  21  36  57  86 119 155 194 242 303 367
#     4  11  23  38  62  90 118 155 198 247 296 350
#     4   9  17  31  53  81 115 155 200 241 278 333
#     4  11  23  39  61  86 115 154 200 252 306 365
#     4   9  20  38  59  83 111 147 193 245 299 356
#     4   9  19  37  61  87 115 150 194 244 298 356
#     4  10  21  37  58  85 121 162 199 239 291 349
#     4  11  25  41  57  82 118 156 198 250 301 354
#
# _framework density 19.110479000000002
#
# number of rings (size 3 to 8) (size 9 to 14) (size 15 to 20)
#    0.000    1.857    1.429    1.929    3.000    4.857 
#    0.000    1.429    0.000    1.714    0.000    3.000 
#    0.000    0.000    0.000    0.000    0.000    0.000 
#
# Total GULP energy -311775.312816 kJ/mol
# GULP energy per Si atom -5567.416300 kJ/mol
# Density = 1.906698 g / cm^3
# Si number density = 19.110479 Si / 1000 Ang^3
#
#
#
# Elastic Constant Matrix: (Units=GPa)
#
#
# Indices 1 2 3 4 5 6 
#
# 1 136.5703 43.7965 51.9095 0.0000 0.0000 0.0000
# 2 43.7965 88.2921 32.9186 0.0000 0.0000 0.0000
# 3 51.9095 32.9186 128.1764 0.0000 0.0000 0.0000
# 4 0.0000 0.0000 0.0000 6.8738 0.0000 0.0000
# 5 0.0000 0.0000 0.0000 0.0000 22.3361 0.0000
# 6 0.0000 0.0000 0.0000 0.0000 0.0000 68.5877
#
#
#
# Elastic Compliance Matrix: (Units=1/GPa)
#
#
# Indices 1 2 3 4 5 6 
#
# 1 0.009623 -0.003672 -0.002954 0.000000 0.000000 0.000000
# 2 -0.003672 0.013926 -0.002090 0.000000 0.000000 0.000000
# 3 -0.002954 -0.002090 0.009535 0.000000 0.000000 0.000000
# 4 0.000000 0.000000 0.000000 0.145480 0.000000 0.000000
# 5 0.000000 0.000000 0.000000 0.000000 0.044771 0.000000
# 6 0.000000 0.000000 0.000000 0.000000 0.000000 0.014580
#
#
# Mechanical properties :
#
#
# Convention : Reuss Voigt Hill
#
# Bulk Modulus (GPa) = 63.88572 67.80976 65.84774
# Shear Modulus (GPa) = 19.18922 34.52045 26.85484
#
# Velocity S-wave (km/s) = 3.17222 4.25474 3.75272
# Velocity P-wave (km/s) = 6.84979 7.72639 7.30126
#
# Compressibility (1/GPa) = 0.01565295
#
# Stress axis : x y z
#
# Youngs Moduli (GPa) = 103.92276 71.80560 104.87989
#
# Poissons Ratio (x) = 0.26366 0.30981
# Poissons Ratio (y) = 0.38159 0.21916
# Poissons Ratio (z) = 0.30698 0.15005
#
# Static dielectric constant tensor:
#      x y z
#    x 1.738370 0.000000 0.000000 
#    y 0.000000 1.698260 0.000000 
#    z 0.000000 0.000000 1.708320 
# 
# From -- ./inp_files/21675.got.cif
#   From: 2010.05.17/outbox.cif.g08.bks.cpg/sg47_11_cif.got.tgz:21675.got - 2010.06.03 20:15:42.
