data_PCOD9387401
_publ_section_title
;
Structure prediction by ZEFSAII (Michael W. Deem and Ramdas Pophale) SiO2 
 PCOD9387401
Probable space group: P M M M
;
_chemical_formula_sum "Si O2"
_cell_formula_units_Z 44
_cell_length_a 8.162417
_cell_length_b 30.784717
_cell_length_c 9.615024
_cell_angle_alpha 90.000000
_cell_angle_beta 90.000000
_cell_angle_gamma 90.000000
_cell_volume 2416.041091
_symmetry_space_group_name_H-M "P M M M"
_symmetry_group_IT_number 47
_symmetry_cell_setting 'orthorhombic'
loop_
_space_group_symop_operation_xyz
x,y,z
-x,-y,z
x,-y,-z
-x,y,-z
-x,-y,-z
x,y,-z
-x,y,z
x,-y,z
loop_
_atom_site_type_symbol
_atom_site_label
_atom_site_fract_x
_atom_site_fract_y
_atom_site_fract_z
Si Si1 0.194703 0.290401 0.841404
Si Si2 0.696650 0.804953 0.159412
Si Si3 0.000000 0.049713 0.668941
Si Si4 0.305231 0.629297 0.656488
Si Si5 0.307925 0.109355 0.332589
Si Si6 0.802491 0.548866 0.841177
O O1 0.237306 0.241715 0.793490
O O2 0.258560 0.327948 0.742393
O O3 0.000000 0.294574 0.847550
O O4 0.260073 0.295114 0.000000
O O5 0.500000 0.801774 0.156744
O O6 0.736096 0.845407 0.257613
O O7 0.753991 0.812308 0.000000
O O8 0.167993 0.074664 0.708676
O O9 0.000000 0.048950 0.500000
O O10 0.000000 0.000000 0.718250
O O11 0.236281 0.630467 0.500000
O O12 0.500000 0.628080 0.647845
O O13 0.250582 0.586443 0.738315
O O14 0.301478 0.114233 0.500000
O O15 0.500000 0.098487 0.297942
O O16 0.747333 0.500000 0.802982
O O17 0.000000 0.548380 0.843383
O O18 0.747356 0.557760 0.000000
#
# Coordination Sequence:
#
# PCOD9387401 Si02
#       6
#     8   8   4   8   8   8
#     4  10  21  36  55  79 104 134 175 218 260 313
#     4   9  18  33  53  77 105 137 171 210 260 315
#     4   9  18  32  51  77 107 139 179 225 270 317
#     4  11  24  38  52  75 108 142 175 214 260 310
#     4   9  18  32  51  76 105 138 177 221 267 317
#     4   9  19  37  60  83 105 132 170 215 261 312
#
# _framework density 18.211611000000001
#
# number of rings (size 3 to 8) (size 9 to 14) (size 15 to 20)
#    0.000    2.455    0.000    2.182    1.273    6.909 
#    0.000    6.364    0.000    1.091    0.000    2.545 
#    0.000    0.000    0.000    0.000    0.000    0.000 
#
# Total GULP energy -245373.222145 kJ/mol
# GULP energy per Si atom -5576.664140 kJ/mol
# Density = 1.817016 g / cm^3
# Si number density = 18.211611 Si / 1000 Ang^3
#
#
#
# Elastic Constant Matrix: (Units=GPa)
#
#
# Indices 1 2 3 4 5 6 
#
# 1 60.2896 66.5252 37.7160 0.0000 0.0000 0.0000
# 2 66.5252 175.8783 90.2613 0.0000 0.0000 0.0000
# 3 37.7160 90.2613 72.5433 0.0000 0.0000 0.0000
# 4 0.0000 0.0000 0.0000 37.6899 0.0000 0.0000
# 5 0.0000 0.0000 0.0000 0.0000 18.8139 0.0000
# 6 0.0000 0.0000 0.0000 0.0000 0.0000 43.9697
#
#
#
# Elastic Compliance Matrix: (Units=1/GPa)
#
#
# Indices 1 2 3 4 5 6 
#
# 1 0.028869 -0.008900 -0.003936 0.000000 0.000000 0.000000
# 2 -0.008900 0.018474 -0.018359 0.000000 0.000000 0.000000
# 3 -0.003936 -0.018359 0.038674 0.000000 0.000000 0.000000
# 4 0.000000 0.000000 0.000000 0.026532 0.000000 0.000000
# 5 0.000000 0.000000 0.000000 0.000000 0.053152 0.000000
# 6 0.000000 0.000000 0.000000 0.000000 0.000000 0.022743
#
#
# Mechanical properties :
#
#
# Convention : Reuss Voigt Hill
#
# Bulk Modulus (GPa) = 42.32291 77.52402 59.92347
# Shear Modulus (GPa) = 19.32671 27.70859 23.51765
#
# Velocity S-wave (km/s) = 3.26119 3.90485 3.59744
# Velocity P-wave (km/s) = 6.12131 7.93671 7.08737
#
# Compressibility (1/GPa) = 0.02362786
#
# Stress axis : x y z
#
# Youngs Moduli (GPa) = 34.63923 54.13080 25.85712
#
# Poissons Ratio (x) = 0.48174 0.10178
# Poissons Ratio (y) = 0.30827 0.47471
# Poissons Ratio (z) = 0.13634 0.99378
#
# Static dielectric constant tensor:
#      x y z
#    x 1.640100 0.000000 0.000000 
#    y 0.000000 1.606020 0.000000 
#    z 0.000000 0.000000 1.650400 
# 
# From -- ./inp_files/2235.got.cif
#   From: 2010.05.17/outbox.cif.g08.bks.cpg/sg47_2_cif.got.tgz:2235.got - 2010.06.03 20:15:42.
