data_PCOD9387860
_publ_section_title
;
Structure prediction by ZEFSAII (Michael W. Deem and Ramdas Pophale) SiO2 
 PCOD9387860
Probable space group: P M M M
;
_chemical_formula_sum "Si O2"
_cell_formula_units_Z 40
_cell_length_a 8.295066
_cell_length_b 9.283423
_cell_length_c 26.768348
_cell_angle_alpha 90.000000
_cell_angle_beta 90.000000
_cell_angle_gamma 90.000000
_cell_volume 2061.339641
_symmetry_space_group_name_H-M "P M M M"
_symmetry_group_IT_number 47
_symmetry_cell_setting 'orthorhombic'
loop_
_space_group_symop_operation_xyz
x,y,z
-x,-y,z
x,-y,-z
-x,y,-z
-x,-y,-z
x,y,-z
-x,y,z
x,-y,z
loop_
_atom_site_type_symbol
_atom_site_label
_atom_site_fract_x
_atom_site_fract_y
_atom_site_fract_z
Si Si1 0.686910 0.324662 0.000000
Si Si2 0.806897 0.665538 0.500000
Si Si3 0.192913 0.164629 0.206050
Si Si4 0.304981 0.834374 0.598016
Si Si5 0.695553 0.332826 0.891115
Si Si6 0.305279 0.334923 0.696632
O O1 0.756300 0.283348 0.946030
O O2 0.685553 0.500000 0.000000
O O3 0.500000 0.277023 0.000000
O O4 0.748376 0.500000 0.500000
O O5 0.748395 0.748338 0.450824
O O6 0.000000 0.664022 0.500000
O O7 0.247524 0.236149 0.154324
O O8 0.254773 0.257142 0.252625
O O9 0.000000 0.163631 0.207515
O O10 0.251993 0.000000 0.209795
O O11 0.500000 0.836090 0.598803
O O12 0.248863 0.753818 0.648202
O O13 0.249093 0.000000 0.596686
O O14 0.500000 0.331446 0.892706
O O15 0.744215 0.500000 0.883369
O O16 0.500000 0.337579 0.695127
O O17 0.247849 0.500000 0.695125
#
# Coordination Sequence:
#
# PCOD9387860 Si02
#       6
#     4   4   8   8   8   8
#     4   7  12  26  50  79 106 130 164 215 268 315
#     4  11  24  39  56  82 116 153 190 225 264 312
#     4  11  24  38  51  73 108 147 182 217 263 318
#     4  10  21  38  61  87 113 143 180 222 270 322
#     4   9  17  32  56  82 105 133 173 220 268 318
#     4  10  21  38  61  86 108 135 176 224 272 321
#
# _framework density 19.404855999999999
#
# number of rings (size 3 to 8) (size 9 to 14) (size 15 to 20)
#    0.000    2.200    0.000    4.200    0.000    9.600 
#    0.000    1.000    0.000    4.800    0.000    0.000 
#    0.000    0.000    0.000    0.000    0.000    0.000 
#
# Total GULP energy -223327.651428 kJ/mol
# GULP energy per Si atom -5583.191286 kJ/mol
# Density = 1.936069 g / cm^3
# Si number density = 19.404856 Si / 1000 Ang^3
#
#
#
# Elastic Constant Matrix: (Units=GPa)
#
#
# Indices 1 2 3 4 5 6 
#
# 1 8.3334 20.6150 13.9981 0.0000 0.0000 0.0000
# 2 20.6150 179.8634 118.6930 0.0000 0.0000 0.0000
# 3 13.9981 118.6930 218.0741 0.0000 0.0000 0.0000
# 4 0.0000 0.0000 0.0000-1819.6056 0.0000 0.0000
# 5 0.0000 0.0000 0.0000 0.0000 -84.2491 0.0000
# 6 0.0000 0.0000 0.0000 0.0000 0.0000 20.9248
#
#
#
# Elastic Compliance Matrix: (Units=1/GPa)
#
#
# Indices 1 2 3 4 5 6 
#
# 1 0.167518 -0.018888 -0.000472 0.000000 0.000000 0.000000
# 2 -0.018888 0.010806 -0.004669 0.000000 0.000000 0.000000
# 3 -0.000472 -0.004669 0.007157 0.000000 0.000000 0.000000
# 4 0.000000 0.000000 0.000000 -0.000550 0.000000 0.000000
# 5 0.000000 0.000000 0.000000 0.000000 -0.011870 0.000000
# 6 0.000000 0.000000 0.000000 0.000000 0.000000 0.047790
#
#
# Mechanical properties :
#
#
# Convention : Reuss Voigt Hill
#
# Bulk Modulus (GPa) = 7.27686 79.20921 43.24304
# Shear Modulus (GPa) = 15.88720 -359.72168 -171.91724
#
# Velocity S-wave (km/s) = 2.86444 -13.63010 -9.42270
# Velocity P-wave (km/s) = 3.83382 14.38048 9.80051
#
# Compressibility (1/GPa) = 0.13742188
#
# Stress axis : x y z
#
# Youngs Moduli (GPa) = 5.96950 92.54414 139.72184
#
# Poissons Ratio (x) = 1.74800 0.06601
# Poissons Ratio (y) = 0.11275 0.65234
# Poissons Ratio (z) = 0.00282 0.43207
#
# Static dielectric constant tensor:
#      x y z
#    x 1.674620 0.000000 0.000000 
#    y 0.000000 1.664310 0.000000 
#    z 0.000000 0.000000 1.657470 
# 
# From -- ./inp_files/33076.got.cif
#   From: 2010.05.17/outbox.cif.g08.bks.cpg/sg47_17_cif.got.tgz:33076.got - 2010.06.03 20:15:42.
