data_PCOD9387579
_publ_section_title
;
Structure prediction by ZEFSAII (Michael W. Deem and Ramdas Pophale) SiO2 
 PCOD9387579
Probable space group: P M M M
;
_chemical_formula_sum "Si O2"
_cell_formula_units_Z 48
_cell_length_a 9.498829
_cell_length_b 31.682189
_cell_length_c 8.747235
_cell_angle_alpha 90.000000
_cell_angle_beta 90.000000
_cell_angle_gamma 90.000000
_cell_volume 2632.425228
_symmetry_space_group_name_H-M "P M M M"
_symmetry_group_IT_number 47
_symmetry_cell_setting 'orthorhombic'
loop_
_space_group_symop_operation_xyz
x,y,z
-x,-y,z
x,-y,-z
-x,y,-z
-x,-y,-z
x,y,-z
-x,y,z
x,-y,z
loop_
_atom_site_type_symbol
_atom_site_label
_atom_site_fract_x
_atom_site_fract_y
_atom_site_fract_z
Si Si1 0.836458 0.703504 0.316686
Si Si2 0.666538 0.128365 0.682591
Si Si3 0.835732 0.953369 0.686040
Si Si4 0.663291 0.374815 0.183018
Si Si5 0.664958 0.218712 0.182671
Si Si6 0.163545 0.451096 0.683946
O O1 0.832064 0.702553 0.500000
O O2 0.752420 0.663440 0.252797
O O3 0.760495 0.745596 0.257514
O O4 0.000000 0.702212 0.268476
O O5 0.690204 0.132992 0.500000
O O6 0.500000 0.122182 0.706372
O O7 0.748533 0.087014 0.738564
O O8 0.707674 0.171954 0.763117
O O9 0.828212 0.953398 0.500000
O O10 0.000000 0.949178 0.726638
O O11 0.786266 0.000000 0.736621
O O12 0.500000 0.372261 0.231248
O O13 0.733319 0.418372 0.237044
O O14 0.668267 0.371951 0.000000
O O15 0.500000 0.224715 0.226797
O O16 0.673572 0.221747 0.000000
O O17 0.175380 0.447119 0.500000
O O18 0.192155 0.500000 0.723331
O O19 0.000000 0.442012 0.723564
#
# Coordination Sequence:
#
# PCOD9387579 Si02
#       6
#     8   8   8   8   8   8
#     4  11  24  40  59  83 108 136 175 221 266 315
#     4   9  17  29  47  72 100 130 166 209 256 306
#     4   8  14  25  42  66  96 128 163 207 257 304
#     4  11  24  39  56  82 115 148 182 221 266 317
#     4  10  21  37  56  78 106 139 174 213 260 315
#     4   9  19  37  60  85 113 146 186 230 272 315
#
# _framework density 18.234134999999998
#
# number of rings (size 3 to 8) (size 9 to 14) (size 15 to 20)
#    0.000    2.333    0.000    3.500    0.000    9.667 
#    0.000    5.833    0.000    0.500    0.000    3.500 
#    0.000    0.000    0.000    0.000    0.000    0.000 
#
# Total GULP energy -267938.796506 kJ/mol
# GULP energy per Si atom -5582.058261 kJ/mol
# Density = 1.819263 g / cm^3
# Si number density = 18.234135 Si / 1000 Ang^3
#
#
#
# Elastic Constant Matrix: (Units=GPa)
#
#
# Indices 1 2 3 4 5 6 
#
# 1 125.4901 112.3272 46.1101 0.0000 0.0000 0.0000
# 2 112.3272 164.7964 46.8685 0.0000 0.0000 0.0000
# 3 46.1101 46.8685 29.7196 0.0000 0.0000 0.0000
# 4 0.0000 0.0000 0.0000 -113.4544 0.0000 0.0000
# 5 0.0000 0.0000 0.0000 0.0000 18.2055 0.0000
# 6 0.0000 0.0000 0.0000 0.0000 0.0000 42.2489
#
#
#
# Elastic Compliance Matrix: (Units=1/GPa)
#
#
# Indices 1 2 3 4 5 6 
#
# 1 0.027258 -0.011880 -0.023556 0.000000 0.000000 0.000000
# 2 -0.011880 0.016181 -0.007086 0.000000 0.000000 0.000000
# 3 -0.023556 -0.007086 0.081369 0.000000 0.000000 0.000000
# 4 0.000000 0.000000 0.000000 -0.008814 0.000000 0.000000
# 5 0.000000 0.000000 0.000000 0.000000 0.054928 0.000000
# 6 0.000000 0.000000 0.000000 0.000000 0.000000 0.023669
#
#
# Mechanical properties :
#
#
# Convention : Reuss Voigt Hill
#
# Bulk Modulus (GPa) = 25.14791 81.17976 53.16383
# Shear Modulus (GPa) = 17.07132 -2.95331 7.05900
#
# Velocity S-wave (km/s) = 3.06311 -1.27404 1.96970
# Velocity P-wave (km/s) = 5.13145 6.51561 5.86451
#
# Compressibility (1/GPa) = 0.03976474
#
# Stress axis : x y z
#
# Youngs Moduli (GPa) = 36.68648 61.80135 12.28975
#
# Poissons Ratio (x) = 0.73421 0.28949
# Poissons Ratio (y) = 0.43584 0.08708
# Poissons Ratio (z) = 0.86417 0.43790
#
# Static dielectric constant tensor:
#      x y z
#    x 1.612050 0.000000 0.000000 
#    y 0.000000 1.609800 0.000000 
#    z 0.000000 0.000000 1.614230 
# 
# From -- ./inp_files/2448.got.cif
#   From: 2010.05.17/outbox.cif.g08.bks.cpg/sg47_2_cif.got.tgz:2448.got - 2010.06.03 20:15:42.
