data_PCOD9387535
_publ_section_title
;
Structure prediction by ZEFSAII (Michael W. Deem and Ramdas Pophale) SiO2 
 PCOD9387535
Probable space group: P M M M
;
_chemical_formula_sum "Si O2"
_cell_formula_units_Z 48
_cell_length_a 20.014019
_cell_length_b 8.221598
_cell_length_c 14.493645
_cell_angle_alpha 90.000000
_cell_angle_beta 90.000000
_cell_angle_gamma 90.000000
_cell_volume 2384.888972
_symmetry_space_group_name_H-M "P M M M"
_symmetry_group_IT_number 47
_symmetry_cell_setting 'orthorhombic'
loop_
_space_group_symop_operation_xyz
x,y,z
-x,-y,z
x,-y,-z
-x,y,-z
-x,-y,-z
x,y,-z
-x,y,z
x,-y,z
loop_
_atom_site_type_symbol
_atom_site_label
_atom_site_fract_x
_atom_site_fract_y
_atom_site_fract_z
Si Si1 0.204390 0.191979 0.714910
Si Si2 0.000000 0.813984 0.887925
Si Si3 0.667468 0.802916 0.395817
Si Si4 0.580223 0.186792 0.776255
Si Si5 0.926093 0.695794 0.390984
Si Si6 0.581653 0.500000 0.893902
Si Si7 0.145613 0.692419 0.896129
O O1 0.265923 0.259944 0.655383
O O2 0.135454 0.231855 0.663570
O O3 0.197579 0.251023 0.819589
O O4 0.212854 0.000000 0.718444
O O5 0.070300 0.734011 0.862163
O O6 0.000000 0.000000 0.857319
O O7 0.000000 0.809144 0.000000
O O8 0.660380 0.740588 0.500000
O O9 0.606873 0.773183 0.325892
O O10 0.673029 0.000000 0.402458
O O11 0.500000 0.185012 0.777647
O O12 0.602940 0.333125 0.843068
O O13 0.602592 0.000000 0.799329
O O14 0.920180 0.733477 0.500000
O O15 0.923950 0.500000 0.381798
O O16 0.000000 0.750760 0.359785
O O17 0.500000 0.500000 0.892717
O O18 0.603441 0.500000 0.000000
O O19 0.149685 0.500000 0.902287
O O20 0.154395 0.761438 0.000000
#
# Coordination Sequence:
#
# PCOD9387535 Si02
#       7
#     8   4   8   8   8   4   8
#     4  11  22  35  55  80 110 145 183 232 286 343
#     4   9  17  31  53  79 102 127 170 227 285 343
#     4   9  19  37  59  84 116 153 193 238 291 349
#     4   9  18  35  61  91 124 163 205 247 295 352
#     4   9  19  36  55  75 103 139 180 228 279 334
#     4   9  18  34  57  89 129 165 201 250 296 342
#     4  10  21  37  55  75 104 143 184 229 282 342
#
# _framework density 20.126723999999999
#
# number of rings (size 3 to 8) (size 9 to 14) (size 15 to 20)
#    0.000    2.500    0.000    2.250    1.167    4.000 
#    3.000    5.417    0.000    4.500    0.000    0.000 
#    0.000    0.000    0.000    0.000    0.000    0.000 
#
# Total GULP energy -267788.790768 kJ/mol
# GULP energy per Si atom -5578.933141 kJ/mol
# Density = 2.008091 g / cm^3
# Si number density = 20.126724 Si / 1000 Ang^3
#
#
#
# Elastic Constant Matrix: (Units=GPa)
#
#
# Indices 1 2 3 4 5 6 
#
# 1 19.6372 21.2547 27.5798 0.0000 0.0000 0.0000
# 2 21.2547 68.5702 56.1375 0.0000 0.0000 0.0000
# 3 27.5798 56.1375 133.3490 0.0000 0.0000 0.0000
# 4 0.0000 0.0000 0.0000 30.7112 0.0000 0.0000
# 5 0.0000 0.0000 0.0000 0.0000 29.7797 0.0000
# 6 0.0000 0.0000 0.0000 0.0000 0.0000 35.8275
#
#
#
# Elastic Compliance Matrix: (Units=1/GPa)
#
#
# Indices 1 2 3 4 5 6 
#
# 1 0.084294 -0.018090 -0.009818 0.000000 0.000000 0.000000
# 2 -0.018090 0.026136 -0.007261 0.000000 0.000000 0.000000
# 3 -0.009818 -0.007261 0.012587 0.000000 0.000000 0.000000
# 4 0.000000 0.000000 0.000000 0.032561 0.000000 0.000000
# 5 0.000000 0.000000 0.000000 0.000000 0.033580 0.000000
# 6 0.000000 0.000000 0.000000 0.000000 0.000000 0.027912
#
#
# Mechanical properties :
#
#
# Convention : Reuss Voigt Hill
#
# Bulk Modulus (GPa) = 18.98385 47.94450 33.46418
# Shear Modulus (GPa) = 16.39523 27.03597 21.71560
#
# Velocity S-wave (km/s) = 2.85722 3.66906 3.28829
# Velocity P-wave (km/s) = 4.50972 6.46702 5.57494
#
# Compressibility (1/GPa) = 0.05267635
#
# Stress axis : x y z
#
# Youngs Moduli (GPa) = 11.86330 38.26197 79.44989
#
# Poissons Ratio (x) = 0.69217 0.78006
# Poissons Ratio (y) = 0.21461 0.57689
# Poissons Ratio (z) = 0.11648 0.27782
#
# Static dielectric constant tensor:
#      x y z
#    x 1.718700 0.000000 0.000000 
#    y 0.000000 1.707500 0.000000 
#    z 0.000000 0.000000 1.735130 
# 
# From -- ./inp_files/24447.got.cif
#   From: 2010.05.17/outbox.cif.g08.bks.cpg/sg47_13_cif.got.tgz:24447.got - 2010.06.03 20:15:42.
