data_PCOD9387938
_publ_section_title
;
Structure prediction by ZEFSAII (Michael W. Deem and Ramdas Pophale) SiO2 
 PCOD9387938
Probable space group: P M M M
;
_chemical_formula_sum "Si O2"
_cell_formula_units_Z 48
_cell_length_a 29.435697
_cell_length_b 8.791328
_cell_length_c 9.824819
_cell_angle_alpha 90.000000
_cell_angle_beta 90.000000
_cell_angle_gamma 90.000000
_cell_volume 2542.455532
_symmetry_space_group_name_H-M "P M M M"
_symmetry_group_IT_number 47
_symmetry_cell_setting 'orthorhombic'
loop_
_space_group_symop_operation_xyz
x,y,z
-x,-y,z
x,-y,-z
-x,y,-z
-x,-y,-z
x,y,-z
-x,y,z
x,-y,z
loop_
_atom_site_type_symbol
_atom_site_label
_atom_site_fract_x
_atom_site_fract_y
_atom_site_fract_z
Si Si1 0.447103 0.317790 0.000000
Si Si2 0.298288 0.683355 0.659170
Si Si3 0.053698 0.682495 0.155182
Si Si4 0.129690 0.817711 0.341342
Si Si5 0.789123 0.316200 0.159507
Si Si6 0.554021 0.324246 0.500000
Si Si7 0.394466 0.819526 0.252847
O O1 0.418391 0.257385 0.874425
O O2 0.447994 0.500000 0.000000
O O3 0.500000 0.265829 0.000000
O O4 0.290418 0.725906 0.500000
O O5 0.302979 0.500000 0.662897
O O6 0.256750 0.725077 0.758550
O O7 0.344410 0.757522 0.713426
O O8 0.059993 0.500000 0.165089
O O9 0.083400 0.762973 0.269450
O O10 0.000000 0.713396 0.169568
O O11 0.067269 0.726818 0.000000
O O12 0.133074 0.767804 0.500000
O O13 0.169537 0.750830 0.246779
O O14 0.132043 0.000000 0.339569
O O15 0.792771 0.500000 0.160643
O O16 0.788899 0.268764 0.000000
O O17 0.570586 0.500000 0.500000
O O18 0.500000 0.327907 0.500000
O O19 0.573393 0.233835 0.373954
O O20 0.392919 0.000000 0.238029
#
# Coordination Sequence:
#
# PCOD9387938 Si02
#       7
#     4   8   8   8   8   4   8
#     4  11  25  45  67  89 119 163 209 251 298 361
#     4  10  21  39  63  89 121 161 202 243 293 361
#     4   9  19  37  61  88 118 155 202 255 306 360
#     4  11  24  39  56  84 123 164 203 249 304 361
#     4  10  22  40  64  93 119 152 201 253 301 355
#     4  11  23  41  65  91 121 163 211 249 292 359
#     4  12  25  40  62  94 128 160 197 251 311 361
#
# _framework density 18.879387000000001
#
# number of rings (size 3 to 8) (size 9 to 14) (size 15 to 20)
#    0.000    1.500    0.833    4.500    1.167    9.333 
#    0.000    2.500    0.000    0.000    0.000    0.000 
#    0.000    0.000    0.000    0.000    0.000    0.000 
#
# Total GULP energy -268139.426040 kJ/mol
# GULP energy per Si atom -5586.238042 kJ/mol
# Density = 1.883642 g / cm^3
# Si number density = 18.879387 Si / 1000 Ang^3
#
#
#
# Elastic Constant Matrix: (Units=GPa)
#
#
# Indices 1 2 3 4 5 6 
#
# 1 114.5162 42.3640 91.9259 0.0000 0.0000 0.0000
# 2 42.3640 43.1333 48.8335 0.0000 0.0000 0.0000
# 3 91.9259 48.8335 211.1417 0.0000 0.0000 0.0000
# 4 0.0000 0.0000 0.0000 47.1669 0.0000 0.0000
# 5 0.0000 0.0000 0.0000 0.0000 36.1867 0.0000
# 6 0.0000 0.0000 0.0000 0.0000 0.0000 -520.1194
#
#
#
# Elastic Compliance Matrix: (Units=1/GPa)
#
#
# Indices 1 2 3 4 5 6 
#
# 1 0.016527 -0.010954 -0.004662 0.000000 0.000000 0.000000
# 2 -0.010954 0.038669 -0.004174 0.000000 0.000000 0.000000
# 3 -0.004662 -0.004174 0.007731 0.000000 0.000000 0.000000
# 4 0.000000 0.000000 0.000000 0.021201 0.000000 0.000000
# 5 0.000000 0.000000 0.000000 0.000000 0.027634 0.000000
# 6 0.000000 0.000000 0.000000 0.000000 0.000000 -0.001923
#
#
# Mechanical properties :
#
#
# Convention : Reuss Voigt Hill
#
# Bulk Modulus (GPa) = 42.83355 81.67088 62.25221
# Shear Modulus (GPa) = 31.80603 -74.97529 -21.58463
#
# Velocity S-wave (km/s) = 4.10896 -6.30864 -3.38493
# Velocity P-wave (km/s) = 6.72671 3.11643 4.21524
#
# Compressibility (1/GPa) = 0.02334619
#
# Stress axis : x y z
#
# Youngs Moduli (GPa) = 60.50672 25.86077 129.34485
#
# Poissons Ratio (x) = 0.28329 0.60300
# Poissons Ratio (y) = 0.66281 0.53991
# Poissons Ratio (z) = 0.28208 0.10795
#
# Static dielectric constant tensor:
#      x y z
#    x 1.644190 0.000000 0.000000 
#    y 0.000000 1.630990 0.000000 
#    z 0.000000 0.000000 1.601550 
# 
# From -- ./inp_files/14002.got.cif
#   From: 2010.05.17/outbox.cif.g08.bks.cpg/sg47_8_cif.got.tgz:14002.got - 2010.06.03 20:15:42.
