data_PCOD9387772
_publ_section_title
;
Structure prediction by ZEFSAII (Michael W. Deem and Ramdas Pophale) SiO2 
 PCOD9387772
Probable space group: P M M M
;
_chemical_formula_sum "Si O2"
_cell_formula_units_Z 48
_cell_length_a 14.410638
_cell_length_b 8.872899
_cell_length_c 19.151821
_cell_angle_alpha 90.000000
_cell_angle_beta 90.000000
_cell_angle_gamma 90.000000
_cell_volume 2448.831035
_symmetry_space_group_name_H-M "P M M M"
_symmetry_group_IT_number 47
_symmetry_cell_setting 'orthorhombic'
loop_
_space_group_symop_operation_xyz
x,y,z
-x,-y,z
x,-y,-z
-x,y,-z
-x,-y,-z
x,y,-z
-x,y,z
x,-y,z
loop_
_atom_site_type_symbol
_atom_site_label
_atom_site_fract_x
_atom_site_fract_y
_atom_site_fract_z
Si Si1 0.236509 0.325549 0.819565
Si Si2 0.104749 0.179664 0.293626
Si Si3 0.397363 0.175548 0.584734
Si Si4 0.204664 0.321374 0.582220
Si Si5 0.391986 0.683467 0.921636
Si Si6 0.107924 0.167474 0.083134
O O1 0.248849 0.500000 0.800930
O O2 0.185558 0.242116 0.756449
O O3 0.330474 0.265015 0.856021
O O4 0.163937 0.300933 0.882445
O O5 0.130386 0.236500 0.370666
O O6 0.000000 0.230746 0.274244
O O7 0.105871 0.000000 0.290867
O O8 0.399584 0.180399 0.500000
O O9 0.500000 0.225967 0.608900
O O10 0.308127 0.270925 0.605785
O O11 0.385001 0.000000 0.604413
O O12 0.195604 0.284721 0.500000
O O13 0.194907 0.500000 0.590569
O O14 0.500000 0.724025 0.914445
O O15 0.386313 0.500000 0.921789
O O16 0.360692 0.732955 0.000000
O O17 0.000000 0.175761 0.102299
O O18 0.141760 0.000000 0.106094
O O19 0.114279 0.172696 0.000000
#
# Coordination Sequence:
#
# PCOD9387772 Si02
#       6
#     8   8   8   8   8   8
#     4  11  21  33  54  82 109 139 179 228 279 326
#     4  11  25  43  60  77 103 145 191 231 281 350
#     4   8  14  27  50  80 113 147 179 211 252 309
#     4  10  21  37  59  87 115 142 178 232 296 353
#     4   8  15  30  53  82 116 151 185 222 267 321
#     4   9  18  32  49  71 103 143 181 215 258 316
#
# _framework density 19.601189999999999
#
# number of rings (size 3 to 8) (size 9 to 14) (size 15 to 20)
#    0.000    2.500    0.000    4.000    0.000    6.333 
#    0.000    5.000    0.000    5.000    0.000    5.833 
#    0.000    0.000    0.000    0.000    0.000    0.000 
#
# Total GULP energy -267564.662894 kJ/mol
# GULP energy per Si atom -5574.263810 kJ/mol
# Density = 1.955658 g / cm^3
# Si number density = 19.601190 Si / 1000 Ang^3
#
#
#
# Elastic Constant Matrix: (Units=GPa)
#
#
# Indices 1 2 3 4 5 6 
#
# 1 84.6271 25.2435 50.0320 0.0000 0.0000 0.0000
# 2 25.2435 29.0844 27.0250 0.0000 0.0000 0.0000
# 3 50.0320 27.0250 70.5157 0.0000 0.0000 0.0000
# 4 0.0000 0.0000 0.0000 27.3792 0.0000 0.0000
# 5 0.0000 0.0000 0.0000 0.0000 38.3404 0.0000
# 6 0.0000 0.0000 0.0000 0.0000 0.0000 20.6988
#
#
#
# Elastic Compliance Matrix: (Units=1/GPa)
#
#
# Indices 1 2 3 4 5 6 
#
# 1 0.021204 -0.006871 -0.012411 0.000000 0.000000 0.000000
# 2 -0.006871 0.055625 -0.016443 0.000000 0.000000 0.000000
# 3 -0.012411 -0.016443 0.029289 0.000000 0.000000 0.000000
# 4 0.000000 0.000000 0.000000 0.036524 0.000000 0.000000
# 5 0.000000 0.000000 0.000000 0.000000 0.026082 0.000000
# 6 0.000000 0.000000 0.000000 0.000000 0.000000 0.048312
#
#
# Mechanical properties :
#
#
# Convention : Reuss Voigt Hill
#
# Bulk Modulus (GPa) = 28.84569 43.20312 36.02440
# Shear Modulus (GPa) = 16.66437 22.74548 19.70492
#
# Velocity S-wave (km/s) = 2.91893 3.41018 3.17407
# Velocity P-wave (km/s) = 5.10964 6.13145 5.64372
#
# Compressibility (1/GPa) = 0.03466723
#
# Stress axis : x y z
#
# Youngs Moduli (GPa) = 47.16190 17.97745 34.14294
#
# Poissons Ratio (x) = 0.12353 0.42374
# Poissons Ratio (y) = 0.32406 0.56141
# Poissons Ratio (z) = 0.58532 0.29560
#
# Static dielectric constant tensor:
#      x y z
#    x 1.708200 0.000000 0.000000 
#    y 0.000000 1.679920 0.000000 
#    z 0.000000 0.000000 1.715960 
# 
# From -- ./inp_files/9118.got.cif
#   From: 2010.05.17/outbox.cif.g08.bks.cpg/sg47_5_cif.got.tgz:9118.got - 2010.06.03 20:15:42.
