data_PCOD9387763
_publ_section_title
;
Structure prediction by ZEFSAII (Michael W. Deem and Ramdas Pophale) SiO2 
 PCOD9387763
Probable space group: P M M M
;
_chemical_formula_sum "Si O2"
_cell_formula_units_Z 56
_cell_length_a 21.234508
_cell_length_b 15.527623
_cell_length_c 8.498736
_cell_angle_alpha 90.000000
_cell_angle_beta 90.000000
_cell_angle_gamma 90.000000
_cell_volume 2802.215428
_symmetry_space_group_name_H-M "P M M M"
_symmetry_group_IT_number 47
_symmetry_cell_setting 'orthorhombic'
loop_
_space_group_symop_operation_xyz
x,y,z
-x,-y,z
x,-y,-z
-x,y,-z
-x,-y,-z
x,y,-z
-x,y,z
x,-y,z
loop_
_atom_site_type_symbol
_atom_site_label
_atom_site_fract_x
_atom_site_fract_y
_atom_site_fract_z
Si Si1 0.609099 0.321564 0.182347
Si Si2 0.428998 0.855301 0.685438
Si Si3 0.427758 0.500000 0.674707
Si Si4 0.926402 0.817018 0.314735
Si Si5 0.731745 0.398950 0.686120
Si Si6 0.802954 0.745190 0.815229
Si Si7 0.075568 0.000000 0.822202
Si Si8 0.289854 0.902837 0.189756
O O1 0.577435 0.247215 0.284265
O O2 0.584598 0.415159 0.226845
O O3 0.681489 0.337894 0.225572
O O4 0.600751 0.300105 0.000000
O O5 0.426872 0.874228 0.500000
O O6 0.500000 0.881905 0.742199
O O7 0.363503 0.889764 0.760199
O O8 0.500000 0.500000 0.646716
O O9 0.396498 0.500000 0.500000
O O10 0.918700 0.800042 0.500000
O O11 0.875442 0.767582 0.213211
O O12 0.000000 0.802825 0.274002
O O13 0.909766 0.915707 0.275553
O O14 0.720636 0.395446 0.500000
O O15 0.728922 0.500000 0.734417
O O16 0.793271 0.345710 0.727635
O O17 0.757263 0.825187 0.757425
O O18 0.790092 0.735002 0.000000
O O19 0.000000 0.000000 0.839505
O O20 0.103149 0.000000 0.000000
O O21 0.270536 0.000000 0.240297
O O22 0.288567 0.900694 0.000000
#
# Coordination Sequence:
#
# PCOD9387763 Si02
#       8
#     8   8   4   8   8   8   4   8
#     4  12  23  36  57  84 114 149 192 244 303 366
#     4  11  24  41  61  84 114 155 204 257 311 368
#     4  11  23  37  53  77 111 149 188 233 294 365
#     4  10  21  37  58  88 127 169 212 254 303 368
#     4  11  23  40  64  90 121 159 199 247 306 371
#     4  11  23  39  64  94 125 162 205 255 306 363
#     4   9  17  31  53  83 121 163 206 251 298 351
#     4  10  23  42  62  88 122 159 204 256 309 366
#
# _framework density 19.984186999999999
#
# number of rings (size 3 to 8) (size 9 to 14) (size 15 to 20)
#    0.000    1.286    2.143    3.857    1.000    7.143 
#    0.000    1.429    0.000    0.429    0.000    3.000 
#    0.000    0.000    0.000    0.000    0.000    0.000 
#
# Total GULP energy -312251.743958 kJ/mol
# GULP energy per Si atom -5575.923999 kJ/mol
# Density = 1.993870 g / cm^3
# Si number density = 19.984187 Si / 1000 Ang^3
#
#
#
# Elastic Constant Matrix: (Units=GPa)
#
#
# Indices 1 2 3 4 5 6 
#
# 1 75.4372 26.2473 14.0251 0.0000 0.0000 0.0000
# 2 26.2473 67.3253 8.7591 0.0000 0.0000 0.0000
# 3 14.0251 8.7591 42.5158 0.0000 0.0000 0.0000
# 4 0.0000 0.0000 0.0000 26.0588 0.0000 0.0000
# 5 0.0000 0.0000 0.0000 0.0000 29.8902 0.0000
# 6 0.0000 0.0000 0.0000 0.0000 0.0000 -24.2408
#
#
#
# Elastic Compliance Matrix: (Units=1/GPa)
#
#
# Indices 1 2 3 4 5 6 
#
# 1 0.016004 -0.005705 -0.004104 0.000000 0.000000 0.000000
# 2 -0.005705 0.017296 -0.001681 0.000000 0.000000 0.000000
# 3 -0.004104 -0.001681 0.025221 0.000000 0.000000 0.000000
# 4 0.000000 0.000000 0.000000 0.038375 0.000000 0.000000
# 5 0.000000 0.000000 0.000000 0.000000 0.033456 0.000000
# 6 0.000000 0.000000 0.000000 0.000000 0.000000 -0.041253
#
#
# Mechanical properties :
#
#
# Convention : Reuss Voigt Hill
#
# Bulk Modulus (GPa) = 28.13739 31.48238 29.80988
# Shear Modulus (GPa) = 40.34624 15.42475 27.88549
#
# Velocity S-wave (km/s) = 4.49810 2.78123 3.73953
# Velocity P-wave (km/s) = 6.40996 5.10896 5.79608
#
# Compressibility (1/GPa) = 0.03553990
#
# Stress axis : x y z
#
# Youngs Moduli (GPa) = 62.48362 57.81585 39.64971
#
# Poissons Ratio (x) = 0.32986 0.16272
# Poissons Ratio (y) = 0.35650 0.06666
# Poissons Ratio (z) = 0.25644 0.09720
#
# Static dielectric constant tensor:
#      x y z
#    x 1.818160 0.000000 0.000000 
#    y 0.000000 1.875320 0.000000 
#    z 0.000000 0.000000 1.730060 
# 
# From -- ./inp_files/11293.got.cif
#   From: 2010.05.17/outbox.cif.g08.bks.cpg/sg47_6_cif.got.tgz:11293.got - 2010.06.03 20:15:42.
