data_PCOD9387418
_publ_section_title
;
Structure prediction by ZEFSAII (Michael W. Deem and Ramdas Pophale) SiO2 
 PCOD9387418
Probable space group: P M M M
;
_chemical_formula_sum "Si O2"
_cell_formula_units_Z 64
_cell_length_a 8.988095
_cell_length_b 18.953143
_cell_length_c 20.632773
_cell_angle_alpha 90.000000
_cell_angle_beta 90.000000
_cell_angle_gamma 90.000000
_cell_volume 3514.847554
_symmetry_space_group_name_H-M "P M M M"
_symmetry_group_IT_number 47
_symmetry_cell_setting 'orthorhombic'
loop_
_space_group_symop_operation_xyz
x,y,z
-x,-y,z
x,-y,-z
-x,y,-z
-x,-y,-z
x,y,-z
-x,y,z
x,-y,z
loop_
_atom_site_type_symbol
_atom_site_label
_atom_site_fract_x
_atom_site_fract_y
_atom_site_fract_z
Si Si1 0.821820 0.082693 0.575463
Si Si2 0.321813 0.832329 0.691084
Si Si3 0.822328 0.917227 0.809451
Si Si4 0.677263 0.166391 0.924125
Si Si5 0.322167 0.667503 0.689874
Si Si6 0.177865 0.682559 0.925229
Si Si7 0.178056 0.582111 0.575660
Si Si8 0.179306 0.581732 0.807743
O O1 0.786998 0.097244 0.500000
O O2 0.736821 0.132154 0.625227
O O3 0.000000 0.091113 0.583723
O O4 0.787791 0.000000 0.588043
O O5 0.500000 0.837852 0.694582
O O6 0.249498 0.873546 0.750982
O O7 0.280525 0.749851 0.693850
O O8 0.756749 0.887655 0.876375
O O9 0.000000 0.908148 0.808509
O O10 0.788937 0.000000 0.801901
O O11 0.500000 0.164050 0.914716
O O12 0.737331 0.245012 0.909658
O O13 0.709387 0.152261 0.000000
O O14 0.500000 0.662394 0.692716
O O15 0.262888 0.633325 0.623689
O O16 0.251463 0.624026 0.748820
O O17 0.216700 0.621611 0.874603
O O18 0.000000 0.695496 0.920482
O O19 0.210507 0.663577 0.000000
O O20 0.212023 0.594875 0.500000
O O21 0.213732 0.500000 0.590117
O O22 0.000000 0.590136 0.584003
O O23 0.225319 0.500000 0.808090
O O24 0.000000 0.583685 0.800548
#
# Coordination Sequence:
#
# PCOD9387418 Si02
#       8
#     8   8   8   8   8   8   8   8
#     4   9  19  37  60  85 113 145 182 224 270 323
#     4  11  24  39  56  81 113 147 184 228 275 325
#     4  11  24  40  59  83 110 142 183 230 276 325
#     4  10  21  37  58  84 114 147 182 222 269 323
#     4  11  24  38  53  78 111 145 182 224 269 320
#     4   9  18  34  57  83 111 145 183 223 270 323
#     4   9  19  37  60  84 109 139 178 223 270 322
#     4  10  21  36  55  80 109 142 182 228 275 323
#
# _framework density 18.208470999999999
#
# number of rings (size 3 to 8) (size 9 to 14) (size 15 to 20)
#    0.000    2.000    0.000    3.750    0.000   11.500 
#    0.000    6.250    0.000    0.000    0.000    2.625 
#    0.000    0.000    0.000    0.000    0.000    0.000 
#
# Total GULP energy -357570.086494 kJ/mol
# GULP energy per Si atom -5587.032601 kJ/mol
# Density = 1.816703 g / cm^3
# Si number density = 18.208471 Si / 1000 Ang^3
#
#
#
# Elastic Constant Matrix: (Units=GPa)
#
#
# Indices 1 2 3 4 5 6 
#
# 1 45.6616 73.4838 57.1582 0.0000 0.0000 0.0000
# 2 73.4838 161.8320 106.9821 0.0000 0.0000 0.0000
# 3 57.1582 106.9821 108.2406 0.0000 0.0000 0.0000
# 4 0.0000 0.0000 0.0000 40.8701 0.0000 0.0000
# 5 0.0000 0.0000 0.0000 0.0000 19.9222 0.0000
# 6 0.0000 0.0000 0.0000 0.0000 0.0000 -35.1102
#
#
#
# Elastic Compliance Matrix: (Units=1/GPa)
#
#
# Indices 1 2 3 4 5 6 
#
# 1 0.096786 -0.029315 -0.022135 0.000000 0.000000 0.000000
# 2 -0.029315 0.026707 -0.010916 0.000000 0.000000 0.000000
# 3 -0.022135 -0.010916 0.031716 0.000000 0.000000 0.000000
# 4 0.000000 0.000000 0.000000 0.024468 0.000000 0.000000
# 5 0.000000 0.000000 0.000000 0.000000 0.050195 0.000000
# 6 0.000000 0.000000 0.000000 0.000000 0.000000 -0.028482
#
#
# Mechanical properties :
#
#
# Convention : Reuss Voigt Hill
#
# Bulk Modulus (GPa) = 32.81181 87.88693 60.34937
# Shear Modulus (GPa) = 14.86857 10.34376 12.60616
#
# Velocity S-wave (km/s) = 2.86068 2.38602 2.63406
# Velocity P-wave (km/s) = 5.38242 7.48082 6.51664
#
# Compressibility (1/GPa) = 0.03047683
#
# Stress axis : x y z
#
# Youngs Moduli (GPa) = 10.33212 37.44384 31.52982
#
# Poissons Ratio (x) = 1.09768 0.69790
# Poissons Ratio (y) = 0.30289 0.34417
# Poissons Ratio (z) = 0.22870 0.40873
#
# Static dielectric constant tensor:
#      x y z
#    x 1.605070 0.000000 0.000000 
#    y 0.000000 1.598570 0.000000 
#    z 0.000000 0.000000 1.610080 
# 
# From -- ./inp_files/29981.got.cif
#   From: 2010.05.17/outbox.cif.g08.bks.cpg/sg47_15_cif.got.tgz:29981.got - 2010.06.03 20:15:42.
