data_PCOD9387619
_publ_section_title
;
Structure prediction by ZEFSAII (Michael W. Deem and Ramdas Pophale) SiO2 
 PCOD9387619
Probable space group: P M M M
;
_chemical_formula_sum "Si O2"
_cell_formula_units_Z 52
_cell_length_a 15.370224
_cell_length_b 21.589770
_cell_length_c 7.658438
_cell_angle_alpha 90.000000
_cell_angle_beta 90.000000
_cell_angle_gamma 90.000000
_cell_volume 2541.373010
_symmetry_space_group_name_H-M "P M M M"
_symmetry_group_IT_number 47
_symmetry_cell_setting 'orthorhombic'
loop_
_space_group_symop_operation_xyz
x,y,z
-x,-y,z
x,-y,-z
-x,y,-z
-x,-y,-z
x,y,-z
-x,y,z
x,-y,z
loop_
_atom_site_type_symbol
_atom_site_label
_atom_site_fract_x
_atom_site_fract_y
_atom_site_fract_z
Si Si1 0.190646 0.430422 0.200939
Si Si2 0.592853 0.763313 0.788254
Si Si3 0.000000 0.574090 0.304500
Si Si4 0.770519 0.702320 0.215688
Si Si5 0.205602 0.933091 0.295315
Si Si6 0.595665 0.908530 0.210228
Si Si7 0.900793 0.809004 0.207354
O O1 0.201531 0.500000 0.277627
O O2 0.088452 0.413018 0.205747
O O3 0.230089 0.368469 0.280128
O O4 0.219003 0.434710 0.000000
O O5 0.500000 0.737739 0.727128
O O6 0.680012 0.731905 0.726915
O O7 0.595939 0.835780 0.746905
O O8 0.593488 0.759424 0.000000
O O9 0.000000 0.500000 0.321893
O O10 0.000000 0.601024 0.500000
O O11 0.847990 0.748481 0.273324
O O12 0.773562 0.700723 0.000000
O O13 0.187095 0.933566 0.500000
O O14 0.310534 0.931276 0.273029
O O15 0.157454 0.871283 0.228801
O O16 0.176066 0.000000 0.220388
O O17 0.500000 0.931928 0.270485
O O18 0.596426 0.916131 0.000000
O O19 0.000000 0.815016 0.276431
O O20 0.907928 0.800039 0.000000
#
# Coordination Sequence:
#
# PCOD9387619 Si02
#       7
#     8   8   4   8   8   8   8
#     4   9  17  28  45  70  99 133 169 202 244 300
#     4   8  13  24  47  76  99 123 159 203 251 296
#     4   9  17  29  43  61  91 129 166 203 242 287
#     4   9  16  28  50  75 101 130 163 209 255 296
#     4  11  24  39  54  74 105 142 171 203 256 317
#     4   9  17  32  56  82 105 131 168 213 256 302
#     4  10  21  37  57  78  98 127 174 225 263 298
#
# _framework density 20.461382
#
# number of rings (size 3 to 8) (size 9 to 14) (size 15 to 20)
#    0.000    2.692    1.538    1.615    1.077    3.385 
#    0.000    3.846    0.000    0.462    0.000    3.231 
#    0.000    0.000    0.000    3.846    0.000    4.000 
#
# Total GULP energy -289550.174479 kJ/mol
# GULP energy per Si atom -5568.272586 kJ/mol
# Density = 2.041481 g / cm^3
# Si number density = 20.461382 Si / 1000 Ang^3
#
#
#
# Elastic Constant Matrix: (Units=GPa)
#
#
# Indices 1 2 3 4 5 6 
#
# 1 129.9309 75.9070 -0.5175 0.0000 0.0000 0.0000
# 2 75.9070 158.0879 5.9498 0.0000 0.0000 0.0000
# 3 -0.5175 5.9498 38.1175 0.0000 0.0000 0.0000
# 4 0.0000 0.0000 0.0000 9.8583 0.0000 0.0000
# 5 0.0000 0.0000 0.0000 0.0000 -19.9729 0.0000
# 6 0.0000 0.0000 0.0000 0.0000 0.0000 -1.0464
#
#
#
# Elastic Compliance Matrix: (Units=1/GPa)
#
#
# Indices 1 2 3 4 5 6 
#
# 1 0.010732 -0.005189 0.000956 0.000000 0.000000 0.000000
# 2 -0.005189 0.008872 -0.001455 0.000000 0.000000 0.000000
# 3 0.000956 -0.001455 0.026475 0.000000 0.000000 0.000000
# 4 0.000000 0.000000 0.000000 0.101437 0.000000 0.000000
# 5 0.000000 0.000000 0.000000 0.000000 -0.050068 0.000000
# 6 0.000000 0.000000 0.000000 0.000000 0.000000 -0.955632
#
#
# Mechanical properties :
#
#
# Convention : Reuss Voigt Hill
#
# Bulk Modulus (GPa) = 28.81738 54.31276 41.56507
# Shear Modulus (GPa) = -5.98630 14.08758 4.05064
#
# Velocity S-wave (km/s) = -1.71231 2.62677 1.40853
# Velocity P-wave (km/s) = 3.19453 5.98344 4.79617
#
# Compressibility (1/GPa) = 0.03470129
#
# Stress axis : x y z
#
# Youngs Moduli (GPa) = 93.18314 112.71669 37.77178
#
# Poissons Ratio (x) = 0.58486 -0.03610
# Poissons Ratio (y) = 0.48351 0.05497
# Poissons Ratio (z) = -0.08905 0.16403
#
# Static dielectric constant tensor:
#      x y z
#    x 1.748320 0.000000 0.000000 
#    y 0.000000 1.759910 0.000000 
#    z 0.000000 0.000000 1.764960 
# 
# From -- ./inp_files/7651.got.cif
#   From: 2010.05.17/outbox.cif.g08.bks.cpg/sg47_4_cif.got.tgz:7651.got - 2010.06.03 20:15:42.
