data_PCOD9387645
_publ_section_title
;
Structure prediction by ZEFSAII (Michael W. Deem and Ramdas Pophale) SiO2 
 PCOD9387645
Probable space group: P M M M
;
_chemical_formula_sum "Si O2"
_cell_formula_units_Z 40
_cell_length_a 9.320035
_cell_length_b 28.716965
_cell_length_c 7.835283
_cell_angle_alpha 90.000000
_cell_angle_beta 90.000000
_cell_angle_gamma 90.000000
_cell_volume 2097.059580
_symmetry_space_group_name_H-M "P M M M"
_symmetry_group_IT_number 47
_symmetry_cell_setting 'orthorhombic'
loop_
_space_group_symop_operation_xyz
x,y,z
-x,-y,z
x,-y,-z
-x,y,-z
-x,-y,-z
x,y,-z
-x,y,z
x,-y,z
loop_
_atom_site_type_symbol
_atom_site_label
_atom_site_fract_x
_atom_site_fract_y
_atom_site_fract_z
Si Si1 0.338618 0.307543 0.203134
Si Si2 0.672350 0.877192 0.299132
Si Si3 0.325638 0.946912 0.000000
Si Si4 0.164099 0.600921 0.705963
Si Si5 0.174900 0.500000 0.302357
Si Si6 0.837848 0.215912 0.295534
O O1 0.500000 0.304562 0.274639
O O2 0.263165 0.355797 0.251556
O O3 0.244479 0.263438 0.256676
O O4 0.347412 0.306257 0.000000
O O5 0.705332 0.886401 0.500000
O O6 0.500000 0.870986 0.287577
O O7 0.749496 0.829655 0.241567
O O8 0.715159 0.918328 0.170101
O O9 0.500000 0.948424 0.000000
O O10 0.273329 0.000000 0.000000
O O11 0.158112 0.597125 0.500000
O O12 0.215580 0.550252 0.772436
O O13 0.000000 0.609092 0.765347
O O14 0.223537 0.500000 0.500000
O O15 0.000000 0.500000 0.303521
O O16 0.846433 0.212720 0.500000
O O17 0.000000 0.216439 0.226597
#
# Coordination Sequence:
#
# PCOD9387645 Si02
#       6
#     8   8   4   8   4   8
#     4  11  24  37  49  71 105 141 174 211 259 315
#     4   9  18  33  54  80 111 146 183 226 275 323
#     4   9  18  32  53  83 115 147 187 230 269 316
#     4   9  17  32  55  79 101 128 167 214 261 311
#     4   7  12  26  50  77 100 124 160 209 260 307
#     4  10  21  37  57  80 104 133 173 221 271 321
#
# _framework density 19.074325999999999
#
# number of rings (size 3 to 8) (size 9 to 14) (size 15 to 20)
#    0.000    2.600    0.000    3.000    1.400    6.000 
#    0.000    3.000    0.000    6.000    0.000    2.800 
#    0.000    0.000    0.000    0.000    0.000    0.000 
#
# Total GULP energy -223039.937614 kJ/mol
# GULP energy per Si atom -5575.998440 kJ/mol
# Density = 1.903091 g / cm^3
# Si number density = 19.074326 Si / 1000 Ang^3
#
#
#
# Elastic Constant Matrix: (Units=GPa)
#
#
# Indices 1 2 3 4 5 6 
#
# 1 82.3364 77.6367 26.5429 0.0000 0.0000 0.0000
# 2 77.6367 212.8274 46.0089 0.0000 0.0000 0.0000
# 3 26.5429 46.0089 47.7278 0.0000 0.0000 0.0000
# 4 0.0000 0.0000 0.0000 52.0028 0.0000 0.0000
# 5 0.0000 0.0000 0.0000 0.0000 20.4308 0.0000
# 6 0.0000 0.0000 0.0000 0.0000 0.0000 56.2181
#
#
#
# Elastic Compliance Matrix: (Units=1/GPa)
#
#
# Indices 1 2 3 4 5 6 
#
# 1 0.019420 -0.006000 -0.005016 0.000000 0.000000 0.000000
# 2 -0.006000 0.007789 -0.004172 0.000000 0.000000 0.000000
# 3 -0.005016 -0.004172 0.027764 0.000000 0.000000 0.000000
# 4 0.000000 0.000000 0.000000 0.019230 0.000000 0.000000
# 5 0.000000 0.000000 0.000000 0.000000 0.048946 0.000000
# 6 0.000000 0.000000 0.000000 0.000000 0.000000 0.017788
#
#
# Mechanical properties :
#
#
# Convention : Reuss Voigt Hill
#
# Bulk Modulus (GPa) = 40.65629 71.47430 56.06530
# Shear Modulus (GPa) = 27.85356 38.57723 33.21540
#
# Velocity S-wave (km/s) = 3.82549 4.50207 4.17750
# Velocity P-wave (km/s) = 6.39323 8.03602 7.26123
#
# Compressibility (1/GPa) = 0.02459644
#
# Stress axis : x y z
#
# Youngs Moduli (GPa) = 51.49459 128.38434 36.01834
#
# Poissons Ratio (x) = 0.77025 0.18068
# Poissons Ratio (y) = 0.30895 0.15027
# Poissons Ratio (z) = 0.25831 0.53562
#
# Static dielectric constant tensor:
#      x y z
#    x 1.667000 0.000000 0.000000 
#    y 0.000000 1.663970 0.000000 
#    z 0.000000 0.000000 1.686090 
# 
# From -- ./inp_files/1697.got.cif
#   From: 2010.05.17/outbox.cif.g08.bks.cpg/sg47_1_cif.got.tgz:1697.got - 2010.06.03 20:15:42.
