data_PCOD9387960
_publ_section_title
;
Structure prediction by ZEFSAII (Michael W. Deem and Ramdas Pophale) SiO2 
 PCOD9387960
Probable space group: P M M M
;
_chemical_formula_sum "Si O2"
_cell_formula_units_Z 29
_cell_length_a 7.340617
_cell_length_b 14.733048
_cell_length_c 13.064190
_cell_angle_alpha 90.000000
_cell_angle_beta 90.000000
_cell_angle_gamma 90.000000
_cell_volume 1412.887741
_symmetry_space_group_name_H-M "P M M M"
_symmetry_group_IT_number 47
_symmetry_cell_setting 'orthorhombic'
loop_
_space_group_symop_operation_xyz
x,y,z
-x,-y,z
x,-y,-z
-x,y,-z
-x,-y,-z
x,y,-z
-x,y,z
x,-y,z
loop_
_atom_site_type_symbol
_atom_site_label
_atom_site_fract_x
_atom_site_fract_y
_atom_site_fract_z
Si Si1 0.212993 0.301062 0.616130
Si Si2 0.221865 0.196539 0.809478
Si Si3 0.777974 0.000000 0.118405
Si Si4 0.283040 0.500000 0.382958
Si Si5 0.500000 0.500000 0.000000
Si Si6 0.221249 0.328253 0.000000
O O1 0.290053 0.300045 0.500000
O O2 0.289151 0.233887 0.700684
O O3 0.225881 0.403558 0.660564
O O4 0.000000 0.280648 0.606137
O O5 0.282192 0.094252 0.831806
O O6 0.266344 0.266083 0.900791
O O7 0.000000 0.195070 0.806684
O O8 0.000000 0.000000 0.121081
O O9 0.724661 0.000000 0.000000
O O10 0.500000 0.500000 0.384690
O O11 0.212459 0.500000 0.500000
O O12 0.339893 0.419312 0.000000
O O13 0.000000 0.344419 0.000000
#
# Coordination Sequence:
#
# PCOD9387960 Si02
#       6
#     8   8   4   4   1   4
#     4   9  17  30  48  72 104 138 172 216 273 332
#     4   9  17  31  54  80 105 138 182 227 275 330
#     4   9  14  26  53  81  99 130 186 233 269 332
#     4   9  17  30  47  68  92 129 179 217 246 298
#     4  12  26  40  56  88 122 152 186 228 296 354
#     4  10  21  40  59  80 114 153 191 232 277 337
#
# _framework density 20.525338999999999
#
# number of rings (size 3 to 8) (size 9 to 14) (size 15 to 20)
#    0.000    2.759    1.379    0.621    0.000    2.759 
#    4.966    4.828    0.000    5.793    0.000    0.000 
#    0.000    4.414    0.000    0.000    0.000    0.000 
#
# Total GULP energy -161470.811123 kJ/mol
# GULP energy per Si atom -5567.959004 kJ/mol
# Density = 2.047862 g / cm^3
# Si number density = 20.525339 Si / 1000 Ang^3
#
#
#
# Elastic Constant Matrix: (Units=GPa)
#
#
# Indices 1 2 3 4 5 6 
#
# 1 97.8545 26.1045 17.1071 0.0000 0.0000 0.0000
# 2 26.1045 229.0887 107.3377 0.0000 0.0000 0.0000
# 3 17.1071 107.3377 130.7320 0.0000 0.0000 0.0000
# 4 0.0000 0.0000 0.0000 23.3911 0.0000 0.0000
# 5 0.0000 0.0000 0.0000 0.0000 -9.8644 0.0000
# 6 0.0000 0.0000 0.0000 0.0000 0.0000 107.2452
#
#
#
# Elastic Compliance Matrix: (Units=1/GPa)
#
#
# Indices 1 2 3 4 5 6 
#
# 1 0.010573 -0.000904 -0.000641 0.000000 0.000000 0.000000
# 2 -0.000904 0.007172 -0.005770 0.000000 0.000000 0.000000
# 3 -0.000641 -0.005770 0.012471 0.000000 0.000000 0.000000
# 4 0.000000 0.000000 0.000000 0.042751 0.000000 0.000000
# 5 0.000000 0.000000 0.000000 0.000000 -0.101374 0.000000
# 6 0.000000 0.000000 0.000000 0.000000 0.000000 0.009324
#
#
# Mechanical properties :
#
#
# Convention : Reuss Voigt Hill
#
# Bulk Modulus (GPa) = 64.16762 84.30821 74.23791
# Shear Modulus (GPa) = 6742.86206 44.62942 3393.74574
#
# Velocity S-wave (km/s) = 57.37832 4.66806 40.70665
# Velocity P-wave (km/s) = 66.49080 8.37966 47.38800
#
# Compressibility (1/GPa) = 0.01558418
#
# Stress axis : x y z
#
# Youngs Moduli (GPa) = 94.58431 139.43808 80.18913
#
# Poissons Ratio (x) = 0.12612 0.05139
# Poissons Ratio (y) = 0.08555 0.46269
# Poissons Ratio (z) = 0.06062 0.80455
#
# Static dielectric constant tensor:
#      x y z
#    x 1.759580 0.000000 0.000000 
#    y 0.000000 1.733300 0.000000 
#    z 0.000000 0.000000 1.745100 
# 
# From -- ./inp_files/14661.got.cif
#   From: 2010.05.17/outbox.cif.g08.bks.cpg/sg47_8_cif.got.tgz:14661.got - 2010.06.03 20:15:42.
