data_PCOD9387469
_publ_section_title
;
Structure prediction by ZEFSAII (Michael W. Deem and Ramdas Pophale) SiO2 
 PCOD9387469
Probable space group: P M M M
;
_chemical_formula_sum "Si O2"
_cell_formula_units_Z 40
_cell_length_a 16.519062
_cell_length_b 10.608309
_cell_length_c 13.303772
_cell_angle_alpha 90.000000
_cell_angle_beta 90.000000
_cell_angle_gamma 90.000000
_cell_volume 2331.343880
_symmetry_space_group_name_H-M "P M M M"
_symmetry_group_IT_number 47
_symmetry_cell_setting 'orthorhombic'
loop_
_space_group_symop_operation_xyz
x,y,z
-x,-y,z
x,-y,-z
-x,y,-z
-x,-y,-z
x,y,-z
-x,y,z
x,-y,z
loop_
_atom_site_type_symbol
_atom_site_label
_atom_site_fract_x
_atom_site_fract_y
_atom_site_fract_z
Si Si1 0.000000 0.152174 0.379345
Si Si2 0.270156 0.149049 0.889389
Si Si3 0.150610 0.724770 0.739424
Si Si4 0.403966 0.149103 0.736138
Si Si5 0.307390 0.358066 0.380459
Si Si6 0.903803 0.500000 0.884784
O O1 0.921430 0.212137 0.324330
O O2 0.000000 0.178598 0.500000
O O3 0.000000 0.000000 0.367373
O O4 0.199904 0.180344 0.810800
O O5 0.355593 0.182805 0.838105
O O6 0.271224 0.000000 0.899919
O O7 0.258577 0.206567 0.000000
O O8 0.218831 0.667217 0.666148
O O9 0.120287 0.619578 0.817424
O O10 0.500000 0.162500 0.744880
O O11 0.366575 0.247178 0.656911
O O12 0.387071 0.000000 0.712923
O O13 0.302526 0.354431 0.500000
O O14 0.333715 0.500000 0.349738
O O15 0.000000 0.500000 0.893216
O O16 0.870983 0.500000 0.000000
#
# Coordination Sequence:
#
# PCOD9387469 Si02
#       6
#     4   8   8   8   8   4
#     4  11  24  39  57  82 112 147 186 230 279 329
#     4   9  18  33  55  81 108 140 179 224 275 330
#     4  11  20  38  56  80 109 146 181 229 275 325
#     4   9  19  35  55  80 111 146 184 228 277 331
#     4  10  21  36  56  81 109 144 187 230 277 330
#     4  11  22  36  56  82 109 142 185 227 274 328
#
# _framework density 17.157485999999999
#
# number of rings (size 3 to 8) (size 9 to 14) (size 15 to 20)
#    0.000    2.000    2.000    1.800    0.000    2.400 
#    0.000    4.500    0.000    2.400    0.000    2.800 
#    0.000    0.000    0.000    0.000    0.000    0.000 
#
# Total GULP energy -222804.130193 kJ/mol
# GULP energy per Si atom -5570.103255 kJ/mol
# Density = 1.711843 g / cm^3
# Si number density = 17.157486 Si / 1000 Ang^3
#
#
#
# Elastic Constant Matrix: (Units=GPa)
#
#
# Indices 1 2 3 4 5 6 
#
# 1 116.9789 48.3224 63.3252 0.0000 0.0000 0.0000
# 2 48.3224 73.8088 61.6464 0.0000 0.0000 0.0000
# 3 63.3252 61.6464 135.6705 0.0000 0.0000 0.0000
# 4 0.0000 0.0000 0.0000 27.2800 0.0000 0.0000
# 5 0.0000 0.0000 0.0000 0.0000 10.0190 0.0000
# 6 0.0000 0.0000 0.0000 0.0000 0.0000 24.8215
#
#
#
# Elastic Compliance Matrix: (Units=1/GPa)
#
#
# Indices 1 2 3 4 5 6 
#
# 1 0.012646 -0.005398 -0.003450 0.000000 0.000000 0.000000
# 2 -0.005398 0.024139 -0.008449 0.000000 0.000000 0.000000
# 3 -0.003450 -0.008449 0.012820 0.000000 0.000000 0.000000
# 4 0.000000 0.000000 0.000000 0.036657 0.000000 0.000000
# 5 0.000000 0.000000 0.000000 0.000000 0.099810 0.000000
# 6 0.000000 0.000000 0.000000 0.000000 0.000000 0.040288
#
#
# Mechanical properties :
#
#
# Convention : Reuss Voigt Hill
#
# Bulk Modulus (GPa) = 66.61402 74.78290 70.69846
# Shear Modulus (GPa) = 18.80002 22.63504 20.71753
#
# Velocity S-wave (km/s) = 3.31378 3.63609 3.47867
# Velocity P-wave (km/s) = 7.31784 7.83001 7.57825
#
# Compressibility (1/GPa) = 0.01501186
#
# Stress axis : x y z
#
# Youngs Moduli (GPa) = 79.07720 41.42640 78.00245
#
# Poissons Ratio (x) = 0.22361 0.26910
# Poissons Ratio (y) = 0.42685 0.65904
# Poissons Ratio (z) = 0.27281 0.35001
#
# Static dielectric constant tensor:
#      x y z
#    x 1.561100 0.000000 0.000000 
#    y 0.000000 1.580240 0.000000 
#    z 0.000000 0.000000 1.599240 
# 
# From -- ./inp_files/20664.got.cif
#   From: 2010.05.17/outbox.cif.g08.bks.cpg/sg47_11_cif.got.tgz:20664.got - 2010.06.03 20:15:42.
