data_PCOD9387783
_publ_section_title
;
Structure prediction by ZEFSAII (Michael W. Deem and Ramdas Pophale) SiO2 
 PCOD9387783
Probable space group: P M M M
;
_chemical_formula_sum "Si O2"
_cell_formula_units_Z 37
_cell_length_a 9.841529
_cell_length_b 23.067143
_cell_length_c 7.641424
_cell_angle_alpha 90.000000
_cell_angle_beta 90.000000
_cell_angle_gamma 90.000000
_cell_volume 1734.725181
_symmetry_space_group_name_H-M "P M M M"
_symmetry_group_IT_number 47
_symmetry_cell_setting 'orthorhombic'
loop_
_space_group_symop_operation_xyz
x,y,z
-x,-y,z
x,-y,-z
-x,y,-z
-x,-y,-z
x,y,-z
-x,y,z
x,-y,z
loop_
_atom_site_type_symbol
_atom_site_label
_atom_site_fract_x
_atom_site_fract_y
_atom_site_fract_z
Si Si1 0.260096 0.000000 0.290137
Si Si2 0.851340 0.873835 0.288272
Si Si3 0.153896 0.328757 0.794149
Si Si4 0.653079 0.566443 0.288674
Si Si5 0.652054 0.776997 0.706793
Si Si6 0.500000 0.000000 0.000000
O O1 0.176995 0.941158 0.256812
O O2 0.297452 0.000000 0.500000
O O3 0.383219 0.000000 0.155519
O O4 0.853577 0.867112 0.500000
O O5 0.732378 0.832421 0.219295
O O6 0.000000 0.856210 0.222561
O O7 0.230688 0.389587 0.767367
O O8 0.252160 0.278788 0.723515
O O9 0.000000 0.328089 0.721286
O O10 0.144161 0.318490 0.000000
O O11 0.651452 0.566578 0.500000
O O12 0.500000 0.584098 0.231255
O O13 0.675698 0.500000 0.231560
O O14 0.636913 0.787291 0.500000
O O15 0.500000 0.768742 0.779418
#
# Coordination Sequence:
#
# PCOD9387783 Si02
#       6
#     4   8   8   8   8   1
#     4  10  22  41  65  91 128 165 206 260 306 368
#     4   9  18  36  64  92 118 155 199 244 304 365
#     4  11  24  39  54  79 116 156 195 236 287 344
#     4   9  19  37  61  87 113 143 184 235 288 344
#     4  10  21  37  60  89 116 148 196 247 294 351
#     4  12  26  40  58  98 128 168 212 248 314 370
#
# _framework density 21.329025000000001
#
# number of rings (size 3 to 8) (size 9 to 14) (size 15 to 20)
#    0.000    2.162    0.000    3.081    1.514    8.216 
#    1.946    4.324    0.000    0.000    0.000    0.000 
#    0.000    0.000    0.000    0.000    0.000    0.000 
#
# Total GULP energy -206320.614604 kJ/mol
# GULP energy per Si atom -5576.232827 kJ/mol
# Density = 2.128048 g / cm^3
# Si number density = 21.329025 Si / 1000 Ang^3
#
#
#
# Elastic Constant Matrix: (Units=GPa)
#
#
# Indices 1 2 3 4 5 6 
#
# 1 222.6689 95.2267 17.1693 0.0000 0.0000 0.0000
# 2 95.2267 115.9222 -3.8612 0.0000 0.0000 0.0000
# 3 17.1693 -3.8612 52.8649 0.0000 0.0000 0.0000
# 4 0.0000 0.0000 0.0000 287.8202 0.0000 0.0000
# 5 0.0000 0.0000 0.0000 0.0000 74.3594 0.0000
# 6 0.0000 0.0000 0.0000 0.0000 0.0000 116.5707
#
#
#
# Elastic Compliance Matrix: (Units=1/GPa)
#
#
# Indices 1 2 3 4 5 6 
#
# 1 0.007321 -0.006108 -0.002824 0.000000 0.000000 0.000000
# 2 -0.006108 0.013743 0.002988 0.000000 0.000000 0.000000
# 3 -0.002824 0.002988 0.020051 0.000000 0.000000 0.000000
# 4 0.000000 0.000000 0.000000 0.003474 0.000000 0.000000
# 5 0.000000 0.000000 0.000000 0.000000 0.013448 0.000000
# 6 0.000000 0.000000 0.000000 0.000000 0.000000 0.008578
#
#
# Mechanical properties :
#
#
# Convention : Reuss Voigt Hill
#
# Bulk Modulus (GPa) = 34.21444 67.61394 50.91419
# Shear Modulus (GPa) = 56.65889 114.61148 85.63519
#
# Velocity S-wave (km/s) = 5.15964 7.33837 6.34325
# Velocity P-wave (km/s) = 7.18136 10.17701 8.80748
#
# Compressibility (1/GPa) = 0.02922743
#
# Stress axis : x y z
#
# Youngs Moduli (GPa) = 136.59716 72.76206 49.87179
#
# Poissons Ratio (x) = 0.44442 0.14082
# Poissons Ratio (y) = 0.83432 -0.14899
# Poissons Ratio (z) = 0.38571 -0.21738
#
# Static dielectric constant tensor:
#      x y z
#    x 1.784610 0.000000 0.000000 
#    y 0.000000 1.745360 0.000000 
#    z 0.000000 0.000000 1.797930 
# 
# From -- ./inp_files/1479.got.cif
#   From: 2010.05.17/outbox.cif.g08.bks.cpg/sg47_1_cif.got.tgz:1479.got - 2010.06.03 20:15:42.
