data_PCOD9387512
_publ_section_title
;
Structure prediction by ZEFSAII (Michael W. Deem and Ramdas Pophale) SiO2 
 PCOD9387512
Probable space group: P M M M
;
_chemical_formula_sum "Si O2"
_cell_formula_units_Z 37
_cell_length_a 7.497205
_cell_length_b 18.641634
_cell_length_c 12.456407
_cell_angle_alpha 90.000000
_cell_angle_beta 90.000000
_cell_angle_gamma 90.000000
_cell_volume 1740.909331
_symmetry_space_group_name_H-M "P M M M"
_symmetry_group_IT_number 47
_symmetry_cell_setting 'orthorhombic'
loop_
_space_group_symop_operation_xyz
x,y,z
-x,-y,z
x,-y,-z
-x,y,-z
-x,-y,-z
x,y,-z
-x,y,z
x,-y,z
loop_
_atom_site_type_symbol
_atom_site_label
_atom_site_fract_x
_atom_site_fract_y
_atom_site_fract_z
Si Si1 0.210425 0.363872 0.736409
Si Si2 0.217323 0.920634 0.375829
Si Si3 0.286722 0.581776 0.500000
Si Si4 0.783170 0.795645 0.217927
Si Si5 0.000000 0.000000 0.000000
Si Si6 0.218609 0.500000 0.874636
Si Si7 0.300138 0.124661 0.000000
O O1 0.230600 0.381166 0.610555
O O2 0.282442 0.284868 0.761391
O O3 0.280210 0.429426 0.809248
O O4 0.000000 0.361003 0.759885
O O5 0.270728 0.914185 0.500000
O O6 0.278147 0.853951 0.305699
O O7 0.000000 0.920448 0.373682
O O8 0.272032 0.000000 0.335654
O O9 0.218548 0.500000 0.500000
O O10 0.500000 0.579746 0.500000
O O11 0.000000 0.794779 0.222616
O O12 0.727318 0.825889 0.103757
O O13 0.154593 0.937405 0.000000
O O14 0.000000 0.500000 0.872516
O O15 0.270860 0.500000 0.000000
O O16 0.500000 0.095344 0.000000
#
# Coordination Sequence:
#
# PCOD9387512 Si02
#       7
#     8   8   4   8   1   4   4
#     4  10  21  36  62  92 122 166 215 274 337 402
#     4   8  15  28  50  81 116 157 202 248 306 378
#     4  11  23  39  59  85 126 171 220 283 351 407
#     4  10  21  37  62  92 130 168 211 270 333 394
#     4  12  26  52  76  98 138 174 226 284 332 404
#     4   9  18  33  55  86 120 159 212 275 332 395
#     4  12  27  45  71 103 134 178 223 275 338 400
#
# _framework density 21.253259
#
# number of rings (size 3 to 8) (size 9 to 14) (size 15 to 20)
#    0.000    2.162    2.162    1.135    4.541    1.297 
#    0.000    0.000    0.000    0.649    0.000    1.514 
#    0.000    0.000    0.000    0.000    0.000    0.000 
#
# Total GULP energy -206459.558838 kJ/mol
# GULP energy per Si atom -5579.988077 kJ/mol
# Density = 2.120489 g / cm^3
# Si number density = 21.253259 Si / 1000 Ang^3
#
#
#
# Elastic Constant Matrix: (Units=GPa)
#
#
# Indices 1 2 3 4 5 6 
#
# 1 80.6844 37.6127 3.1110 0.0000 0.0000 0.0000
# 2 37.6127 256.1391 133.2270 0.0000 0.0000 0.0000
# 3 3.1110 133.2270 156.5328 0.0000 0.0000 0.0000
# 4 0.0000 0.0000 0.0000 17.6750 0.0000 0.0000
# 5 0.0000 0.0000 0.0000 0.0000 -7.4613 0.0000
# 6 0.0000 0.0000 0.0000 0.0000 0.0000 3.9799
#
#
#
# Elastic Compliance Matrix: (Units=1/GPa)
#
#
# Indices 1 2 3 4 5 6 
#
# 1 0.013878 -0.003399 0.002617 0.000000 0.000000 0.000000
# 2 -0.003399 0.007838 -0.006603 0.000000 0.000000 0.000000
# 3 0.002617 -0.006603 0.011957 0.000000 0.000000 0.000000
# 4 0.000000 0.000000 0.000000 0.056577 0.000000 0.000000
# 5 0.000000 0.000000 0.000000 0.000000 -0.134024 0.000000
# 6 0.000000 0.000000 0.000000 0.000000 0.000000 0.251263
#
#
# Mechanical properties :
#
#
# Convention : Reuss Voigt Hill
#
# Bulk Modulus (GPa) = 52.90551 93.47307 73.18929
# Shear Modulus (GPa) = 21.87621 24.13243 23.00432
#
# Velocity S-wave (km/s) = 3.21177 3.37333 3.29354
# Velocity P-wave (km/s) = 6.22100 7.69731 6.99819
#
# Compressibility (1/GPa) = 0.01890162
#
# Stress axis : x y z
#
# Youngs Moduli (GPa) = 72.05822 127.58424 83.63533
#
# Poissons Ratio (x) = 0.43369 -0.21890
# Poissons Ratio (y) = 0.24494 0.55228
# Poissons Ratio (z) = -0.18860 0.84249
#
# Static dielectric constant tensor:
#      x y z
#    x 1.777440 0.000000 0.000000 
#    y 0.000000 1.746980 0.000000 
#    z 0.000000 0.000000 1.729150 
# 
# From -- ./inp_files/14958.got.cif
#   From: 2010.05.17/outbox.cif.g08.bks.cpg/sg47_8_cif.got.tgz:14958.got - 2010.06.03 20:15:42.
