data_PCOD9387826
_publ_section_title
;
Structure prediction by ZEFSAII (Michael W. Deem and Ramdas Pophale) SiO2 
 PCOD9387826
Probable space group: P M M M
;
_chemical_formula_sum "Si O2"
_cell_formula_units_Z 48
_cell_length_a 9.019794
_cell_length_b 30.310501
_cell_length_c 10.093844
_cell_angle_alpha 90.000000
_cell_angle_beta 90.000000
_cell_angle_gamma 90.000000
_cell_volume 2759.601182
_symmetry_space_group_name_H-M "P M M M"
_symmetry_group_IT_number 47
_symmetry_cell_setting 'orthorhombic'
loop_
_space_group_symop_operation_xyz
x,y,z
-x,-y,z
x,-y,-z
-x,y,-z
-x,-y,-z
x,y,-z
-x,y,z
x,-y,z
loop_
_atom_site_type_symbol
_atom_site_label
_atom_site_fract_x
_atom_site_fract_y
_atom_site_fract_z
Si Si1 0.669587 0.637495 0.661146
Si Si2 0.178563 0.810438 0.842795
Si Si3 0.821682 0.052631 0.500000
Si Si4 0.173807 0.451487 0.660968
Si Si5 0.322248 0.098463 0.245961
Si Si6 0.829284 0.947506 0.000000
Si Si7 0.178086 0.729045 0.653584
O O1 0.672609 0.635816 0.500000
O O2 0.500000 0.640645 0.703615
O O3 0.741339 0.591770 0.708930
O O4 0.756674 0.681905 0.695994
O O5 0.262536 0.852395 0.782421
O O6 0.219084 0.767616 0.755673
O O7 0.000000 0.816887 0.831140
O O8 0.211722 0.805966 0.000000
O O9 0.750357 0.076767 0.625301
O O10 0.000000 0.057641 0.500000
O O11 0.789948 0.000000 0.500000
O O12 0.182724 0.451390 0.500000
O O13 0.228456 0.500000 0.704653
O O14 0.000000 0.448000 0.694088
O O15 0.500000 0.097855 0.252569
O O16 0.259219 0.069749 0.125542
O O17 0.000000 0.930563 0.000000
O O18 0.835504 0.000000 0.000000
O O19 0.224579 0.738195 0.500000
O O20 0.000000 0.725910 0.652857
#
# Coordination Sequence:
#
# PCOD9387826 Si02
#       7
#     8   8   4   8   8   4   8
#     4   9  16  25  38  60  91 126 163 209 262 312
#     4  10  21  38  59  81 109 145 184 225 269 324
#     4  11  25  45  67  89 117 155 193 227 268 325
#     4   8  13  21  34  53  81 121 165 206 249 302
#     4  12  25  40  61  91 122 150 182 229 283 327
#     4  11  23  41  65  89 115 153 195 227 264 323
#     4   9  18  32  51  74  98 133 178 220 263 315
#
# _framework density 17.393816999999999
#
# number of rings (size 3 to 8) (size 9 to 14) (size 15 to 20)
#    0.000    2.167    0.833    3.500    1.167    6.333 
#    0.000    1.667    0.000    0.000    0.000    0.000 
#    0.000    0.667    0.000    7.667    0.000    9.833 
#
# Total GULP energy -267693.144247 kJ/mol
# GULP energy per Si atom -5576.940505 kJ/mol
# Density = 1.735423 g / cm^3
# Si number density = 17.393817 Si / 1000 Ang^3
#
#
#
# Elastic Constant Matrix: (Units=GPa)
#
#
# Indices 1 2 3 4 5 6 
#
# 1 80.4860 79.2859 50.5295 0.0000 0.0000 0.0000
# 2 79.2859 182.9209 74.9201 0.0000 0.0000 0.0000
# 3 50.5295 74.9201 105.8840 0.0000 0.0000 0.0000
# 4 0.0000 0.0000 0.0000 20.1568 0.0000 0.0000
# 5 0.0000 0.0000 0.0000 0.0000 8.5555 0.0000
# 6 0.0000 0.0000 0.0000 0.0000 0.0000 -25.9357
#
#
#
# Elastic Compliance Matrix: (Units=1/GPa)
#
#
# Indices 1 2 3 4 5 6 
#
# 1 0.023932 -0.008020 -0.005746 0.000000 0.000000 0.000000
# 2 -0.008020 0.010385 -0.003521 0.000000 0.000000 0.000000
# 3 -0.005746 -0.003521 0.014678 0.000000 0.000000 0.000000
# 4 0.000000 0.000000 0.000000 0.049611 0.000000 0.000000
# 5 0.000000 0.000000 0.000000 0.000000 0.116883 0.000000
# 6 0.000000 0.000000 0.000000 0.000000 0.000000 -0.038557
#
#
# Mechanical properties :
#
#
# Convention : Reuss Voigt Hill
#
# Bulk Modulus (GPa) = 69.34298 86.52909 77.93604
# Shear Modulus (GPa) = 23.11456 11.52568 17.32012
#
# Velocity S-wave (km/s) = 3.64936 2.57695 3.15899
# Velocity P-wave (km/s) = 7.59671 7.66220 7.62953
#
# Compressibility (1/GPa) = 0.01442107
#
# Stress axis : x y z
#
# Youngs Moduli (GPa) = 41.78470 96.29219 68.12966
#
# Poissons Ratio (x) = 0.77223 0.39150
# Poissons Ratio (y) = 0.33510 0.23989
# Poissons Ratio (z) = 0.24011 0.33905
#
# Static dielectric constant tensor:
#      x y z
#    x 1.577950 0.000000 0.000000 
#    y 0.000000 1.593200 0.000000 
#    z 0.000000 0.000000 1.536580 
# 
# From -- ./inp_files/2740.got.cif
#   From: 2010.05.17/outbox.cif.g08.bks.cpg/sg47_2_cif.got.tgz:2740.got - 2010.06.03 20:15:42.
