data_PCOD9387493
_publ_section_title
;
Structure prediction by ZEFSAII (Michael W. Deem and Ramdas Pophale) SiO2 
 PCOD9387493
Probable space group: P M M M
;
_chemical_formula_sum "Si O2"
_cell_formula_units_Z 37
_cell_length_a 7.848840
_cell_length_b 20.758628
_cell_length_c 12.045870
_cell_angle_alpha 90.000000
_cell_angle_beta 90.000000
_cell_angle_gamma 90.000000
_cell_volume 1962.647449
_symmetry_space_group_name_H-M "P M M M"
_symmetry_group_IT_number 47
_symmetry_cell_setting 'orthorhombic'
loop_
_space_group_symop_operation_xyz
x,y,z
-x,-y,z
x,-y,-z
-x,y,-z
-x,-y,-z
x,y,-z
-x,y,z
x,-y,z
loop_
_atom_site_type_symbol
_atom_site_label
_atom_site_fract_x
_atom_site_fract_y
_atom_site_fract_z
Si Si1 0.200078 0.892828 0.624074
Si Si2 0.787285 0.000000 0.198469
Si Si3 0.500000 0.000000 0.000000
Si Si4 0.703084 0.426156 0.000000
Si Si5 0.701464 0.252380 0.624346
Si Si6 0.201944 0.624560 0.238373
Si Si7 0.791205 0.500000 0.372215
O O1 0.275661 0.904038 0.500000
O O2 0.222151 0.817373 0.650526
O O3 0.000000 0.906319 0.614358
O O4 0.256061 0.938563 0.723409
O O5 0.000000 0.000000 0.175202
O O6 0.655316 0.000000 0.096463
O O7 0.757156 0.389329 0.889237
O O8 0.771621 0.500000 0.000000
O O9 0.500000 0.430198 0.000000
O O10 0.762674 0.271719 0.500000
O O11 0.500000 0.243164 0.619073
O O12 0.736400 0.308318 0.711743
O O13 0.269748 0.563902 0.309248
O O14 0.000000 0.624483 0.251191
O O15 0.739478 0.500000 0.500000
O O16 0.000000 0.500000 0.369146
#
# Coordination Sequence:
#
# PCOD9387493 Si02
#       7
#     8   4   1   4   8   8   4
#     4   9  18  36  64  95 125 158 197 249 308 362
#     4  10  22  41  65  95 129 166 213 260 304 362
#     4  12  26  40  62  90 128 180 218 252 308 354
#     4  11  23  39  58  79 109 146 187 241 300 349
#     4  10  21  36  56  87 126 158 187 231 294 361
#     4  11  21  36  58  81 110 148 195 241 286 345
#     4   9  18  31  51  80 108 137 180 235 290 347
#
# _framework density 18.852086
#
# number of rings (size 3 to 8) (size 9 to 14) (size 15 to 20)
#    0.000    1.946    1.081    2.757    1.514    3.892 
#    0.000    1.622    2.378    5.189    0.000    0.000 
#    0.000    0.000    0.000    0.000    0.000    0.000 
#
# Total GULP energy -206119.239704 kJ/mol
# GULP energy per Si atom -5570.790262 kJ/mol
# Density = 1.880918 g / cm^3
# Si number density = 18.852086 Si / 1000 Ang^3
#
#
#
# Elastic Constant Matrix: (Units=GPa)
#
#
# Indices 1 2 3 4 5 6 
#
# 1 49.5827 7.5363 18.8946 0.0000 0.0000 0.0000
# 2 7.5363 97.7431 87.4258 0.0000 0.0000 0.0000
# 3 18.8946 87.4258 164.4417 0.0000 0.0000 0.0000
# 4 0.0000 0.0000 0.0000 2.5667 0.0000 0.0000
# 5 0.0000 0.0000 0.0000 0.0000 19.7490 0.0000
# 6 0.0000 0.0000 0.0000 0.0000 0.0000 7.2891
#
#
#
# Elastic Compliance Matrix: (Units=1/GPa)
#
#
# Indices 1 2 3 4 5 6 
#
# 1 0.021147 0.001035 -0.002980 0.000000 0.000000 0.000000
# 2 0.001035 0.019558 -0.010517 0.000000 0.000000 0.000000
# 3 -0.002980 -0.010517 0.012015 0.000000 0.000000 0.000000
# 4 0.000000 0.000000 0.000000 0.389606 0.000000 0.000000
# 5 0.000000 0.000000 0.000000 0.000000 0.050635 0.000000
# 6 0.000000 0.000000 0.000000 0.000000 0.000000 0.137191
#
#
# Mechanical properties :
#
#
# Convention : Reuss Voigt Hill
#
# Bulk Modulus (GPa) = 35.97699 59.94232 47.95965
# Shear Modulus (GPa) = 7.52626 19.11502 13.32064
#
# Velocity S-wave (km/s) = 2.00023 3.18771 2.66105
# Velocity P-wave (km/s) = 4.94569 6.73898 5.91074
#
# Compressibility (1/GPa) = 0.02779555
#
# Stress axis : x y z
#
# Youngs Moduli (GPa) = 47.28889 51.13020 83.22968
#
# Poissons Ratio (x) = -0.05292 0.24803
# Poissons Ratio (y) = -0.04894 0.87532
# Poissons Ratio (z) = 0.14092 0.53773
#
# Static dielectric constant tensor:
#      x y z
#    x 1.683490 0.000000 0.000000 
#    y 0.000000 1.665430 0.000000 
#    z 0.000000 0.000000 1.649630 
# 
# From -- ./inp_files/14938.got.cif
#   From: 2010.05.17/outbox.cif.g08.bks.cpg/sg47_8_cif.got.tgz:14938.got - 2010.06.03 20:15:42.
