data_PCOD9387583
_publ_section_title
;
Structure prediction by ZEFSAII (Michael W. Deem and Ramdas Pophale) SiO2 
 PCOD9387583
Probable space group: P M M M
;
_chemical_formula_sum "Si O2"
_cell_formula_units_Z 40
_cell_length_a 9.484000
_cell_length_b 7.974890
_cell_length_c 27.874100
_cell_angle_alpha 90.000000
_cell_angle_beta 90.000000
_cell_angle_gamma 90.000000
_cell_volume 2108.225687
_symmetry_space_group_name_H-M "P M M M"
_symmetry_group_IT_number 47
_symmetry_cell_setting 'orthorhombic'
loop_
_space_group_symop_operation_xyz
x,y,z
-x,-y,z
x,-y,-z
-x,y,-z
-x,-y,-z
x,y,-z
-x,y,z
x,-y,z
loop_
_atom_site_type_symbol
_atom_site_label
_atom_site_fract_x
_atom_site_fract_y
_atom_site_fract_z
Si Si1 0.665178 0.500000 0.942496
Si Si2 0.338961 0.701779 0.303470
Si Si3 0.841367 0.699306 0.500000
Si Si4 0.834389 0.298895 0.788475
Si Si5 0.830881 0.808235 0.895432
Si Si6 0.660710 0.199505 0.591834
O O1 0.500000 0.500000 0.928024
O O2 0.744106 0.665292 0.922709
O O3 0.671992 0.500000 0.000000
O O4 0.500000 0.764305 0.301190
O O5 0.341250 0.500000 0.300849
O O6 0.252115 0.761190 0.257561
O O7 0.282455 0.747367 0.356039
O O8 0.851248 0.500000 0.500000
O O9 0.756101 0.748751 0.452547
O O10 0.000000 0.770608 0.500000
O O11 0.811754 0.500000 0.794730
O O12 0.798873 0.212529 0.838768
O O13 0.000000 0.273610 0.779425
O O14 0.000000 0.779281 0.901079
O O15 0.800648 0.000000 0.910475
O O16 0.500000 0.267959 0.586982
O O17 0.651743 0.000000 0.591507
#
# Coordination Sequence:
#
# PCOD9387583 Si02
#       6
#     4   8   4   8   8   8
#     4  11  25  43  63  89 125 165 203 252 311 364
#     4   9  18  32  51  77 109 147 188 227 270 328
#     4  11  24  39  56  78 102 131 174 227 280 336
#     4   9  17  32  54  81 115 153 191 236 288 340
#     4  10  21  39  64  92 122 160 208 255 301 361
#     4  10  21  37  56  78 106 141 180 222 272 332
#
# _framework density 18.973302
#
# number of rings (size 3 to 8) (size 9 to 14) (size 15 to 20)
#    0.000    2.200    1.000    1.500    0.000    7.200 
#    0.000    4.000    0.000    0.000    0.000    0.000 
#    0.000    0.000    0.000    0.000    0.000    0.000 
#
# Total GULP energy -223252.235248 kJ/mol
# GULP energy per Si atom -5581.305881 kJ/mol
# Density = 1.893012 g / cm^3
# Si number density = 18.973302 Si / 1000 Ang^3
#
#
#
# Elastic Constant Matrix: (Units=GPa)
#
#
# Indices 1 2 3 4 5 6 
#
# 1 78.4896 51.7756 70.1674 0.0000 0.0000 0.0000
# 2 51.7756 82.6808 54.1710 0.0000 0.0000 0.0000
# 3 70.1674 54.1710 118.9185 0.0000 0.0000 0.0000
# 4 0.0000 0.0000 0.0000 -24.7976 0.0000 0.0000
# 5 0.0000 0.0000 0.0000 0.0000 49.6557 0.0000
# 6 0.0000 0.0000 0.0000 0.0000 0.0000 16.7381
#
#
#
# Elastic Compliance Matrix: (Units=1/GPa)
#
#
# Indices 1 2 3 4 5 6 
#
# 1 0.032981 -0.011265 -0.014329 0.000000 0.000000 0.000000
# 2 -0.011265 0.021088 -0.002959 0.000000 0.000000 0.000000
# 3 -0.014329 -0.002959 0.018212 0.000000 0.000000 0.000000
# 4 0.000000 0.000000 0.000000 -0.040327 0.000000 0.000000
# 5 0.000000 0.000000 0.000000 0.000000 0.020139 0.000000
# 6 0.000000 0.000000 0.000000 0.000000 0.000000 0.059744
#
#
# Mechanical properties :
#
#
# Convention : Reuss Voigt Hill
#
# Bulk Modulus (GPa) = 65.90007 70.25746 68.07876
# Shear Modulus (GPa) = 28.73544 15.25091 21.99317
#
# Velocity S-wave (km/s) = 3.89590 2.83823 3.40834
# Velocity P-wave (km/s) = 7.41929 6.91742 7.17275
#
# Compressibility (1/GPa) = 0.01517449
#
# Stress axis : x y z
#
# Youngs Moduli (GPa) = 30.32043 47.42059 54.90965
#
# Poissons Ratio (x) = 0.53420 0.78679
# Poissons Ratio (y) = 0.34156 0.16249
# Poissons Ratio (z) = 0.43445 0.14033
#
# Static dielectric constant tensor:
#      x y z
#    x 1.666630 0.000000 0.000000 
#    y 0.000000 1.670060 0.000000 
#    z 0.000000 0.000000 1.652340 
# 
# From -- ./inp_files/33034.got.cif
#   From: 2010.05.17/outbox.cif.g08.bks.cpg/sg47_17_cif.got.tgz:33034.got - 2010.06.03 20:15:42.
