data_PCOD9387982
_publ_section_title
;
Structure prediction by ZEFSAII (Michael W. Deem and Ramdas Pophale) SiO2 
 PCOD9387982
Probable space group: P M M M
;
_chemical_formula_sum "Si O2"
_cell_formula_units_Z 29
_cell_length_a 21.708708
_cell_length_b 7.908109
_cell_length_c 9.182248
_cell_angle_alpha 90.000000
_cell_angle_beta 90.000000
_cell_angle_gamma 90.000000
_cell_volume 1576.360856
_symmetry_space_group_name_H-M "P M M M"
_symmetry_group_IT_number 47
_symmetry_cell_setting 'orthorhombic'
loop_
_space_group_symop_operation_xyz
x,y,z
-x,-y,z
x,-y,-z
-x,y,-z
-x,-y,-z
x,y,-z
-x,y,z
x,-y,z
loop_
_atom_site_type_symbol
_atom_site_label
_atom_site_fract_x
_atom_site_fract_y
_atom_site_fract_z
Si Si1 0.930594 0.704462 0.168698
Si Si2 0.500000 0.000000 0.500000
Si Si3 0.808648 0.800405 0.332393
Si Si4 0.627501 0.000000 0.661126
Si Si5 0.311450 0.308843 0.826802
O O1 0.929058 0.500000 0.173145
O O2 0.876619 0.771393 0.269585
O O3 0.000000 0.757711 0.210121
O O4 0.920262 0.754891 0.000000
O O5 0.555241 0.000000 0.624493
O O6 0.804848 0.744173 0.500000
O O7 0.757754 0.708730 0.234630
O O8 0.795083 0.000000 0.325635
O O9 0.648657 0.166357 0.746730
O O10 0.658538 0.000000 0.500000
O O11 0.333621 0.500000 0.797832
O O12 0.311319 0.280764 0.000000
#
# Coordination Sequence:
#
# PCOD9387982 Si02
#       5
#     8   1   8   4   8
#     4   9  19  36  55  75 105 149 202 259 319 382
#     4   8  24  44  72 100 136 170 208 244 298 356
#     4  11  23  36  53  83 119 157 204 260 318 376
#     4  10  21  43  67  97 128 167 207 245 298 363
#     4  11  23  39  64  96 129 167 211 262 313 364
#
# _framework density 18.396803999999999
#
# number of rings (size 3 to 8) (size 9 to 14) (size 15 to 20)
#    0.414    1.379    1.379    3.724    0.000    8.828 
#    0.000    6.897    0.000    1.655    0.000    0.000 
#    0.000    0.000    0.000    0.000    0.000    0.000 
#
# Total GULP energy -161656.759434 kJ/mol
# GULP energy per Si atom -5574.371015 kJ/mol
# Density = 1.835493 g / cm^3
# Si number density = 18.396804 Si / 1000 Ang^3
#
#
#
# Elastic Constant Matrix: (Units=GPa)
#
#
# Indices 1 2 3 4 5 6 
#
# 1 122.3463 49.3144 62.3381 0.0000 0.0000 0.0000
# 2 49.3144 100.7219 74.3813 0.0000 0.0000 0.0000
# 3 62.3381 74.3813 120.3645 0.0000 0.0000 0.0000
# 4 0.0000 0.0000 0.0000 36.2557 0.0000 0.0000
# 5 0.0000 0.0000 0.0000 0.0000 -7.4616 0.0000
# 6 0.0000 0.0000 0.0000 0.0000 0.0000 -0.3244
#
#
#
# Elastic Compliance Matrix: (Units=1/GPa)
#
#
# Indices 1 2 3 4 5 6 
#
# 1 0.011372 -0.002241 -0.004505 0.000000 0.000000 0.000000
# 2 -0.002241 0.018704 -0.010398 0.000000 0.000000 0.000000
# 3 -0.004505 -0.010398 0.017067 0.000000 0.000000 0.000000
# 4 0.000000 0.000000 0.000000 0.027582 0.000000 0.000000
# 5 0.000000 0.000000 0.000000 0.000000 -0.134019 0.000000
# 6 0.000000 0.000000 0.000000 0.000000 0.000000 -3.082263
#
#
# Mechanical properties :
#
#
# Convention : Reuss Voigt Hill
#
# Bulk Modulus (GPa) = 77.78818 79.50003 78.64410
# Shear Modulus (GPa) = -1.61135 16.18718 7.28791
#
# Velocity S-wave (km/s) = -0.93690 2.96951 1.99251
# Velocity P-wave (km/s) = 6.41911 7.42059 6.93794
#
# Compressibility (1/GPa) = 0.01285542
#
# Stress axis : x y z
#
# Youngs Moduli (GPa) = 87.93393 53.46365 58.59361
#
# Poissons Ratio (x) = 0.11983 0.26395
# Poissons Ratio (y) = 0.19708 0.60925
# Poissons Ratio (z) = 0.39612 0.55591
#
# Static dielectric constant tensor:
#      x y z
#    x 1.610740 0.000000 0.000000 
#    y 0.000000 1.653650 0.000000 
#    z 0.000000 0.000000 1.618800 
# 
# From -- ./inp_files/981.got.cif
#   From: 2010.05.17/outbox.cif.g08.bks.cpg/sg47_1_cif.got.tgz:981.got - 2010.06.03 20:15:42.
