data_PCOD9387677
_publ_section_title
;
Structure prediction by ZEFSAII (Michael W. Deem and Ramdas Pophale) SiO2 
 PCOD9387677
Probable space group: P M M M
;
_chemical_formula_sum "Si O2"
_cell_formula_units_Z 48
_cell_length_a 9.256501
_cell_length_b 8.792822
_cell_length_c 31.764196
_cell_angle_alpha 90.000000
_cell_angle_beta 90.000000
_cell_angle_gamma 90.000000
_cell_volume 2585.312232
_symmetry_space_group_name_H-M "P M M M"
_symmetry_group_IT_number 47
_symmetry_cell_setting 'orthorhombic'
loop_
_space_group_symop_operation_xyz
x,y,z
-x,-y,z
x,-y,-z
-x,y,-z
-x,-y,-z
x,y,-z
-x,y,z
x,-y,z
loop_
_atom_site_type_symbol
_atom_site_label
_atom_site_fract_x
_atom_site_fract_y
_atom_site_fract_z
Si Si1 0.331215 0.816303 0.580582
Si Si2 0.831649 0.183578 0.666383
Si Si3 0.333699 0.685555 0.000000
Si Si4 0.170888 0.318135 0.915814
Si Si5 0.667853 0.682201 0.253400
Si Si6 0.169872 0.181602 0.826271
Si Si7 0.168494 0.682368 0.500000
O O1 0.500000 0.772839 0.580842
O O2 0.253367 0.771728 0.624072
O O3 0.248598 0.745580 0.541133
O O4 0.323976 0.000000 0.577303
O O5 0.756324 0.253409 0.707142
O O6 0.000000 0.227451 0.663796
O O7 0.825271 0.000000 0.669633
O O8 0.254819 0.734805 0.957276
O O9 0.327689 0.500000 0.000000
O O10 0.500000 0.731584 0.000000
O O11 0.191878 0.500000 0.911191
O O12 0.215410 0.238606 0.872466
O O13 0.000000 0.291396 0.921972
O O14 0.500000 0.728505 0.256543
O O15 0.675045 0.500000 0.253555
O O16 0.737613 0.744010 0.210551
O O17 0.000000 0.223192 0.820968
O O18 0.180913 0.000000 0.823884
O O19 0.174795 0.500000 0.500000
O O20 0.000000 0.729064 0.500000
#
# Coordination Sequence:
#
# PCOD9387677 Si02
#       7
#     8   8   4   8   8   8   4
#     4  10  21  38  61  87 114 147 187 229 276 330
#     4  10  21  38  61  87 113 144 183 226 273 326
#     4   9  17  29  48  75 104 134 172 219 266 313
#     4   9  17  31  52  76 103 137 176 217 264 319
#     4  11  24  39  56  81 112 146 183 223 270 324
#     4  10  21  37  57  81 108 140 180 225 273 324
#     4  11  24  39  56  82 116 153 192 233 278 326
#
# _framework density 18.566423
#
# number of rings (size 3 to 8) (size 9 to 14) (size 15 to 20)
#    0.000    2.000    0.000    3.250    0.000   10.333 
#    0.000    2.083    0.000    2.500    0.000    0.000 
#    0.000    0.000    0.000    0.000    0.000    0.000 
#
# Total GULP energy -268179.759086 kJ/mol
# GULP energy per Si atom -5587.078314 kJ/mol
# Density = 1.852417 g / cm^3
# Si number density = 18.566423 Si / 1000 Ang^3
#
#
#
# Elastic Constant Matrix: (Units=GPa)
#
#
# Indices 1 2 3 4 5 6 
#
# 1 162.3347 47.9770 122.2138 0.0000 0.0000 0.0000
# 2 47.9770 19.8326 47.3384 0.0000 0.0000 0.0000
# 3 122.2138 47.3384 203.1080 0.0000 0.0000 0.0000
# 4 0.0000 0.0000 0.0000 34.9718 0.0000 0.0000
# 5 0.0000 0.0000 0.0000 0.0000 -711.2844 0.0000
# 6 0.0000 0.0000 0.0000 0.0000 0.0000 24.4205
#
#
#
# Elastic Compliance Matrix: (Units=1/GPa)
#
#
# Indices 1 2 3 4 5 6 
#
# 1 0.021922 -0.048562 -0.001873 0.000000 0.000000 0.000000
# 2 -0.048562 0.221220 -0.022339 0.000000 0.000000 0.000000
# 3 -0.001873 -0.022339 0.011257 0.000000 0.000000 0.000000
# 4 0.000000 0.000000 0.000000 0.028594 0.000000 0.000000
# 5 0.000000 0.000000 0.000000 0.000000 -0.001406 0.000000
# 6 0.000000 0.000000 0.000000 0.000000 0.000000 0.040949
#
#
# Mechanical properties :
#
#
# Convention : Reuss Voigt Hill
#
# Bulk Modulus (GPa) = 9.18683 91.14820 50.16752
# Shear Modulus (GPa) = 9.91339 -119.19536 -54.64099
#
# Velocity S-wave (km/s) = 2.31322 -8.02115 -5.43083
# Velocity P-wave (km/s) = 3.47757 6.04859 3.49942
#
# Compressibility (1/GPa) = 0.10885143
#
# Stress axis : x y z
#
# Youngs Moduli (GPa) = 45.61603 4.52038 88.83540
#
# Poissons Ratio (x) = 0.21952 0.16634
# Poissons Ratio (y) = 2.21522 1.98450
# Poissons Ratio (z) = 0.08542 0.10098
#
# Static dielectric constant tensor:
#      x y z
#    x 1.626290 0.000000 0.000000 
#    y 0.000000 1.628250 0.000000 
#    z 0.000000 0.000000 1.601390 
# 
# From -- ./inp_files/2546.got.cif
#   From: 2010.05.17/outbox.cif.g08.bks.cpg/sg47_2_cif.got.tgz:2546.got - 2010.06.03 20:15:42.
