data_PCOD9387978
_publ_section_title
;
Structure prediction by ZEFSAII (Michael W. Deem and Ramdas Pophale) SiO2 
 PCOD9387978
Probable space group: P M M M
;
_chemical_formula_sum "Si O2"
_cell_formula_units_Z 29
_cell_length_a 22.633520
_cell_length_b 7.164200
_cell_length_c 8.221844
_cell_angle_alpha 90.000000
_cell_angle_beta 90.000000
_cell_angle_gamma 90.000000
_cell_volume 1333.180753
_symmetry_space_group_name_H-M "P M M M"
_symmetry_group_IT_number 47
_symmetry_cell_setting 'orthorhombic'
loop_
_space_group_symop_operation_xyz
x,y,z
-x,-y,z
x,-y,-z
-x,y,-z
-x,-y,-z
x,y,-z
-x,y,z
x,-y,z
loop_
_atom_site_type_symbol
_atom_site_label
_atom_site_fract_x
_atom_site_fract_y
_atom_site_fract_z
Si Si1 0.000000 0.000000 0.500000
Si Si2 0.112781 0.273272 0.500000
Si Si3 0.309645 0.726541 0.684501
Si Si4 0.564135 0.273970 0.808822
Si Si5 0.812784 0.726124 0.821548
O O1 0.051954 0.162717 0.500000
O O2 0.105568 0.500000 0.500000
O O3 0.149185 0.222277 0.663762
O O4 0.295380 0.777297 0.500000
O O5 0.311291 0.500000 0.692827
O O6 0.375275 0.790924 0.729026
O O7 0.255239 0.785247 0.796175
O O8 0.500000 0.212674 0.743703
O O9 0.564205 0.500000 0.797123
O O10 0.566284 0.228188 0.000000
O O11 0.812708 0.500000 0.821678
O O12 0.834540 0.785768 0.000000
#
# Coordination Sequence:
#
# PCOD9387978 Si02
#       5
#     1   4   8   8   8
#     4  12  26  44  70  94 124 162 184 224 282 322
#     4  10  21  41  63  90 122 153 192 230 273 337
#     4   9  14  20  33  57  87 122 175 234 281 334
#     4   8  13  19  25  38  70 120 174 225 279 337
#     4   9  16  29  52  78 106 143 186 235 284 330
#
# _framework density 21.752489000000001
#
# number of rings (size 3 to 8) (size 9 to 14) (size 15 to 20)
#    0.000    3.034    1.379    1.862    0.000    3.862 
#    0.000    4.828    0.000    3.310    0.000    0.000 
#    0.000    0.000    0.000    2.483    0.000   16.138 
#
# Total GULP energy -161589.175795 kJ/mol
# GULP energy per Si atom -5572.040545 kJ/mol
# Density = 2.170298 g / cm^3
# Si number density = 21.752489 Si / 1000 Ang^3
#
#
#
# Elastic Constant Matrix: (Units=GPa)
#
#
# Indices 1 2 3 4 5 6 
#
# 1 181.5085 22.0285 86.5832 0.0000 0.0000 0.0000
# 2 22.0285 123.8295 12.5546 0.0000 0.0000 0.0000
# 3 86.5832 12.5546 147.0432 0.0000 0.0000 0.0000
# 4 0.0000 0.0000 0.0000 -32.4574 0.0000 0.0000
# 5 0.0000 0.0000 0.0000 0.0000 -2.3674 0.0000
# 6 0.0000 0.0000 0.0000 0.0000 0.0000 -140.8222
#
#
#
# Elastic Compliance Matrix: (Units=1/GPa)
#
#
# Indices 1 2 3 4 5 6 
#
# 1 0.007765 -0.000926 -0.004493 0.000000 0.000000 0.000000
# 2 -0.000926 0.008257 -0.000160 0.000000 0.000000 0.000000
# 3 -0.004493 -0.000160 0.009460 0.000000 0.000000 0.000000
# 4 0.000000 0.000000 0.000000 -0.030810 0.000000 0.000000
# 5 0.000000 0.000000 0.000000 0.000000 -0.422408 0.000000
# 6 0.000000 0.000000 0.000000 0.000000 0.000000 -0.007101
#
#
# Mechanical properties :
#
#
# Convention : Reuss Voigt Hill
#
# Bulk Modulus (GPa) = 69.81292 77.19043 73.50167
# Shear Modulus (GPa) = -11.93588 -13.04841 -12.49214
#
# Velocity S-wave (km/s) = -2.34500 -2.45186 -2.39903
# Velocity P-wave (km/s) = 4.98315 5.24856 5.11758
#
# Compressibility (1/GPa) = 0.01432400
#
# Stress axis : x y z
#
# Youngs Moduli (GPa) = 128.78091 121.11645 105.70676
#
# Poissons Ratio (x) = 0.11213 0.47497
# Poissons Ratio (y) = 0.11923 0.01689
# Poissons Ratio (z) = 0.57865 0.01935
#
# Static dielectric constant tensor:
#      x y z
#    x 1.745560 0.000000 0.000000 
#    y 0.000000 1.862840 0.000000 
#    z 0.000000 0.000000 1.771640 
# 
# From -- ./inp_files/1014.got.cif
#   From: 2010.05.17/outbox.cif.g08.bks.cpg/sg47_1_cif.got.tgz:1014.got - 2010.06.03 20:15:42.
