data_PCOD9387495
_publ_section_title
;
Structure prediction by ZEFSAII (Michael W. Deem and Ramdas Pophale) SiO2 
 PCOD9387495
Probable space group: P M M M
;
_chemical_formula_sum "Si O2"
_cell_formula_units_Z 52
_cell_length_a 19.692496
_cell_length_b 15.754020
_cell_length_c 8.876048
_cell_angle_alpha 90.000000
_cell_angle_beta 90.000000
_cell_angle_gamma 90.000000
_cell_volume 2753.669413
_symmetry_space_group_name_H-M "P M M M"
_symmetry_group_IT_number 47
_symmetry_cell_setting 'orthorhombic'
loop_
_space_group_symop_operation_xyz
x,y,z
-x,-y,z
x,-y,-z
-x,y,-z
-x,-y,-z
x,y,-z
-x,y,z
x,-y,z
loop_
_atom_site_type_symbol
_atom_site_label
_atom_site_fract_x
_atom_site_fract_y
_atom_site_fract_z
Si Si1 0.424221 0.601168 0.331103
Si Si2 0.689032 0.689285 0.827823
Si Si3 0.682223 0.133298 0.322286
Si Si4 0.842285 0.661313 0.179269
Si Si5 0.080922 0.000000 0.824302
Si Si6 0.080518 0.500000 0.680598
Si Si7 0.420162 0.000000 0.819360
Si Si8 0.162580 0.151351 0.681049
O O1 0.402256 0.628313 0.500000
O O2 0.500000 0.635300 0.304745
O O3 0.428160 0.500000 0.334708
O O4 0.372143 0.627043 0.204197
O O5 0.675875 0.768194 0.718753
O O6 0.761606 0.646341 0.797292
O O7 0.690847 0.720077 0.000000
O O8 0.676087 0.117518 0.500000
O O9 0.761304 0.117755 0.278161
O O10 0.624435 0.079457 0.239522
O O11 0.884933 0.585201 0.252631
O O12 0.851861 0.755527 0.249318
O O13 0.855639 0.664011 0.000000
O O14 0.110446 0.082938 0.743543
O O15 0.000000 0.000000 0.816227
O O16 0.101361 0.000000 0.000000
O O17 0.088853 0.500000 0.500000
O O18 0.000000 0.500000 0.714842
O O19 0.500000 0.000000 0.770167
O O20 0.420302 0.000000 0.000000
O O21 0.160159 0.157753 0.500000
#
# Coordination Sequence:
#
# PCOD9387495 Si02
#       8
#     8   8   8   8   4   4   4   8
#     4   9  19  35  53  76 108 147 188 228 277 334
#     4  10  21  36  57  85 114 145 187 235 284 337
#     4  10  21  38  60  84 110 145 190 234 283 340
#     4  10  22  40  62  89 120 155 196 242 295 354
#     4  11  24  39  58  88 122 157 194 231 284 350
#     4  11  25  43  63  89 120 157 200 243 293 354
#     4  11  24  39  56  82 116 153 194 241 294 348
#     4  10  21  39  63  90 119 153 197 246 294 348
#
# _framework density 18.883894999999999
#
# number of rings (size 3 to 8) (size 9 to 14) (size 15 to 20)
#    0.000    1.923    0.000    3.462    1.077    9.231 
#    0.000    0.769    0.000    0.000    0.000    0.000 
#    0.000    0.000    0.000    0.000    0.000    0.000 
#
# Total GULP energy -290120.491204 kJ/mol
# GULP energy per Si atom -5579.240215 kJ/mol
# Density = 1.884091 g / cm^3
# Si number density = 18.883895 Si / 1000 Ang^3
#
#
#
# Elastic Constant Matrix: (Units=GPa)
#
#
# Indices 1 2 3 4 5 6 
#
# 1 112.5478 76.0420 65.1909 0.0000 0.0000 0.0000
# 2 76.0420 88.7495 48.6122 0.0000 0.0000 0.0000
# 3 65.1909 48.6122 77.4742 0.0000 0.0000 0.0000
# 4 0.0000 0.0000 0.0000 36.7566 0.0000 0.0000
# 5 0.0000 0.0000 0.0000 0.0000 28.9179 0.0000
# 6 0.0000 0.0000 0.0000 0.0000 0.0000 40.3366
#
#
#
# Elastic Compliance Matrix: (Units=1/GPa)
#
#
# Indices 1 2 3 4 5 6 
#
# 1 0.027400 -0.016529 -0.012684 0.000000 0.000000 0.000000
# 2 -0.016529 0.027139 -0.003121 0.000000 0.000000 0.000000
# 3 -0.012684 -0.003121 0.025539 0.000000 0.000000 0.000000
# 4 0.000000 0.000000 0.000000 0.027206 0.000000 0.000000
# 5 0.000000 0.000000 0.000000 0.000000 0.034581 0.000000
# 6 0.000000 0.000000 0.000000 0.000000 0.000000 0.024791
#
#
# Mechanical properties :
#
#
# Convention : Reuss Voigt Hill
#
# Bulk Modulus (GPa) = 64.89201 73.16239 69.02720
# Shear Modulus (GPa) = 21.14521 27.13065 24.13793
#
# Velocity S-wave (km/s) = 3.34989 3.79451 3.57911
# Velocity P-wave (km/s) = 7.02856 7.61742 7.32891
#
# Compressibility (1/GPa) = 0.01541022
#
# Stress axis : x y z
#
# Youngs Moduli (GPa) = 36.49661 36.84733 39.15581
#
# Poissons Ratio (x) = 0.60904 0.49667
# Poissons Ratio (y) = 0.60324 0.12219
# Poissons Ratio (z) = 0.46294 0.11499
#
# Static dielectric constant tensor:
#      x y z
#    x 1.664390 0.000000 0.000000 
#    y 0.000000 1.626250 0.000000 
#    z 0.000000 0.000000 1.657150 
# 
# From -- ./inp_files/11129.got.cif
#   From: 2010.05.17/outbox.cif.g08.bks.cpg/sg47_6_cif.got.tgz:11129.got - 2010.06.03 20:15:42.
