data_PCOD9387777
_publ_section_title
;
Structure prediction by ZEFSAII (Michael W. Deem and Ramdas Pophale) SiO2 
 PCOD9387777
Probable space group: P M M M
;
_chemical_formula_sum "Si O2"
_cell_formula_units_Z 64
_cell_length_a 24.324870
_cell_length_b 8.788169
_cell_length_c 15.827564
_cell_angle_alpha 90.000000
_cell_angle_beta 90.000000
_cell_angle_gamma 90.000000
_cell_volume 3383.475267
_symmetry_space_group_name_H-M "P M M M"
_symmetry_group_IT_number 47
_symmetry_cell_setting 'orthorhombic'
loop_
_space_group_symop_operation_xyz
x,y,z
-x,-y,z
x,-y,-z
-x,y,-z
-x,-y,-z
x,y,-z
-x,y,z
x,-y,z
loop_
_atom_site_type_symbol
_atom_site_label
_atom_site_fract_x
_atom_site_fract_y
_atom_site_fract_z
Si Si1 0.436380 0.816200 0.752097
Si Si2 0.127913 0.682782 0.404398
Si Si3 0.360213 0.817159 0.405081
Si Si4 0.249136 0.318516 0.337290
Si Si5 0.064154 0.818001 0.753845
Si Si6 0.250757 0.181531 0.850082
Si Si7 0.366424 0.318117 0.904611
Si Si8 0.864132 0.681645 0.095118
O O1 0.500000 0.770331 0.747377
O O2 0.402679 0.771532 0.668118
O O3 0.406425 0.747677 0.833477
O O4 0.434167 0.000000 0.757723
O O5 0.114477 0.730589 0.500000
O O6 0.120944 0.500000 0.398762
O O7 0.191990 0.714604 0.384541
O O8 0.091518 0.759935 0.332602
O O9 0.379753 0.783320 0.500000
O O10 0.302111 0.737272 0.388166
O O11 0.352460 0.000000 0.398702
O O12 0.252136 0.500000 0.323217
O O13 0.249278 0.234287 0.247424
O O14 0.096690 0.746895 0.832570
O O15 0.000000 0.776084 0.756658
O O16 0.068968 0.000000 0.758045
O O17 0.306041 0.248729 0.890127
O O18 0.196169 0.247251 0.892964
O O19 0.251411 0.000000 0.855384
O O20 0.362991 0.500000 0.895854
O O21 0.384975 0.282153 0.000000
O O22 0.859864 0.500000 0.105221
O O23 0.884065 0.714702 0.000000
#
# Coordination Sequence:
#
# PCOD9387777 Si02
#       8
#     8   8   8   8   8   8   8   8
#     4  10  22  40  61  86 119 161 206 252 302 356
#     4  10  22  40  63  91 123 162 205 249 302 363
#     4  10  21  37  59  89 123 160 202 247 299 359
#     4  11  21  36  61  91 124 161 199 242 299 363
#     4  11  25  43  63  89 122 162 207 255 306 358
#     4  12  23  37  62  94 126 159 196 242 302 364
#     4  11  24  41  62  89 121 159 201 247 302 360
#     4  11  24  42  65  93 124 160 202 247 300 362
#
# _framework density 18.915462999999999
#
# number of rings (size 3 to 8) (size 9 to 14) (size 15 to 20)
#    0.000    1.250    2.500    3.375    0.000    7.250 
#    0.000    5.000    0.000    0.000    0.000    1.750 
#    0.000    0.000    0.000    0.000    0.000    0.000 
#
# Total GULP energy -357872.760915 kJ/mol
# GULP energy per Si atom -5591.761889 kJ/mol
# Density = 1.887241 g / cm^3
# Si number density = 18.915463 Si / 1000 Ang^3
#
#
#
# Elastic Constant Matrix: (Units=GPa)
#
#
# Indices 1 2 3 4 5 6 
#
# 1 143.3050 50.3302 78.7752 0.0000 0.0000 0.0000
# 2 50.3302 46.3429 53.7100 0.0000 0.0000 0.0000
# 3 78.7752 53.7100 168.6330 0.0000 0.0000 0.0000
# 4 0.0000 0.0000 0.0000 19.3367 0.0000 0.0000
# 5 0.0000 0.0000 0.0000 0.0000 -2.3482 0.0000
# 6 0.0000 0.0000 0.0000 0.0000 0.0000 78.2685
#
#
#
# Elastic Compliance Matrix: (Units=1/GPa)
#
#
# Indices 1 2 3 4 5 6 
#
# 1 0.011804 -0.010191 -0.002268 0.000000 0.000000 0.000000
# 2 -0.010191 0.043002 -0.008936 0.000000 0.000000 0.000000
# 3 -0.002268 -0.008936 0.009836 0.000000 0.000000 0.000000
# 4 0.000000 0.000000 0.000000 0.051715 0.000000 0.000000
# 5 0.000000 0.000000 0.000000 0.000000 -0.425867 0.000000
# 6 0.000000 0.000000 0.000000 0.000000 0.000000 0.012777
#
#
# Mechanical properties :
#
#
# Convention : Reuss Voigt Hill
#
# Bulk Modulus (GPa) = 45.76200 80.43461 63.09831
# Shear Modulus (GPa) = -20.27090 30.74910 5.23910
#
# Velocity S-wave (km/s) = -3.27717 4.03626 1.66606
# Velocity P-wave (km/s) = 3.15050 8.02106 6.09356
#
# Compressibility (1/GPa) = 0.02185219
#
# Stress axis : x y z
#
# Youngs Moduli (GPa) = 84.71568 23.25465 101.66983
#
# Poissons Ratio (x) = 0.23698 0.23063
# Poissons Ratio (y) = 0.86332 0.90850
# Poissons Ratio (z) = 0.19217 0.20780
#
# Static dielectric constant tensor:
#      x y z
#    x 1.625250 0.000000 0.000000 
#    y 0.000000 1.634650 0.000000 
#    z 0.000000 0.000000 1.652390 
# 
# From -- ./inp_files/7912.got.cif
#   From: 2010.05.17/outbox.cif.g08.bks.cpg/sg47_4_cif.got.tgz:7912.got - 2010.06.03 20:15:42.
