data_PCOD9387267
_publ_section_title
;
Structure prediction by ZEFSAII (Michael W. Deem and Ramdas Pophale) SiO2 
 PCOD9387267
Probable space group: P M M M
;
_chemical_formula_sum "Si O2"
_cell_formula_units_Z 48
_cell_length_a 8.810380
_cell_length_b 31.447727
_cell_length_c 10.008048
_cell_angle_alpha 90.000000
_cell_angle_beta 90.000000
_cell_angle_gamma 90.000000
_cell_volume 2772.894081
_symmetry_space_group_name_H-M "P M M M"
_symmetry_group_IT_number 47
_symmetry_cell_setting 'orthorhombic'
loop_
_space_group_symop_operation_xyz
x,y,z
-x,-y,z
x,-y,-z
-x,y,-z
-x,-y,-z
x,y,-z
-x,y,z
x,-y,z
loop_
_atom_site_type_symbol
_atom_site_label
_atom_site_fract_x
_atom_site_fract_y
_atom_site_fract_z
Si Si1 0.681609 0.284277 0.343943
Si Si2 0.318770 0.120406 0.844362
Si Si3 0.815125 0.547857 0.845863
Si Si4 0.818340 0.787946 0.844035
Si Si5 0.817277 0.048789 0.344270
Si Si6 0.817045 0.375855 0.344225
O O1 0.723421 0.277069 0.500000
O O2 0.500000 0.283884 0.334203
O O3 0.750749 0.248234 0.250131
O O4 0.744084 0.330838 0.306450
O O5 0.500000 0.123724 0.834232
O O6 0.245505 0.165651 0.806980
O O7 0.258719 0.082893 0.751392
O O8 0.279218 0.112163 0.000000
O O9 0.766770 0.500000 0.807341
O O10 0.764653 0.585277 0.748248
O O11 0.000000 0.547857 0.842889
O O12 0.770574 0.555313 0.000000
O O13 0.000000 0.788195 0.833917
O O14 0.777297 0.780373 0.000000
O O15 0.778218 0.056321 0.500000
O O16 0.000000 0.051853 0.333088
O O17 0.774608 0.000000 0.311557
O O18 0.781536 0.384156 0.500000
O O19 0.000000 0.372175 0.332741
#
# Coordination Sequence:
#
# PCOD9387267 Si02
#       6
#     8   8   8   8   8   8
#     4  10  21  36  53  74 102 135 169 206 251 303
#     4  10  21  36  54  78 108 139 171 209 254 305
#     4   8  14  25  42  66  95 124 156 198 246 293
#     4  10  21  37  57  79 102 131 169 211 254 301
#     4   9  19  36  56  78 105 138 177 218 257 299
#     4   9  17  29  46  69  96 125 160 203 247 292
#
# _framework density 17.310434999999998
#
# number of rings (size 3 to 8) (size 9 to 14) (size 15 to 20)
#    0.000    2.667    0.000    2.500    0.000    5.667 
#    0.000    5.833    0.000    0.500    0.000    3.500 
#    0.000    0.000    0.000    0.000    0.000    0.000 
#
# Total GULP energy -267742.457589 kJ/mol
# GULP energy per Si atom -5577.967866 kJ/mol
# Density = 1.727104 g / cm^3
# Si number density = 17.310435 Si / 1000 Ang^3
#
#
#
# Elastic Constant Matrix: (Units=GPa)
#
#
# Indices 1 2 3 4 5 6 
#
# 1 28.5963 54.2920 39.8707 0.0000 0.0000 0.0000
# 2 54.2920 198.9465 123.2433 0.0000 0.0000 0.0000
# 3 39.8707 123.2433 94.4119 0.0000 0.0000 0.0000
# 4 0.0000 0.0000 0.0000 43.8483 0.0000 0.0000
# 5 0.0000 0.0000 0.0000 0.0000 23.3276 0.0000
# 6 0.0000 0.0000 0.0000 0.0000 0.0000 -32.5057
#
#
#
# Elastic Compliance Matrix: (Units=1/GPa)
#
#
# Indices 1 2 3 4 5 6 
#
# 1 0.086012 -0.005074 -0.029700 0.000000 0.000000 0.000000
# 2 -0.005074 0.026569 -0.032539 0.000000 0.000000 0.000000
# 3 -0.029700 -0.032539 0.065610 0.000000 0.000000 0.000000
# 4 0.000000 0.000000 0.000000 0.022806 0.000000 0.000000
# 5 0.000000 0.000000 0.000000 0.000000 0.042868 0.000000
# 6 0.000000 0.000000 0.000000 0.000000 0.000000 -0.030764
#
#
# Mechanical properties :
#
#
# Convention : Reuss Voigt Hill
#
# Bulk Modulus (GPa) = 22.95436 84.08517 53.51976
# Shear Modulus (GPa) = 13.80268 13.90396 13.85332
#
# Velocity S-wave (km/s) = 2.82682 2.83718 2.83200
# Velocity P-wave (km/s) = 4.89324 7.70799 6.45588
#
# Compressibility (1/GPa) = 0.04356471
#
# Stress axis : x y z
#
# Youngs Moduli (GPa) = 11.62628 37.63853 15.24150
#
# Poissons Ratio (x) = 0.19098 0.45267
# Poissons Ratio (y) = 0.05899 0.49595
# Poissons Ratio (z) = 0.34530 1.22473
#
# Static dielectric constant tensor:
#      x y z
#    x 1.577810 0.000000 0.000000 
#    y 0.000000 1.559220 0.000000 
#    z 0.000000 0.000000 1.577420 
# 
# From -- ./inp_files/2424.got.cif
#   From: 2010.05.17/outbox.cif.g08.bks.cpg/sg47_2_cif.got.tgz:2424.got - 2010.06.03 20:15:42.
