data_PCOD9387069
_publ_section_title
;
Structure prediction by ZEFSAII (Michael W. Deem and Ramdas Pophale) SiO2 
 PCOD9387069
Probable space group: P M M M
;
_chemical_formula_sum "Si O2"
_cell_formula_units_Z 44
_cell_length_a 29.570988
_cell_length_b 7.694827
_cell_length_c 9.758597
_cell_angle_alpha 90.000000
_cell_angle_beta 90.000000
_cell_angle_gamma 90.000000
_cell_volume 2220.506652
_symmetry_space_group_name_H-M "P M M M"
_symmetry_group_IT_number 47
_symmetry_cell_setting 'orthorhombic'
loop_
_space_group_symop_operation_xyz
x,y,z
-x,-y,z
x,-y,-z
-x,y,-z
-x,-y,-z
x,y,-z
-x,y,z
x,-y,z
loop_
_atom_site_type_symbol
_atom_site_label
_atom_site_fract_x
_atom_site_fract_y
_atom_site_fract_z
Si Si1 0.316438 0.213046 0.157572
Si Si2 0.949958 0.209066 0.156357
Si Si3 0.598857 0.787046 0.341403
Si Si4 0.500000 0.799411 0.333476
Si Si5 0.865617 0.705891 0.654343
Si Si6 0.234354 0.794115 0.655896
O O1 0.360959 0.266353 0.241705
O O2 0.272260 0.273646 0.241066
O O3 0.316126 0.000000 0.156148
O O4 0.316633 0.269891 0.000000
O O5 0.908483 0.256149 0.252226
O O6 0.000000 0.269367 0.202703
O O7 0.951444 0.000000 0.152205
O O8 0.943151 0.270591 0.000000
O O9 0.607058 0.735898 0.500000
O O10 0.548921 0.724322 0.296198
O O11 0.597385 0.000000 0.341648
O O12 0.500000 0.802339 0.500000
O O13 0.500000 0.000000 0.285789
O O14 0.872135 0.777223 0.500000
O O15 0.861435 0.500000 0.645369
O O16 0.817036 0.771145 0.705993
O O17 0.237345 0.722431 0.500000
O O18 0.242505 0.000000 0.645257
#
# Coordination Sequence:
#
# PCOD9387069 Si02
#       6
#     8   8   8   4   8   8
#     4   9  16  24  35  54  78 103 137 183 228 266
#     4   9  19  36  56  77 101 130 164 198 230 269
#     4   8  12  19  31  46  67  98 136 175 215 262
#     4   7  10  16  27  43  63  93 134 173 208 255
#     4  10  21  35  51  74 102 128 156 194 239 284
#     4   9  17  30  47  64  84 115 153 188 225 272
#
# _framework density 19.815297000000001
#
# number of rings (size 3 to 8) (size 9 to 14) (size 15 to 20)
#    0.000    3.182    0.000    2.727    0.000    5.091 
#    0.000    5.000    0.000    2.727    0.000    0.000 
#    0.000    0.000    0.000    0.818    0.000   19.636 
#
# Total GULP energy -245232.836342 kJ/mol
# GULP energy per Si atom -5573.473553 kJ/mol
# Density = 1.977020 g / cm^3
# Si number density = 19.815297 Si / 1000 Ang^3
#
#
#
# Elastic Constant Matrix: (Units=GPa)
#
#
# Indices 1 2 3 4 5 6 
#
# 1 226.9710 1.5612 123.9612 0.0000 0.0000 0.0000
# 2 1.5612 31.3796 5.5017 0.0000 0.0000 0.0000
# 3 123.9612 5.5017 109.2329 0.0000 0.0000 0.0000
# 4 0.0000 0.0000 0.0000 13.2429 0.0000 0.0000
# 5 0.0000 0.0000 0.0000 0.0000 10.0674 0.0000
# 6 0.0000 0.0000 0.0000 0.0000 0.0000 -37.7830
#
#
#
# Elastic Compliance Matrix: (Units=1/GPa)
#
#
# Indices 1 2 3 4 5 6 
#
# 1 0.011684 0.001759 -0.013347 0.000000 0.000000 0.000000
# 2 0.001759 0.032417 -0.003629 0.000000 0.000000 0.000000
# 3 -0.013347 -0.003629 0.024485 0.000000 0.000000 0.000000
# 4 0.000000 0.000000 0.000000 0.075512 0.000000 0.000000
# 5 0.000000 0.000000 0.000000 0.000000 0.099330 0.000000
# 6 0.000000 0.000000 0.000000 0.000000 0.000000 -0.026467
#
#
# Mechanical properties :
#
#
# Convention : Reuss Voigt Hill
#
# Bulk Modulus (GPa) = 26.21226 69.95906 48.08566
# Shear Modulus (GPa) = 19.22252 12.87608 16.04930
#
# Velocity S-wave (km/s) = 3.11800 2.55189 2.84904
# Velocity P-wave (km/s) = 5.12050 6.63816 5.92810
#
# Compressibility (1/GPa) = 0.03815009
#
# Stress axis : x y z
#
# Youngs Moduli (GPa) = 85.59077 30.84848 40.84195
#
# Poissons Ratio (x) = -0.05426 0.54513
# Poissons Ratio (y) = -0.15054 0.14820
# Poissons Ratio (z) = 1.14242 0.11194
#
# Static dielectric constant tensor:
#      x y z
#    x 1.707860 0.000000 0.000000 
#    y 0.000000 1.727780 0.000000 
#    z 0.000000 0.000000 1.678590 
# 
# From -- ./inp_files/2223.got.cif
#   From: 2010.05.17/outbox.cif.g08.bks.cpg/sg47_2_cif.got.tgz:2223.got - 2010.06.03 20:15:42.
