data_PCOD9387427
_publ_section_title
;
Structure prediction by ZEFSAII (Michael W. Deem and Ramdas Pophale) SiO2 
 PCOD9387427
Probable space group: P M M M
;
_chemical_formula_sum "Si O2"
_cell_formula_units_Z 40
_cell_length_a 9.353571
_cell_length_b 8.204689
_cell_length_c 28.128485
_cell_angle_alpha 90.000000
_cell_angle_beta 90.000000
_cell_angle_gamma 90.000000
_cell_volume 2158.668293
_symmetry_space_group_name_H-M "P M M M"
_symmetry_group_IT_number 47
_symmetry_cell_setting 'orthorhombic'
loop_
_space_group_symop_operation_xyz
x,y,z
-x,-y,z
x,-y,-z
-x,y,-z
-x,-y,-z
x,y,-z
-x,y,z
x,-y,z
loop_
_atom_site_type_symbol
_atom_site_label
_atom_site_fract_x
_atom_site_fract_y
_atom_site_fract_z
Si Si1 0.338394 0.693620 0.591085
Si Si2 0.161228 0.806127 0.500000
Si Si3 0.672373 0.689872 0.881962
Si Si4 0.835530 0.695431 0.785160
Si Si5 0.835615 0.193511 0.681558
Si Si6 0.674009 0.000000 0.945387
O O1 0.500000 0.760503 0.589629
O O2 0.346049 0.500000 0.586493
O O3 0.245683 0.756188 0.547119
O O4 0.262518 0.734155 0.640686
O O5 0.000000 0.737477 0.500000
O O6 0.151324 0.000000 0.500000
O O7 0.500000 0.692443 0.878952
O O8 0.712904 0.500000 0.893739
O O9 0.740067 0.732489 0.830881
O O10 0.716751 0.832577 0.918531
O O11 0.836027 0.500000 0.780083
O O12 0.785610 0.767296 0.734990
O O13 0.000000 0.749720 0.792963
O O14 0.000000 0.255137 0.677491
O O15 0.838560 0.000000 0.675226
O O16 0.500000 0.000000 0.945508
O O17 0.722388 0.000000 0.000000
#
# Coordination Sequence:
#
# PCOD9387427 Si02
#       6
#     8   4   8   8   8   4
#     4  11  24  40  58  82 111 143 181 223 268 320
#     4  11  24  41  62  86 110 139 178 223 270 324
#     4   9  18  32  51  76 105 138 179 225 271 324
#     4   9  18  33  53  77 106 141 177 216 266 321
#     4  10  21  36  55  81 110 141 180 222 266 322
#     4   9  18  32  51  77 107 139 179 226 275 324
#
# _framework density 18.529942999999999
#
# number of rings (size 3 to 8) (size 9 to 14) (size 15 to 20)
#    0.000    2.200    0.000    2.400    1.400    8.400 
#    0.000    4.000    0.000    1.200    0.000    2.800 
#    0.000    0.000    0.000    0.000    0.000    0.000 
#
# Total GULP energy -223180.920111 kJ/mol
# GULP energy per Si atom -5579.523003 kJ/mol
# Density = 1.848777 g / cm^3
# Si number density = 18.529943 Si / 1000 Ang^3
#
#
#
# Elastic Constant Matrix: (Units=GPa)
#
#
# Indices 1 2 3 4 5 6 
#
# 1 73.8729 37.5098 69.6558 0.0000 0.0000 0.0000
# 2 37.5098 74.1761 66.6454 0.0000 0.0000 0.0000
# 3 69.6558 66.6454 150.9657 0.0000 0.0000 0.0000
# 4 0.0000 0.0000 0.0000 39.5363 0.0000 0.0000
# 5 0.0000 0.0000 0.0000 0.0000 33.0022 0.0000
# 6 0.0000 0.0000 0.0000 0.0000 0.0000 18.8036
#
#
#
# Elastic Compliance Matrix: (Units=1/GPa)
#
#
# Indices 1 2 3 4 5 6 
#
# 1 0.024562 -0.003710 -0.009695 0.000000 0.000000 0.000000
# 2 -0.003710 0.022904 -0.008400 0.000000 0.000000 0.000000
# 3 -0.009695 -0.008400 0.014806 0.000000 0.000000 0.000000
# 4 0.000000 0.000000 0.000000 0.025293 0.000000 0.000000
# 5 0.000000 0.000000 0.000000 0.000000 0.030301 0.000000
# 6 0.000000 0.000000 0.000000 0.000000 0.000000 0.053181
#
#
# Mechanical properties :
#
#
# Convention : Reuss Voigt Hill
#
# Bulk Modulus (GPa) = 53.58302 71.84853 62.71578
# Shear Modulus (GPa) = 22.63690 26.61532 24.62611
#
# Velocity S-wave (km/s) = 3.49899 3.79402 3.64949
# Velocity P-wave (km/s) = 6.73080 7.61914 7.18870
#
# Compressibility (1/GPa) = 0.01866263
#
# Stress axis : x y z
#
# Youngs Moduli (GPa) = 40.71270 43.65993 67.54198
#
# Poissons Ratio (x) = 0.16197 0.65485
# Poissons Ratio (y) = 0.15103 0.56733
# Poissons Ratio (z) = 0.39473 0.36673
#
# Static dielectric constant tensor:
#      x y z
#    x 1.651340 0.000000 0.000000 
#    y 0.000000 1.648230 0.000000 
#    z 0.000000 0.000000 1.612970 
# 
# From -- ./inp_files/33097.got.cif
#   From: 2010.05.17/outbox.cif.g08.bks.cpg/sg47_17_cif.got.tgz:33097.got - 2010.06.03 20:15:42.
