data_PCOD9387230
_publ_section_title
;
Structure prediction by ZEFSAII (Michael W. Deem and Ramdas Pophale) SiO2 
 PCOD9387230
Probable space group: P M M M
;
_chemical_formula_sum "Si O2"
_cell_formula_units_Z 64
_cell_length_a 8.931250
_cell_length_b 27.010743
_cell_length_c 14.352980
_cell_angle_alpha 90.000000
_cell_angle_beta 90.000000
_cell_angle_gamma 90.000000
_cell_volume 3462.508567
_symmetry_space_group_name_H-M "P M M M"
_symmetry_group_IT_number 47
_symmetry_cell_setting 'orthorhombic'
loop_
_space_group_symop_operation_xyz
x,y,z
-x,-y,z
x,-y,-z
-x,y,-z
-x,-y,-z
x,y,-z
-x,y,z
x,-y,z
loop_
_atom_site_type_symbol
_atom_site_label
_atom_site_fract_x
_atom_site_fract_y
_atom_site_fract_z
Si Si1 0.323602 0.853435 0.112037
Si Si2 0.321674 0.302505 0.609352
Si Si3 0.170770 0.198973 0.386936
Si Si4 0.321344 0.742546 0.888188
Si Si5 0.820281 0.651231 0.221569
Si Si6 0.821471 0.945740 0.215219
Si Si7 0.678702 0.095345 0.391580
Si Si8 0.817830 0.444544 0.892550
O O1 0.500000 0.856830 0.135077
O O2 0.271640 0.798129 0.140565
O O3 0.240932 0.899520 0.157552
O O4 0.309924 0.855761 0.000000
O O5 0.288429 0.310053 0.500000
O O6 0.500000 0.301008 0.620709
O O7 0.252610 0.249588 0.639037
O O8 0.248316 0.342736 0.676084
O O9 0.164318 0.199562 0.500000
O O10 0.264133 0.150145 0.363684
O O11 0.000000 0.196580 0.352061
O O12 0.500000 0.738902 0.869707
O O13 0.236972 0.698210 0.837720
O O14 0.301385 0.738726 0.000000
O O15 0.769502 0.600634 0.171841
O O16 0.000000 0.652114 0.225669
O O17 0.755813 0.940919 0.319098
O O18 0.000000 0.942520 0.218835
O O19 0.779704 0.000000 0.176415
O O20 0.719133 0.086729 0.500000
O O21 0.500000 0.092940 0.384008
O O22 0.769938 0.500000 0.864398
O O23 0.000000 0.444434 0.891929
O O24 0.772003 0.436407 0.000000
#
# Coordination Sequence:
#
# PCOD9387230 Si02
#       8
#     8   8   8   8   8   8   8   8
#     4   9  20  40  63  83 105 139 181 223 270 327
#     4  10  21  36  52  72 105 150 193 229 271 325
#     4   9  17  31  52  77 104 134 172 219 268 318
#     4   9  19  36  56  80 113 148 178 214 267 331
#     4  11  21  31  52  85 115 146 185 232 283 329
#     4  11  25  41  57  80 109 141 179 227 280 329
#     4  10  21  37  58  82 108 141 179 220 269 327
#     4   8  15  30  52  79 113 150 187 229 276 328
#
# _framework density 18.483708
#
# number of rings (size 3 to 8) (size 9 to 14) (size 15 to 20)
#    0.000    2.375    0.000    3.375    1.750    6.000 
#    0.000    3.750    0.000    1.875    0.000    7.000 
#    0.000    0.000    0.000    0.000    0.000    0.000 
#
# Total GULP energy -357312.971858 kJ/mol
# GULP energy per Si atom -5583.015185 kJ/mol
# Density = 1.844164 g / cm^3
# Si number density = 18.483708 Si / 1000 Ang^3
#
#
#
# Elastic Constant Matrix: (Units=GPa)
#
#
# Indices 1 2 3 4 5 6 
#
# 1 49.3903 44.2280 28.9412 0.0000 0.0000 0.0000
# 2 44.2280 144.3261 60.9590 0.0000 0.0000 0.0000
# 3 28.9412 60.9590 63.1331 0.0000 0.0000 0.0000
# 4 0.0000 0.0000 0.0000 27.6515 0.0000 0.0000
# 5 0.0000 0.0000 0.0000 0.0000 26.3255 0.0000
# 6 0.0000 0.0000 0.0000 0.0000 0.0000 54.1206
#
#
#
# Elastic Compliance Matrix: (Units=1/GPa)
#
#
# Indices 1 2 3 4 5 6 
#
# 1 0.030284 -0.005770 -0.008311 0.000000 0.000000 0.000000
# 2 -0.005770 0.012800 -0.009714 0.000000 0.000000 0.000000
# 3 -0.008311 -0.009714 0.029029 0.000000 0.000000 0.000000
# 4 0.000000 0.000000 0.000000 0.036164 0.000000 0.000000
# 5 0.000000 0.000000 0.000000 0.000000 0.037986 0.000000
# 6 0.000000 0.000000 0.000000 0.000000 0.000000 0.018477
#
#
# Mechanical properties :
#
#
# Convention : Reuss Voigt Hill
#
# Bulk Modulus (GPa) = 40.77933 58.34507 49.56220
# Shear Modulus (GPa) = 22.67520 29.80095 26.23808
#
# Velocity S-wave (km/s) = 3.50632 4.01968 3.77175
# Velocity P-wave (km/s) = 6.20505 7.29232 6.77055
#
# Compressibility (1/GPa) = 0.02452223
#
# Stress axis : x y z
#
# Youngs Moduli (GPa) = 33.02081 78.12615 34.44810
#
# Poissons Ratio (x) = 0.45078 0.28631
# Poissons Ratio (y) = 0.19052 0.33463
# Poissons Ratio (z) = 0.27445 0.75892
#
# Static dielectric constant tensor:
#      x y z
#    x 1.620110 0.000000 0.000000 
#    y 0.000000 1.631510 0.000000 
#    z 0.000000 0.000000 1.663560 
# 
# From -- ./inp_files/12729.got.cif
#   From: 2010.05.17/outbox.cif.g08.bks.cpg/sg47_7_cif.got.tgz:12729.got - 2010.06.03 20:15:42.
