data_PCOD9387279
_publ_section_title
;
Structure prediction by ZEFSAII (Michael W. Deem and Ramdas Pophale) SiO2 
 PCOD9387279
Probable space group: P M M M
;
_chemical_formula_sum "Si O2"
_cell_formula_units_Z 44
_cell_length_a 8.044631
_cell_length_b 9.458035
_cell_length_c 29.274316
_cell_angle_alpha 90.000000
_cell_angle_beta 90.000000
_cell_angle_gamma 90.000000
_cell_volume 2227.377363
_symmetry_space_group_name_H-M "P M M M"
_symmetry_group_IT_number 47
_symmetry_cell_setting 'orthorhombic'
loop_
_space_group_symop_operation_xyz
x,y,z
-x,-y,z
x,-y,-z
-x,y,-z
-x,-y,-z
x,y,-z
-x,y,z
x,-y,z
loop_
_atom_site_type_symbol
_atom_site_label
_atom_site_fract_x
_atom_site_fract_y
_atom_site_fract_z
Si Si1 0.700508 0.338901 0.187647
Si Si2 0.798560 0.837015 0.900505
Si Si3 0.197585 0.339662 0.361407
Si Si4 0.299088 0.162277 0.448157
Si Si5 0.807767 0.827948 0.000000
Si Si6 0.699347 0.160267 0.725780
O O1 0.500000 0.343513 0.190756
O O2 0.762312 0.500000 0.189111
O O3 0.745430 0.261750 0.140696
O O4 0.763526 0.248064 0.230714
O O5 0.000000 0.838606 0.902785
O O6 0.744822 0.000000 0.892620
O O7 0.735277 0.788566 0.950660
O O8 0.263912 0.500000 0.358917
O O9 0.237115 0.268081 0.409807
O O10 0.265872 0.243370 0.320708
O O11 0.000000 0.345045 0.356109
O O12 0.246161 0.197207 0.500000
O O13 0.500000 0.163853 0.447442
O O14 0.246914 0.000000 0.438356
O O15 0.000000 0.779512 0.000000
O O16 0.810353 0.000000 0.000000
O O17 0.500000 0.151496 0.730596
O O18 0.765059 0.000000 0.724558
#
# Coordination Sequence:
#
# PCOD9387279 Si02
#       6
#     8   8   8   8   4   8
#     4  10  21  36  53  75 105 139 172 209 258 313
#     4   9  17  31  53  78 102 132 172 216 260 306
#     4  11  24  38  53  79 114 146 175 212 260 312
#     4   9  19  37  60  84 109 140 181 224 262 305
#     4   7  12  26  48  73 100 130 168 213 256 301
#     4  10  21  38  60  81 100 130 175 221 262 309
#
# _framework density 19.754175
#
# number of rings (size 3 to 8) (size 9 to 14) (size 15 to 20)
#    0.000    2.455    0.000    3.818    0.000    8.000 
#    0.000    3.636    0.000    4.364    0.000    0.000 
#    0.000    0.000    0.000    0.000    0.000    0.000 
#
# Total GULP energy -245554.890600 kJ/mol
# GULP energy per Si atom -5580.792968 kJ/mol
# Density = 1.970921 g / cm^3
# Si number density = 19.754175 Si / 1000 Ang^3
#
#
#
# Elastic Constant Matrix: (Units=GPa)
#
#
# Indices 1 2 3 4 5 6 
#
# 1 11.3423 11.7806 2.1190 0.0000 0.0000 0.0000
# 2 11.7806 171.1728 116.2198 0.0000 0.0000 0.0000
# 3 2.1190 116.2198 170.7552 0.0000 0.0000 0.0000
# 4 0.0000 0.0000 0.0000 -45.7604 0.0000 0.0000
# 5 0.0000 0.0000 0.0000 0.0000 30.7628 0.0000
# 6 0.0000 0.0000 0.0000 0.0000 0.0000 20.1889
#
#
#
# Elastic Compliance Matrix: (Units=1/GPa)
#
#
# Indices 1 2 3 4 5 6 
#
# 1 0.098472 -0.011057 0.006304 0.000000 0.000000 0.000000
# 2 -0.011057 0.012103 -0.008100 0.000000 0.000000 0.000000
# 3 0.006304 -0.008100 0.011291 0.000000 0.000000 0.000000
# 4 0.000000 0.000000 0.000000 -0.021853 0.000000 0.000000
# 5 0.000000 0.000000 0.000000 0.000000 0.032507 0.000000
# 6 0.000000 0.000000 0.000000 0.000000 0.000000 0.049532
#
#
# Mechanical properties :
#
#
# Convention : Reuss Voigt Hill
#
# Bulk Modulus (GPa) = 10.39948 68.16768 39.28358
# Shear Modulus (GPa) = 20.84970 15.91500 18.38235
#
# Velocity S-wave (km/s) = 3.25231 2.84148 3.05381
# Velocity P-wave (km/s) = 4.40218 6.73411 5.68891
#
# Compressibility (1/GPa) = 0.09615862
#
# Stress axis : x y z
#
# Youngs Moduli (GPa) = 10.15520 82.62609 88.56410
#
# Poissons Ratio (x) = 0.91360 -0.55828
# Poissons Ratio (y) = 0.11229 0.71738
# Poissons Ratio (z) = -0.06401 0.66928
#
# Static dielectric constant tensor:
#      x y z
#    x 1.715370 0.000000 0.000000 
#    y 0.000000 1.682350 0.000000 
#    z 0.000000 0.000000 1.681760 
# 
# From -- ./inp_files/2026.got.cif
#   From: 2010.05.17/outbox.cif.g08.bks.cpg/sg47_2_cif.got.tgz:2026.got - 2010.06.03 20:15:42.
