data_PCOD9387587
_publ_section_title
;
Structure prediction by ZEFSAII (Michael W. Deem and Ramdas Pophale) SiO2 
 PCOD9387587
Probable space group: P M M M
;
_chemical_formula_sum "Si O2"
_cell_formula_units_Z 56
_cell_length_a 21.831333
_cell_length_b 9.375150
_cell_length_c 13.846960
_cell_angle_alpha 90.000000
_cell_angle_beta 90.000000
_cell_angle_gamma 90.000000
_cell_volume 2834.085296
_symmetry_space_group_name_H-M "P M M M"
_symmetry_group_IT_number 47
_symmetry_cell_setting 'orthorhombic'
loop_
_space_group_symop_operation_xyz
x,y,z
-x,-y,z
x,-y,-z
-x,y,-z
-x,-y,-z
x,y,-z
-x,y,z
x,-y,z
loop_
_atom_site_type_symbol
_atom_site_label
_atom_site_fract_x
_atom_site_fract_y
_atom_site_fract_z
Si Si1 0.159257 0.835994 0.252714
Si Si2 0.749251 0.666901 0.616341
Si Si3 0.384992 0.342641 0.882479
Si Si4 0.926391 0.331910 0.110364
Si Si5 0.376278 0.835514 0.382850
Si Si6 0.726201 0.156401 0.112561
Si Si7 0.500000 0.157387 0.882398
Si Si8 0.500000 0.664699 0.617478
O O1 0.191689 0.744392 0.336987
O O2 0.104601 0.758110 0.195576
O O3 0.212967 0.842556 0.173264
O O4 0.144845 0.000000 0.281343
O O5 0.754006 0.670657 0.500000
O O6 0.745400 0.500000 0.645797
O O7 0.686796 0.753069 0.641944
O O8 0.393853 0.500000 0.844338
O O9 0.320428 0.276817 0.855927
O O10 0.439881 0.241507 0.854565
O O11 0.385804 0.347973 0.000000
O O12 0.910426 0.500000 0.120487
O O13 0.000000 0.320292 0.115360
O O14 0.908286 0.288247 0.000000
O O15 0.377129 0.841737 0.500000
O O16 0.437786 0.749120 0.355802
O O17 0.375918 0.000000 0.347733
O O18 0.695906 0.000000 0.121624
O O19 0.740387 0.176761 0.000000
O O20 0.500000 0.000000 0.842543
O O21 0.500000 0.150288 0.000000
O O22 0.500000 0.500000 0.651405
O O23 0.500000 0.659580 0.500000
#
# Coordination Sequence:
#
# PCOD9387587 Si02
#       8
#     8   8   8   8   8   8   4   4
#     4  11  22  35  56  85 115 148 185 227 275 326
#     4  10  21  37  56  78 107 146 192 240 289 342
#     4   9  16  25  39  61  88 120 163 213 258 303
#     4   9  19  37  61  90 125 162 195 226 264 316
#     4   9  16  27  45  70 100 134 176 229 287 344
#     4   9  18  32  48  70 103 138 170 206 254 314
#     4   9  15  23  37  56  81 118 162 207 258 313
#     4   9  15  23  39  66  99 134 174 221 278 347
#
# _framework density 19.759463
#
# number of rings (size 3 to 8) (size 9 to 14) (size 15 to 20)
#    0.000    2.571    0.000    3.000    0.000    8.286 
#    0.000    2.143    0.000    1.286    0.000    4.000 
#    0.000    0.000    0.000    0.000    0.000    1.000 
#
# Total GULP energy -312708.102800 kJ/mol
# GULP energy per Si atom -5584.073264 kJ/mol
# Density = 1.971449 g / cm^3
# Si number density = 19.759463 Si / 1000 Ang^3
#
#
#
# Elastic Constant Matrix: (Units=GPa)
#
#
# Indices 1 2 3 4 5 6 
#
# 1 68.2193 50.4029 17.4777 0.0000 0.0000 0.0000
# 2 50.4029 155.4471 33.1654 0.0000 0.0000 0.0000
# 3 17.4777 33.1654 79.3404 0.0000 0.0000 0.0000
# 4 0.0000 0.0000 0.0000 16.3478 0.0000 0.0000
# 5 0.0000 0.0000 0.0000 0.0000 114.1795 0.0000
# 6 0.0000 0.0000 0.0000 0.0000 0.0000 34.0918
#
#
#
# Elastic Compliance Matrix: (Units=1/GPa)
#
#
# Indices 1 2 3 4 5 6 
#
# 1 0.019512 -0.005939 -0.001816 0.000000 0.000000 0.000000
# 2 -0.005939 0.008871 -0.002400 0.000000 0.000000 0.000000
# 3 -0.001816 -0.002400 0.014007 0.000000 0.000000 0.000000
# 4 0.000000 0.000000 0.000000 0.061170 0.000000 0.000000
# 5 0.000000 0.000000 0.000000 0.000000 0.008758 0.000000
# 6 0.000000 0.000000 0.000000 0.000000 0.000000 0.029333
#
#
# Mechanical properties :
#
#
# Convention : Reuss Voigt Hill
#
# Bulk Modulus (GPa) = 45.28870 56.12209 50.70540
# Shear Modulus (GPa) = 29.52983 46.38787 37.95885
#
# Velocity S-wave (km/s) = 3.87003 4.85049 4.38773
# Velocity P-wave (km/s) = 6.55280 7.73524 7.16844
#
# Compressibility (1/GPa) = 0.02208056
#
# Stress axis : x y z
#
# Youngs Moduli (GPa) = 51.25076 112.72883 71.39284
#
# Poissons Ratio (x) = 0.66953 0.12962
# Poissons Ratio (y) = 0.30439 0.17133
# Poissons Ratio (z) = 0.09305 0.27053
#
# Static dielectric constant tensor:
#      x y z
#    x 1.678290 0.000000 0.000000 
#    y 0.000000 1.717180 0.000000 
#    z 0.000000 0.000000 1.746150 
# 
# From -- ./inp_files/25230.got.cif
#   From: 2010.05.17/outbox.cif.g08.bks.cpg/sg47_13_cif.got.tgz:25230.got - 2010.06.03 20:15:42.
