data_PCOD9387424
_publ_section_title
;
Structure prediction by ZEFSAII (Michael W. Deem and Ramdas Pophale) SiO2 
 PCOD9387424
Probable space group: P M M M
;
_chemical_formula_sum "Si O2"
_cell_formula_units_Z 56
_cell_length_a 21.801213
_cell_length_b 15.519548
_cell_length_c 8.679088
_cell_angle_alpha 90.000000
_cell_angle_beta 90.000000
_cell_angle_gamma 90.000000
_cell_volume 2936.525783
_symmetry_space_group_name_H-M "P M M M"
_symmetry_group_IT_number 47
_symmetry_cell_setting 'orthorhombic'
loop_
_space_group_symop_operation_xyz
x,y,z
-x,-y,z
x,-y,-z
-x,y,-z
-x,-y,-z
x,y,-z
-x,y,z
x,-y,z
loop_
_atom_site_type_symbol
_atom_site_label
_atom_site_fract_x
_atom_site_fract_y
_atom_site_fract_z
Si Si1 0.122380 0.827626 0.676984
Si Si2 0.670328 0.762909 0.181081
Si Si3 0.000000 0.397178 0.326060
Si Si4 0.737344 0.403159 0.315771
Si Si5 0.428427 0.097975 0.812718
Si Si6 0.000000 0.102703 0.823505
Si Si7 0.867911 0.648411 0.179518
Si Si8 0.750919 0.095177 0.679277
O O1 0.119288 0.796087 0.500000
O O2 0.139617 0.749333 0.787342
O O3 0.175950 0.897384 0.683648
O O4 0.058921 0.865078 0.733161
O O5 0.693194 0.673126 0.254536
O O6 0.612213 0.820303 0.240449
O O7 0.724010 0.831323 0.214174
O O8 0.661833 0.747730 0.000000
O O9 0.064323 0.372590 0.245943
O O10 0.000000 0.500000 0.333351
O O11 0.000000 0.361240 0.500000
O O12 0.738958 0.396107 0.500000
O O13 0.716367 0.500000 0.273069
O O14 0.807672 0.392991 0.257093
O O15 0.500000 0.109553 0.773670
O O16 0.410771 0.000000 0.761102
O O17 0.423564 0.096979 0.000000
O O18 0.000000 0.000000 0.828762
O O19 0.000000 0.135786 0.000000
O O20 0.867360 0.627227 0.000000
O O21 0.732718 0.110387 0.500000
O O22 0.731302 0.000000 0.726087
#
# Coordination Sequence:
#
# PCOD9387424 Si02
#       8
#     8   8   4   8   8   4   8   8
#     4  11  22  38  58  77 104 145 190 230 279 348
#     4  11  21  34  58  90 120 153 195 244 294 339
#     4  11  24  41  60  81 107 143 184 228 291 368
#     4  11  24  42  62  83 113 156 201 244 298 364
#     4   8  15  30  54  88 130 169 200 232 278 339
#     4  11  24  39  54  75 105 141 186 242 295 340
#     4  12  24  39  60  86 113 141 183 243 304 354
#     4  10  21  36  55  80 113 153 192 232 281 340
#
# _framework density 19.070153999999999
#
# number of rings (size 3 to 8) (size 9 to 14) (size 15 to 20)
#    0.000    1.429    1.429    5.143    0.000    6.000 
#    0.000    0.000    0.000    2.143    0.000    8.000 
#    0.000    0.000    0.000    0.000    0.000    0.000 
#
# Total GULP energy -312479.442020 kJ/mol
# GULP energy per Si atom -5579.990036 kJ/mol
# Density = 1.902675 g / cm^3
# Si number density = 19.070154 Si / 1000 Ang^3
#
#
#
# Elastic Constant Matrix: (Units=GPa)
#
#
# Indices 1 2 3 4 5 6 
#
# 1 122.4248 58.1367 27.5168 0.0000 0.0000 0.0000
# 2 58.1367 133.6060 32.6534 0.0000 0.0000 0.0000
# 3 27.5168 32.6534 50.1551 0.0000 0.0000 0.0000
# 4 0.0000 0.0000 0.0000 30.5131 0.0000 0.0000
# 5 0.0000 0.0000 0.0000 0.0000 47.8162 0.0000
# 6 0.0000 0.0000 0.0000 0.0000 0.0000 4.8236
#
#
#
# Elastic Compliance Matrix: (Units=1/GPa)
#
#
# Indices 1 2 3 4 5 6 
#
# 1 0.010761 -0.003853 -0.003396 0.000000 0.000000 0.000000
# 2 -0.003853 0.010280 -0.004579 0.000000 0.000000 0.000000
# 3 -0.003396 -0.004579 0.024782 0.000000 0.000000 0.000000
# 4 0.000000 0.000000 0.000000 0.032773 0.000000 0.000000
# 5 0.000000 0.000000 0.000000 0.000000 0.020913 0.000000
# 6 0.000000 0.000000 0.000000 0.000000 0.000000 0.207314
#
#
# Mechanical properties :
#
#
# Convention : Reuss Voigt Hill
#
# Bulk Modulus (GPa) = 45.10866 60.31106 52.70986
# Shear Modulus (GPa) = 14.79866 29.15585 21.97726
#
# Velocity S-wave (km/s) = 2.78872 3.91432 3.39845
# Velocity P-wave (km/s) = 5.83735 7.21968 6.56500
#
# Compressibility (1/GPa) = 0.02216869
#
# Stress axis : x y z
#
# Youngs Moduli (GPa) = 92.92808 97.27369 40.35121
#
# Poissons Ratio (x) = 0.37476 0.13702
# Poissons Ratio (y) = 0.35802 0.18478
# Poissons Ratio (z) = 0.31555 0.44544
#
# Static dielectric constant tensor:
#      x y z
#    x 1.706340 0.000000 0.000000 
#    y 0.000000 1.703190 0.000000 
#    z 0.000000 0.000000 1.678820 
# 
# From -- ./inp_files/11296.got.cif
#   From: 2010.05.17/outbox.cif.g08.bks.cpg/sg47_6_cif.got.tgz:11296.got - 2010.06.03 20:15:42.
