data_PCOD9387073
_publ_section_title
;
Structure prediction by ZEFSAII (Michael W. Deem and Ramdas Pophale) SiO2 
 PCOD9387073
Probable space group: P M M M
;
_chemical_formula_sum "Si O2"
_cell_formula_units_Z 64
_cell_length_a 20.710650
_cell_length_b 8.061375
_cell_length_c 20.787026
_cell_angle_alpha 90.000000
_cell_angle_beta 90.000000
_cell_angle_gamma 90.000000
_cell_volume 3470.525285
_symmetry_space_group_name_H-M "P M M M"
_symmetry_group_IT_number 47
_symmetry_cell_setting 'orthorhombic'
loop_
_space_group_symop_operation_xyz
x,y,z
-x,-y,z
x,-y,-z
-x,y,-z
-x,-y,-z
x,y,-z
-x,y,z
x,-y,z
loop_
_atom_site_type_symbol
_atom_site_label
_atom_site_fract_x
_atom_site_fract_y
_atom_site_fract_z
Si Si1 0.678286 0.699782 0.927134
Si Si2 0.073273 0.197763 0.820076
Si Si3 0.926662 0.300689 0.323442
Si Si4 0.573876 0.797371 0.677067
Si Si5 0.573056 0.199708 0.823136
Si Si6 0.677491 0.200187 0.573247
Si Si7 0.823041 0.700485 0.426630
Si Si8 0.824613 0.700056 0.926954
O O1 0.679794 0.500000 0.928665
O O2 0.625586 0.750348 0.875265
O O3 0.751398 0.756416 0.911379
O O4 0.662940 0.757136 0.000000
O O5 0.093111 0.261078 0.749557
O O6 0.123069 0.246276 0.875222
O O7 0.000000 0.260315 0.832701
O O8 0.070761 0.000000 0.816985
O O9 0.928906 0.500000 0.329646
O O10 0.876000 0.237663 0.376033
O O11 0.000000 0.237258 0.332732
O O12 0.500000 0.748637 0.662436
O O13 0.588956 0.744443 0.750266
O O14 0.625150 0.738597 0.624551
O O15 0.575184 0.000000 0.676585
O O16 0.500000 0.257736 0.838570
O O17 0.571195 0.000000 0.821546
O O18 0.665608 0.259413 0.500000
O O19 0.750416 0.248352 0.591118
O O20 0.673908 0.000000 0.572218
O O21 0.835279 0.757658 0.500000
O O22 0.825400 0.500000 0.426996
O O23 0.823786 0.500000 0.927629
O O24 0.839714 0.755762 0.000000
#
# Coordination Sequence:
#
# PCOD9387073 Si02
#       8
#     8   8   8   8   8   8   8   8
#     4   9  19  35  52  71  96 124 156 197 241 283
#     4  10  21  35  51  74 103 131 160 198 243 290
#     4   9  18  33  52  72  95 126 164 202 238 281
#     4   8  15  29  47  67  93 123 156 196 236 272
#     4   9  18  32  49  70  97 128 161 197 238 286
#     4   9  17  29  47  71  96 123 157 195 234 280
#     4   9  18  32  49  70  97 127 158 196 242 287
#     4   9  19  36  55  74  98 129 165 203 242 287
#
# _framework density 18.441011
#
# number of rings (size 3 to 8) (size 9 to 14) (size 15 to 20)
#    0.000    3.000    0.000    1.875    0.000    4.500 
#    0.000    9.375    0.000    1.125    0.000    5.250 
#    0.000    0.000    0.000    0.000    0.000    0.000 
#
# Total GULP energy -356762.628799 kJ/mol
# GULP energy per Si atom -5574.416075 kJ/mol
# Density = 1.839904 g / cm^3
# Si number density = 18.441011 Si / 1000 Ang^3
#
#
#
# Elastic Constant Matrix: (Units=GPa)
#
#
# Indices 1 2 3 4 5 6 
#
# 1 154.0123 9.8024 143.1289 0.0000 0.0000 0.0000
# 2 9.8024 9.8130 10.2936 0.0000 0.0000 0.0000
# 3 143.1289 10.2936 161.6755 0.0000 0.0000 0.0000
# 4 0.0000 0.0000 0.0000 15.6401 0.0000 0.0000
# 5 0.0000 0.0000 0.0000 0.0000 44.2455 0.0000
# 6 0.0000 0.0000 0.0000 0.0000 0.0000 26.7985
#
#
#
# Elastic Compliance Matrix: (Units=1/GPa)
#
#
# Indices 1 2 3 4 5 6 
#
# 1 0.036696 -0.002763 -0.032311 0.000000 0.000000 0.000000
# 2 -0.002763 0.109406 -0.004519 0.000000 0.000000 0.000000
# 3 -0.032311 -0.004519 0.035077 0.000000 0.000000 0.000000
# 4 0.000000 0.000000 0.000000 0.063938 0.000000 0.000000
# 5 0.000000 0.000000 0.000000 0.000000 0.022601 0.000000
# 6 0.000000 0.000000 0.000000 0.000000 0.000000 0.037316
#
#
# Mechanical properties :
#
#
# Convention : Reuss Voigt Hill
#
# Bulk Modulus (GPa) = 9.80461 72.43894 41.12178
# Shear Modulus (GPa) = 11.95544 28.15521 20.05532
#
# Velocity S-wave (km/s) = 2.54895 3.91163 3.30136
# Velocity P-wave (km/s) = 3.74047 7.73097 6.07285
#
# Compressibility (1/GPa) = 0.10199283
#
# Stress axis : x y z
#
# Youngs Moduli (GPa) = 27.25060 9.14025 28.50847
#
# Poissons Ratio (x) = 0.02526 0.92113
# Poissons Ratio (y) = 0.07530 0.12884
# Poissons Ratio (z) = 0.88049 0.04131
#
# Static dielectric constant tensor:
#      x y z
#    x 1.625570 0.000000 0.000000 
#    y 0.000000 1.663800 0.000000 
#    z 0.000000 0.000000 1.623080 
# 
# From -- ./inp_files/9973.got.cif
#   From: 2010.05.17/outbox.cif.g08.bks.cpg/sg47_5_cif.got.tgz:9973.got - 2010.06.03 20:15:42.
