data_PCOD9387141
_publ_section_title
;
Structure prediction by ZEFSAII (Michael W. Deem and Ramdas Pophale) SiO2 
 PCOD9387141
Probable space group: P M M M
;
_chemical_formula_sum "Si O2"
_cell_formula_units_Z 44
_cell_length_a 8.056940
_cell_length_b 9.556874
_cell_length_c 30.797384
_cell_angle_alpha 90.000000
_cell_angle_beta 90.000000
_cell_angle_gamma 90.000000
_cell_volume 2371.372711
_symmetry_space_group_name_H-M "P M M M"
_symmetry_group_IT_number 47
_symmetry_cell_setting 'orthorhombic'
loop_
_space_group_symop_operation_xyz
x,y,z
-x,-y,z
x,-y,-z
-x,y,-z
-x,-y,-z
x,y,-z
-x,y,z
x,-y,z
loop_
_atom_site_type_symbol
_atom_site_label
_atom_site_fract_x
_atom_site_fract_y
_atom_site_fract_z
Si Si1 0.197054 0.157941 0.722945
Si Si2 0.301046 0.656734 0.196431
Si Si3 0.000000 0.165046 0.052102
Si Si4 0.199854 0.660519 0.452033
Si Si5 0.697942 0.331157 0.096165
Si Si6 0.697065 0.158515 0.370068
O O1 0.245302 0.242858 0.765403
O O2 0.252009 0.220127 0.676659
O O3 0.000000 0.149455 0.721820
O O4 0.267760 0.000000 0.725350
O O5 0.500000 0.649967 0.197995
O O6 0.234167 0.500000 0.203542
O O7 0.262256 0.698579 0.146957
O O8 0.833770 0.244490 0.069106
O O9 0.000000 0.000000 0.065182
O O10 0.000000 0.170430 0.000000
O O11 0.256540 0.709736 0.500000
O O12 0.256951 0.500000 0.446534
O O13 0.250974 0.753817 0.411695
O O14 0.000000 0.658343 0.452925
O O15 0.500000 0.299356 0.088366
O O16 0.716010 0.500000 0.089705
O O17 0.500000 0.149837 0.370255
O O18 0.767270 0.000000 0.372460
#
# Coordination Sequence:
#
# PCOD9387141 Si02
#       6
#     8   8   4   8   8   8
#     4  10  21  35  52  77 108 142 180 220 265 321
#     4   9  19  36  57  82 111 143 182 228 277 329
#     4  11  25  41  59  89 127 163 201 249 304 361
#     4   9  19  36  56  77 101 130 167 213 265 321
#     4   9  20  40  64  89 119 158 204 252 300 354
#     4  10  21  36  53  74 103 139 177 217 261 314
#
# _framework density 18.554655
#
# number of rings (size 3 to 8) (size 9 to 14) (size 15 to 20)
#    0.000    2.455    0.000    3.000    1.273    6.545 
#    0.000    6.364    0.000    0.000    0.000    0.000 
#    0.000    0.000    0.000    0.000    0.000    0.000 
#
# Total GULP energy -245294.064636 kJ/mol
# GULP energy per Si atom -5574.865105 kJ/mol
# Density = 1.851242 g / cm^3
# Si number density = 18.554655 Si / 1000 Ang^3
#
#
#
# Elastic Constant Matrix: (Units=GPa)
#
#
# Indices 1 2 3 4 5 6 
#
# 1 63.5211 40.1712 59.4760 0.0000 0.0000 0.0000
# 2 40.1712 72.2864 80.7600 0.0000 0.0000 0.0000
# 3 59.4760 80.7600 147.0800 0.0000 0.0000 0.0000
# 4 0.0000 0.0000 0.0000 38.3980 0.0000 0.0000
# 5 0.0000 0.0000 0.0000 0.0000 49.3303 0.0000
# 6 0.0000 0.0000 0.0000 0.0000 0.0000 26.0183
#
#
#
# Elastic Compliance Matrix: (Units=1/GPa)
#
#
# Indices 1 2 3 4 5 6 
#
# 1 0.026702 -0.007180 -0.006855 0.000000 0.000000 0.000000
# 2 -0.007180 0.037719 -0.017808 0.000000 0.000000 0.000000
# 3 -0.006855 -0.017808 0.019349 0.000000 0.000000 0.000000
# 4 0.000000 0.000000 0.000000 0.026043 0.000000 0.000000
# 5 0.000000 0.000000 0.000000 0.000000 0.020272 0.000000
# 6 0.000000 0.000000 0.000000 0.000000 0.000000 0.038435
#
#
# Mechanical properties :
#
#
# Convention : Reuss Voigt Hill
#
# Bulk Modulus (GPa) = 49.78999 71.52242 60.65620
# Shear Modulus (GPa) = 20.92918 29.58134 25.25526
#
# Velocity S-wave (km/s) = 3.36218 3.99718 3.69335
# Velocity P-wave (km/s) = 6.47802 7.74169 7.13788
#
# Compressibility (1/GPa) = 0.02008436
#
# Stress axis : x y z
#
# Youngs Moduli (GPa) = 37.44990 26.51168 51.68187
#
# Poissons Ratio (x) = 0.19036 0.35429
# Poissons Ratio (y) = 0.26890 0.92033
# Poissons Ratio (z) = 0.25673 0.47211
#
# Static dielectric constant tensor:
#      x y z
#    x 1.648420 0.000000 0.000000 
#    y 0.000000 1.655540 0.000000 
#    z 0.000000 0.000000 1.642700 
# 
# From -- ./inp_files/33945.got.cif
#   From: 2010.05.17/outbox.cif.g08.bks.cpg/sg47_17_cif.got.tgz:33945.got - 2010.06.03 20:15:42.
