data_PCOD9387063
_publ_section_title
;
Structure prediction by ZEFSAII (Michael W. Deem and Ramdas Pophale) SiO2 
 PCOD9387063
Probable space group: P M M M
;
_chemical_formula_sum "Si O2"
_cell_formula_units_Z 52
_cell_length_a 8.392193
_cell_length_b 16.209480
_cell_length_c 20.100317
_cell_angle_alpha 90.000000
_cell_angle_beta 90.000000
_cell_angle_gamma 90.000000
_cell_volume 2734.308123
_symmetry_space_group_name_H-M "P M M M"
_symmetry_group_IT_number 47
_symmetry_cell_setting 'orthorhombic'
loop_
_space_group_symop_operation_xyz
x,y,z
-x,-y,z
x,-y,-z
-x,y,-z
-x,-y,-z
x,y,-z
-x,y,z
x,-y,z
loop_
_atom_site_type_symbol
_atom_site_label
_atom_site_fract_x
_atom_site_fract_y
_atom_site_fract_z
Si Si1 0.192786 0.910209 0.783265
Si Si2 0.189547 0.822006 0.575956
Si Si3 0.808127 0.855169 0.073075
Si Si4 0.689780 0.250600 0.705243
Si Si5 0.692581 0.666890 0.073444
Si Si6 0.305268 0.591720 0.212144
Si Si7 0.317897 0.000000 0.419105
O O1 0.245662 0.900954 0.860347
O O2 0.250597 0.830567 0.743773
O O3 0.000000 0.908990 0.781702
O O4 0.245792 0.000000 0.757362
O O5 0.248498 0.811368 0.500000
O O6 0.259589 0.759015 0.628940
O O7 0.233898 0.914738 0.599244
O O8 0.000000 0.815367 0.575490
O O9 0.759836 0.759346 0.080095
O O10 0.000000 0.861015 0.072195
O O11 0.750266 0.883638 0.000000
O O12 0.500000 0.250915 0.709371
O O13 0.749827 0.333720 0.740814
O O14 0.500000 0.672455 0.075271
O O15 0.742547 0.613122 0.136440
O O16 0.738162 0.635297 0.000000
O O17 0.500000 0.591817 0.213598
O O18 0.252176 0.500000 0.231088
O O19 0.500000 0.000000 0.396002
O O20 0.317832 0.000000 0.500000
#
# Coordination Sequence:
#
# PCOD9387063 Si02
#       7
#     8   8   8   8   8   8   4
#     4  10  21  35  51  73 104 143 184 224 267 318
#     4  10  21  37  57  80 109 145 180 216 261 314
#     4   9  17  30  49  71  98 135 179 226 270 312
#     4  11  22  36  56  80 108 141 176 221 270 319
#     4   9  16  28  49  75 102 133 171 216 266 319
#     4   9  18  33  53  79 108 137 174 221 274 326
#     4   9  17  31  53  83 115 143 176 215 252 299
#
# _framework density 19.017607000000002
#
# number of rings (size 3 to 8) (size 9 to 14) (size 15 to 20)
#    0.000    2.385    1.538    1.154    1.077    2.769 
#    0.000    3.077    0.000    4.615    0.000    8.615 
#    0.000    0.000    0.000    0.000    0.000    0.000 
#
# Total GULP energy -290121.046296 kJ/mol
# GULP energy per Si atom -5579.250890 kJ/mol
# Density = 1.897432 g / cm^3
# Si number density = 19.017607 Si / 1000 Ang^3
#
#
#
# Elastic Constant Matrix: (Units=GPa)
#
#
# Indices 1 2 3 4 5 6 
#
# 1 13.7344 13.0200 14.0959 0.0000 0.0000 0.0000
# 2 13.0200 130.8549 77.9681 0.0000 0.0000 0.0000
# 3 14.0959 77.9681 121.2150 0.0000 0.0000 0.0000
# 4 0.0000 0.0000 0.0000 16.7741 0.0000 0.0000
# 5 0.0000 0.0000 0.0000 0.0000 21.2217 0.0000
# 6 0.0000 0.0000 0.0000 0.0000 0.0000 28.3542
#
#
#
# Elastic Compliance Matrix: (Units=1/GPa)
#
#
# Indices 1 2 3 4 5 6 
#
# 1 0.084022 -0.004116 -0.007124 0.000000 0.000000 0.000000
# 2 -0.004116 0.012593 -0.007621 0.000000 0.000000 0.000000
# 3 -0.007124 -0.007621 0.013980 0.000000 0.000000 0.000000
# 4 0.000000 0.000000 0.000000 0.059616 0.000000 0.000000
# 5 0.000000 0.000000 0.000000 0.000000 0.047122 0.000000
# 6 0.000000 0.000000 0.000000 0.000000 0.000000 0.035268
#
#
# Mechanical properties :
#
#
# Convention : Reuss Voigt Hill
#
# Bulk Modulus (GPa) = 13.72223 52.88580 33.30401
# Shear Modulus (GPa) = 15.89253 23.98468 19.93861
#
# Velocity S-wave (km/s) = 2.89394 3.55517 3.24146
# Velocity P-wave (km/s) = 4.28926 6.68741 5.61779
#
# Compressibility (1/GPa) = 0.07287447
#
# Stress axis : x y z
#
# Youngs Moduli (GPa) = 11.90158 79.41212 71.52928
#
# Poissons Ratio (x) = 0.32684 0.50954
# Poissons Ratio (y) = 0.04898 0.54514
# Poissons Ratio (z) = 0.08478 0.60521
#
# Static dielectric constant tensor:
#      x y z
#    x 1.660230 0.000000 0.000000 
#    y 0.000000 1.651860 0.000000 
#    z 0.000000 0.000000 1.705840 
# 
# From -- ./inp_files/21476.got.cif
#   From: 2010.05.17/outbox.cif.g08.bks.cpg/sg47_11_cif.got.tgz:21476.got - 2010.06.03 20:15:42.
