data_PCOD9387434
_publ_section_title
;
Structure prediction by ZEFSAII (Michael W. Deem and Ramdas Pophale) SiO2 
 PCOD9387434
Probable space group: P M M M
;
_chemical_formula_sum "Si O2"
_cell_formula_units_Z 56
_cell_length_a 15.032016
_cell_length_b 21.940445
_cell_length_c 7.484973
_cell_angle_alpha 90.000000
_cell_angle_beta 90.000000
_cell_angle_gamma 90.000000
_cell_volume 2468.612361
_symmetry_space_group_name_H-M "P M M M"
_symmetry_group_IT_number 47
_symmetry_cell_setting 'orthorhombic'
loop_
_space_group_symop_operation_xyz
x,y,z
-x,-y,z
x,-y,-z
-x,y,-z
-x,-y,-z
x,y,-z
-x,y,z
x,-y,z
loop_
_atom_site_type_symbol
_atom_site_label
_atom_site_fract_x
_atom_site_fract_y
_atom_site_fract_z
Si Si1 0.902081 0.254012 0.785885
Si Si2 0.286960 0.933679 0.715325
Si Si3 0.600037 0.186520 0.787472
Si Si4 0.294229 0.568264 0.202624
Si Si5 0.905126 0.573153 0.293941
Si Si6 0.713312 0.697744 0.220097
Si Si7 0.097912 0.889958 0.713645
O O1 0.815220 0.289569 0.721136
O O2 0.890460 0.182199 0.747736
O O3 0.000000 0.270799 0.714711
O O4 0.904041 0.261411 0.000000
O O5 0.283014 0.934718 0.500000
O O6 0.347680 0.876388 0.761263
O O7 0.186103 0.922757 0.781850
O O8 0.319727 0.000000 0.776060
O O9 0.500000 0.183588 0.715235
O O10 0.655801 0.244408 0.720186
O O11 0.594134 0.195459 0.000000
O O12 0.306485 0.500000 0.282595
O O13 0.187870 0.581534 0.196719
O O14 0.325585 0.632518 0.282493
O O15 0.327955 0.564606 0.000000
O O16 0.897644 0.593330 0.500000
O O17 0.911841 0.500000 0.298821
O O18 0.000000 0.595444 0.218290
O O19 0.713493 0.696413 0.000000
O O20 0.095601 0.899235 0.500000
O O21 0.000000 0.907778 0.783347
#
# Coordination Sequence:
#
# PCOD9387434 Si02
#       7
#     8   8   8   8   8   8   8
#     4   9  16  27  46  69  94 129 170 209 250 293
#     4  10  21  36  55  81 112 142 169 203 251 301
#     4  10  21  38  59  79  99 129 172 217 259 307
#     4   9  17  28  44  67  93 123 161 204 250 303
#     4   8  14  25  39  56  85 125 163 199 240 285
#     4   9  17  31  50  72  99 129 163 208 257 301
#     4   9  17  30  49  74 105 138 171 205 239 282
#
# _framework density 22.684809000000001
#
# number of rings (size 3 to 8) (size 9 to 14) (size 15 to 20)
#    0.000    2.857    1.429    0.429    0.000    2.000 
#    0.000    7.143    0.000    2.143    0.000    6.000 
#    0.000    0.000    0.000    4.857    0.000    5.143 
#
# Total GULP energy -312277.797638 kJ/mol
# GULP energy per Si atom -5576.389244 kJ/mol
# Density = 2.263318 g / cm^3
# Si number density = 22.684809 Si / 1000 Ang^3
#
#
#
# Elastic Constant Matrix: (Units=GPa)
#
#
# Indices 1 2 3 4 5 6 
#
# 1 105.0909 79.4969 5.9392 0.0000 0.0000 0.0000
# 2 79.4969 184.6027 -1.5137 0.0000 0.0000 0.0000
# 3 5.9392 -1.5137 66.5861 0.0000 0.0000 0.0000
# 4 0.0000 0.0000 0.0000 21.8417 0.0000 0.0000
# 5 0.0000 0.0000 0.0000 0.0000 8.1113 0.0000
# 6 0.0000 0.0000 0.0000 0.0000 0.0000 -2.4005
#
#
#
# Elastic Compliance Matrix: (Units=1/GPa)
#
#
# Indices 1 2 3 4 5 6 
#
# 1 0.014244 -0.006146 -0.001410 0.000000 0.000000 0.000000
# 2 -0.006146 0.008070 0.000732 0.000000 0.000000 0.000000
# 3 -0.001410 0.000732 0.015161 0.000000 0.000000 0.000000
# 4 0.000000 0.000000 0.000000 0.045784 0.000000 0.000000
# 5 0.000000 0.000000 0.000000 0.000000 0.123285 0.000000
# 6 0.000000 0.000000 0.000000 0.000000 0.000000 -0.416584
#
#
# Mechanical properties :
#
#
# Convention : Reuss Voigt Hill
#
# Bulk Modulus (GPa) = 41.97127 58.23606 50.10367
# Shear Modulus (GPa) = -26.53221 23.66765 -1.43228
#
# Velocity S-wave (km/s) = -3.42366 3.23356 -0.79546
# Velocity P-wave (km/s) = 1.70691 6.29832 4.61423
#
# Compressibility (1/GPa) = 0.02382582
#
# Stress axis : x y z
#
# Youngs Moduli (GPa) = 70.20403 123.92206 65.96055
#
# Poissons Ratio (x) = 0.76158 0.09302
# Poissons Ratio (y) = 0.43145 -0.04826
# Poissons Ratio (z) = 0.09900 -0.09066
#
# Static dielectric constant tensor:
#      x y z
#    x 1.845100 0.000000 0.000000 
#    y 0.000000 1.874930 0.000000 
#    z 0.000000 0.000000 1.879490 
# 
# From -- ./inp_files/7356.got.cif
#   From: 2010.05.17/outbox.cif.g08.bks.cpg/sg47_4_cif.got.tgz:7356.got - 2010.06.03 20:15:42.
