data_PCOD9387785
_publ_section_title
;
Structure prediction by ZEFSAII (Michael W. Deem and Ramdas Pophale) SiO2 
 PCOD9387785
Probable space group: P M M M
;
_chemical_formula_sum "Si O2"
_cell_formula_units_Z 56
_cell_length_a 15.490901
_cell_length_b 8.762184
_cell_length_c 21.000686
_cell_angle_alpha 90.000000
_cell_angle_beta 90.000000
_cell_angle_gamma 90.000000
_cell_volume 2850.509736
_symmetry_space_group_name_H-M "P M M M"
_symmetry_group_IT_number 47
_symmetry_cell_setting 'orthorhombic'
loop_
_space_group_symop_operation_xyz
x,y,z
-x,-y,z
x,-y,-z
-x,y,-z
-x,-y,-z
x,y,-z
-x,y,z
x,-y,z
loop_
_atom_site_type_symbol
_atom_site_label
_atom_site_fract_x
_atom_site_fract_y
_atom_site_fract_z
Si Si1 0.594670 0.000000 0.162017
Si Si2 0.595879 0.319793 0.624858
Si Si3 0.154676 0.664295 0.791624
Si Si4 0.772421 0.315603 0.429310
Si Si5 0.243693 0.000000 0.930550
Si Si6 0.640102 0.323361 0.225503
Si Si7 0.903723 0.179549 0.329047
Si Si8 0.901917 0.256132 0.071241
O O1 0.600288 0.834789 0.198163
O O2 0.500000 0.000000 0.130053
O O3 0.680197 0.000000 0.119341
O O4 0.500000 0.253277 0.616475
O O5 0.589830 0.500000 0.609296
O O6 0.675240 0.257536 0.584168
O O7 0.623709 0.313042 0.698914
O O8 0.136553 0.500000 0.760580
O O9 0.258346 0.682001 0.792319
O O10 0.116322 0.790180 0.745157
O O11 0.113933 0.661345 0.861816
O O12 0.801147 0.269214 0.500000
O O13 0.770623 0.500000 0.426995
O O14 0.833930 0.258892 0.373559
O O15 0.177129 0.139031 0.926697
O O16 0.285272 0.000000 0.000000
O O17 0.611186 0.500000 0.207106
O O18 0.000000 0.236331 0.343088
O O19 0.900263 0.000000 0.340942
O O20 0.000000 0.192770 0.073864
O O21 0.896620 0.329003 0.000000
#
# Coordination Sequence:
#
# PCOD9387785 Si02
#       8
#     4   8   8   8   4   8   8   8
#     4  12  24  38  65  94 117 161 211 256 317 373
#     4   9  17  33  58  86 120 157 191 239 302 363
#     4  11  22  38  62  90 125 164 199 252 314 365
#     4  10  21  38  61  89 119 153 197 247 302 368
#     4  10  21  39  58  83 121 159 203 258 306 368
#     4  10  21  38  60  91 127 161 203 257 312 371
#     4  11  25  41  60  86 117 157 205 258 308 362
#     4  10  21  37  60  89 123 165 207 250 306 371
#
# _framework density 19.645609
#
# number of rings (size 3 to 8) (size 9 to 14) (size 15 to 20)
#    0.000    1.714    2.857    1.500    2.000    5.000 
#    0.000    3.571    0.000    0.429    0.000    2.000 
#    0.000    0.000    0.000    0.000    0.000    0.000 
#
# Total GULP energy -311810.475588 kJ/mol
# GULP energy per Si atom -5568.044207 kJ/mol
# Density = 1.960089 g / cm^3
# Si number density = 19.645609 Si / 1000 Ang^3
#
#
#
# Elastic Constant Matrix: (Units=GPa)
#
#
# Indices 1 2 3 4 5 6 
#
# 1 117.5515 21.9402 39.7386 0.0000 0.0000 0.0000
# 2 21.9402 65.2580 25.0475 0.0000 0.0000 0.0000
# 3 39.7386 25.0475 92.0514 0.0000 0.0000 0.0000
# 4 0.0000 0.0000 0.0000 15.3340 0.0000 0.0000
# 5 0.0000 0.0000 0.0000 0.0000 5.2008 0.0000
# 6 0.0000 0.0000 0.0000 0.0000 0.0000 3.4800
#
#
#
# Elastic Compliance Matrix: (Units=1/GPa)
#
#
# Indices 1 2 3 4 5 6 
#
# 1 0.010175 -0.001937 -0.003866 0.000000 0.000000 0.000000
# 2 -0.001937 0.017480 -0.003920 0.000000 0.000000 0.000000
# 3 -0.003866 -0.003920 0.013599 0.000000 0.000000 0.000000
# 4 0.000000 0.000000 0.000000 0.065215 0.000000 0.000000
# 5 0.000000 0.000000 0.000000 0.000000 0.192279 0.000000
# 6 0.000000 0.000000 0.000000 0.000000 0.000000 0.287356
#
#
# Mechanical properties :
#
#
# Convention : Reuss Voigt Hill
#
# Bulk Modulus (GPa) = 45.85416 49.81261 47.83338
# Shear Modulus (GPa) = 8.15903 17.34527 12.75215
#
# Velocity S-wave (km/s) = 2.04013 2.97460 2.55053
# Velocity P-wave (km/s) = 5.37967 6.09986 5.75105
#
# Compressibility (1/GPa) = 0.02180827
#
# Stress axis : x y z
#
# Youngs Moduli (GPa) = 98.27782 57.20924 73.53555
#
# Poissons Ratio (x) = 0.11083 0.28425
# Poissons Ratio (y) = 0.19039 0.28826
# Poissons Ratio (z) = 0.37989 0.22426
#
# Static dielectric constant tensor:
#      x y z
#    x 1.690610 0.000000 0.000000 
#    y 0.000000 1.722820 0.000000 
#    z 0.000000 0.000000 1.677230 
# 
# From -- ./inp_files/31041.got.cif
#   From: 2010.05.17/outbox.cif.g08.bks.cpg/sg47_16_cif.got.tgz:31041.got - 2010.06.03 20:15:42.
