data_PCOD9387185
_publ_section_title
;
Structure prediction by ZEFSAII (Michael W. Deem and Ramdas Pophale) SiO2 
 PCOD9387185
Probable space group: P M M M
;
_chemical_formula_sum "Si O2"
_cell_formula_units_Z 45
_cell_length_a 15.195655
_cell_length_b 7.604797
_cell_length_c 18.546549
_cell_angle_alpha 90.000000
_cell_angle_beta 90.000000
_cell_angle_gamma 90.000000
_cell_volume 2143.236820
_symmetry_space_group_name_H-M "P M M M"
_symmetry_group_IT_number 47
_symmetry_cell_setting 'orthorhombic'
loop_
_space_group_symop_operation_xyz
x,y,z
-x,-y,z
x,-y,-z
-x,y,-z
-x,-y,-z
x,y,-z
-x,y,z
x,-y,z
loop_
_atom_site_type_symbol
_atom_site_label
_atom_site_fract_x
_atom_site_fract_y
_atom_site_fract_z
Si Si1 0.398527 0.712854 0.280283
Si Si2 0.727821 0.792246 0.853101
Si Si3 0.903994 0.705129 0.608747
Si Si4 0.290735 0.714984 0.578744
Si Si5 0.500000 0.000000 0.000000
Si Si6 0.903617 0.212928 0.223370
Si Si7 0.356166 0.310014 0.000000
O O1 0.500000 0.772390 0.279182
O O2 0.399154 0.500000 0.281839
O O3 0.345655 0.767028 0.208904
O O4 0.346582 0.773595 0.352067
O O5 0.820266 0.725600 0.821612
O O6 0.736323 0.000000 0.866426
O O7 0.700426 0.705507 0.927420
O O8 0.905624 0.500000 0.587533
O O9 0.810705 0.777923 0.582627
O O10 0.898763 0.716705 0.695363
O O11 0.000000 0.781032 0.587973
O O12 0.327501 0.762618 0.500000
O O13 0.288463 0.500000 0.582239
O O14 0.424245 0.152524 0.000000
O O15 0.000000 0.259574 0.193723
O O16 0.899051 0.000000 0.228491
O O17 0.399855 0.500000 0.000000
#
# Coordination Sequence:
#
# PCOD9387185 Si02
#       7
#     8   8   8   8   1   8   4
#     4  10  21  35  54  80 108 147 200 252 308 372
#     4  11  22  40  62  89 125 159 203 254 310 379
#     4   9  16  27  47  76 107 141 186 242 302 366
#     4   9  17  30  48  74 110 147 188 244 306 371
#     4  12  26  52  68 102 138 168 224 256 320 386
#     4   9  18  33  57  85 115 155 199 245 302 365
#     4  12  27  45  70  99 136 174 208 266 320 370
#
# _framework density 20.996279000000001
#
# number of rings (size 3 to 8) (size 9 to 14) (size 15 to 20)
#    0.000    2.133    2.667    0.667    1.244    1.778 
#    0.000    4.000    0.000    4.800    0.000    3.733 
#    0.000    0.000    0.000    0.000    0.000    0.000 
#
# Total GULP energy -251020.961643 kJ/mol
# GULP energy per Si atom -5578.243592 kJ/mol
# Density = 2.094849 g / cm^3
# Si number density = 20.996279 Si / 1000 Ang^3
#
#
#
# Elastic Constant Matrix: (Units=GPa)
#
#
# Indices 1 2 3 4 5 6 
#
# 1 159.7932 17.7968 83.1617 0.0000 0.0000 0.0000
# 2 17.7968 76.8738 12.3382 0.0000 0.0000 0.0000
# 3 83.1617 12.3382 161.5633 0.0000 0.0000 0.0000
# 4 0.0000 0.0000 0.0000 30.1834 0.0000 0.0000
# 5 0.0000 0.0000 0.0000 0.0000 -5.5844 0.0000
# 6 0.0000 0.0000 0.0000 0.0000 0.0000 35.2805
#
#
#
# Elastic Compliance Matrix: (Units=1/GPa)
#
#
# Indices 1 2 3 4 5 6 
#
# 1 0.008676 -0.001308 -0.004366 0.000000 0.000000 0.000000
# 2 -0.001308 0.013367 -0.000348 0.000000 0.000000 0.000000
# 3 -0.004366 -0.000348 0.008463 0.000000 0.000000 0.000000
# 4 0.000000 0.000000 0.000000 0.033131 0.000000 0.000000
# 5 0.000000 0.000000 0.000000 0.000000 -0.179071 0.000000
# 6 0.000000 0.000000 0.000000 0.000000 0.000000 0.028344
#
#
# Mechanical properties :
#
#
# Convention : Reuss Voigt Hill
#
# Bulk Modulus (GPa) = 54.16096 69.42486 61.79291
# Shear Modulus (GPa) = -72.57648 30.97148 -20.80250
#
# Velocity S-wave (km/s) = -5.88569 3.84486 -3.15107
# Velocity P-wave (km/s) = 4.50966 7.26964 4.03179
#
# Compressibility (1/GPa) = 0.01846348
#
# Stress axis : x y z
#
# Youngs Moduli (GPa) = 115.26186 74.81166 118.15679
#
# Poissons Ratio (x) = 0.09784 0.51586
# Poissons Ratio (y) = 0.15074 0.04107
# Poissons Ratio (z) = 0.50322 0.02601
#
# Static dielectric constant tensor:
#      x y z
#    x 1.757010 0.000000 0.000000 
#    y 0.000000 1.783010 0.000000 
#    z 0.000000 0.000000 1.730610 
# 
# From -- ./inp_files/27916.got.cif
#   From: 2010.05.17/outbox.cif.g08.bks.cpg/sg47_14_cif.got.tgz:27916.got - 2010.06.03 20:15:42.
