data_PCOD9387135
_publ_section_title
;
Structure prediction by ZEFSAII (Michael W. Deem and Ramdas Pophale) SiO2 
 PCOD9387135
Probable space group: P M M M
;
_chemical_formula_sum "Si O2"
_cell_formula_units_Z 40
_cell_length_a 28.197191
_cell_length_b 9.659228
_cell_length_c 8.268900
_cell_angle_alpha 90.000000
_cell_angle_beta 90.000000
_cell_angle_gamma 90.000000
_cell_volume 2252.143211
_symmetry_space_group_name_H-M "P M M M"
_symmetry_group_IT_number 47
_symmetry_cell_setting 'orthorhombic'
loop_
_space_group_symop_operation_xyz
x,y,z
-x,-y,z
x,-y,-z
-x,y,-z
-x,-y,-z
x,y,-z
-x,y,z
x,-y,z
loop_
_atom_site_type_symbol
_atom_site_label
_atom_site_fract_x
_atom_site_fract_y
_atom_site_fract_z
Si Si1 0.587332 0.158876 0.192585
Si Si2 0.884974 0.668717 0.813345
Si Si3 0.500000 0.657161 0.307373
Si Si4 0.690463 0.841912 0.307259
Si Si5 0.222629 0.657770 0.805720
Si Si6 0.945112 0.331212 0.500000
O O1 0.546371 0.258057 0.255372
O O2 0.640025 0.208043 0.239091
O O3 0.581841 0.000000 0.254922
O O4 0.583747 0.153728 0.000000
O O5 0.885550 0.500000 0.817174
O O6 0.830791 0.708553 0.770699
O O7 0.919097 0.712964 0.666628
O O8 0.895966 0.712566 0.000000
O O9 0.500000 0.500000 0.241871
O O10 0.500000 0.649625 0.500000
O O11 0.686678 0.843783 0.500000
O O12 0.735231 0.751013 0.258763
O O13 0.696972 0.000000 0.248232
O O14 0.227107 0.500000 0.744603
O O15 0.225862 0.653766 0.000000
O O16 0.943702 0.500000 0.500000
O O17 0.000000 0.288994 0.500000
#
# Coordination Sequence:
#
# PCOD9387135 Si02
#       6
#     8   8   4   8   8   4
#     4  10  21  38  59  79 100 132 171 207 250 303
#     4   8  15  27  41  61  92 127 166 211 256 307
#     4  11  24  39  56  80 108 135 166 207 252 298
#     4  10  21  35  52  77 106 134 167 209 255 303
#     4   9  18  32  50  72  98 133 173 209 253 309
#     4   9  16  24  38  62  91 129 173 210 253 306
#
# _framework density 17.760857999999999
#
# number of rings (size 3 to 8) (size 9 to 14) (size 15 to 20)
#    0.000    2.600    0.000    3.000    1.400    6.000 
#    0.000    2.000    0.000    0.000    0.000    0.000 
#    0.000    1.600    0.000    4.400    0.000    4.400 
#
# Total GULP energy -222978.583212 kJ/mol
# GULP energy per Si atom -5574.464580 kJ/mol
# Density = 1.772043 g / cm^3
# Si number density = 17.760858 Si / 1000 Ang^3
#
#
#
# Elastic Constant Matrix: (Units=GPa)
#
#
# Indices 1 2 3 4 5 6 
#
# 1 170.5908 61.4049 80.2831 0.0000 0.0000 0.0000
# 2 61.4049 41.1653 29.3887 0.0000 0.0000 0.0000
# 3 80.2831 29.3887 77.7521 0.0000 0.0000 0.0000
# 4 0.0000 0.0000 0.0000 18.6651 0.0000 0.0000
# 5 0.0000 0.0000 0.0000 0.0000 39.5770 0.0000
# 6 0.0000 0.0000 0.0000 0.0000 0.0000-1087.6616
#
#
#
# Elastic Compliance Matrix: (Units=1/GPa)
#
#
# Indices 1 2 3 4 5 6 
#
# 1 0.017986 -0.018586 -0.011546 0.000000 0.000000 0.000000
# 2 -0.018586 0.052476 -0.000644 0.000000 0.000000 0.000000
# 3 -0.011546 -0.000644 0.025027 0.000000 0.000000 0.000000
# 4 0.000000 0.000000 0.000000 0.053576 0.000000 0.000000
# 5 0.000000 0.000000 0.000000 0.000000 0.025267 0.000000
# 6 0.000000 0.000000 0.000000 0.000000 0.000000 -0.000919
#
#
# Mechanical properties :
#
#
# Convention : Reuss Voigt Hill
#
# Bulk Modulus (GPa) = 29.46663 70.18461 49.82562
# Shear Modulus (GPa) = 20.30227 -197.98847 -88.84310
#
# Velocity S-wave (km/s) = 3.38463 -10.56961 -7.08029
# Velocity P-wave (km/s) = 5.64810 10.45721 6.22303
#
# Compressibility (1/GPa) = 0.03393669
#
# Stress axis : x y z
#
# Youngs Moduli (GPa) = 55.59858 19.05624 39.95677
#
# Poissons Ratio (x) = 0.35418 0.46136
# Poissons Ratio (y) = 1.03336 0.02573
# Poissons Ratio (z) = 0.64196 0.01227
#
# Static dielectric constant tensor:
#      x y z
#    x 1.595080 0.000000 0.000000 
#    y 0.000000 1.612300 0.000000 
#    z 0.000000 0.000000 1.614700 
# 
# From -- ./inp_files/12996.got.cif
#   From: 2010.05.17/outbox.cif.g08.bks.cpg/sg47_7_cif.got.tgz:12996.got - 2010.06.03 20:15:42.
