data_PCOD9387103
_publ_section_title
;
Structure prediction by ZEFSAII (Michael W. Deem and Ramdas Pophale) SiO2 
 PCOD9387103
Probable space group: P M M M
;
_chemical_formula_sum "Si O2"
_cell_formula_units_Z 56
_cell_length_a 14.014731
_cell_length_b 14.061626
_cell_length_c 14.137126
_cell_angle_alpha 90.000000
_cell_angle_beta 90.000000
_cell_angle_gamma 90.000000
_cell_volume 2786.002089
_symmetry_space_group_name_H-M "P M M M"
_symmetry_group_IT_number 47
_symmetry_cell_setting 'orthorhombic'
loop_
_space_group_symop_operation_xyz
x,y,z
-x,-y,z
x,-y,-z
-x,y,-z
-x,-y,-z
x,y,-z
-x,y,z
x,-y,z
loop_
_atom_site_type_symbol
_atom_site_label
_atom_site_fract_x
_atom_site_fract_y
_atom_site_fract_z
Si Si1 0.384179 0.893339 0.609601
Si Si2 0.612130 0.702473 0.285509
Si Si3 0.779202 0.395220 0.386313
Si Si4 0.884229 0.896755 0.207551
Si Si5 0.885668 0.203992 0.392510
Si Si6 0.108161 0.300942 0.886477
Si Si7 0.303569 0.609513 0.887791
O O1 0.358196 0.873048 0.500000
O O2 0.500000 0.895853 0.611746
O O3 0.356634 0.806802 0.677664
O O4 0.351252 0.000000 0.634365
O O5 0.500000 0.691870 0.303570
O O6 0.676256 0.628026 0.343320
O O7 0.635783 0.680340 0.176765
O O8 0.773564 0.394603 0.500000
O O9 0.812422 0.500000 0.356726
O O10 0.846407 0.306556 0.360809
O O11 0.857739 0.874507 0.316008
O O12 0.859283 0.803567 0.147788
O O13 0.000000 0.900196 0.203114
O O14 0.848088 0.000000 0.176465
O O15 0.854741 0.184219 0.500000
O O16 0.000000 0.208723 0.392701
O O17 0.192271 0.373558 0.861365
O O18 0.000000 0.319895 0.850611
O O19 0.102607 0.300498 0.000000
O O20 0.330048 0.500000 0.869262
O O21 0.313920 0.626864 0.000000
#
# Coordination Sequence:
#
# PCOD9387103 Si02
#       7
#     8   8   8   8   8   8   8
#     4   8  15  31  57  86 111 136 171 217 269 322
#     4  11  22  36  56  79 106 142 180 217 261 314
#     4  10  21  35  51  75 106 136 171 219 270 319
#     4   9  17  29  47  73 105 140 175 209 248 301
#     4   9  18  33  52  73 100 137 178 216 256 306
#     4   9  18  34  57  82 105 131 166 211 265 320
#     4  10  22  39  57  79 108 140 178 225 269 312
#
# _framework density 20.100487000000001
#
# number of rings (size 3 to 8) (size 9 to 14) (size 15 to 20)
#    0.000    2.571    0.000    2.143    0.000    3.429 
#    0.000   10.000    0.000    6.429    0.000    2.000 
#    0.000    0.000    0.000    0.000    0.000    0.000 
#
# Total GULP energy -312462.490661 kJ/mol
# GULP energy per Si atom -5579.687333 kJ/mol
# Density = 2.005474 g / cm^3
# Si number density = 20.100487 Si / 1000 Ang^3
#
#
#
# Elastic Constant Matrix: (Units=GPa)
#
#
# Indices 1 2 3 4 5 6 
#
# 1 42.9117 4.4414 -10.1138 0.0000 0.0000 0.0000
# 2 4.4414 87.1640 25.1125 0.0000 0.0000 0.0000
# 3 -10.1138 25.1125 36.5540 0.0000 0.0000 0.0000
# 4 0.0000 0.0000 0.0000 30.6001 0.0000 0.0000
# 5 0.0000 0.0000 0.0000 0.0000 24.2221 0.0000
# 6 0.0000 0.0000 0.0000 0.0000 0.0000 27.4017
#
#
#
# Elastic Compliance Matrix: (Units=1/GPa)
#
#
# Indices 1 2 3 4 5 6 
#
# 1 0.026138 -0.004258 0.010157 0.000000 0.000000 0.000000
# 2 -0.004258 0.014997 -0.011481 0.000000 0.000000 0.000000
# 3 0.010157 -0.011481 0.038055 0.000000 0.000000 0.000000
# 4 0.000000 0.000000 0.000000 0.032680 0.000000 0.000000
# 5 0.000000 0.000000 0.000000 0.000000 0.041285 0.000000
# 6 0.000000 0.000000 0.000000 0.000000 0.000000 0.036494
#
#
# Mechanical properties :
#
#
# Convention : Reuss Voigt Hill
#
# Bulk Modulus (GPa) = 14.70020 22.83442 18.76731
# Shear Modulus (GPa) = 22.37244 26.25741 24.31492
#
# Velocity S-wave (km/s) = 3.33983 3.61821 3.48180
# Velocity P-wave (km/s) = 4.71188 5.37029 5.05183
#
# Compressibility (1/GPa) = 0.06802631
#
# Stress axis : x y z
#
# Youngs Moduli (GPa) = 38.25784 66.67779 26.27778
#
# Poissons Ratio (x) = 0.28394 -0.26692
# Poissons Ratio (y) = 0.16291 0.30171
# Poissons Ratio (z) = -0.38860 0.76556
#
# Static dielectric constant tensor:
#      x y z
#    x 1.732330 0.000000 0.000000 
#    y 0.000000 1.710000 0.000000 
#    z 0.000000 0.000000 1.724620 
# 
# From -- ./inp_files/17678.got.cif
#   From: 2010.05.17/outbox.cif.g08.bks.cpg/sg47_9_cif.got.tgz:17678.got - 2010.06.03 20:15:42.
