data_PCOD9387289
_publ_section_title
;
Structure prediction by ZEFSAII (Michael W. Deem and Ramdas Pophale) SiO2 
 PCOD9387289
Probable space group: P M M M
;
_chemical_formula_sum "Si O2"
_cell_formula_units_Z 48
_cell_length_a 9.377141
_cell_length_b 33.390100
_cell_length_c 7.559089
_cell_angle_alpha 90.000000
_cell_angle_beta 90.000000
_cell_angle_gamma 90.000000
_cell_volume 2366.778551
_symmetry_space_group_name_H-M "P M M M"
_symmetry_group_IT_number 47
_symmetry_cell_setting 'orthorhombic'
loop_
_space_group_symop_operation_xyz
x,y,z
-x,-y,z
x,-y,-z
-x,y,-z
-x,-y,-z
x,y,-z
-x,y,z
x,-y,z
loop_
_atom_site_type_symbol
_atom_site_label
_atom_site_fract_x
_atom_site_fract_y
_atom_site_fract_z
Si Si1 0.160558 0.420578 0.288941
Si Si2 0.831817 0.952132 0.500000
Si Si3 0.339911 0.654223 0.710343
Si Si4 0.330778 0.901509 0.788121
Si Si5 0.338616 0.500000 0.210633
Si Si6 0.836101 0.177680 0.214939
Si Si7 0.162664 0.267442 0.786773
O O1 0.148288 0.415237 0.500000
O O2 0.242029 0.381570 0.216977
O O3 0.252583 0.460354 0.261857
O O4 0.000000 0.424637 0.217890
O O5 0.754359 0.933455 0.328679
O O6 0.000000 0.941776 0.500000
O O7 0.818711 0.000000 0.500000
O O8 0.350402 0.647548 0.500000
O O9 0.500000 0.653340 0.783480
O O10 0.266464 0.697071 0.734477
O O11 0.500000 0.903791 0.755911
O O12 0.268767 0.857962 0.734457
O O13 0.307256 0.906684 0.000000
O O14 0.500000 0.500000 0.283090
O O15 0.348014 0.500000 0.000000
O O16 0.796676 0.222610 0.273754
O O17 0.000000 0.169713 0.270304
O O18 0.836574 0.178368 0.000000
O O19 0.000000 0.275428 0.726634
O O20 0.160059 0.266510 0.000000
#
# Coordination Sequence:
#
# PCOD9387289 Si02
#       7
#     8   4   8   8   4   8   8
#     4  10  21  38  60  81 102 135 178 220 265 320
#     4  11  25  43  63  89 121 159 207 257 303 360
#     4  10  21  36  53  76 107 143 182 223 269 322
#     4  10  21  38  62  91 123 160 200 248 309 369
#     4  11  24  39  56  82 112 137 166 209 262 320
#     4   8  15  31  55  81 111 149 193 237 280 336
#     4   9  18  33  54  80 109 144 186 229 275 327
#
# _framework density 20.280732
#
# number of rings (size 3 to 8) (size 9 to 14) (size 15 to 20)
#    0.000    2.333    0.000    3.250    0.000    7.333 
#    1.500    3.333    0.000    0.000    0.000    0.000 
#    0.000    0.000    0.000    0.000    0.000    0.000 
#
# Total GULP energy -268038.726917 kJ/mol
# GULP energy per Si atom -5584.140144 kJ/mol
# Density = 2.023457 g / cm^3
# Si number density = 20.280732 Si / 1000 Ang^3
#
#
#
# Elastic Constant Matrix: (Units=GPa)
#
#
# Indices 1 2 3 4 5 6 
#
# 1 191.8457 120.8366 39.4684 0.0000 0.0000 0.0000
# 2 120.8366 159.2292 27.6766 0.0000 0.0000 0.0000
# 3 39.4684 27.6766 61.7835 0.0000 0.0000 0.0000
# 4 0.0000 0.0000 0.0000 29.5952 0.0000 0.0000
# 5 0.0000 0.0000 0.0000 0.0000 21.5420 0.0000
# 6 0.0000 0.0000 0.0000 0.0000 0.0000 -53.8013
#
#
#
# Elastic Compliance Matrix: (Units=1/GPa)
#
#
# Indices 1 2 3 4 5 6 
#
# 1 0.010620 -0.007461 -0.003442 0.000000 0.000000 0.000000
# 2 -0.007461 0.012052 -0.000633 0.000000 0.000000 0.000000
# 3 -0.003442 -0.000633 0.018668 0.000000 0.000000 0.000000
# 4 0.000000 0.000000 0.000000 0.033789 0.000000 0.000000
# 5 0.000000 0.000000 0.000000 0.000000 0.046421 0.000000
# 6 0.000000 0.000000 0.000000 0.000000 0.000000 -0.018587
#
#
# Mechanical properties :
#
#
# Convention : Reuss Voigt Hill
#
# Bulk Modulus (GPa) = 54.73875 87.64684 71.19279
# Shear Modulus (GPa) = 37.84296 14.45899 26.15097
#
# Velocity S-wave (km/s) = 4.32436 2.67299 3.59479
# Velocity P-wave (km/s) = 7.20989 7.26892 7.23946
#
# Compressibility (1/GPa) = 0.01826859
#
# Stress axis : x y z
#
# Youngs Moduli (GPa) = 94.16005 82.97075 53.56821
#
# Poissons Ratio (x) = 0.61906 0.18438
# Poissons Ratio (y) = 0.70255 0.03389
# Poissons Ratio (z) = 0.32410 0.05249
#
# Static dielectric constant tensor:
#      x y z
#    x 1.707310 0.000000 0.000000 
#    y 0.000000 1.688400 0.000000 
#    z 0.000000 0.000000 1.769860 
# 
# From -- ./inp_files/2784.got.cif
#   From: 2010.05.17/outbox.cif.g08.bks.cpg/sg47_2_cif.got.tgz:2784.got - 2010.06.03 20:15:42.
