data_PCOD9387203
_publ_section_title
;
Structure prediction by ZEFSAII (Michael W. Deem and Ramdas Pophale) SiO2 
 PCOD9387203
Probable space group: P M M M
;
_chemical_formula_sum "Si O2"
_cell_formula_units_Z 41
_cell_length_a 7.581927
_cell_length_b 9.734025
_cell_length_c 26.160335
_cell_angle_alpha 90.000000
_cell_angle_beta 90.000000
_cell_angle_gamma 90.000000
_cell_volume 1930.702492
_symmetry_space_group_name_H-M "P M M M"
_symmetry_group_IT_number 47
_symmetry_cell_setting 'orthorhombic'
loop_
_space_group_symop_operation_xyz
x,y,z
-x,-y,z
x,-y,-z
-x,y,-z
-x,-y,-z
x,y,-z
-x,y,z
x,-y,z
loop_
_atom_site_type_symbol
_atom_site_label
_atom_site_fract_x
_atom_site_fract_y
_atom_site_fract_z
Si Si1 0.290784 0.657349 0.888095
Si Si2 0.500000 0.500000 0.500000
Si Si3 0.209820 0.343525 0.000000
Si Si4 0.292335 0.654209 0.701062
Si Si5 0.788662 0.255363 0.500000
Si Si6 0.716537 0.841926 0.793910
Si Si7 0.789244 0.149105 0.388305
O O1 0.500000 0.646109 0.880219
O O2 0.218907 0.500000 0.885593
O O3 0.263610 0.715317 0.945265
O O4 0.224476 0.757540 0.843936
O O5 0.655951 0.381687 0.500000
O O6 0.282956 0.500000 0.000000
O O7 0.000000 0.349655 0.000000
O O8 0.500000 0.641621 0.711981
O O9 0.217358 0.500000 0.702092
O O10 0.222226 0.757092 0.744283
O O11 0.276021 0.726306 0.646281
O O12 0.754141 0.172223 0.447964
O O13 0.000000 0.291374 0.500000
O O14 0.500000 0.844564 0.793830
O O15 0.774252 0.000000 0.793475
O O16 0.000000 0.147565 0.382218
O O17 0.719566 0.000000 0.371315
#
# Coordination Sequence:
#
# PCOD9387203 Si02
#       7
#     8   1   4   8   4   8   8
#     4   9  16  28  49  73  98 129 172 217 263 319
#     4  12  26  40  66  98 128 160 212 248 304 364
#     4   9  17  29  46  71 100 130 164 209 264 318
#     4  10  21  35  56  85 116 145 184 235 285 337
#     4  10  24  43  65  91 128 165 202 254 304 354
#     4   9  17  31  51  76 105 139 177 223 276 327
#     4  10  22  41  62  84 116 158 197 238 293 351
#
# _framework density 21.235792
#
# number of rings (size 3 to 8) (size 9 to 14) (size 15 to 20)
#    0.000    2.439    0.000    1.902    2.732    6.244 
#    0.000    1.951    0.000    7.024    0.000    0.000 
#    0.000    0.000    0.000    0.000    0.000    0.000 
#
# Total GULP energy -228534.591116 kJ/mol
# GULP energy per Si atom -5574.014417 kJ/mol
# Density = 2.118746 g / cm^3
# Si number density = 21.235792 Si / 1000 Ang^3
#
#
#
# Elastic Constant Matrix: (Units=GPa)
#
#
# Indices 1 2 3 4 5 6 
#
# 1 49.9380 18.8363 -1.9490 0.0000 0.0000 0.0000
# 2 18.8363 168.0843 80.9308 0.0000 0.0000 0.0000
# 3 -1.9490 80.9308 158.3924 0.0000 0.0000 0.0000
# 4 0.0000 0.0000 0.0000 21.6147 0.0000 0.0000
# 5 0.0000 0.0000 0.0000 0.0000 31.6983 0.0000
# 6 0.0000 0.0000 0.0000 0.0000 0.0000 10.5863
#
#
#
# Elastic Compliance Matrix: (Units=1/GPa)
#
#
# Indices 1 2 3 4 5 6 
#
# 1 0.021363 -0.003343 0.001971 0.000000 0.000000 0.000000
# 2 -0.003343 0.008414 -0.004340 0.000000 0.000000 0.000000
# 3 0.001971 -0.004340 0.008555 0.000000 0.000000 0.000000
# 4 0.000000 0.000000 0.000000 0.046265 0.000000 0.000000
# 5 0.000000 0.000000 0.000000 0.000000 0.031547 0.000000
# 6 0.000000 0.000000 0.000000 0.000000 0.000000 0.094462
#
#
# Mechanical properties :
#
#
# Convention : Reuss Voigt Hill
#
# Bulk Modulus (GPa) = 37.16449 63.56120 50.36284
# Shear Modulus (GPa) = 21.64508 31.35296 26.49902
#
# Velocity S-wave (km/s) = 3.19607 3.84659 3.53632
# Velocity P-wave (km/s) = 5.58200 7.05156 6.35937
#
# Compressibility (1/GPa) = 0.02690741
#
# Stress axis : x y z
#
# Youngs Moduli (GPa) = 46.81052 118.85277 116.88660
#
# Poissons Ratio (x) = 0.39733 -0.23038
# Poissons Ratio (y) = 0.15649 0.50731
# Poissons Ratio (z) = -0.09226 0.51584
#
# Static dielectric constant tensor:
#      x y z
#    x 1.795690 0.000000 0.000000 
#    y 0.000000 1.758510 0.000000 
#    z 0.000000 0.000000 1.761530 
# 
# From -- ./inp_files/33126.got.cif
#   From: 2010.05.17/outbox.cif.g08.bks.cpg/sg47_17_cif.got.tgz:33126.got - 2010.06.03 20:15:42.
