data_PCOD9387356
_publ_section_title
;
Structure prediction by ZEFSAII (Michael W. Deem and Ramdas Pophale) SiO2 
 PCOD9387356
Probable space group: P M M M
;
_chemical_formula_sum "Si O2"
_cell_formula_units_Z 44
_cell_length_a 9.780726
_cell_length_b 15.187557
_cell_length_c 16.610947
_cell_angle_alpha 90.000000
_cell_angle_beta 90.000000
_cell_angle_gamma 90.000000
_cell_volume 2467.478664
_symmetry_space_group_name_H-M "P M M M"
_symmetry_group_IT_number 47
_symmetry_cell_setting 'orthorhombic'
loop_
_space_group_symop_operation_xyz
x,y,z
-x,-y,z
x,-y,-z
-x,y,-z
-x,-y,-z
x,y,-z
-x,y,z
x,-y,z
loop_
_atom_site_type_symbol
_atom_site_label
_atom_site_fract_x
_atom_site_fract_y
_atom_site_fract_z
Si Si1 0.160312 0.754333 0.826545
Si Si2 0.653514 0.899187 0.096676
Si Si3 0.655905 0.597615 0.402954
Si Si4 0.833991 0.100988 0.500000
Si Si5 0.338765 0.604222 0.904279
Si Si6 0.160011 0.237107 0.637591
O O1 0.232285 0.833159 0.873842
O O2 0.243043 0.666365 0.851000
O O3 0.172033 0.778865 0.732467
O O4 0.000000 0.744172 0.845767
O O5 0.500000 0.872208 0.123309
O O6 0.676607 0.000000 0.122987
O O7 0.652462 0.898823 0.000000
O O8 0.652758 0.595567 0.500000
O O9 0.500000 0.612751 0.374991
O O10 0.698842 0.500000 0.374917
O O11 0.754392 0.675518 0.378970
O O12 0.794144 0.157706 0.421058
O O13 0.000000 0.096632 0.500000
O O14 0.784110 0.000000 0.500000
O O15 0.500000 0.621591 0.888849
O O16 0.314953 0.500000 0.890711
O O17 0.315396 0.621631 0.000000
O O18 0.000000 0.252897 0.619096
#
# Coordination Sequence:
#
# PCOD9387356 Si02
#       6
#     8   8   8   4   8   8
#     4  11  23  34  50  82 117 144 175 222 277 328
#     4   9  19  37  59  80 104 139 182 222 263 321
#     4   9  18  33  54  79 105 134 169 213 266 316
#     4   9  18  36  60  77  94 132 183 225 262 311
#     4   9  19  37  59  80 105 145 194 231 262 313
#     4  10  21  36  54  78 107 141 181 221 264 319
#
# _framework density 17.831966999999999
#
# number of rings (size 3 to 8) (size 9 to 14) (size 15 to 20)
#    0.000    2.455    0.909    2.727    0.000    6.909 
#    0.000    8.182    0.000    1.091    0.000    0.000 
#    0.000    0.000    0.000    0.000    0.000    0.000 
#
# Total GULP energy -245349.411948 kJ/mol
# GULP energy per Si atom -5576.122999 kJ/mol
# Density = 1.779138 g / cm^3
# Si number density = 17.831967 Si / 1000 Ang^3
#
#
#
# Elastic Constant Matrix: (Units=GPa)
#
#
# Indices 1 2 3 4 5 6 
#
# 1 82.6139 73.5011 48.7576 0.0000 0.0000 0.0000
# 2 73.5011 131.8751 51.6871 0.0000 0.0000 0.0000
# 3 48.7576 51.6871 54.8994 0.0000 0.0000 0.0000
# 4 0.0000 0.0000 0.0000 -97.6341 0.0000 0.0000
# 5 0.0000 0.0000 0.0000 0.0000 18.1513 0.0000
# 6 0.0000 0.0000 0.0000 0.0000 0.0000 18.6534
#
#
#
# Elastic Compliance Matrix: (Units=1/GPa)
#
#
# Indices 1 2 3 4 5 6 
#
# 1 0.033158 -0.010996 -0.019095 0.000000 0.000000 0.000000
# 2 -0.010996 0.015664 -0.004982 0.000000 0.000000 0.000000
# 3 -0.019095 -0.004982 0.039864 0.000000 0.000000 0.000000
# 4 0.000000 0.000000 0.000000 -0.010242 0.000000 0.000000
# 5 0.000000 0.000000 0.000000 0.000000 0.055092 0.000000
# 6 0.000000 0.000000 0.000000 0.000000 0.000000 0.053610
#
#
# Mechanical properties :
#
#
# Convention : Reuss Voigt Hill
#
# Bulk Modulus (GPa) = 53.93799 68.58667 61.26233
# Shear Modulus (GPa) = 18.97734 -5.80304 6.58715
#
# Velocity S-wave (km/s) = 3.26580 -1.80592 1.92407
# Velocity P-wave (km/s) = 6.67339 5.84789 6.27423
#
# Compressibility (1/GPa) = 0.01853981
#
# Stress axis : x y z
#
# Youngs Moduli (GPa) = 30.15898 63.83949 25.08516
#
# Poissons Ratio (x) = 0.70200 0.47901
# Poissons Ratio (y) = 0.33164 0.12496
# Poissons Ratio (z) = 0.57589 0.31802
#
# Static dielectric constant tensor:
#      x y z
#    x 1.593520 0.000000 0.000000 
#    y 0.000000 1.604600 0.000000 
#    z 0.000000 0.000000 1.593830 
# 
# From -- ./inp_files/20923.got.cif
#   From: 2010.05.17/outbox.cif.g08.bks.cpg/sg47_11_cif.got.tgz:20923.got - 2010.06.03 20:15:42.
