data_PCOD9387610
_publ_section_title
;
Structure prediction by ZEFSAII (Michael W. Deem and Ramdas Pophale) SiO2 
 PCOD9387610
Probable space group: P M M M
;
_chemical_formula_sum "Si O2"
_cell_formula_units_Z 48
_cell_length_a 7.393182
_cell_length_b 9.076394
_cell_length_c 37.458326
_cell_angle_alpha 90.000000
_cell_angle_beta 90.000000
_cell_angle_gamma 90.000000
_cell_volume 2513.582260
_symmetry_space_group_name_H-M "P M M M"
_symmetry_group_IT_number 47
_symmetry_cell_setting 'orthorhombic'
loop_
_space_group_symop_operation_xyz
x,y,z
-x,-y,z
x,-y,-z
-x,y,-z
-x,-y,-z
x,y,-z
-x,y,z
x,-y,z
loop_
_atom_site_type_symbol
_atom_site_label
_atom_site_fract_x
_atom_site_fract_y
_atom_site_fract_z
Si Si1 0.000000 0.324001 0.197178
Si Si2 0.713003 0.173736 0.333873
Si Si3 0.283570 0.825715 0.853934
Si Si4 0.278970 0.170082 0.000000
Si Si5 0.714971 0.673984 0.592082
Si Si6 0.000000 0.176291 0.726096
Si Si7 0.000000 0.823808 0.541728
Si Si8 0.720114 0.669392 0.927664
O O1 0.827074 0.258581 0.176315
O O2 0.000000 0.265129 0.237472
O O3 0.000000 0.500000 0.195778
O O4 0.500000 0.196479 0.327564
O O5 0.766571 0.264740 0.368860
O O6 0.828355 0.210325 0.299030
O O7 0.742643 0.000000 0.341504
O O8 0.500000 0.805766 0.849842
O O9 0.229343 0.759558 0.892393
O O10 0.245538 0.000000 0.852681
O O11 0.220311 0.253037 0.035857
O O12 0.500000 0.171376 0.000000
O O13 0.223096 0.000000 0.000000
O O14 0.500000 0.698984 0.587921
O O15 0.750001 0.500000 0.590206
O O16 0.827465 0.757505 0.562077
O O17 0.000000 0.000000 0.733635
O O18 0.000000 0.784476 0.500000
O O19 0.000000 0.000000 0.544892
O O20 0.500000 0.668493 0.928479
O O21 0.779617 0.500000 0.925628
#
# Coordination Sequence:
#
# PCOD9387610 Si02
#       8
#     4   8   8   4   8   4   4   8
#     4  12  26  41  59  85 117 152 188 230 282 337
#     4   9  18  34  58  86 115 149 188 230 279 338
#     4  10  21  39  62  84 109 146 191 235 278 330
#     4   9  15  23  39  68 105 142 182 225 270 324
#     4  10  21  37  59  87 118 152 190 236 292 350
#     4  10  21  37  56  81 113 147 185 227 274 331
#     4  11  24  39  56  80 112 155 205 252 295 340
#     4   9  16  27  46  74 107 141 179 226 279 330
#
# _framework density 19.096250999999999
#
# number of rings (size 3 to 8) (size 9 to 14) (size 15 to 20)
#    0.000    2.167    0.000    3.250    0.000    8.000 
#    0.000    3.333    0.000    0.500    0.000    3.500 
#    0.000    0.000    0.000    0.000    0.000    0.000 
#
# Total GULP energy -268270.392555 kJ/mol
# GULP energy per Si atom -5588.966512 kJ/mol
# Density = 1.905279 g / cm^3
# Si number density = 19.096251 Si / 1000 Ang^3
#
#
#
# Elastic Constant Matrix: (Units=GPa)
#
#
# Indices 1 2 3 4 5 6 
#
# 1 82.2101 59.7283 69.9470 0.0000 0.0000 0.0000
# 2 59.7283 148.6417 115.9123 0.0000 0.0000 0.0000
# 3 69.9470 115.9123 198.7697 0.0000 0.0000 0.0000
# 4 0.0000 0.0000 0.0000 -154.2452 0.0000 0.0000
# 5 0.0000 0.0000 0.0000 0.0000 167.2447 0.0000
# 6 0.0000 0.0000 0.0000 0.0000 0.0000 19.7996
#
#
#
# Elastic Compliance Matrix: (Units=1/GPa)
#
#
# Indices 1 2 3 4 5 6 
#
# 1 0.018808 -0.004395 -0.004056 0.000000 0.000000 0.000000
# 2 -0.004395 0.013365 -0.006247 0.000000 0.000000 0.000000
# 3 -0.004056 -0.006247 0.010101 0.000000 0.000000 0.000000
# 4 0.000000 0.000000 0.000000 -0.006483 0.000000 0.000000
# 5 0.000000 0.000000 0.000000 0.000000 0.005979 0.000000
# 6 0.000000 0.000000 0.000000 0.000000 0.000000 0.050506
#
#
# Mechanical properties :
#
#
# Convention : Reuss Voigt Hill
#
# Bulk Modulus (GPa) = 77.64853 102.31075 89.97964
# Shear Modulus (GPa) = 39.69360 18.82874 29.26117
#
# Velocity S-wave (km/s) = 4.56412 3.14346 3.91871
# Velocity P-wave (km/s) = 8.27797 8.17727 8.22778
#
# Compressibility (1/GPa) = 0.01287854
#
# Stress axis : x y z
#
# Youngs Moduli (GPa) = 53.17020 74.82013 98.99731
#
# Poissons Ratio (x) = 0.32882 0.40149
# Poissons Ratio (y) = 0.23368 0.61848
# Poissons Ratio (z) = 0.21563 0.46744
#
# Static dielectric constant tensor:
#      x y z
#    x 1.701900 0.000000 0.000000 
#    y 0.000000 1.634240 0.000000 
#    z 0.000000 0.000000 1.612540 
# 
# From -- ./inp_files/34237.got.cif
#   From: 2010.05.17/outbox.cif.g08.bks.cpg/sg47_18_cif.got.tgz:34237.got - 2010.06.03 20:15:42.
