data_PCOD9387509
_publ_section_title
;
Structure prediction by ZEFSAII (Michael W. Deem and Ramdas Pophale) SiO2 
 PCOD9387509
Probable space group: P M M M
;
_chemical_formula_sum "Si O2"
_cell_formula_units_Z 37
_cell_length_a 7.861346
_cell_length_b 13.416021
_cell_length_c 16.952973
_cell_angle_alpha 90.000000
_cell_angle_beta 90.000000
_cell_angle_gamma 90.000000
_cell_volume 1787.995869
_symmetry_space_group_name_H-M "P M M M"
_symmetry_group_IT_number 47
_symmetry_cell_setting 'orthorhombic'
loop_
_space_group_symop_operation_xyz
x,y,z
-x,-y,z
x,-y,-z
-x,y,-z
-x,-y,-z
x,y,-z
-x,y,z
x,-y,z
loop_
_atom_site_type_symbol
_atom_site_label
_atom_site_fract_x
_atom_site_fract_y
_atom_site_fract_z
Si Si1 0.704311 0.610016 0.593617
Si Si2 0.800692 0.709693 0.842404
Si Si3 0.500000 0.000000 0.000000
Si Si4 0.209038 0.000000 0.591755
Si Si5 0.802923 0.838108 0.000000
Si Si6 0.300389 0.500000 0.910130
Si Si7 0.801589 0.195161 0.685504
O O1 0.736132 0.613493 0.500000
O O2 0.500000 0.616316 0.605016
O O3 0.759680 0.500000 0.622588
O O4 0.787438 0.704806 0.633945
O O5 0.740702 0.598685 0.860774
O O6 0.723488 0.772086 0.769553
O O7 0.000000 0.699877 0.824096
O O8 0.782947 0.770938 0.922521
O O9 0.651497 0.915531 0.000000
O O10 0.267567 0.900614 0.638332
O O11 0.263341 0.000000 0.500000
O O12 0.000000 0.000000 0.589856
O O13 0.000000 0.876366 0.000000
O O14 0.500000 0.500000 0.920970
O O15 0.222668 0.500000 0.000000
O O16 0.000000 0.169798 0.698601
#
# Coordination Sequence:
#
# PCOD9387509 Si02
#       7
#     8   8   1   4   4   4   8
#     4   9  19  36  55  78 114 156 193 239 306 373
#     4  10  22  39  61  89 126 165 207 255 317 387
#     4  12  26  40  72  92 124 160 224 280 316 384
#     4   9  18  35  59  85 115 151 193 250 313 365
#     4  10  23  44  66  93 128 175 217 265 330 386
#     4  11  23  37  63  91 122 161 206 259 314 385
#     4  10  21  36  59  88 116 152 203 256 303 367
#
# _framework density 20.693560000000002
#
# number of rings (size 3 to 8) (size 9 to 14) (size 15 to 20)
#    0.000    2.162    1.081    1.784    3.027    3.892 
#    0.000    4.865    0.000    1.946    0.000    0.000 
#    0.000    0.000    0.000    0.000    0.000    0.000 
#
# Total GULP energy -206140.671574 kJ/mol
# GULP energy per Si atom -5571.369502 kJ/mol
# Density = 2.064646 g / cm^3
# Si number density = 20.693560 Si / 1000 Ang^3
#
#
#
# Elastic Constant Matrix: (Units=GPa)
#
#
# Indices 1 2 3 4 5 6 
#
# 1 51.6427 39.8621 20.0147 0.0000 0.0000 0.0000
# 2 39.8621 179.2775 88.1299 0.0000 0.0000 0.0000
# 3 20.0147 88.1299 139.5575 0.0000 0.0000 0.0000
# 4 0.0000 0.0000 0.0000 -10.1270 0.0000 0.0000
# 5 0.0000 0.0000 0.0000 0.0000 10.1894 0.0000
# 6 0.0000 0.0000 0.0000 0.0000 0.0000 28.1140
#
#
#
# Elastic Compliance Matrix: (Units=1/GPa)
#
#
# Indices 1 2 3 4 5 6 
#
# 1 0.023377 -0.005148 -0.000102 0.000000 0.000000 0.000000
# 2 -0.005148 0.009223 -0.005086 0.000000 0.000000 0.000000
# 3 -0.000102 -0.005086 0.010392 0.000000 0.000000 0.000000
# 4 0.000000 0.000000 0.000000 -0.098746 0.000000 0.000000
# 5 0.000000 0.000000 0.000000 0.000000 0.098141 0.000000
# 6 0.000000 0.000000 0.000000 0.000000 0.000000 0.035570
#
#
# Mechanical properties :
#
#
# Convention : Reuss Voigt Hill
#
# Bulk Modulus (GPa) = 44.80196 74.05456 59.42826
# Shear Modulus (GPa) = 47.14007 20.46666 33.80337
#
# Velocity S-wave (km/s) = 4.77802 3.14830 4.04607
# Velocity P-wave (km/s) = 7.22056 7.00569 7.11394
#
# Compressibility (1/GPa) = 0.02232045
#
# Stress axis : x y z
#
# Youngs Moduli (GPa) = 42.77758 108.42905 96.23011
#
# Poissons Ratio (x) = 0.55816 0.00980
# Poissons Ratio (y) = 0.22021 0.48941
# Poissons Ratio (z) = 0.00436 0.55145
#
# Static dielectric constant tensor:
#      x y z
#    x 1.748000 0.000000 0.000000 
#    y 0.000000 1.715770 0.000000 
#    z 0.000000 0.000000 1.772070 
# 
# From -- ./inp_files/26185.got.cif
#   From: 2010.05.17/outbox.cif.g08.bks.cpg/sg47_14_cif.got.tgz:26185.got - 2010.06.03 20:15:42.
