data_PCOD9387671
_publ_section_title
;
Structure prediction by ZEFSAII (Michael W. Deem and Ramdas Pophale) SiO2 
 PCOD9387671
Probable space group: P M M M
;
_chemical_formula_sum "Si O2"
_cell_formula_units_Z 48
_cell_length_a 9.566299
_cell_length_b 32.060780
_cell_length_c 7.734783
_cell_angle_alpha 90.000000
_cell_angle_beta 90.000000
_cell_angle_gamma 90.000000
_cell_volume 2372.281210
_symmetry_space_group_name_H-M "P M M M"
_symmetry_group_IT_number 47
_symmetry_cell_setting 'orthorhombic'
loop_
_space_group_symop_operation_xyz
x,y,z
-x,-y,z
x,-y,-z
-x,y,-z
-x,-y,-z
x,y,-z
-x,y,z
x,-y,z
loop_
_atom_site_type_symbol
_atom_site_label
_atom_site_fract_x
_atom_site_fract_y
_atom_site_fract_z
Si Si1 0.839716 0.658518 0.207559
Si Si2 0.658899 0.581093 0.207445
Si Si3 0.339967 0.078861 0.207544
Si Si4 0.840424 0.500000 0.706191
Si Si5 0.840671 0.248637 0.708318
Si Si6 0.340739 0.171266 0.708088
Si Si7 0.839341 0.000000 0.787901
O O1 0.739289 0.622116 0.274302
O O2 0.788010 0.705149 0.247157
O O3 0.000000 0.654516 0.273465
O O4 0.846326 0.654495 0.000000
O O5 0.500000 0.576781 0.273934
O O6 0.753579 0.540776 0.241371
O O7 0.649104 0.585263 0.000000
O O8 0.500000 0.075450 0.273674
O O9 0.285929 0.125154 0.249116
O O10 0.243223 0.041294 0.269795
O O11 0.346558 0.075408 0.000000
O O12 0.849223 0.500000 0.500000
O O13 0.000000 0.500000 0.775382
O O14 0.844455 0.245987 0.500000
O O15 0.749483 0.210039 0.773204
O O16 0.000000 0.245769 0.773039
O O17 0.345298 0.174234 0.500000
O O18 0.500000 0.173543 0.773784
O O19 0.000000 0.000000 0.732592
O O20 0.838980 0.000000 0.000000
#
# Coordination Sequence:
#
# PCOD9387671 Si02
#       7
#     8   8   8   4   8   8   4
#     4   9  18  33  52  74 101 133 168 205 246 294
#     4  10  21  37  57  81 108 138 172 211 257 306
#     4   9  17  30  48  68  90 119 154 190 230 278
#     4  11  24  39  56  80 108 139 176 215 254 300
#     4   9  18  32  49  69  95 128 163 199 241 288
#     4   9  18  32  48  67  93 124 157 193 235 284
#     4   9  17  29  46  69  94 118 148 189 234 278
#
# _framework density 20.233688000000001
#
# number of rings (size 3 to 8) (size 9 to 14) (size 15 to 20)
#    0.000    2.667    0.000    1.250    0.000    6.333 
#    0.000    2.083    0.000    2.500    0.000    0.000 
#    0.000    0.000    0.000    0.000    0.000    0.000 
#
# Total GULP energy -267856.220795 kJ/mol
# GULP energy per Si atom -5580.337933 kJ/mol
# Density = 2.018763 g / cm^3
# Si number density = 20.233688 Si / 1000 Ang^3
#
#
#
# Elastic Constant Matrix: (Units=GPa)
#
#
# Indices 1 2 3 4 5 6 
#
# 1 129.7813 126.5486 6.2797 0.0000 0.0000 0.0000
# 2 126.5486 235.0075 -1.1212 0.0000 0.0000 0.0000
# 3 6.2797 -1.1212 29.3560 0.0000 0.0000 0.0000
# 4 0.0000 0.0000 0.0000 31.1812 0.0000 0.0000
# 5 0.0000 0.0000 0.0000 0.0000 10.1751 0.0000
# 6 0.0000 0.0000 0.0000 0.0000 0.0000 40.6593
#
#
#
# Elastic Compliance Matrix: (Units=1/GPa)
#
#
# Indices 1 2 3 4 5 6 
#
# 1 0.016661 -0.008990 -0.003907 0.000000 0.000000 0.000000
# 2 -0.008990 0.009107 0.002271 0.000000 0.000000 0.000000
# 3 -0.003907 0.002271 0.034987 0.000000 0.000000 0.000000
# 4 0.000000 0.000000 0.000000 0.032071 0.000000 0.000000
# 5 0.000000 0.000000 0.000000 0.000000 0.098280 0.000000
# 6 0.000000 0.000000 0.000000 0.000000 0.000000 0.024595
#
#
# Mechanical properties :
#
#
# Convention : Reuss Voigt Hill
#
# Bulk Modulus (GPa) = 25.31528 73.06213 49.18871
# Shear Modulus (GPa) = 19.99043 33.89895 26.94469
#
# Velocity S-wave (km/s) = 3.14662 4.09757 3.65317
# Velocity P-wave (km/s) = 5.07348 7.65339 6.49286
#
# Compressibility (1/GPa) = 0.03950183
#
# Stress axis : x y z
#
# Youngs Moduli (GPa) = 60.02217 109.80463 28.58192
#
# Poissons Ratio (x) = 0.98716 0.11168
# Poissons Ratio (y) = 0.53961 -0.06491
# Poissons Ratio (z) = 0.23452 -0.24936
#
# Static dielectric constant tensor:
#      x y z
#    x 1.717060 0.000000 0.000000 
#    y 0.000000 1.693280 0.000000 
#    z 0.000000 0.000000 1.741640 
# 
# From -- ./inp_files/2755.got.cif
#   From: 2010.05.17/outbox.cif.g08.bks.cpg/sg47_2_cif.got.tgz:2755.got - 2010.06.03 20:15:42.
