data_PCOD9387526
_publ_section_title
;
Structure prediction by ZEFSAII (Michael W. Deem and Ramdas Pophale) SiO2 
 PCOD9387526
Probable space group: P M M M
;
_chemical_formula_sum "Si O2"
_cell_formula_units_Z 44
_cell_length_a 18.076844
_cell_length_b 15.410904
_cell_length_c 8.454744
_cell_angle_alpha 90.000000
_cell_angle_beta 90.000000
_cell_angle_gamma 90.000000
_cell_volume 2355.326874
_symmetry_space_group_name_H-M "P M M M"
_symmetry_group_IT_number 47
_symmetry_cell_setting 'orthorhombic'
loop_
_space_group_symop_operation_xyz
x,y,z
-x,-y,z
x,-y,-z
-x,y,-z
-x,-y,-z
x,y,-z
-x,y,z
x,-y,z
loop_
_atom_site_type_symbol
_atom_site_label
_atom_site_fract_x
_atom_site_fract_y
_atom_site_fract_z
Si Si1 0.231584 0.250224 0.188792
Si Si2 0.660439 0.900198 0.806106
Si Si3 0.089463 0.500000 0.821275
Si Si4 0.662259 0.600277 0.691794
Si Si5 0.500000 0.105804 0.817973
Si Si6 0.500000 0.605621 0.682216
Si Si7 0.915690 0.313571 0.687989
O O1 0.276283 0.165548 0.244116
O O2 0.275552 0.333998 0.251841
O O3 0.146952 0.252073 0.243125
O O4 0.233542 0.252717 0.000000
O O5 0.579202 0.869938 0.747317
O O6 0.672691 0.000000 0.758549
O O7 0.657280 0.900056 0.000000
O O8 0.108405 0.588595 0.733852
O O9 0.000000 0.500000 0.828532
O O10 0.118700 0.500000 0.000000
O O11 0.659727 0.600675 0.500000
O O12 0.675525 0.500000 0.740235
O O13 0.580137 0.628914 0.751808
O O14 0.500000 0.000000 0.822300
O O15 0.500000 0.136505 0.000000
O O16 0.500000 0.500000 0.678168
O O17 0.500000 0.636122 0.500000
O O18 0.916872 0.306612 0.500000
O O19 0.000000 0.299879 0.747157
#
# Coordination Sequence:
#
# PCOD9387526 Si02
#       7
#     8   8   4   8   4   4   8
#     4  11  22  32  49  78 106 132 165 214 267 309
#     4   8  15  29  48  72 103 137 171 208 256 310
#     4   9  17  31  53  79 103 126 157 204 257 301
#     4   9  18  33  51  69  96 136 177 212 246 296
#     4   7  10  21  44  70  98 133 168 203 248 306
#     4   7  12  27  49  67  86 127 182 217 239 279
#     4  10  21  37  55  73  98 135 175 209 249 310
#
# _framework density 18.681059999999999
#
# number of rings (size 3 to 8) (size 9 to 14) (size 15 to 20)
#    0.000    3.000    0.000    3.545    1.273    3.273 
#    0.000    1.364    0.000    4.364    0.000    3.818 
#    0.000   10.909    0.000    0.000    0.000    0.000 
#
# Total GULP energy -245213.051191 kJ/mol
# GULP energy per Si atom -5573.023891 kJ/mol
# Density = 1.863854 g / cm^3
# Si number density = 18.681060 Si / 1000 Ang^3
#
#
#
# Elastic Constant Matrix: (Units=GPa)
#
#
# Indices 1 2 3 4 5 6 
#
# 1 157.0118 72.2298 20.6738 0.0000 0.0000 0.0000
# 2 72.2298 79.9820 12.8318 0.0000 0.0000 0.0000
# 3 20.6738 12.8318 19.8531 0.0000 0.0000 0.0000
# 4 0.0000 0.0000 0.0000 30.3252 0.0000 0.0000
# 5 0.0000 0.0000 0.0000 0.0000 17.1893 0.0000
# 6 0.0000 0.0000 0.0000 0.0000 0.0000 36.3398
#
#
#
# Elastic Compliance Matrix: (Units=1/GPa)
#
#
# Indices 1 2 3 4 5 6 
#
# 1 0.011475 -0.009423 -0.005859 0.000000 0.000000 0.000000
# 2 -0.009423 0.021687 -0.004205 0.000000 0.000000 0.000000
# 3 -0.005859 -0.004205 0.059189 0.000000 0.000000 0.000000
# 4 0.000000 0.000000 0.000000 0.032976 0.000000 0.000000
# 5 0.000000 0.000000 0.000000 0.000000 0.058176 0.000000
# 6 0.000000 0.000000 0.000000 0.000000 0.000000 0.027518
#
#
# Mechanical properties :
#
#
# Convention : Reuss Voigt Hill
#
# Bulk Modulus (GPa) = 18.73447 52.03531 35.38489
# Shear Modulus (GPa) = 18.67155 26.84497 22.75826
#
# Velocity S-wave (km/s) = 3.16490 3.79491 3.49413
# Velocity P-wave (km/s) = 4.83796 6.86417 5.93813
#
# Compressibility (1/GPa) = 0.05337753
#
# Stress axis : x y z
#
# Youngs Moduli (GPa) = 87.14374 46.11034 16.89508
#
# Poissons Ratio (x) = 0.43450 0.09899
# Poissons Ratio (y) = 0.82116 0.07104
# Poissons Ratio (z) = 0.51059 0.19388
#
# Static dielectric constant tensor:
#      x y z
#    x 1.697470 0.000000 0.000000 
#    y 0.000000 1.636590 0.000000 
#    z 0.000000 0.000000 1.650370 
# 
# From -- ./inp_files/9033.got.cif
#   From: 2010.05.17/outbox.cif.g08.bks.cpg/sg47_5_cif.got.tgz:9033.got - 2010.06.03 20:15:42.
