data_PCOD9387361
_publ_section_title
;
Structure prediction by ZEFSAII (Michael W. Deem and Ramdas Pophale) SiO2 
 PCOD9387361
Probable space group: P M M M
;
_chemical_formula_sum "Si O2"
_cell_formula_units_Z 40
_cell_length_a 9.397088
_cell_length_b 26.586085
_cell_length_c 8.160556
_cell_angle_alpha 90.000000
_cell_angle_beta 90.000000
_cell_angle_gamma 90.000000
_cell_volume 2038.766234
_symmetry_space_group_name_H-M "P M M M"
_symmetry_group_IT_number 47
_symmetry_cell_setting 'orthorhombic'
loop_
_space_group_symop_operation_xyz
x,y,z
-x,-y,z
x,-y,-z
-x,y,-z
-x,-y,-z
x,y,-z
-x,y,z
x,-y,z
loop_
_atom_site_type_symbol
_atom_site_label
_atom_site_fract_x
_atom_site_fract_y
_atom_site_fract_z
Si Si1 0.336218 0.097611 0.697857
Si Si2 0.163515 0.500000 0.803765
Si Si3 0.336734 0.401771 0.301949
Si Si4 0.663634 0.208099 0.195600
Si Si5 0.837792 0.695332 0.697200
Si Si6 0.836778 0.000000 0.299300
O O1 0.336027 0.097143 0.500000
O O2 0.500000 0.091760 0.753233
O O3 0.285967 0.152518 0.753496
O O4 0.243451 0.050519 0.754731
O O5 0.247669 0.549298 0.746399
O O6 0.000000 0.500000 0.742956
O O7 0.160123 0.500000 0.000000
O O8 0.341258 0.399828 0.500000
O O9 0.500000 0.404151 0.243032
O O10 0.256299 0.351625 0.242385
O O11 0.500000 0.213934 0.256946
O O12 0.761918 0.252532 0.260070
O O13 0.660667 0.210704 0.000000
O O14 0.843163 0.691529 0.500000
O O15 0.000000 0.693112 0.759022
O O16 0.833988 0.000000 0.500000
O O17 0.000000 0.000000 0.247546
#
# Coordination Sequence:
#
# PCOD9387361 Si02
#       6
#     8   4   8   8   8   4
#     4   9  17  31  52  75 100 133 173 216 262 313
#     4  11  24  39  56  82 116 151 184 219 264 318
#     4  10  21  38  61  86 110 140 181 226 270 317
#     4  10  21  36  54  78 108 142 179 219 266 319
#     4  10  21  37  58  83 109 140 179 222 269 319
#     4   9  17  29  48  75 102 128 166 217 266 311
#
# _framework density 19.619709
#
# number of rings (size 3 to 8) (size 9 to 14) (size 15 to 20)
#    0.000    2.200    0.000    2.700    0.000    8.400 
#    0.000    2.500    0.000    3.000    0.000    0.000 
#    0.000    0.000    0.000    0.000    0.000    0.000 
#
# Total GULP energy -223403.611509 kJ/mol
# GULP energy per Si atom -5585.090288 kJ/mol
# Density = 1.957505 g / cm^3
# Si number density = 19.619709 Si / 1000 Ang^3
#
#
#
# Elastic Constant Matrix: (Units=GPa)
#
#
# Indices 1 2 3 4 5 6 
#
# 1 173.1869 134.6906 15.4513 0.0000 0.0000 0.0000
# 2 134.6906 215.4467 8.4242 0.0000 0.0000 0.0000
# 3 15.4513 8.4242 8.4242 0.0000 0.0000 0.0000
# 4 0.0000 0.0000 0.0000 -84.5746 0.0000 0.0000
# 5 0.0000 0.0000 0.0000 0.0000 17.7674 0.0000
# 6 0.0000 0.0000 0.0000 0.0000 0.0000 -189.3835
#
#
#
# Elastic Compliance Matrix: (Units=1/GPa)
#
#
# Indices 1 2 3 4 5 6 
#
# 1 0.013129 -0.007562 -0.016519 0.000000 0.000000 0.000000
# 2 -0.007562 0.009186 0.004684 0.000000 0.000000 0.000000
# 3 -0.016519 0.004684 0.144320 0.000000 0.000000 0.000000
# 4 0.000000 0.000000 0.000000 -0.011824 0.000000 0.000000
# 5 0.000000 0.000000 0.000000 0.000000 0.056283 0.000000
# 6 0.000000 0.000000 0.000000 0.000000 0.000000 -0.005280
#
#
# Mechanical properties :
#
#
# Convention : Reuss Voigt Hill
#
# Bulk Modulus (GPa) = 7.82218 79.35445 43.58832
# Shear Modulus (GPa) = 17.40822 -35.33870 -8.96524
#
# Velocity S-wave (km/s) = 2.98196 -4.24864 -2.13996
# Velocity P-wave (km/s) = 3.98142 4.05785 4.01982
#
# Compressibility (1/GPa) = 0.12784159
#
# Stress axis : x y z
#
# Youngs Moduli (GPa) = 76.16818 108.86356 6.92904
#
# Poissons Ratio (x) = 0.82321 0.11446
# Poissons Ratio (y) = 0.57597 -0.03245
# Poissons Ratio (z) = 1.25819 -0.50989
#
# Static dielectric constant tensor:
#      x y z
#    x 1.682280 0.000000 0.000000 
#    y 0.000000 1.647830 0.000000 
#    z 0.000000 0.000000 1.684380 
# 
# From -- ./inp_files/1751.got.cif
#   From: 2010.05.17/outbox.cif.g08.bks.cpg/sg47_1_cif.got.tgz:1751.got - 2010.06.03 20:15:42.
