data_PCOD9387897
_publ_section_title
;
Structure prediction by ZEFSAII (Michael W. Deem and Ramdas Pophale) SiO2 
 PCOD9387897
Probable space group: P M M M
;
_chemical_formula_sum "Si O2"
_cell_formula_units_Z 40
_cell_length_a 7.457787
_cell_length_b 28.656993
_cell_length_c 9.195406
_cell_angle_alpha 90.000000
_cell_angle_beta 90.000000
_cell_angle_gamma 90.000000
_cell_volume 1965.221479
_symmetry_space_group_name_H-M "P M M M"
_symmetry_group_IT_number 47
_symmetry_cell_setting 'orthorhombic'
loop_
_space_group_symop_operation_xyz
x,y,z
-x,-y,z
x,-y,-z
-x,y,-z
-x,-y,-z
x,y,-z
-x,y,z
x,-y,z
loop_
_atom_site_type_symbol
_atom_site_label
_atom_site_fract_x
_atom_site_fract_y
_atom_site_fract_z
Si Si1 0.281772 0.285958 0.666746
Si Si2 0.787625 0.000000 0.334528
Si Si3 0.285801 0.618681 0.172424
Si Si4 0.000000 0.555474 0.327336
Si Si5 0.719597 0.192865 0.833020
Si Si6 0.712609 0.898373 0.334327
O O1 0.221649 0.289399 0.500000
O O2 0.500000 0.284897 0.665108
O O3 0.232176 0.331456 0.758970
O O4 0.223061 0.237993 0.741776
O O5 0.737490 0.950084 0.268791
O O6 0.710606 0.000000 0.500000
O O7 0.000000 0.000000 0.344409
O O8 0.500000 0.612730 0.194093
O O9 0.172278 0.579232 0.252974
O O10 0.250949 0.618355 0.000000
O O11 0.000000 0.500000 0.305389
O O12 0.000000 0.564941 0.500000
O O13 0.500000 0.192794 0.832649
O O14 0.781425 0.144766 0.759206
O O15 0.775920 0.196185 0.000000
O O16 0.785827 0.898278 0.500000
O O17 0.500000 0.891405 0.345905
#
# Coordination Sequence:
#
# PCOD9387897 Si02
#       6
#     8   4   8   4   8   8
#     4   9  16  28  50  80 112 145 181 222 271 331
#     4   9  17  29  46  65  86 116 154 199 250 304
#     4  10  21  38  62  91 123 160 201 247 301 358
#     4  11  25  43  63  89 123 163 207 254 299 346
#     4   9  16  26  43  70 102 132 165 209 260 314
#     4   9  16  27  45  68  91 117 155 202 250 304
#
# _framework density 20.353940000000001
#
# number of rings (size 3 to 8) (size 9 to 14) (size 15 to 20)
#    0.000    2.600    0.000    2.400    0.000    8.400 
#    0.000    2.500    2.200    3.600    0.000    0.000 
#    0.000    0.000    0.000    0.000    0.000    0.000 
#
# Total GULP energy -223322.045176 kJ/mol
# GULP energy per Si atom -5583.051129 kJ/mol
# Density = 2.030761 g / cm^3
# Si number density = 20.353940 Si / 1000 Ang^3
#
#
#
# Elastic Constant Matrix: (Units=GPa)
#
#
# Indices 1 2 3 4 5 6 
#
# 1 70.6628 38.6428 36.9409 0.0000 0.0000 0.0000
# 2 38.6428 200.8335 117.0975 0.0000 0.0000 0.0000
# 3 36.9409 117.0975 154.9631 0.0000 0.0000 0.0000
# 4 0.0000 0.0000 0.0000 16.5583 0.0000 0.0000
# 5 0.0000 0.0000 0.0000 0.0000 8.9235 0.0000
# 6 0.0000 0.0000 0.0000 0.0000 0.0000 77.5399
#
#
#
# Elastic Compliance Matrix: (Units=1/GPa)
#
#
# Indices 1 2 3 4 5 6 
#
# 1 0.016439 -0.001570 -0.002733 0.000000 0.000000 0.000000
# 2 -0.001570 0.009051 -0.006465 0.000000 0.000000 0.000000
# 3 -0.002733 -0.006465 0.011990 0.000000 0.000000 0.000000
# 4 0.000000 0.000000 0.000000 0.060393 0.000000 0.000000
# 5 0.000000 0.000000 0.000000 0.000000 0.112063 0.000000
# 6 0.000000 0.000000 0.000000 0.000000 0.000000 0.012897
#
#
# Mechanical properties :
#
#
# Convention : Reuss Voigt Hill
#
# Bulk Modulus (GPa) = 62.71699 90.20244 76.45971
# Shear Modulus (GPa) = 20.02553 36.18955 28.10754
#
# Velocity S-wave (km/s) = 3.14007 4.22122 3.72013
# Velocity P-wave (km/s) = 6.63527 8.25660 7.48993
#
# Compressibility (1/GPa) = 0.01594464
#
# Stress axis : x y z
#
# Youngs Moduli (GPa) = 60.83218 110.48821 83.40436
#
# Poissons Ratio (x) = 0.17344 0.22791
# Poissons Ratio (y) = 0.09549 0.53921
# Poissons Ratio (z) = 0.16623 0.71430
#
# Static dielectric constant tensor:
#      x y z
#    x 1.790160 0.000000 0.000000 
#    y 0.000000 1.701730 0.000000 
#    z 0.000000 0.000000 1.691590 
# 
# From -- ./inp_files/1797.got.cif
#   From: 2010.05.17/outbox.cif.g08.bks.cpg/sg47_1_cif.got.tgz:1797.got - 2010.06.03 20:15:42.
