data_PCOD9387282
_publ_section_title
;
Structure prediction by ZEFSAII (Michael W. Deem and Ramdas Pophale) SiO2 
 PCOD9387282
Probable space group: P M M M
;
_chemical_formula_sum "Si O2"
_cell_formula_units_Z 44
_cell_length_a 14.935559
_cell_length_b 17.849474
_cell_length_c 9.035558
_cell_angle_alpha 90.000000
_cell_angle_beta 90.000000
_cell_angle_gamma 90.000000
_cell_volume 2408.806322
_symmetry_space_group_name_H-M "P M M M"
_symmetry_group_IT_number 47
_symmetry_cell_setting 'orthorhombic'
loop_
_space_group_symop_operation_xyz
x,y,z
-x,-y,z
x,-y,-z
-x,y,-z
-x,-y,-z
x,y,-z
-x,y,z
x,-y,z
loop_
_atom_site_type_symbol
_atom_site_label
_atom_site_fract_x
_atom_site_fract_y
_atom_site_fract_z
Si Si1 0.391518 0.000000 0.829774
Si Si2 0.684573 0.414899 0.177335
Si Si3 0.500000 0.409465 0.334327
Si Si4 0.244915 0.260016 0.822737
Si Si5 0.107228 0.846326 0.673884
Si Si6 0.108920 0.000000 0.830115
Si Si7 0.393758 0.157066 0.677104
O O1 0.367110 0.923904 0.744550
O O2 0.500000 0.000000 0.833679
O O3 0.359731 0.000000 0.000000
O O4 0.706790 0.500000 0.225939
O O5 0.590003 0.391369 0.247732
O O6 0.752368 0.348358 0.213804
O O7 0.674351 0.416713 0.000000
O O8 0.500000 0.500000 0.344498
O O9 0.500000 0.377580 0.500000
O O10 0.158993 0.219318 0.756121
O O11 0.331180 0.218980 0.752234
O O12 0.247720 0.251474 0.000000
O O13 0.128153 0.846159 0.500000
O O14 0.000000 0.839833 0.690811
O O15 0.136440 0.925023 0.745861
O O16 0.000000 0.000000 0.830361
O O17 0.138742 0.000000 0.000000
O O18 0.381821 0.156873 0.500000
O O19 0.500000 0.169255 0.707322
#
# Coordination Sequence:
#
# PCOD9387282 Si02
#       7
#     4   8   4   8   8   4   8
#     4   9  17  32  53  74 100 139 185 228 265 308
#     4   9  19  36  55  76 106 143 181 223 274 328
#     4   9  17  29  49  77 105 136 175 218 265 319
#     4  11  23  36  55  82 108 140 182 227 273 323
#     4  10  21  38  59  83 113 146 180 222 274 329
#     4   9  17  32  57  86 114 143 177 220 269 322
#     4  10  21  36  53  75 107 145 181 221 267 318
#
# _framework density 18.266309
#
# number of rings (size 3 to 8) (size 9 to 14) (size 15 to 20)
#    0.000    2.273    0.000    2.455    1.273    7.636 
#    0.000    3.636    0.000    0.545    0.000    3.818 
#    0.000    0.000    0.000    0.000    0.000    0.000 
#
# Total GULP energy -245654.096781 kJ/mol
# GULP energy per Si atom -5583.047654 kJ/mol
# Density = 1.822473 g / cm^3
# Si number density = 18.266309 Si / 1000 Ang^3
#
#
#
# Elastic Constant Matrix: (Units=GPa)
#
#
# Indices 1 2 3 4 5 6 
#
# 1 49.6724 43.1936 35.7247 0.0000 0.0000 0.0000
# 2 43.1936 142.4434 62.8926 0.0000 0.0000 0.0000
# 3 35.7247 62.8926 88.8805 0.0000 0.0000 0.0000
# 4 0.0000 0.0000 0.0000 8.2679 0.0000 0.0000
# 5 0.0000 0.0000 0.0000 0.0000 26.4951 0.0000
# 6 0.0000 0.0000 0.0000 0.0000 0.0000 30.2287
#
#
#
# Elastic Compliance Matrix: (Units=1/GPa)
#
#
# Indices 1 2 3 4 5 6 
#
# 1 0.031214 -0.005710 -0.008506 0.000000 0.000000 0.000000
# 2 -0.005710 0.011255 -0.005669 0.000000 0.000000 0.000000
# 3 -0.008506 -0.005669 0.018682 0.000000 0.000000 0.000000
# 4 0.000000 0.000000 0.000000 0.120949 0.000000 0.000000
# 5 0.000000 0.000000 0.000000 0.000000 0.037743 0.000000
# 6 0.000000 0.000000 0.000000 0.000000 0.000000 0.033081
#
#
# Mechanical properties :
#
#
# Convention : Reuss Voigt Hill
#
# Bulk Modulus (GPa) = 46.77034 62.73533 54.75284
# Shear Modulus (GPa) = 16.67666 22.27738 19.47702
#
# Velocity S-wave (km/s) = 3.02482 3.49605 3.26894
# Velocity P-wave (km/s) = 6.15302 7.12151 6.65491
#
# Compressibility (1/GPa) = 0.02138107
#
# Stress axis : x y z
#
# Youngs Moduli (GPa) = 32.03641 88.85199 53.52888
#
# Poissons Ratio (x) = 0.50730 0.45533
# Poissons Ratio (y) = 0.18291 0.30346
# Poissons Ratio (z) = 0.27251 0.50370
#
# Static dielectric constant tensor:
#      x y z
#    x 1.629550 0.000000 0.000000 
#    y 0.000000 1.636300 0.000000 
#    z 0.000000 0.000000 1.613260 
# 
# From -- ./inp_files/6303.got.cif
#   From: 2010.05.17/outbox.cif.g08.bks.cpg/sg47_4_cif.got.tgz:6303.got - 2010.06.03 20:15:42.
