data_PCOD9387795
_publ_section_title
;
Structure prediction by ZEFSAII (Michael W. Deem and Ramdas Pophale) SiO2 
 PCOD9387795
Probable space group: P M M M
;
_chemical_formula_sum "Si O2"
_cell_formula_units_Z 44
_cell_length_a 24.866817
_cell_length_b 10.962037
_cell_length_c 9.106822
_cell_angle_alpha 90.000000
_cell_angle_beta 90.000000
_cell_angle_gamma 90.000000
_cell_volume 2482.437425
_symmetry_space_group_name_H-M "P M M M"
_symmetry_group_IT_number 47
_symmetry_cell_setting 'orthorhombic'
loop_
_space_group_symop_operation_xyz
x,y,z
-x,-y,z
x,-y,-z
-x,y,-z
-x,-y,-z
x,y,-z
-x,y,z
x,-y,z
loop_
_atom_site_type_symbol
_atom_site_label
_atom_site_fract_x
_atom_site_fract_y
_atom_site_fract_z
Si Si1 0.829826 0.142171 0.176598
Si Si2 0.563915 0.500000 0.829590
Si Si3 0.940803 0.852362 0.329912
Si Si4 0.365376 0.699110 0.673937
Si Si5 0.748145 0.359451 0.176973
Si Si6 0.439849 0.855153 0.833085
O O1 0.888539 0.179043 0.236653
O O2 0.788052 0.248624 0.220667
O O3 0.818094 0.000000 0.224031
O O4 0.830966 0.139967 0.000000
O O5 0.500000 0.500000 0.824014
O O6 0.589640 0.387510 0.744802
O O7 0.580801 0.500000 0.000000
O O8 0.934328 0.814790 0.500000
O O9 0.000000 0.810146 0.277925
O O10 0.942464 0.000000 0.328864
O O11 0.362414 0.687468 0.500000
O O12 0.308726 0.665373 0.745870
O O13 0.390160 0.825993 0.727890
O O14 0.765429 0.500000 0.211350
O O15 0.741720 0.353451 0.000000
O O16 0.500000 0.813043 0.785848
O O17 0.443026 0.000000 0.843589
O O18 0.430790 0.807223 0.000000
#
# Coordination Sequence:
#
# PCOD9387795 Si02
#       6
#     8   4   8   8   8   8
#     4   9  18  32  52  80 107 133 176 231 275 310
#     4  11  23  39  59  79 101 133 172 213 260 319
#     4   8  14  26  46  74 108 143 175 210 261 324
#     4  12  24  36  54  81 108 133 169 219 271 319
#     4  10  21  38  57  73 100 145 188 221 264 328
#     4   9  19  37  59  80 104 138 176 209 251 318
#
# _framework density 17.724513999999999
#
# number of rings (size 3 to 8) (size 9 to 14) (size 15 to 20)
#    0.000    2.273    0.909    3.545    0.000    5.455 
#    0.000    4.545    0.000    0.545    0.000    3.818 
#    0.000    0.000    0.000    0.000    0.000    0.000 
#
# Total GULP energy -245034.291107 kJ/mol
# GULP energy per Si atom -5568.961162 kJ/mol
# Density = 1.768417 g / cm^3
# Si number density = 17.724514 Si / 1000 Ang^3
#
#
#
# Elastic Constant Matrix: (Units=GPa)
#
#
# Indices 1 2 3 4 5 6 
#
# 1 116.7263 57.6064 45.5537 0.0000 0.0000 0.0000
# 2 57.6064 84.2176 30.4993 0.0000 0.0000 0.0000
# 3 45.5537 30.4993 43.3364 0.0000 0.0000 0.0000
# 4 0.0000 0.0000 0.0000 -5.7146 0.0000 0.0000
# 5 0.0000 0.0000 0.0000 0.0000 -123.2912 0.0000
# 6 0.0000 0.0000 0.0000 0.0000 0.0000 8.0670
#
#
#
# Elastic Compliance Matrix: (Units=1/GPa)
#
#
# Indices 1 2 3 4 5 6 
#
# 1 0.017111 -0.006966 -0.013084 0.000000 0.000000 0.000000
# 2 -0.006966 0.018771 -0.005889 0.000000 0.000000 0.000000
# 3 -0.013084 -0.005889 0.040973 0.000000 0.000000 0.000000
# 4 0.000000 0.000000 0.000000 -0.174989 0.000000 0.000000
# 5 0.000000 0.000000 0.000000 0.000000 -0.008111 0.000000
# 6 0.000000 0.000000 0.000000 0.000000 0.000000 0.123962
#
#
# Mechanical properties :
#
#
# Convention : Reuss Voigt Hill
#
# Bulk Modulus (GPa) = 40.03470 56.84438 48.43954
# Shear Modulus (GPa) = 64.16762 -16.81305 23.67728
#
# Velocity S-wave (km/s) = 6.02340 -3.08324 3.65889
# Velocity P-wave (km/s) = 8.42682 4.41198 6.72595
#
# Compressibility (1/GPa) = 0.02497833
#
# Stress axis : x y z
#
# Youngs Moduli (GPa) = 58.44183 53.27261 24.40627
#
# Poissons Ratio (x) = 0.37109 0.31933
# Poissons Ratio (y) = 0.40710 0.14372
# Poissons Ratio (z) = 0.76466 0.31370
#
# Static dielectric constant tensor:
#      x y z
#    x 1.596980 0.000000 0.000000 
#    y 0.000000 1.905820 0.000000 
#    z 0.000000 0.000000 1.594750 
# 
# From -- ./inp_files/12338.got.cif
#   From: 2010.05.17/outbox.cif.g08.bks.cpg/sg47_7_cif.got.tgz:12338.got - 2010.06.03 20:15:42.
