data_PCOD9387345
_publ_section_title
;
Structure prediction by ZEFSAII (Michael W. Deem and Ramdas Pophale) SiO2 
 PCOD9387345
Probable space group: P M M M
;
_chemical_formula_sum "Si O2"
_cell_formula_units_Z 40
_cell_length_a 8.300190
_cell_length_b 21.079363
_cell_length_c 12.255861
_cell_angle_alpha 90.000000
_cell_angle_beta 90.000000
_cell_angle_gamma 90.000000
_cell_volume 2144.318752
_symmetry_space_group_name_H-M "P M M M"
_symmetry_group_IT_number 47
_symmetry_cell_setting 'orthorhombic'
loop_
_space_group_symop_operation_xyz
x,y,z
-x,-y,z
x,-y,-z
-x,y,-z
-x,-y,-z
x,y,-z
-x,y,z
x,-y,z
loop_
_atom_site_type_symbol
_atom_site_label
_atom_site_fract_x
_atom_site_fract_y
_atom_site_fract_z
Si Si1 0.193306 0.880089 0.500000
Si Si2 0.305159 0.810209 0.874965
Si Si3 0.192542 0.689674 0.736060
Si Si4 0.694457 0.929269 0.267359
Si Si5 0.694504 0.427582 0.124613
Si Si6 0.803526 0.732250 0.500000
O O1 0.255669 0.913005 0.609409
O O2 0.245059 0.806203 0.500000
O O3 0.000000 0.881897 0.500000
O O4 0.500000 0.811760 0.876506
O O5 0.253997 0.748104 0.808868
O O6 0.247338 0.873139 0.811768
O O7 0.248765 0.808127 0.000000
O O8 0.244402 0.624141 0.791079
O O9 0.251435 0.699546 0.611893
O O10 0.000000 0.692561 0.734358
O O11 0.500000 0.929275 0.262324
O O12 0.750984 0.000000 0.237752
O O13 0.500000 0.426456 0.125432
O O14 0.745489 0.500000 0.148374
O O15 0.745709 0.412146 0.000000
O O16 0.000000 0.731371 0.500000
#
# Coordination Sequence:
#
# PCOD9387345 Si02
#       6
#     4   8   8   8   8   4
#     4  11  20  36  57  77 105 141 179 221 270 326
#     4  10  21  36  54  77 106 141 179 219 270 328
#     4  11  21  36  57  81 109 141 180 224 266 313
#     4  10  21  36  54  78 107 138 178 227 272 319
#     4   9  19  37  59  83 114 148 178 213 260 312
#     4   9  20  36  53  76 108 142 175 217 268 315
#
# _framework density 18.653943999999999
#
# number of rings (size 3 to 8) (size 9 to 14) (size 15 to 20)
#    0.000    2.000    2.000    2.400    0.000    5.600 
#    0.000    5.500    0.000    3.000    0.000    2.800 
#    0.000    0.000    0.000    0.000    0.000    0.000 
#
# Total GULP energy -223355.003040 kJ/mol
# GULP energy per Si atom -5583.875076 kJ/mol
# Density = 1.861149 g / cm^3
# Si number density = 18.653944 Si / 1000 Ang^3
#
#
#
# Elastic Constant Matrix: (Units=GPa)
#
#
# Indices 1 2 3 4 5 6 
#
# 1 9.8300 15.1876 14.8705 0.0000 0.0000 0.0000
# 2 15.1876 150.4027 97.4062 0.0000 0.0000 0.0000
# 3 14.8705 97.4062 165.9089 0.0000 0.0000 0.0000
# 4 0.0000 0.0000 0.0000 114.9609 0.0000 0.0000
# 5 0.0000 0.0000 0.0000 0.0000 19.9683 0.0000
# 6 0.0000 0.0000 0.0000 0.0000 0.0000 10.2994
#
#
#
# Elastic Compliance Matrix: (Units=1/GPa)
#
#
# Indices 1 2 3 4 5 6 
#
# 1 0.124226 -0.008605 -0.006082 0.000000 0.000000 0.000000
# 2 -0.008605 0.011324 -0.005877 0.000000 0.000000 0.000000
# 3 -0.006082 -0.005877 0.010023 0.000000 0.000000 0.000000
# 4 0.000000 0.000000 0.000000 0.008699 0.000000 0.000000
# 5 0.000000 0.000000 0.000000 0.000000 0.050079 0.000000
# 6 0.000000 0.000000 0.000000 0.000000 0.000000 0.097093
#
#
# Mechanical properties :
#
#
# Convention : Reuss Voigt Hill
#
# Bulk Modulus (GPa) = 9.57451 64.56335 37.06893
# Shear Modulus (GPa) = 13.24896 42.29086 27.76991
#
# Velocity S-wave (km/s) = 2.66794 4.76660 3.86254
# Velocity P-wave (km/s) = 3.82549 8.06103 6.30930
#
# Compressibility (1/GPa) = 0.10444395
#
# Stress axis : x y z
#
# Youngs Moduli (GPa) = 8.04985 88.30817 99.77004
#
# Poissons Ratio (x) = 0.75990 0.60683
# Poissons Ratio (y) = 0.06927 0.58636
# Poissons Ratio (z) = 0.04896 0.51900
#
# Static dielectric constant tensor:
#      x y z
#    x 1.653200 0.000000 0.000000 
#    y 0.000000 1.628940 0.000000 
#    z 0.000000 0.000000 1.628790 
# 
# From -- ./inp_files/10720.got.cif
#   From: 2010.05.17/outbox.cif.g08.bks.cpg/sg47_6_cif.got.tgz:10720.got - 2010.06.03 20:15:42.
