data_PCOD9387448
_publ_section_title
;
Structure prediction by ZEFSAII (Michael W. Deem and Ramdas Pophale) SiO2 
 PCOD9387448
Probable space group: P M M M
;
_chemical_formula_sum "Si O2"
_cell_formula_units_Z 48
_cell_length_a 9.812131
_cell_length_b 9.054171
_cell_length_c 28.367934
_cell_angle_alpha 90.000000
_cell_angle_beta 90.000000
_cell_angle_gamma 90.000000
_cell_volume 2520.227453
_symmetry_space_group_name_H-M "P M M M"
_symmetry_group_IT_number 47
_symmetry_cell_setting 'orthorhombic'
loop_
_space_group_symop_operation_xyz
x,y,z
-x,-y,z
x,-y,-z
-x,y,-z
-x,-y,-z
x,y,-z
-x,y,z
x,-y,z
loop_
_atom_site_type_symbol
_atom_site_label
_atom_site_fract_x
_atom_site_fract_y
_atom_site_fract_z
Si Si1 0.340927 0.678777 0.229778
Si Si2 0.500000 0.335448 0.943935
Si Si3 0.781643 0.823686 0.053770
Si Si4 0.659059 0.177360 0.402568
Si Si5 0.665291 0.331351 0.500000
Si Si6 0.839798 0.178459 0.688017
Si Si7 0.853353 0.325575 0.853071
O O1 0.500000 0.722383 0.232721
O O2 0.334681 0.500000 0.232864
O O3 0.247879 0.748471 0.270402
O O4 0.270202 0.722001 0.180302
O O5 0.500000 0.500000 0.921758
O O6 0.632369 0.239761 0.935034
O O7 0.500000 0.356132 0.000000
O O8 0.860575 0.757427 0.097545
O O9 0.785456 0.000000 0.054335
O O10 0.819586 0.777156 0.000000
O O11 0.500000 0.219820 0.392505
O O12 0.703449 0.249187 0.451875
O O13 0.760950 0.217738 0.360400
O O14 0.660580 0.000000 0.407477
O O15 0.713058 0.500000 0.500000
O O16 0.500000 0.331983 0.500000
O O17 0.000000 0.221053 0.688046
O O18 0.834228 0.000000 0.692780
O O19 0.837281 0.500000 0.862761
O O20 0.000000 0.305360 0.828024
#
# Coordination Sequence:
#
# PCOD9387448 Si02
#       7
#     8   4   8   8   4   8   8
#     4  10  22  40  62  87 113 143 184 234 285 337
#     4   9  17  31  53  79 107 141 179 219 265 316
#     4  10  21  36  55  82 115 147 183 228 278 331
#     4   9  17  31  52  77 108 148 192 235 281 334
#     4   9  17  29  48  77 110 144 188 241 288 329
#     4  10  21  37  58  85 116 150 189 233 284 342
#     4  10  22  39  58  82 113 149 189 231 277 335
#
# _framework density 19.0459
#
# number of rings (size 3 to 8) (size 9 to 14) (size 15 to 20)
#    0.000    2.333    0.000    2.000    1.167    7.000 
#    0.000    3.750    0.000    2.500    0.000    0.000 
#    0.000    0.000    0.000    0.000    0.000    0.000 
#
# Total GULP energy -267610.497761 kJ/mol
# GULP energy per Si atom -5575.218703 kJ/mol
# Density = 1.900255 g / cm^3
# Si number density = 19.045900 Si / 1000 Ang^3
#
#
#
# Elastic Constant Matrix: (Units=GPa)
#
#
# Indices 1 2 3 4 5 6 
#
# 1 154.1604 39.1454 87.4078 0.0000 0.0000 0.0000
# 2 39.1454 28.5276 49.6096 0.0000 0.0000 0.0000
# 3 87.4078 49.6096 157.1444 0.0000 0.0000 0.0000
# 4 0.0000 0.0000 0.0000 13.1982 0.0000 0.0000
# 5 0.0000 0.0000 0.0000 0.0000 12.8399 0.0000
# 6 0.0000 0.0000 0.0000 0.0000 0.0000 30.5507
#
#
#
# Elastic Compliance Matrix: (Units=1/GPa)
#
#
# Indices 1 2 3 4 5 6 
#
# 1 0.010507 -0.009434 -0.002866 0.000000 0.000000 0.000000
# 2 -0.009434 0.086193 -0.021963 0.000000 0.000000 0.000000
# 3 -0.002866 -0.021963 0.014892 0.000000 0.000000 0.000000
# 4 0.000000 0.000000 0.000000 0.075768 0.000000 0.000000
# 5 0.000000 0.000000 0.000000 0.000000 0.077882 0.000000
# 6 0.000000 0.000000 0.000000 0.000000 0.000000 0.032733
#
#
# Mechanical properties :
#
#
# Convention : Reuss Voigt Hill
#
# Bulk Modulus (GPa) = 23.22052 76.90644 50.06348
# Shear Modulus (GPa) = 13.12829 22.22905 17.67867
#
# Velocity S-wave (km/s) = 2.62830 3.42004 3.04997
# Velocity P-wave (km/s) = 4.62914 7.48750 6.22461
#
# Compressibility (1/GPa) = 0.04306536
#
# Stress axis : x y z
#
# Youngs Moduli (GPa) = 95.17107 11.60185 67.15177
#
# Poissons Ratio (x) = 0.10945 0.19248
# Poissons Ratio (y) = 0.89781 1.47488
# Poissons Ratio (z) = 0.27279 0.25482
#
# Static dielectric constant tensor:
#      x y z
#    x 1.729600 0.000000 0.000000 
#    y 0.000000 1.644170 0.000000 
#    z 0.000000 0.000000 1.658320 
# 
# From -- ./inp_files/34213.got.cif
#   From: 2010.05.17/outbox.cif.g08.bks.cpg/sg47_18_cif.got.tgz:34213.got - 2010.06.03 20:15:42.
