data_PCOD9387614
_publ_section_title
;
Structure prediction by ZEFSAII (Michael W. Deem and Ramdas Pophale) SiO2 
 PCOD9387614
Probable space group: P M M M
;
_chemical_formula_sum "Si O2"
_cell_formula_units_Z 56
_cell_length_a 8.832719
_cell_length_b 21.758475
_cell_length_c 14.282366
_cell_angle_alpha 90.000000
_cell_angle_beta 90.000000
_cell_angle_gamma 90.000000
_cell_volume 2744.877870
_symmetry_space_group_name_H-M "P M M M"
_symmetry_group_IT_number 47
_symmetry_cell_setting 'orthorhombic'
loop_
_space_group_symop_operation_xyz
x,y,z
-x,-y,z
x,-y,-z
-x,y,-z
-x,-y,-z
x,y,-z
-x,y,z
x,-y,z
loop_
_atom_site_type_symbol
_atom_site_label
_atom_site_fract_x
_atom_site_fract_y
_atom_site_fract_z
Si Si1 0.821092 0.931317 0.387308
Si Si2 0.172171 0.500000 0.886511
Si Si3 0.326867 0.000000 0.886479
Si Si4 0.180463 0.870067 0.109651
Si Si5 0.680432 0.369780 0.109935
Si Si6 0.679125 0.185128 0.285781
Si Si7 0.181227 0.688893 0.717689
Si Si8 0.816216 0.567283 0.390290
O O1 0.807561 0.928376 0.500000
O O2 0.734670 0.874834 0.341507
O O3 0.000000 0.926289 0.364513
O O4 0.769504 0.000000 0.358006
O O5 0.257249 0.437284 0.862401
O O6 0.000000 0.500000 0.849445
O O7 0.164252 0.500000 0.000000
O O8 0.237709 0.061809 0.862413
O O9 0.500000 0.000000 0.851174
O O10 0.334587 0.000000 0.000000
O O11 0.262929 0.824399 0.179679
O O12 0.000000 0.866208 0.120701
O O13 0.216881 0.860331 0.000000
O O14 0.500000 0.367548 0.121781
O O15 0.761543 0.321442 0.176702
O O16 0.714736 0.360370 0.000000
O O17 0.500000 0.189461 0.288320
O O18 0.752626 0.248062 0.322154
O O19 0.235734 0.628079 0.662680
O O20 0.000000 0.691282 0.715191
O O21 0.777026 0.571059 0.500000
O O22 0.765080 0.500000 0.354578
O O23 0.000000 0.567341 0.384696
#
# Coordination Sequence:
#
# PCOD9387614 Si02
#       8
#     8   4   4   8   8   8   8   8
#     4   9  20  42  71  98 123 155 199 252 308 367
#     4   9  17  31  53  81 110 145 196 251 297 348
#     4   9  17  31  53  83 116 149 190 241 299 357
#     4  10  21  38  60  85 116 158 208 258 304 355
#     4  10  21  37  56  81 118 162 203 248 307 366
#     4  12  26  41  59  87 127 168 206 251 309 370
#     4  11  23  38  60  89 121 159 206 253 301 361
#     4   8  16  34  61  92 121 148 186 241 301 358
#
# _framework density 20.401637999999998
#
# number of rings (size 3 to 8) (size 9 to 14) (size 15 to 20)
#    0.000    2.143    0.000    3.857    2.000    5.143 
#    0.000    2.143    0.000    1.286    0.000    4.000 
#    0.000    0.000    0.000    0.000    0.000    0.000 
#
# Total GULP energy -312912.664104 kJ/mol
# GULP energy per Si atom -5587.726145 kJ/mol
# Density = 2.035520 g / cm^3
# Si number density = 20.401638 Si / 1000 Ang^3
#
#
#
# Elastic Constant Matrix: (Units=GPa)
#
#
# Indices 1 2 3 4 5 6 
#
# 1 83.6334 54.9218 29.8107 0.0000 0.0000 0.0000
# 2 54.9218 168.4540 54.6474 0.0000 0.0000 0.0000
# 3 29.8107 54.6474 60.6341 0.0000 0.0000 0.0000
# 4 0.0000 0.0000 0.0000 14.8039 0.0000 0.0000
# 5 0.0000 0.0000 0.0000 0.0000 9.2930 0.0000
# 6 0.0000 0.0000 0.0000 0.0000 0.0000 18.3689
#
#
#
# Elastic Compliance Matrix: (Units=1/GPa)
#
#
# Indices 1 2 3 4 5 6 
#
# 1 0.016032 -0.003773 -0.004482 0.000000 0.000000 0.000000
# 2 -0.003773 0.009277 -0.006506 0.000000 0.000000 0.000000
# 3 -0.004482 -0.006506 0.024559 0.000000 0.000000 0.000000
# 4 0.000000 0.000000 0.000000 0.067550 0.000000 0.000000
# 5 0.000000 0.000000 0.000000 0.000000 0.107608 0.000000
# 6 0.000000 0.000000 0.000000 0.000000 0.000000 0.054440
#
#
# Mechanical properties :
#
#
# Convention : Reuss Voigt Hill
#
# Bulk Modulus (GPa) = 49.14702 65.72015 57.43359
# Shear Modulus (GPa) = 15.83428 20.04925 17.94177
#
# Velocity S-wave (km/s) = 2.78893 3.13825 2.96873
# Velocity P-wave (km/s) = 5.87477 6.73903 6.32169
#
# Compressibility (1/GPa) = 0.02034711
#
# Stress axis : x y z
#
# Youngs Moduli (GPa) = 62.37430 107.79175 40.71754
#
# Poissons Ratio (x) = 0.40672 0.18248
# Poissons Ratio (y) = 0.23535 0.26491
# Poissons Ratio (z) = 0.27953 0.70130
#
# Static dielectric constant tensor:
#      x y z
#    x 1.676790 0.000000 0.000000 
#    y 0.000000 1.733110 0.000000 
#    z 0.000000 0.000000 1.752680 
# 
# From -- ./inp_files/21597.got.cif
#   From: 2010.05.17/outbox.cif.g08.bks.cpg/sg47_11_cif.got.tgz:21597.got - 2010.06.03 20:15:42.
