data_PCOD9387131
_publ_section_title
;
Structure prediction by ZEFSAII (Michael W. Deem and Ramdas Pophale) SiO2 
 PCOD9387131
Probable space group: P M M M
;
_chemical_formula_sum "Si O2"
_cell_formula_units_Z 37
_cell_length_a 9.964773
_cell_length_b 7.379146
_cell_length_c 23.909270
_cell_angle_alpha 90.000000
_cell_angle_beta 90.000000
_cell_angle_gamma 90.000000
_cell_volume 1758.084841
_symmetry_space_group_name_H-M "P M M M"
_symmetry_group_IT_number 47
_symmetry_cell_setting 'orthorhombic'
loop_
_space_group_symop_operation_xyz
x,y,z
-x,-y,z
x,-y,-z
-x,y,-z
-x,-y,-z
x,y,-z
-x,y,z
x,-y,z
loop_
_atom_site_type_symbol
_atom_site_label
_atom_site_fract_x
_atom_site_fract_y
_atom_site_fract_z
Si Si1 0.353033 0.719574 0.878515
Si Si2 0.338089 0.784197 0.439873
Si Si3 0.247007 0.718213 0.000000
Si Si4 0.346108 0.781926 0.682305
Si Si5 0.000000 0.000000 0.000000
Si Si6 0.848777 0.284954 0.785776
O O1 0.500000 0.783550 0.860156
O O2 0.353922 0.500000 0.873955
O O3 0.327192 0.759673 0.943235
O O4 0.234275 0.787701 0.838790
O O5 0.289170 0.711428 0.500000
O O6 0.500000 0.763899 0.439723
O O7 0.296792 0.715006 0.378829
O O8 0.310578 0.000000 0.440614
O O9 0.116250 0.840892 0.000000
O O10 0.218534 0.500000 0.000000
O O11 0.500000 0.718586 0.692829
O O12 0.243361 0.738943 0.731308
O O13 0.353519 0.000000 0.678613
O O14 0.861123 0.500000 0.794346
O O15 0.000000 0.212254 0.780294
#
# Coordination Sequence:
#
# PCOD9387131 Si02
#       6
#     8   8   4   8   1   8
#     4   9  18  36  63  87 106 138 184 230 281 331
#     4   7  10  19  39  67  96 124 159 208 262 315
#     4  10  22  41  65  89 122 157 192 238 280 336
#     4   9  17  30  49  75 103 132 169 214 269 325
#     4  12  26  40  58  98 128 160 196 224 282 346
#     4  10  21  35  52  76 105 140 183 223 262 319
#
# _framework density 21.045629999999999
#
# number of rings (size 3 to 8) (size 9 to 14) (size 15 to 20)
#    0.000    3.027    0.000    3.081    1.514    3.027 
#    1.946    1.081    0.000    1.297    0.000    7.568 
#    0.000    0.000    0.000    0.000    0.000    0.000 
#
# Total GULP energy -206015.297179 kJ/mol
# GULP energy per Si atom -5567.981005 kJ/mol
# Density = 2.099773 g / cm^3
# Si number density = 21.045630 Si / 1000 Ang^3
#
#
#
# Elastic Constant Matrix: (Units=GPa)
#
#
# Indices 1 2 3 4 5 6 
#
# 1 146.4416 11.7446 89.6355 0.0000 0.0000 0.0000
# 2 11.7446 76.8033 2.2029 0.0000 0.0000 0.0000
# 3 89.6355 2.2029 192.8893 0.0000 0.0000 0.0000
# 4 0.0000 0.0000 0.0000 11.8495 0.0000 0.0000
# 5 0.0000 0.0000 0.0000 0.0000 -7.3531 0.0000
# 6 0.0000 0.0000 0.0000 0.0000 0.0000 10.0112
#
#
#
# Elastic Compliance Matrix: (Units=1/GPa)
#
#
# Indices 1 2 3 4 5 6 
#
# 1 0.009681 -0.001352 -0.004483 0.000000 0.000000 0.000000
# 2 -0.001352 0.013213 0.000477 0.000000 0.000000 0.000000
# 3 -0.004483 0.000477 0.007262 0.000000 0.000000 0.000000
# 4 0.000000 0.000000 0.000000 0.084392 0.000000 0.000000
# 5 0.000000 0.000000 0.000000 0.000000 -0.135998 0.000000
# 6 0.000000 0.000000 0.000000 0.000000 0.000000 0.099888
#
#
# Mechanical properties :
#
#
# Convention : Reuss Voigt Hill
#
# Bulk Modulus (GPa) = 51.43784 69.25556 60.34670
# Shear Modulus (GPa) = 52.28190 23.73828 38.01009
#
# Velocity S-wave (km/s) = 4.98960 3.36213 4.25441
# Velocity P-wave (km/s) = 7.59532 6.93186 7.27116
#
# Compressibility (1/GPa) = 0.01944094
#
# Stress axis : x y z
#
# Youngs Moduli (GPa) = 103.29106 75.68130 137.69662
#
# Poissons Ratio (x) = 0.10231 0.61736
# Poissons Ratio (y) = 0.13964 -0.06572
# Poissons Ratio (z) = 0.46310 -0.03612
#
# Static dielectric constant tensor:
#      x y z
#    x 1.725700 0.000000 0.000000 
#    y 0.000000 1.843400 0.000000 
#    z 0.000000 0.000000 1.797860 
# 
# From -- ./inp_files/31685.got.cif
#   From: 2010.05.17/outbox.cif.g08.bks.cpg/sg47_16_cif.got.tgz:31685.got - 2010.06.03 20:15:42.
