data_PCOD9387668
_publ_section_title
;
Structure prediction by ZEFSAII (Michael W. Deem and Ramdas Pophale) SiO2 
 PCOD9387668
Probable space group: P M M M
;
_chemical_formula_sum "Si O2"
_cell_formula_units_Z 44
_cell_length_a 29.510816
_cell_length_b 8.000928
_cell_length_c 9.414482
_cell_angle_alpha 90.000000
_cell_angle_beta 90.000000
_cell_angle_gamma 90.000000
_cell_volume 2222.890194
_symmetry_space_group_name_H-M "P M M M"
_symmetry_group_IT_number 47
_symmetry_cell_setting 'orthorhombic'
loop_
_space_group_symop_operation_xyz
x,y,z
-x,-y,z
x,-y,-z
-x,y,-z
-x,-y,-z
x,y,-z
-x,y,z
x,-y,z
loop_
_atom_site_type_symbol
_atom_site_label
_atom_site_fract_x
_atom_site_fract_y
_atom_site_fract_z
Si Si1 0.049908 0.703956 0.665147
Si Si2 0.588794 0.699530 0.837779
Si Si3 0.500000 0.199619 0.662431
Si Si4 0.763756 0.798779 0.836562
Si Si5 0.677199 0.201319 0.338342
Si Si6 0.863033 0.701759 0.162945
O O1 0.053545 0.751024 0.500000
O O2 0.050281 0.500000 0.670210
O O3 0.093492 0.763625 0.750928
O O4 0.000000 0.756862 0.718104
O O5 0.590198 0.500000 0.845264
O O6 0.544488 0.747857 0.748693
O O7 0.633441 0.757986 0.755326
O O8 0.587124 0.765259 0.000000
O O9 0.500000 0.265415 0.500000
O O10 0.500000 0.000000 0.654257
O O11 0.722609 0.736427 0.739895
O O12 0.813633 0.752566 0.781344
O O13 0.761040 0.000000 0.841236
O O14 0.759634 0.737176 0.000000
O O15 0.672975 0.264176 0.500000
O O16 0.680404 0.000000 0.345452
O O17 0.864594 0.500000 0.162498
O O18 0.865667 0.760624 0.000000
#
# Coordination Sequence:
#
# PCOD9387668 Si02
#       6
#     8   8   4   8   8   8
#     4   8  14  25  41  62  89 120 153 191 239 295
#     4  11  24  40  59  85 115 146 181 220 263 311
#     4  11  24  41  62  88 116 147 184 223 262 308
#     4   9  18  33  51  70  97 134 169 202 248 305
#     4  10  21  37  57  81 107 137 177 220 261 310
#     4   9  17  28  44  68  94 119 154 202 248 290
#
# _framework density 19.794049999999999
#
# number of rings (size 3 to 8) (size 9 to 14) (size 15 to 20)
#    0.000    2.455    0.000    2.727    0.000    8.364 
#    0.000    3.636    0.000    0.545    0.000    3.818 
#    0.000    0.000    0.000    0.000    0.000    0.000 
#
# Total GULP energy -245561.003999 kJ/mol
# GULP energy per Si atom -5580.931909 kJ/mol
# Density = 1.974900 g / cm^3
# Si number density = 19.794050 Si / 1000 Ang^3
#
#
#
# Elastic Constant Matrix: (Units=GPa)
#
#
# Indices 1 2 3 4 5 6 
#
# 1 234.9664 5.5466 120.7089 0.0000 0.0000 0.0000
# 2 5.5466 15.7175 10.6768 0.0000 0.0000 0.0000
# 3 120.7089 10.6768 143.2391 0.0000 0.0000 0.0000
# 4 0.0000 0.0000 0.0000 13.8290 0.0000 0.0000
# 5 0.0000 0.0000 0.0000 0.0000 58.0474 0.0000
# 6 0.0000 0.0000 0.0000 0.0000 0.0000 29.4495
#
#
#
# Elastic Compliance Matrix: (Units=1/GPa)
#
#
# Indices 1 2 3 4 5 6 
#
# 1 0.007550 0.001746 -0.006493 0.000000 0.000000 0.000000
# 2 0.001746 0.067420 -0.006497 0.000000 0.000000 0.000000
# 3 -0.006493 -0.006497 0.012937 0.000000 0.000000 0.000000
# 4 0.000000 0.000000 0.000000 0.072312 0.000000 0.000000
# 5 0.000000 0.000000 0.000000 0.000000 0.017227 0.000000
# 6 0.000000 0.000000 0.000000 0.000000 0.000000 0.033956
#
#
# Mechanical properties :
#
#
# Convention : Reuss Voigt Hill
#
# Bulk Modulus (GPa) = 15.28567 74.19861 44.74214
# Shear Modulus (GPa) = 19.55436 37.39789 28.47613
#
# Velocity S-wave (km/s) = 3.14648 4.35138 3.79703
# Velocity P-wave (km/s) = 4.57598 7.92545 6.47118
#
# Compressibility (1/GPa) = 0.06542077
#
# Stress axis : x y z
#
# Youngs Moduli (GPa) = 132.44586 14.83229 77.29673
#
# Poissons Ratio (x) = -0.02590 0.50187
# Poissons Ratio (y) = -0.23126 0.50218
# Poissons Ratio (z) = 0.85995 0.09636
#
# Static dielectric constant tensor:
#      x y z
#    x 1.914090 0.000000 0.000000 
#    y 0.000000 1.714000 0.000000 
#    z 0.000000 0.000000 1.695550 
# 
# From -- ./inp_files/13628.got.cif
#   From: 2010.05.17/outbox.cif.g08.bks.cpg/sg47_7_cif.got.tgz:13628.got - 2010.06.03 20:15:42.
