data_PCOD9387879
_publ_section_title
;
Structure prediction by ZEFSAII (Michael W. Deem and Ramdas Pophale) SiO2 
 PCOD9387879
Probable space group: P M M M
;
_chemical_formula_sum "Si O2"
_cell_formula_units_Z 36
_cell_length_a 9.146507
_cell_length_b 13.635587
_cell_length_c 13.862257
_cell_angle_alpha 90.000000
_cell_angle_beta 90.000000
_cell_angle_gamma 90.000000
_cell_volume 1728.872857
_symmetry_space_group_name_H-M "P M M M"
_symmetry_group_IT_number 47
_symmetry_cell_setting 'orthorhombic'
loop_
_space_group_symop_operation_xyz
x,y,z
-x,-y,z
x,-y,-z
-x,y,-z
-x,-y,-z
x,y,-z
-x,y,z
x,-y,z
loop_
_atom_site_type_symbol
_atom_site_label
_atom_site_fract_x
_atom_site_fract_y
_atom_site_fract_z
Si Si1 0.175577 0.392350 0.693006
Si Si2 0.174733 0.693829 0.109441
Si Si3 0.332166 0.199298 0.616006
Si Si4 0.329274 0.106351 0.117061
Si Si5 0.169188 0.000000 0.618287
O O1 0.221117 0.500000 0.657015
O O2 0.207066 0.384083 0.807634
O O3 0.251996 0.299254 0.645355
O O4 0.000000 0.384016 0.680395
O O5 0.242969 0.796600 0.144183
O O6 0.000000 0.704952 0.105683
O O7 0.225214 0.671411 0.000000
O O8 0.333389 0.195385 0.500000
O O9 0.500000 0.199892 0.649468
O O10 0.250955 0.099837 0.648719
O O11 0.500000 0.113086 0.143085
O O12 0.271379 0.000000 0.148967
O O13 0.323587 0.105553 0.000000
O O14 0.170151 0.000000 0.500000
O O15 0.000000 0.000000 0.648745
#
# Coordination Sequence:
#
# PCOD9387879 Si02
#       5
#     8   8   8   8   4
#     4  10  22  39  57  80 112 151 197 244 289 342
#     4   9  18  33  53  77 105 140 185 237 288 334
#     4  10  21  38  61  89 120 152 187 230 283 341
#     4   8  14  26  45  69  98 133 172 215 267 329
#     4   9  17  33  61  93 122 151 184 225 275 336
#
# _framework density 20.822816
#
# number of rings (size 3 to 8) (size 9 to 14) (size 15 to 20)
#    0.000    2.778    0.000    1.667    0.000    5.333 
#    2.000    6.667    0.000    0.000    0.000    4.667 
#    0.000    0.000    0.000    0.000    0.000    0.000 
#
# Total GULP energy -200949.097333 kJ/mol
# GULP energy per Si atom -5581.919370 kJ/mol
# Density = 2.077542 g / cm^3
# Si number density = 20.822816 Si / 1000 Ang^3
#
#
#
# Elastic Constant Matrix: (Units=GPa)
#
#
# Indices 1 2 3 4 5 6 
#
# 1 68.7584 76.0130 16.4982 0.0000 0.0000 0.0000
# 2 76.0130 189.4571 32.9393 0.0000 0.0000 0.0000
# 3 16.4982 32.9393 48.4527 0.0000 0.0000 0.0000
# 4 0.0000 0.0000 0.0000 23.0506 0.0000 0.0000
# 5 0.0000 0.0000 0.0000 0.0000 10.0621 0.0000
# 6 0.0000 0.0000 0.0000 0.0000 0.0000 65.4287
#
#
#
# Elastic Compliance Matrix: (Units=1/GPa)
#
#
# Indices 1 2 3 4 5 6 
#
# 1 0.026310 -0.010204 -0.002021 0.000000 0.000000 0.000000
# 2 -0.010204 0.009944 -0.003285 0.000000 0.000000 0.000000
# 3 -0.002021 -0.003285 0.023560 0.000000 0.000000 0.000000
# 4 0.000000 0.000000 0.000000 0.043383 0.000000 0.000000
# 5 0.000000 0.000000 0.000000 0.000000 0.099383 0.000000
# 6 0.000000 0.000000 0.000000 0.000000 0.000000 0.015284
#
#
# Mechanical properties :
#
#
# Convention : Reuss Voigt Hill
#
# Bulk Modulus (GPa) = 34.73217 61.95214 48.34215
# Shear Modulus (GPa) = 19.34365 31.78944 25.56655
#
# Velocity S-wave (km/s) = 3.05120 3.91149 3.50782
# Velocity P-wave (km/s) = 5.39714 7.08635 6.29863
#
# Compressibility (1/GPa) = 0.02879175
#
# Stress axis : x y z
#
# Youngs Moduli (GPa) = 38.00865 100.56703 42.44418
#
# Poissons Ratio (x) = 1.02623 0.08579
# Poissons Ratio (y) = 0.38786 0.13944
# Poissons Ratio (z) = 0.07682 0.33039
#
# Static dielectric constant tensor:
#      x y z
#    x 1.695380 0.000000 0.000000 
#    y 0.000000 1.719440 0.000000 
#    z 0.000000 0.000000 1.819450 
# 
# From -- ./inp_files/20550.got.cif
#   From: 2010.05.17/outbox.cif.g08.bks.cpg/sg47_11_cif.got.tgz:20550.got - 2010.06.03 20:15:42.
