data_PCOD9387616
_publ_section_title
;
Structure prediction by ZEFSAII (Michael W. Deem and Ramdas Pophale) SiO2 
 PCOD9387616
Probable space group: P M M M
;
_chemical_formula_sum "Si O2"
_cell_formula_units_Z 56
_cell_length_a 8.731658
_cell_length_b 22.571312
_cell_length_c 15.416866
_cell_angle_alpha 90.000000
_cell_angle_beta 90.000000
_cell_angle_gamma 90.000000
_cell_volume 3038.432681
_symmetry_space_group_name_H-M "P M M M"
_symmetry_group_IT_number 47
_symmetry_cell_setting 'orthorhombic'
loop_
_space_group_symop_operation_xyz
x,y,z
-x,-y,z
x,-y,-z
-x,y,-z
-x,-y,-z
x,y,-z
-x,y,z
x,-y,z
loop_
_atom_site_type_symbol
_atom_site_label
_atom_site_fract_x
_atom_site_fract_y
_atom_site_fract_z
Si Si1 0.684029 0.930073 0.901565
Si Si2 0.684063 0.430647 0.500000
Si Si3 0.316427 0.785447 0.401462
Si Si4 0.818900 0.500000 0.103706
Si Si5 0.816625 0.835888 0.770418
Si Si6 0.817331 0.656075 0.357682
Si Si7 0.182243 0.266655 0.095898
Si Si8 0.681249 0.621710 0.173115
O O1 0.500000 0.922549 0.897513
O O2 0.759862 0.891585 0.826301
O O3 0.716406 0.000000 0.891276
O O4 0.733205 0.913104 0.000000
O O5 0.725616 0.500000 0.500000
O O6 0.500000 0.426243 0.500000
O O7 0.750762 0.395589 0.581896
O O8 0.276109 0.803957 0.500000
O O9 0.500000 0.782490 0.395150
O O10 0.253471 0.827043 0.324835
O O11 0.249747 0.719578 0.385960
O O12 0.742233 0.558509 0.142432
O O13 0.000000 0.500000 0.123178
O O14 0.800059 0.500000 0.000000
O O15 0.772340 0.778717 0.828829
O O16 0.000000 0.836783 0.763855
O O17 0.765488 0.641624 0.260723
O O18 0.000000 0.658320 0.364417
O O19 0.273236 0.327439 0.105256
O O20 0.000000 0.278655 0.104775
O O21 0.207032 0.240704 0.000000
O O22 0.500000 0.619900 0.186795
#
# Coordination Sequence:
#
# PCOD9387616 Si02
#       8
#     8   4   8   4   8   8   8   8
#     4   9  19  37  61  90 128 174 218 257 301 357
#     4  11  25  43  63  87 117 149 190 243 301 362
#     4  11  23  40  63  89 120 156 200 251 304 363
#     4  11  25  45  65  82 107 146 191 241 297 359
#     4  11  22  36  59  91 126 163 205 251 304 363
#     4  12  24  40  62  86 116 151 191 239 298 362
#     4  10  21  37  56  82 119 157 193 238 296 358
#     4  12  25  40  60  84 113 148 193 243 293 353
#
# _framework density 18.430554999999998
#
# number of rings (size 3 to 8) (size 9 to 14) (size 15 to 20)
#    0.000    1.143    2.143    5.143    1.000    5.714 
#    0.000    0.714    0.000    0.429    0.000    3.000 
#    0.000    0.000    0.000    0.000    0.000    0.000 
#
# Total GULP energy -313070.604938 kJ/mol
# GULP energy per Si atom -5590.546517 kJ/mol
# Density = 1.838861 g / cm^3
# Si number density = 18.430555 Si / 1000 Ang^3
#
#
#
# Elastic Constant Matrix: (Units=GPa)
#
#
# Indices 1 2 3 4 5 6 
#
# 1 70.3913 42.5613 53.4686 0.0000 0.0000 0.0000
# 2 42.5613 96.3196 61.2214 0.0000 0.0000 0.0000
# 3 53.4686 61.2214 147.9835 0.0000 0.0000 0.0000
# 4 0.0000 0.0000 0.0000 35.2879 0.0000 0.0000
# 5 0.0000 0.0000 0.0000 0.0000 26.9916 0.0000
# 6 0.0000 0.0000 0.0000 0.0000 0.0000 81.5034
#
#
#
# Elastic Compliance Matrix: (Units=1/GPa)
#
#
# Indices 1 2 3 4 5 6 
#
# 1 0.022130 -0.006372 -0.005360 0.000000 0.000000 0.000000
# 2 -0.006372 0.015921 -0.004284 0.000000 0.000000 0.000000
# 3 -0.005360 -0.004284 0.010466 0.000000 0.000000 0.000000
# 4 0.000000 0.000000 0.000000 0.028338 0.000000 0.000000
# 5 0.000000 0.000000 0.000000 0.000000 0.037049 0.000000
# 6 0.000000 0.000000 0.000000 0.000000 0.000000 0.012269
#
#
# Mechanical properties :
#
#
# Convention : Reuss Voigt Hill
#
# Bulk Modulus (GPa) = 60.65970 69.91078 65.28524
# Shear Modulus (GPa) = 30.54336 39.25278 34.89807
#
# Velocity S-wave (km/s) = 4.07531 4.61995 4.35615
# Velocity P-wave (km/s) = 7.42483 8.15309 7.79747
#
# Compressibility (1/GPa) = 0.01648541
#
# Stress axis : x y z
#
# Youngs Moduli (GPa) = 45.18660 62.81074 95.54304
#
# Poissons Ratio (x) = 0.40024 0.51210
# Poissons Ratio (y) = 0.28794 0.40932
# Poissons Ratio (z) = 0.24219 0.26909
#
# Static dielectric constant tensor:
#      x y z
#    x 1.614830 0.000000 0.000000 
#    y 0.000000 1.605740 0.000000 
#    z 0.000000 0.000000 1.696880 
# 
# From -- ./inp_files/21629.got.cif
#   From: 2010.05.17/outbox.cif.g08.bks.cpg/sg47_11_cif.got.tgz:21629.got - 2010.06.03 20:15:42.
