data_PCOD9387350
_publ_section_title
;
Structure prediction by ZEFSAII (Michael W. Deem and Ramdas Pophale) SiO2 
 PCOD9387350
Probable space group: P M M M
;
_chemical_formula_sum "Si O2"
_cell_formula_units_Z 40
_cell_length_a 15.380882
_cell_length_b 9.570420
_cell_length_c 14.940285
_cell_angle_alpha 90.000000
_cell_angle_beta 90.000000
_cell_angle_gamma 90.000000
_cell_volume 2199.232373
_symmetry_space_group_name_H-M "P M M M"
_symmetry_group_IT_number 47
_symmetry_cell_setting 'orthorhombic'
loop_
_space_group_symop_operation_xyz
x,y,z
-x,-y,z
x,-y,-z
-x,y,-z
-x,-y,-z
x,y,-z
-x,y,z
x,-y,z
loop_
_atom_site_type_symbol
_atom_site_label
_atom_site_fract_x
_atom_site_fract_y
_atom_site_fract_z
Si Si1 0.772594 0.665541 0.898373
Si Si2 0.000000 0.830170 0.396046
Si Si3 0.597710 0.835286 0.863535
Si Si4 0.396285 0.345188 0.500000
Si Si5 0.651405 0.845158 0.663088
Si Si6 0.846149 0.161779 0.737462
O O1 0.764265 0.500000 0.878695
O O2 0.677444 0.739886 0.895341
O O3 0.832522 0.742318 0.824779
O O4 0.805793 0.680842 0.000000
O O5 0.916743 0.790594 0.335617
O O6 0.000000 0.781117 0.500000
O O7 0.000000 0.000000 0.400831
O O8 0.500000 0.799501 0.894285
O O9 0.600754 0.823978 0.755753
O O10 0.613990 0.000000 0.884859
O O11 0.359439 0.500000 0.500000
O O12 0.500000 0.350648 0.500000
O O13 0.368069 0.265737 0.588444
O O14 0.752381 0.840301 0.690007
O O15 0.630315 0.000000 0.628700
O O16 0.866070 0.000000 0.763324
#
# Coordination Sequence:
#
# PCOD9387350 Si02
#       6
#     8   4   8   4   8   8
#     4  10  21  36  54  77 109 150 188 223 269 323
#     4   9  18  34  62  93 116 136 169 221 276 329
#     4   9  18  33  53  77 104 137 181 232 280 321
#     4  11  23  33  43  66  99 136 180 223 261 305
#     4   9  18  32  51  72  98 134 175 215 262 319
#     4   9  19  36  59  85 109 138 175 220 273 326
#
# _framework density 18.188164
#
# number of rings (size 3 to 8) (size 9 to 14) (size 15 to 20)
#    0.000    2.600    0.000    2.700    1.400    7.200 
#    0.000    3.000    0.000    3.600    0.000    0.000 
#    0.000    0.000    0.000    0.000    0.000    0.000 
#
# Total GULP energy -222989.157098 kJ/mol
# GULP energy per Si atom -5574.728927 kJ/mol
# Density = 1.814677 g / cm^3
# Si number density = 18.188164 Si / 1000 Ang^3
#
#
#
# Elastic Constant Matrix: (Units=GPa)
#
#
# Indices 1 2 3 4 5 6 
#
# 1 82.1949 18.3228 49.0451 0.0000 0.0000 0.0000
# 2 18.3228 102.6769 79.7924 0.0000 0.0000 0.0000
# 3 49.0451 79.7924 137.6144 0.0000 0.0000 0.0000
# 4 0.0000 0.0000 0.0000 7.3974 0.0000 0.0000
# 5 0.0000 0.0000 0.0000 0.0000 11.4798 0.0000
# 6 0.0000 0.0000 0.0000 0.0000 0.0000 9.9518
#
#
#
# Elastic Compliance Matrix: (Units=1/GPa)
#
#
# Indices 1 2 3 4 5 6 
#
# 1 0.015898 0.002851 -0.007319 0.000000 0.000000 0.000000
# 2 0.002851 0.018238 -0.011591 0.000000 0.000000 0.000000
# 3 -0.007319 -0.011591 0.016596 0.000000 0.000000 0.000000
# 4 0.000000 0.000000 0.000000 0.135183 0.000000 0.000000
# 5 0.000000 0.000000 0.000000 0.000000 0.087110 0.000000
# 6 0.000000 0.000000 0.000000 0.000000 0.000000 0.100484
#
#
# Mechanical properties :
#
#
# Convention : Reuss Voigt Hill
#
# Bulk Modulus (GPa) = 53.72424 68.53409 61.12917
# Shear Modulus (GPa) = 12.14090 17.45419 14.79755
#
# Velocity S-wave (km/s) = 2.58644 3.10118 2.85543
# Velocity P-wave (km/s) = 6.20658 7.11235 6.67485
#
# Compressibility (1/GPa) = 0.01861357
#
# Stress axis : x y z
#
# Youngs Moduli (GPa) = 62.90186 54.83031 60.25658
#
# Poissons Ratio (x) = -0.15630 0.44100
# Poissons Ratio (y) = -0.17930 0.69842
# Poissons Ratio (z) = 0.46036 0.63553
#
# Static dielectric constant tensor:
#      x y z
#    x 1.626720 0.000000 0.000000 
#    y 0.000000 1.621720 0.000000 
#    z 0.000000 0.000000 1.619820 
# 
# From -- ./inp_files/20669.got.cif
#   From: 2010.05.17/outbox.cif.g08.bks.cpg/sg47_11_cif.got.tgz:20669.got - 2010.06.03 20:15:42.
