data_PCOD9387457
_publ_section_title
;
Structure prediction by ZEFSAII (Michael W. Deem and Ramdas Pophale) SiO2 
 PCOD9387457
Probable space group: P M M M
;
_chemical_formula_sum "Si O2"
_cell_formula_units_Z 56
_cell_length_a 14.132896
_cell_length_b 22.648184
_cell_length_c 10.024588
_cell_angle_alpha 90.000000
_cell_angle_beta 90.000000
_cell_angle_gamma 90.000000
_cell_volume 3208.714527
_symmetry_space_group_name_H-M "P M M M"
_symmetry_group_IT_number 47
_symmetry_cell_setting 'orthorhombic'
loop_
_space_group_symop_operation_xyz
x,y,z
-x,-y,z
x,-y,-z
-x,y,-z
-x,-y,-z
x,y,-z
-x,y,z
x,-y,z
loop_
_atom_site_type_symbol
_atom_site_label
_atom_site_fract_x
_atom_site_fract_y
_atom_site_fract_z
Si Si1 0.613295 0.931138 0.500000
Si Si2 0.613177 0.930364 0.000000
Si Si3 0.888944 0.654156 0.343456
Si Si4 0.229216 0.430196 0.842669
Si Si5 0.279630 0.741752 0.654950
Si Si6 0.388203 0.379242 0.343912
Si Si7 0.109949 0.930631 0.659393
Si Si8 0.708806 0.130802 0.750855
O O1 0.500000 0.928994 0.500000
O O2 0.655145 0.898026 0.373843
O O3 0.642385 0.000000 0.500000
O O4 0.658667 0.898193 0.875214
O O5 0.500000 0.924768 0.000000
O O6 0.635656 0.000000 0.000000
O O7 0.873931 0.636376 0.500000
O O8 0.850145 0.605558 0.240274
O O9 0.822372 0.711219 0.322520
O O10 0.000000 0.665297 0.325693
O O11 0.211403 0.500000 0.837185
O O12 0.325592 0.415439 0.761448
O O13 0.234109 0.413063 0.000000
O O14 0.283225 0.760898 0.500000
O O15 0.354812 0.688821 0.672194
O O16 0.296929 0.798684 0.743836
O O17 0.367130 0.394958 0.500000
O O18 0.500000 0.385827 0.323433
O O19 0.122288 0.921363 0.500000
O O20 0.182706 0.889905 0.737092
O O21 0.000000 0.919465 0.690460
O O22 0.129488 0.000000 0.685339
#
# Coordination Sequence:
#
# PCOD9387457 Si02
#       8
#     4   4   8   8   8   8   8   8
#     4  11  22  34  55  85 109 139 191 242 286 342
#     4  11  26  44  57  75 111 155 193 234 290 350
#     4   9  19  37  61  85 115 153 189 230 279 331
#     4  10  21  36  55  83 120 155 191 235 279 328
#     4   9  18  35  56  85 112 137 181 236 284 334
#     4   9  19  36  57  80 111 150 190 236 288 337
#     4   9  17  30  52  83 111 134 169 220 278 337
#     4  12  21  37  59  81 111 149 187 236 290 342
#
# _framework density 17.452470999999999
#
# number of rings (size 3 to 8) (size 9 to 14) (size 15 to 20)
#    0.000    2.143    1.429    3.429    0.000    5.143 
#    5.143    4.643    0.000    1.286    0.000    0.000 
#    0.000    0.000    0.000    0.000    0.000    0.000 
#
# Total GULP energy -312395.067008 kJ/mol
# GULP energy per Si atom -5578.483339 kJ/mol
# Density = 1.741275 g / cm^3
# Si number density = 17.452471 Si / 1000 Ang^3
#
#
#
# Elastic Constant Matrix: (Units=GPa)
#
#
# Indices 1 2 3 4 5 6 
#
# 1 66.9447 17.0422 32.0625 0.0000 0.0000 0.0000
# 2 17.0422 80.6963 53.0031 0.0000 0.0000 0.0000
# 3 32.0625 53.0031 115.6462 0.0000 0.0000 0.0000
# 4 0.0000 0.0000 0.0000 32.2100 0.0000 0.0000
# 5 0.0000 0.0000 0.0000 0.0000 18.8284 0.0000
# 6 0.0000 0.0000 0.0000 0.0000 0.0000 -41.5420
#
#
#
# Elastic Compliance Matrix: (Units=1/GPa)
#
#
# Indices 1 2 3 4 5 6 
#
# 1 0.017254 -0.000718 -0.004455 0.000000 0.000000 0.000000
# 2 -0.000718 0.017759 -0.007940 0.000000 0.000000 0.000000
# 3 -0.004455 -0.007940 0.013521 0.000000 0.000000 0.000000
# 4 0.000000 0.000000 0.000000 0.031046 0.000000 0.000000
# 5 0.000000 0.000000 0.000000 0.000000 0.053111 0.000000
# 6 0.000000 0.000000 0.000000 0.000000 0.000000 -0.024072
#
#
# Mechanical properties :
#
#
# Convention : Reuss Voigt Hill
#
# Bulk Modulus (GPa) = 44.82568 51.94477 48.38523
# Shear Modulus (GPa) = 35.14152 12.64457 23.89305
#
# Velocity S-wave (km/s) = 4.49213 2.69460 3.70406
# Velocity P-wave (km/s) = 7.25575 6.28565 6.78805
#
# Compressibility (1/GPa) = 0.02230864
#
# Stress axis : x y z
#
# Youngs Moduli (GPa) = 57.95778 56.30894 73.95741
#
# Poissons Ratio (x) = 0.04043 0.32944
# Poissons Ratio (y) = 0.04162 0.58725
# Poissons Ratio (z) = 0.25817 0.44711
#
# Static dielectric constant tensor:
#      x y z
#    x 1.596150 0.000000 0.000000 
#    y 0.000000 1.578670 0.000000 
#    z 0.000000 0.000000 1.570180 
# 
# From -- ./inp_files/7450.got.cif
#   From: 2010.05.17/outbox.cif.g08.bks.cpg/sg47_4_cif.got.tgz:7450.got - 2010.06.03 20:15:42.
