data_PCOD9387218
_publ_section_title
;
Structure prediction by ZEFSAII (Michael W. Deem and Ramdas Pophale) SiO2 
 PCOD9387218
Probable space group: P M M M
;
_chemical_formula_sum "Si O2"
_cell_formula_units_Z 40
_cell_length_a 26.875861
_cell_length_b 7.628337
_cell_length_c 9.568519
_cell_angle_alpha 90.000000
_cell_angle_beta 90.000000
_cell_angle_gamma 90.000000
_cell_volume 1961.719823
_symmetry_space_group_name_H-M "P M M M"
_symmetry_group_IT_number 47
_symmetry_cell_setting 'orthorhombic'
loop_
_space_group_symop_operation_xyz
x,y,z
-x,-y,z
x,-y,-z
-x,y,-z
-x,-y,-z
x,y,-z
-x,y,z
x,-y,z
loop_
_atom_site_type_symbol
_atom_site_label
_atom_site_fract_x
_atom_site_fract_y
_atom_site_fract_z
Si Si1 0.741820 0.290336 0.657908
Si Si2 0.838207 0.788257 0.160743
Si Si3 0.443790 0.788579 0.658764
Si Si4 0.053488 0.791362 0.169082
Si Si5 0.650713 0.708667 0.842697
O O1 0.743117 0.220345 0.500000
O O2 0.735352 0.500000 0.648040
O O3 0.792770 0.259385 0.740702
O O4 0.695371 0.219440 0.747222
O O5 0.892408 0.723145 0.213394
O O6 0.841105 0.000000 0.155726
O O7 0.830075 0.728242 0.000000
O O8 0.432092 0.729349 0.500000
O O9 0.500000 0.729500 0.693246
O O10 0.401724 0.734293 0.766366
O O11 0.444552 0.000000 0.656575
O O12 0.000000 0.718717 0.218197
O O13 0.052694 0.000000 0.199562
O O14 0.054022 0.775045 0.000000
O O15 0.658694 0.500000 0.853170
O O16 0.651095 0.780655 0.000000
#
# Coordination Sequence:
#
# PCOD9387218 Si02
#       5
#     8   8   8   8   8
#     4  10  21  36  52  69  93 129 169 204 242 290
#     4   9  17  29  48  75 101 124 156 199 245 292
#     4   9  19  36  56  78 105 136 167 197 233 281
#     4   7  10  19  38  65  95 123 151 188 235 284
#     4  10  21  36  54  76 100 127 163 206 248 289
#
# _framework density 20.390270999999998
#
# number of rings (size 3 to 8) (size 9 to 14) (size 15 to 20)
#    0.000    3.000    0.000    3.600    0.000    4.800 
#    0.000    3.000    0.000    1.200    0.000    7.000 
#    0.000    0.000    0.000    0.000    0.000    0.000 
#
# Total GULP energy -222997.535035 kJ/mol
# GULP energy per Si atom -5574.938376 kJ/mol
# Density = 2.034386 g / cm^3
# Si number density = 20.390271 Si / 1000 Ang^3
#
#
#
# Elastic Constant Matrix: (Units=GPa)
#
#
# Indices 1 2 3 4 5 6 
#
# 1 201.3924 0.2654 124.9172 0.0000 0.0000 0.0000
# 2 0.2654 39.0767 8.1477 0.0000 0.0000 0.0000
# 3 124.9172 8.1477 147.2205 0.0000 0.0000 0.0000
# 4 0.0000 0.0000 0.0000 6.1563 0.0000 0.0000
# 5 0.0000 0.0000 0.0000 0.0000 145.7827 0.0000
# 6 0.0000 0.0000 0.0000 0.0000 0.0000 27.5018
#
#
#
# Elastic Compliance Matrix: (Units=1/GPa)
#
#
# Indices 1 2 3 4 5 6 
#
# 1 0.010609 0.001826 -0.009103 0.000000 0.000000 0.000000
# 2 0.001826 0.026204 -0.003000 0.000000 0.000000 0.000000
# 3 -0.009103 -0.003000 0.014683 0.000000 0.000000 0.000000
# 4 0.000000 0.000000 0.000000 0.162436 0.000000 0.000000
# 5 0.000000 0.000000 0.000000 0.000000 0.006860 0.000000
# 6 0.000000 0.000000 0.000000 0.000000 0.000000 0.036361
#
#
# Mechanical properties :
#
#
# Convention : Reuss Voigt Hill
#
# Bulk Modulus (GPa) = 32.31828 72.70557 52.51193
# Shear Modulus (GPa) = 17.35990 52.84545 35.10267
#
# Velocity S-wave (km/s) = 2.92101 5.09640 4.15365
# Velocity P-wave (km/s) = 5.22117 8.38841 6.98663
#
# Compressibility (1/GPa) = 0.03094224
#
# Stress axis : x y z
#
# Youngs Moduli (GPa) = 94.25549 38.16253 68.10753
#
# Poissons Ratio (x) = -0.06968 0.62000
# Poissons Ratio (y) = -0.17211 0.20429
# Poissons Ratio (z) = 0.85803 0.11447
#
# Static dielectric constant tensor:
#      x y z
#    x 1.742390 0.000000 0.000000 
#    y 0.000000 1.778800 0.000000 
#    z 0.000000 0.000000 1.699800 
# 
# From -- ./inp_files/1403.got.cif
#   From: 2010.05.17/outbox.cif.g08.bks.cpg/sg47_1_cif.got.tgz:1403.got - 2010.06.03 20:15:42.
