data_PCOD9387257
_publ_section_title
;
Structure prediction by ZEFSAII (Michael W. Deem and Ramdas Pophale) SiO2 
 PCOD9387257
Probable space group: P M M M
;
_chemical_formula_sum "Si O2"
_cell_formula_units_Z 64
_cell_length_a 18.160229
_cell_length_b 9.248990
_cell_length_c 21.026718
_cell_angle_alpha 90.000000
_cell_angle_beta 90.000000
_cell_angle_gamma 90.000000
_cell_volume 3531.726961
_symmetry_space_group_name_H-M "P M M M"
_symmetry_group_IT_number 47
_symmetry_cell_setting 'orthorhombic'
loop_
_space_group_symop_operation_xyz
x,y,z
-x,-y,z
x,-y,-z
-x,y,-z
-x,-y,-z
x,y,-z
-x,y,z
x,-y,z
loop_
_atom_site_type_symbol
_atom_site_label
_atom_site_fract_x
_atom_site_fract_y
_atom_site_fract_z
Si Si1 0.711781 0.330307 0.073403
Si Si2 0.196235 0.673143 0.302898
Si Si3 0.378299 0.168894 0.570156
Si Si4 0.629865 0.326821 0.302773
Si Si5 0.580327 0.676056 0.164391
Si Si6 0.800727 0.169066 0.569866
Si Si7 0.917907 0.328179 0.195210
Si Si8 0.132488 0.827157 0.928011
O O1 0.728999 0.500000 0.087654
O O2 0.648027 0.278824 0.120481
O O3 0.785068 0.236233 0.078842
O O4 0.686629 0.324430 0.000000
O O5 0.190426 0.500000 0.307282
O O6 0.282912 0.707355 0.294205
O O7 0.172407 0.743203 0.369477
O O8 0.145332 0.720483 0.244246
O O9 0.403132 0.220765 0.500000
O O10 0.400405 0.254702 0.633076
O O11 0.288745 0.177380 0.569725
O O12 0.398170 0.000000 0.575579
O O13 0.623470 0.500000 0.308980
O O14 0.591320 0.280604 0.237613
O O15 0.500000 0.722957 0.141271
O O16 0.581648 0.500000 0.163488
O O17 0.825378 0.220677 0.500000
O O18 0.819438 0.000000 0.576044
O O19 0.907678 0.500000 0.184011
O O20 0.911918 0.245818 0.128694
O O21 0.000000 0.307504 0.222309
O O22 0.132126 0.000000 0.922109
O O23 0.107257 0.790580 0.000000
#
# Coordination Sequence:
#
# PCOD9387257 Si02
#       8
#     8   8   8   8   8   8   8   8
#     4   9  17  31  53  77  99 126 161 199 237 281
#     4   9  17  29  46  69  95 122 156 198 241 285
#     4   8  14  25  41  62  88 115 145 188 239 283
#     4   9  16  26  43  66  91 120 153 191 234 280
#     4   9  17  29  46  70 100 130 160 198 241 281
#     4   8  14  25  42  66  94 121 152 193 240 287
#     4  10  21  36  53  73  99 131 165 201 241 287
#     4  10  21  36  54  76 101 128 159 198 243 290
#
# _framework density 18.121445999999999
#
# number of rings (size 3 to 8) (size 9 to 14) (size 15 to 20)
#    0.000    3.000    0.000    1.875    0.000    4.500 
#    0.000    8.125    0.000    2.250    0.000    7.000 
#    0.000    0.000    0.000    0.000    0.000    0.000 
#
# Total GULP energy -356630.723756 kJ/mol
# GULP energy per Si atom -5572.355059 kJ/mol
# Density = 1.808020 g / cm^3
# Si number density = 18.121446 Si / 1000 Ang^3
#
#
#
# Elastic Constant Matrix: (Units=GPa)
#
#
# Indices 1 2 3 4 5 6 
#
# 1 37.4928 11.3716 27.3722 0.0000 0.0000 0.0000
# 2 11.3716 13.1577 19.0072 0.0000 0.0000 0.0000
# 3 27.3722 19.0072 79.9959 0.0000 0.0000 0.0000
# 4 0.0000 0.0000 0.0000 23.1448 0.0000 0.0000
# 5 0.0000 0.0000 0.0000 0.0000 -11.5965 0.0000
# 6 0.0000 0.0000 0.0000 0.0000 0.0000 1.4392
#
#
#
# Elastic Compliance Matrix: (Units=1/GPa)
#
#
# Indices 1 2 3 4 5 6 
#
# 1 0.039394 -0.022191 -0.008207 0.000000 0.000000 0.000000
# 2 -0.022191 0.128221 -0.022872 0.000000 0.000000 0.000000
# 3 -0.008207 -0.022872 0.020743 0.000000 0.000000 0.000000
# 4 0.000000 0.000000 0.000000 0.043206 0.000000 0.000000
# 5 0.000000 0.000000 0.000000 0.000000 -0.086233 0.000000
# 6 0.000000 0.000000 0.000000 0.000000 0.000000 0.694825
#
#
# Mechanical properties :
#
#
# Convention : Reuss Voigt Hill
#
# Bulk Modulus (GPa) = 12.22237 27.34984 19.78611
# Shear Modulus (GPa) = 5.13364 7.45720 6.29542
#
# Velocity S-wave (km/s) = 1.68495 2.03078 1.86589
# Velocity P-wave (km/s) = 3.24727 4.54137 3.94771
#
# Compressibility (1/GPa) = 0.08181718
#
# Stress axis : x y z
#
# Youngs Moduli (GPa) = 25.38464 7.79905 48.20843
#
# Poissons Ratio (x) = 0.17307 0.39563
# Poissons Ratio (y) = 0.56332 1.10264
# Poissons Ratio (z) = 0.20832 0.17838
#
# Static dielectric constant tensor:
#      x y z
#    x 1.623080 0.000000 0.000000 
#    y 0.000000 1.602430 0.000000 
#    z 0.000000 0.000000 1.632410 
# 
# From -- ./inp_files/9952.got.cif
#   From: 2010.05.17/outbox.cif.g08.bks.cpg/sg47_5_cif.got.tgz:9952.got - 2010.06.03 20:15:42.
