data_PCOD9387945
_publ_section_title
;
Structure prediction by ZEFSAII (Michael W. Deem and Ramdas Pophale) SiO2 
 PCOD9387945
Probable space group: P M M M
;
_chemical_formula_sum "Si O2"
_cell_formula_units_Z 44
_cell_length_a 9.579599
_cell_length_b 31.325133
_cell_length_c 7.417951
_cell_angle_alpha 90.000000
_cell_angle_beta 90.000000
_cell_angle_gamma 90.000000
_cell_volume 2225.995150
_symmetry_space_group_name_H-M "P M M M"
_symmetry_group_IT_number 47
_symmetry_cell_setting 'orthorhombic'
loop_
_space_group_symop_operation_xyz
x,y,z
-x,-y,z
x,-y,-z
-x,y,-z
-x,-y,-z
x,y,-z
-x,y,z
x,-y,z
loop_
_atom_site_type_symbol
_atom_site_label
_atom_site_fract_x
_atom_site_fract_y
_atom_site_fract_z
Si Si1 0.160064 0.198402 0.218031
Si Si2 0.334552 0.050675 0.000000
Si Si3 0.832637 0.545888 0.783160
Si Si4 0.162486 0.899116 0.707150
Si Si5 0.339659 0.279227 0.220387
Si Si6 0.162405 0.639128 0.779722
O O1 0.200273 0.151000 0.278983
O O2 0.260391 0.236326 0.278183
O O3 0.000000 0.206500 0.274978
O O4 0.161467 0.197861 0.000000
O O5 0.261356 0.072697 0.829708
O O6 0.500000 0.058500 0.000000
O O7 0.310787 0.000000 0.000000
O O8 0.778558 0.500000 0.714883
O O9 0.783902 0.592365 0.719432
O O10 0.000000 0.546103 0.752054
O O11 0.813478 0.545445 0.000000
O O12 0.170113 0.912387 0.500000
O O13 0.000000 0.902232 0.766810
O O14 0.500000 0.279996 0.277396
O O15 0.255442 0.321212 0.278552
O O16 0.338107 0.279299 0.000000
O O17 0.000000 0.644311 0.726670
O O18 0.162922 0.638710 0.000000
#
# Coordination Sequence:
#
# PCOD9387945 Si02
#       6
#     8   4   8   8   8   8
#     4   9  16  29  49  72  99 131 167 211 264 320
#     4  11  25  43  63  89 125 165 199 235 280 333
#     4   7   9  13  22  36  53  77 117 172 231 289
#     4  10  21  39  64  92 119 150 193 243 291 337
#     4   9  16  23  33  53  80 112 150 194 244 301
#     4   8  12  18  28  42  62  91 131 182 238 295
#
# _framework density 19.766439999999999
#
# number of rings (size 3 to 8) (size 9 to 14) (size 15 to 20)
#    0.000    3.182    0.909    2.455    0.000    4.364 
#    0.000    1.818    0.000    0.545    0.000    3.818 
#    0.000    0.000    0.000    0.000    0.000    0.909 
#
# Total GULP energy -245399.485607 kJ/mol
# GULP energy per Si atom -5577.261037 kJ/mol
# Density = 1.972145 g / cm^3
# Si number density = 19.766440 Si / 1000 Ang^3
#
#
#
# Elastic Constant Matrix: (Units=GPa)
#
#
# Indices 1 2 3 4 5 6 
#
# 1 104.5442 117.3682 28.3158 0.0000 0.0000 0.0000
# 2 117.3682 194.3308 40.1517 0.0000 0.0000 0.0000
# 3 28.3158 40.1517 73.2176 0.0000 0.0000 0.0000
# 4 0.0000 0.0000 0.0000 -29.0749 0.0000 0.0000
# 5 0.0000 0.0000 0.0000 0.0000 -7.0688 0.0000
# 6 0.0000 0.0000 0.0000 0.0000 0.0000 -17.3446
#
#
#
# Elastic Compliance Matrix: (Units=1/GPa)
#
#
# Indices 1 2 3 4 5 6 
#
# 1 0.029937 -0.017693 -0.001875 0.000000 0.000000 0.000000
# 2 -0.017693 0.016261 -0.002075 0.000000 0.000000 0.000000
# 3 -0.001875 -0.002075 0.015521 0.000000 0.000000 0.000000
# 4 0.000000 0.000000 0.000000 -0.034394 0.000000 0.000000
# 5 0.000000 0.000000 0.000000 0.000000 -0.141467 0.000000
# 6 0.000000 0.000000 0.000000 0.000000 0.000000 -0.057655
#
#
# Mechanical properties :
#
#
# Convention : Reuss Voigt Hill
#
# Bulk Modulus (GPa) = 54.25116 82.64042 68.44579
# Shear Modulus (GPa) = -40.86000 1.71947 -19.57026
#
# Velocity S-wave (km/s) = -4.55151 0.93369 -3.14996
# Velocity P-wave (km/s) = 0.34062 6.56213 4.63387
#
# Compressibility (1/GPa) = 0.01843278
#
# Stress axis : x y z
#
# Youngs Moduli (GPa) = 33.40381 61.49868 64.43048
#
# Poissons Ratio (x) = 1.08811 0.12079
# Poissons Ratio (y) = 0.59102 0.13366
# Poissons Ratio (z) = 0.06262 0.12758
#
# Static dielectric constant tensor:
#      x y z
#    x 1.645790 0.000000 0.000000 
#    y 0.000000 1.696320 0.000000 
#    z 0.000000 0.000000 1.448040 
# 
# From -- ./inp_files/2283.got.cif
#   From: 2010.05.17/outbox.cif.g08.bks.cpg/sg47_2_cif.got.tgz:2283.got - 2010.06.03 20:15:42.
