data_PCOD9387729
_publ_section_title
;
Structure prediction by ZEFSAII (Michael W. Deem and Ramdas Pophale) SiO2 
 PCOD9387729
Probable space group: P M M M
;
_chemical_formula_sum "Si O2"
_cell_formula_units_Z 40
_cell_length_a 8.461792
_cell_length_b 15.677311
_cell_length_c 15.071568
_cell_angle_alpha 90.000000
_cell_angle_beta 90.000000
_cell_angle_gamma 90.000000
_cell_volume 1999.366250
_symmetry_space_group_name_H-M "P M M M"
_symmetry_group_IT_number 47
_symmetry_cell_setting 'orthorhombic'
loop_
_space_group_symop_operation_xyz
x,y,z
-x,-y,z
x,-y,-z
-x,y,-z
-x,-y,-z
x,y,-z
-x,y,z
x,-y,z
loop_
_atom_site_type_symbol
_atom_site_label
_atom_site_fract_x
_atom_site_fract_y
_atom_site_fract_z
Si Si1 0.810232 0.592996 0.296530
Si Si2 0.677821 0.230574 0.640620
Si Si3 0.189647 0.647807 0.902301
Si Si4 0.325368 0.177742 0.154274
Si Si5 0.000000 0.100262 0.097678
Si Si6 0.812149 0.901087 0.500000
O O1 0.752803 0.500000 0.327382
O O2 0.751575 0.674876 0.351265
O O3 0.771072 0.601631 0.190805
O O4 0.000000 0.594071 0.301569
O O5 0.500000 0.238681 0.606684
O O6 0.672052 0.199517 0.741959
O O7 0.761889 0.157598 0.583314
O O8 0.289400 0.734472 0.896988
O O9 0.000000 0.666260 0.896753
O O10 0.215278 0.607490 0.000000
O O11 0.500000 0.143485 0.129338
O O12 0.166655 0.124199 0.140674
O O13 0.000000 0.000000 0.090359
O O14 0.000000 0.141175 0.000000
O O15 0.000000 0.907541 0.500000
O O16 0.749936 0.000000 0.500000
#
# Coordination Sequence:
#
# PCOD9387729 Si02
#       6
#     8   8   8   8   4   4
#     4   9  18  33  55  84 121 165 209 252 299 357
#     4  10  22  40  63  90 122 160 197 243 304 368
#     4   9  16  28  50  79 113 156 205 255 304 352
#     4  10  21  37  58  82 112 156 204 248 302 367
#     4  11  24  38  54  79 112 152 199 255 312 362
#     4  11  25  43  68  99 124 149 185 242 312 377
#
# _framework density 20.006338
#
# number of rings (size 3 to 8) (size 9 to 14) (size 15 to 20)
#    0.000    2.200    1.000    1.500    2.800    4.400 
#    0.000    5.500    0.000    3.000    0.000    5.600 
#    0.000    0.000    0.000    0.000    0.000    0.000 
#
# Total GULP energy -222777.581958 kJ/mol
# GULP energy per Si atom -5569.439549 kJ/mol
# Density = 1.996080 g / cm^3
# Si number density = 20.006338 Si / 1000 Ang^3
#
#
#
# Elastic Constant Matrix: (Units=GPa)
#
#
# Indices 1 2 3 4 5 6 
#
# 1 111.6588 61.7189 21.4845 0.0000 0.0000 0.0000
# 2 61.7189 149.7203 47.2887 0.0000 0.0000 0.0000
# 3 21.4845 47.2887 77.8628 0.0000 0.0000 0.0000
# 4 0.0000 0.0000 0.0000 0.9013 0.0000 0.0000
# 5 0.0000 0.0000 0.0000 0.0000 -2.2028 0.0000
# 6 0.0000 0.0000 0.0000 0.0000 0.0000 -15.0049
#
#
#
# Elastic Compliance Matrix: (Units=1/GPa)
#
#
# Indices 1 2 3 4 5 6 
#
# 1 0.011607 -0.004669 -0.000367 0.000000 0.000000 0.000000
# 2 -0.004669 0.010142 -0.004872 0.000000 0.000000 0.000000
# 3 -0.000367 -0.004872 0.015903 0.000000 0.000000 0.000000
# 4 0.000000 0.000000 0.000000 1.109568 0.000000 0.000000
# 5 0.000000 0.000000 0.000000 0.000000 -0.453959 0.000000
# 6 0.000000 0.000000 0.000000 0.000000 0.000000 -0.066645
#
#
# Mechanical properties :
#
#
# Convention : Reuss Voigt Hill
#
# Bulk Modulus (GPa) = 56.06172 66.69178 61.37675
# Shear Modulus (GPa) = 7.66426 10.65536 9.15981
#
# Velocity S-wave (km/s) = 1.95940 2.31031 2.14205
# Velocity P-wave (km/s) = 5.76210 6.36588 6.07150
#
# Compressibility (1/GPa) = 0.01783748
#
# Stress axis : x y z
#
# Youngs Moduli (GPa) = 86.15357 98.59592 62.88081
#
# Poissons Ratio (x) = 0.46033 0.02309
# Poissons Ratio (y) = 0.40224 0.30633
# Poissons Ratio (z) = 0.03164 0.48032
#
# Static dielectric constant tensor:
#      x y z
#    x 1.786420 0.000000 0.000000 
#    y 0.000000 1.719500 0.000000 
#    z 0.000000 0.000000 1.732950 
# 
# From -- ./inp_files/20649.got.cif
#   From: 2010.05.17/outbox.cif.g08.bks.cpg/sg47_11_cif.got.tgz:20649.got - 2010.06.03 20:15:42.
