data_PCOD9387402
_publ_section_title
;
Structure prediction by ZEFSAII (Michael W. Deem and Ramdas Pophale) SiO2 
 PCOD9387402
Probable space group: P M M M
;
_chemical_formula_sum "Si O2"
_cell_formula_units_Z 44
_cell_length_a 8.077296
_cell_length_b 30.829964
_cell_length_c 9.455822
_cell_angle_alpha 90.000000
_cell_angle_beta 90.000000
_cell_angle_gamma 90.000000
_cell_volume 2354.714750
_symmetry_space_group_name_H-M "P M M M"
_symmetry_group_IT_number 47
_symmetry_cell_setting 'orthorhombic'
loop_
_space_group_symop_operation_xyz
x,y,z
-x,-y,z
x,-y,-z
-x,y,-z
-x,-y,-z
x,y,-z
-x,y,z
x,-y,z
loop_
_atom_site_type_symbol
_atom_site_label
_atom_site_fract_x
_atom_site_fract_y
_atom_site_fract_z
Si Si1 0.200034 0.450966 0.337494
Si Si2 0.000000 0.050089 0.827209
Si Si3 0.696992 0.631540 0.160011
Si Si4 0.799462 0.798067 0.834652
Si Si5 0.685013 0.893682 0.172177
Si Si6 0.198975 0.714448 0.660205
O O1 0.252386 0.442300 0.500000
O O2 0.253335 0.500000 0.300134
O O3 0.260668 0.413873 0.233850
O O4 0.000000 0.450473 0.336375
O O5 0.165433 0.075406 0.780685
O O6 0.000000 0.000000 0.783630
O O7 0.000000 0.050896 0.000000
O O8 0.500000 0.635473 0.153940
O O9 0.761575 0.671263 0.253244
O O10 0.763918 0.633437 0.000000
O O11 0.723591 0.843918 0.788693
O O12 0.742546 0.757348 0.742341
O O13 0.000000 0.801835 0.826146
O O14 0.758378 0.790773 0.000000
O O15 0.500000 0.906342 0.217929
O O16 0.687090 0.894614 0.000000
O O17 0.263114 0.712054 0.500000
O O18 0.000000 0.717829 0.653586
#
# Coordination Sequence:
#
# PCOD9387402 Si02
#       6
#     8   4   8   8   8   8
#     4   9  19  37  60  83 105 132 170 215 262 314
#     4   9  16  26  40  62  97 137 175 217 264 315
#     4  11  24  38  52  75 108 142 176 215 259 310
#     4   9  16  29  49  70  97 134 172 211 259 314
#     4   9  16  26  42  65  94 131 174 217 262 315
#     4  10  21  36  55  79 105 135 173 216 263 316
#
# _framework density 18.685917
#
# number of rings (size 3 to 8) (size 9 to 14) (size 15 to 20)
#    0.000    2.455    0.909    2.182    0.000    6.909 
#    0.000    6.364    0.000    0.000    0.000    0.000 
#    0.000    1.455    0.000    1.636    0.000    1.818 
#
# Total GULP energy -245505.202634 kJ/mol
# GULP energy per Si atom -5579.663696 kJ/mol
# Density = 1.864339 g / cm^3
# Si number density = 18.685917 Si / 1000 Ang^3
#
#
#
# Elastic Constant Matrix: (Units=GPa)
#
#
# Indices 1 2 3 4 5 6 
#
# 1 60.7396 50.8254 30.6416 0.0000 0.0000 0.0000
# 2 50.8254 163.6745 78.0209 0.0000 0.0000 0.0000
# 3 30.6416 78.0209 87.7658 0.0000 0.0000 0.0000
# 4 0.0000 0.0000 0.0000 -39.0947 0.0000 0.0000
# 5 0.0000 0.0000 0.0000 0.0000 -3.5665 0.0000
# 6 0.0000 0.0000 0.0000 0.0000 0.0000 -13.2954
#
#
#
# Elastic Compliance Matrix: (Units=1/GPa)
#
#
# Indices 1 2 3 4 5 6 
#
# 1 0.022653 -0.005665 -0.002873 0.000000 0.000000 0.000000
# 2 -0.005665 0.012019 -0.008707 0.000000 0.000000 0.000000
# 3 -0.002873 -0.008707 0.020137 0.000000 0.000000 0.000000
# 4 0.000000 0.000000 0.000000 -0.025579 0.000000 0.000000
# 5 0.000000 0.000000 0.000000 0.000000 -0.280389 0.000000
# 6 0.000000 0.000000 0.000000 0.000000 0.000000 -0.075214
#
#
# Mechanical properties :
#
#
# Convention : Reuss Voigt Hill
#
# Bulk Modulus (GPa) = 49.21244 70.12843 59.67043
# Shear Modulus (GPa) = -17.53717 -1.01184 -9.27450
#
# Velocity S-wave (km/s) = -3.06686 -0.73666 -2.23028
# Velocity P-wave (km/s) = 3.72196 6.07355 5.03691
#
# Compressibility (1/GPa) = 0.02032006
#
# Stress axis : x y z
#
# Youngs Moduli (GPa) = 44.14351 83.19972 49.65948
#
# Poissons Ratio (x) = 0.47133 0.14267
# Poissons Ratio (y) = 0.25007 0.43238
# Poissons Ratio (z) = 0.12682 0.72441
#
# Static dielectric constant tensor:
#      x y z
#    x 1.666090 0.000000 0.000000 
#    y 0.000000 1.618630 0.000000 
#    z 0.000000 0.000000 1.635680 
# 
# From -- ./inp_files/2202.got.cif
#   From: 2010.05.17/outbox.cif.g08.bks.cpg/sg47_2_cif.got.tgz:2202.got - 2010.06.03 20:15:42.
