data_PCOD9387574
_publ_section_title
;
Structure prediction by ZEFSAII (Michael W. Deem and Ramdas Pophale) SiO2 
 PCOD9387574
Probable space group: P M M M
;
_chemical_formula_sum "Si O2"
_cell_formula_units_Z 40
_cell_length_a 8.943700
_cell_length_b 30.914228
_cell_length_c 7.753860
_cell_angle_alpha 90.000000
_cell_angle_beta 90.000000
_cell_angle_gamma 90.000000
_cell_volume 2143.845995
_symmetry_space_group_name_H-M "P M M M"
_symmetry_group_IT_number 47
_symmetry_cell_setting 'orthorhombic'
loop_
_space_group_symop_operation_xyz
x,y,z
-x,-y,z
x,-y,-z
-x,y,-z
-x,-y,-z
x,y,-z
-x,y,z
x,-y,z
loop_
_atom_site_type_symbol
_atom_site_label
_atom_site_fract_x
_atom_site_fract_y
_atom_site_fract_z
Si Si1 0.180098 0.822370 0.799465
Si Si2 0.182566 0.341305 0.500000
Si Si3 0.828396 0.500000 0.789954
Si Si4 0.167165 0.000000 0.705039
Si Si5 0.183045 0.405375 0.801009
Si Si6 0.182357 0.242255 0.500000
Si Si7 0.668319 0.911306 0.793231
O O1 0.227963 0.784479 0.669985
O O2 0.244359 0.868369 0.736997
O O3 0.000000 0.824967 0.795482
O O4 0.223891 0.814916 0.000000
O O5 0.228775 0.368248 0.668981
O O6 0.233782 0.291781 0.500000
O O7 0.000000 0.340684 0.500000
O O8 0.763226 0.546734 0.742974
O O9 0.000000 0.500000 0.726872
O O10 0.833270 0.500000 0.000000
O O11 0.251406 0.956263 0.754536
O O12 0.157055 0.000000 0.500000
O O13 0.000000 0.000000 0.779636
O O14 0.000000 0.407175 0.800025
O O15 0.227090 0.397770 0.000000
O O16 0.000000 0.243022 0.500000
O O17 0.500000 0.911669 0.723867
O O18 0.661366 0.908198 0.000000
#
# Coordination Sequence:
#
# PCOD9387574 Si02
#       7
#     8   4   4   4   8   4   8
#     4   9  18  33  52  71  93 125 160 195 240 290
#     4   9  16  23  32  50  70  94 131 178 233 279
#     4   7  10  17  27  39  58  89 127 166 213 269
#     4  11  24  37  52  78 110 141 168 193 228 282
#     4   8  13  20  29  42  64  93 127 171 222 274
#     4   9  18  30  44  62  85 111 149 198 240 289
#     4  10  21  37  56  78 103 129 161 203 244 284
#
# _framework density 18.658055000000001
#
# number of rings (size 3 to 8) (size 9 to 14) (size 15 to 20)
#    0.000    3.000    0.000    2.400    1.400    4.400 
#    0.000    6.000    0.000    0.000    0.000    0.000 
#    0.000    0.000    0.000    0.000    0.000    0.000 
#
# Total GULP energy -222869.416934 kJ/mol
# GULP energy per Si atom -5571.735423 kJ/mol
# Density = 1.861559 g / cm^3
# Si number density = 18.658055 Si / 1000 Ang^3
#
#
#
# Elastic Constant Matrix: (Units=GPa)
#
#
# Indices 1 2 3 4 5 6 
#
# 1 21.8669 32.6241 21.1021 0.0000 0.0000 0.0000
# 2 32.6241 222.6445 88.1546 0.0000 0.0000 0.0000
# 3 21.1021 88.1546 91.1260 0.0000 0.0000 0.0000
# 4 0.0000 0.0000 0.0000 29.8028 0.0000 0.0000
# 5 0.0000 0.0000 0.0000 0.0000 3.5207 0.0000
# 6 0.0000 0.0000 0.0000 0.0000 0.0000 -3.5076
#
#
#
# Elastic Compliance Matrix: (Units=1/GPa)
#
#
# Indices 1 2 3 4 5 6 
#
# 1 0.062913 -0.005592 -0.009159 0.000000 0.000000 0.000000
# 2 -0.005592 0.007777 -0.006228 0.000000 0.000000 0.000000
# 3 -0.009159 -0.006228 0.019120 0.000000 0.000000 0.000000
# 4 0.000000 0.000000 0.000000 0.033554 0.000000 0.000000
# 5 0.000000 0.000000 0.000000 0.000000 0.284036 0.000000
# 6 0.000000 0.000000 0.000000 0.000000 0.000000 -0.285097
#
#
# Mechanical properties :
#
#
# Convention : Reuss Voigt Hill
#
# Bulk Modulus (GPa) = 20.89817 68.82212 44.86015
# Shear Modulus (GPa) = 27.74503 18.88028 23.31266
#
# Velocity S-wave (km/s) = 3.86038 3.18451 3.53862
# Velocity P-wave (km/s) = 5.57629 7.10546 6.38680
#
# Compressibility (1/GPa) = 0.04785109
#
# Stress axis : x y z
#
# Youngs Moduli (GPa) = 15.89489 128.58438 52.30102
#
# Poissons Ratio (x) = 0.71908 0.47902
# Poissons Ratio (y) = 0.08889 0.32575
# Poissons Ratio (z) = 0.14558 0.80088
#
# Static dielectric constant tensor:
#      x y z
#    x 1.636210 0.000000 0.000000 
#    y 0.000000 1.650820 0.000000 
#    z 0.000000 0.000000 1.662770 
# 
# From -- ./inp_files/1922.got.cif
#   From: 2010.05.17/outbox.cif.g08.bks.cpg/sg47_1_cif.got.tgz:1922.got - 2010.06.03 20:15:42.
