data_PCOD9387344
_publ_section_title
;
Structure prediction by ZEFSAII (Michael W. Deem and Ramdas Pophale) SiO2 
 PCOD9387344
Probable space group: P M M M
;
_chemical_formula_sum "Si O2"
_cell_formula_units_Z 48
_cell_length_a 31.658015
_cell_length_b 9.595949
_cell_length_c 8.640457
_cell_angle_alpha 90.000000
_cell_angle_beta 90.000000
_cell_angle_gamma 90.000000
_cell_volume 2624.873177
_symmetry_space_group_name_H-M "P M M M"
_symmetry_group_IT_number 47
_symmetry_cell_setting 'orthorhombic'
loop_
_space_group_symop_operation_xyz
x,y,z
-x,-y,z
x,-y,-z
-x,y,-z
-x,-y,-z
x,y,-z
-x,y,z
x,-y,z
loop_
_atom_site_type_symbol
_atom_site_label
_atom_site_fract_x
_atom_site_fract_y
_atom_site_fract_z
Si Si1 0.919378 0.838553 0.186740
Si Si2 0.000000 0.339724 0.189180
Si Si3 0.422509 0.837910 0.314577
Si Si4 0.500000 0.338572 0.814468
Si Si5 0.828159 0.838720 0.313404
Si Si6 0.669688 0.838258 0.814692
Si Si7 0.252819 0.338665 0.687291
O O1 0.957973 0.742182 0.238979
O O2 0.873724 0.794737 0.249627
O O3 0.926476 0.000000 0.233302
O O4 0.918132 0.835062 0.000000
O O5 0.000000 0.500000 0.239010
O O6 0.000000 0.338338 0.000000
O O7 0.422739 0.829903 0.500000
O O8 0.458784 0.740630 0.247401
O O9 0.376160 0.799863 0.252316
O O10 0.430377 0.000000 0.270355
O O11 0.500000 0.500000 0.765077
O O12 0.500000 0.333800 0.000000
O O13 0.829746 0.835567 0.500000
O O14 0.789590 0.741902 0.262151
O O15 0.820930 0.000000 0.265756
O O16 0.706459 0.740858 0.751065
O O17 0.677923 0.000000 0.769834
O O18 0.668259 0.830803 0.000000
O O19 0.254137 0.333743 0.500000
O O20 0.252162 0.500000 0.734841
#
# Coordination Sequence:
#
# PCOD9387344 Si02
#       7
#     8   4   8   4   8   8   8
#     4   9  17  30  49  71  94 123 162 206 249 296
#     4   9  17  29  46  69  96 126 160 199 246 300
#     4  10  21  38  61  86 110 141 183 226 268 317
#     4  11  24  39  56  82 116 151 184 221 268 318
#     4   9  18  33  52  73  99 132 169 210 256 305
#     4  10  21  37  58  83 109 139 177 221 267 313
#     4  10  21  36  54  77 106 141 177 213 259 315
#
# _framework density 18.286595999999999
#
# number of rings (size 3 to 8) (size 9 to 14) (size 15 to 20)
#    0.000    2.333    0.000    2.250    0.000    7.667 
#    0.000    2.083    0.000    2.500    0.000    0.000 
#    0.000    0.000    0.000    0.000    0.000    0.000 
#
# Total GULP energy -267992.728608 kJ/mol
# GULP energy per Si atom -5583.181846 kJ/mol
# Density = 1.824498 g / cm^3
# Si number density = 18.286596 Si / 1000 Ang^3
#
#
#
# Elastic Constant Matrix: (Units=GPa)
#
#
# Indices 1 2 3 4 5 6 
#
# 1 214.5923 141.1051 39.6917 0.0000 0.0000 0.0000
# 2 141.1051 133.0362 35.0583 0.0000 0.0000 0.0000
# 3 39.6917 35.0583 17.1728 0.0000 0.0000 0.0000
# 4 0.0000 0.0000 0.0000 21.5390 0.0000 0.0000
# 5 0.0000 0.0000 0.0000 0.0000 36.0981 0.0000
# 6 0.0000 0.0000 0.0000 0.0000 0.0000 -10.0203
#
#
#
# Elastic Compliance Matrix: (Units=1/GPa)
#
#
# Indices 1 2 3 4 5 6 
#
# 1 0.015592 -0.015239 -0.004927 0.000000 0.000000 0.000000
# 2 -0.015239 0.031164 -0.028399 0.000000 0.000000 0.000000
# 3 -0.004927 -0.028399 0.127596 0.000000 0.000000 0.000000
# 4 0.000000 0.000000 0.000000 0.046427 0.000000 0.000000
# 5 0.000000 0.000000 0.000000 0.000000 0.027702 0.000000
# 6 0.000000 0.000000 0.000000 0.000000 0.000000 -0.099798
#
#
# Mechanical properties :
#
#
# Convention : Reuss Voigt Hill
#
# Bulk Modulus (GPa) = 12.94974 88.50129 50.72552
# Shear Modulus (GPa) = 18.41256 19.45311 18.93283
#
# Velocity S-wave (km/s) = 3.17659 3.26512 3.22116
# Velocity P-wave (km/s) = 4.53335 7.91938 6.45243
#
# Compressibility (1/GPa) = 0.07722163
#
# Stress axis : x y z
#
# Youngs Moduli (GPa) = 64.13660 32.08834 7.83725
#
# Poissons Ratio (x) = 0.48900 0.03861
# Poissons Ratio (y) = 0.97738 0.22257
# Poissons Ratio (z) = 0.31599 0.91128
#
# Static dielectric constant tensor:
#      x y z
#    x 1.592430 0.000000 0.000000 
#    y 0.000000 1.619180 0.000000 
#    z 0.000000 0.000000 1.620310 
# 
# From -- ./inp_files/2701.got.cif
#   From: 2010.05.17/outbox.cif.g08.bks.cpg/sg47_2_cif.got.tgz:2701.got - 2010.06.03 20:15:42.
