data_PCOD9387421
_publ_section_title
;
Structure prediction by ZEFSAII (Michael W. Deem and Ramdas Pophale) SiO2 
 PCOD9387421
Probable space group: P M M M
;
_chemical_formula_sum "Si O2"
_cell_formula_units_Z 36
_cell_length_a 14.500514
_cell_length_b 9.191834
_cell_length_c 14.583815
_cell_angle_alpha 90.000000
_cell_angle_beta 90.000000
_cell_angle_gamma 90.000000
_cell_volume 1943.822998
_symmetry_space_group_name_H-M "P M M M"
_symmetry_group_IT_number 47
_symmetry_cell_setting 'orthorhombic'
loop_
_space_group_symop_operation_xyz
x,y,z
-x,-y,z
x,-y,-z
-x,y,-z
-x,-y,-z
x,y,-z
-x,y,z
x,-y,z
loop_
_atom_site_type_symbol
_atom_site_label
_atom_site_fract_x
_atom_site_fract_y
_atom_site_fract_z
Si Si1 0.212650 0.830523 0.890169
Si Si2 0.391550 0.326821 0.500000
Si Si3 0.603196 0.668381 0.888375
Si Si4 0.106718 0.326863 0.741822
Si Si5 0.756386 0.167925 0.603782
O O1 0.312604 0.769449 0.859237
O O2 0.135553 0.735891 0.840425
O O3 0.203362 0.000000 0.866727
O O4 0.207537 0.816302 0.000000
O O5 0.376067 0.500000 0.500000
O O6 0.500000 0.298251 0.500000
O O7 0.339524 0.253553 0.413216
O O8 0.500000 0.711344 0.858116
O O9 0.619302 0.500000 0.861442
O O10 0.602194 0.671002 0.000000
O O11 0.119596 0.500000 0.738914
O O12 0.175344 0.248686 0.671440
O O13 0.000000 0.294358 0.721673
O O14 0.797027 0.169003 0.500000
O O15 0.741311 0.000000 0.629979
#
# Coordination Sequence:
#
# PCOD9387421 Si02
#       5
#     8   4   8   8   8
#     4  10  21  36  55  80 112 150 191 239 292 344
#     4   9  17  33  60  91 124 159 189 222 268 327
#     4   8  14  27  49  75 103 137 176 220 272 329
#     4  11  24  40  59  82 110 147 192 243 292 341
#     4   9  20  37  60  89 119 151 184 227 280 336
#
# _framework density 18.520205000000001
#
# number of rings (size 3 to 8) (size 9 to 14) (size 15 to 20)
#    0.667    1.889    0.000    2.667    0.000    5.333 
#    0.000    7.778    0.000    6.667    0.000    0.000 
#    0.000    0.000    0.000    0.000    0.000    0.000 
#
# Total GULP energy -200629.849721 kJ/mol
# GULP energy per Si atom -5573.051381 kJ/mol
# Density = 1.847805 g / cm^3
# Si number density = 18.520205 Si / 1000 Ang^3
#
#
#
# Elastic Constant Matrix: (Units=GPa)
#
#
# Indices 1 2 3 4 5 6 
#
# 1 133.5804 94.0027 36.1316 0.0000 0.0000 0.0000
# 2 94.0027 125.0699 35.9911 0.0000 0.0000 0.0000
# 3 36.1316 35.9911 36.5183 0.0000 0.0000 0.0000
# 4 0.0000 0.0000 0.0000 27.2130 0.0000 0.0000
# 5 0.0000 0.0000 0.0000 0.0000 27.5619 0.0000
# 6 0.0000 0.0000 0.0000 0.0000 0.0000 -17.0947
#
#
#
# Elastic Compliance Matrix: (Units=1/GPa)
#
#
# Indices 1 2 3 4 5 6 
#
# 1 0.016729 -0.010903 -0.005807 0.000000 0.000000 0.000000
# 2 -0.010903 0.018266 -0.007215 0.000000 0.000000 0.000000
# 3 -0.005807 -0.007215 0.040240 0.000000 0.000000 0.000000
# 4 0.000000 0.000000 0.000000 0.036747 0.000000 0.000000
# 5 0.000000 0.000000 0.000000 0.000000 0.036282 0.000000
# 6 0.000000 0.000000 0.000000 0.000000 0.000000 -0.058498
#
#
# Mechanical properties :
#
#
# Convention : Reuss Voigt Hill
#
# Bulk Modulus (GPa) = 36.51517 69.71328 53.11422
# Shear Modulus (GPa) = 34.07262 16.13892 25.10577
#
# Velocity S-wave (km/s) = 4.29389 2.95519 3.68583
# Velocity P-wave (km/s) = 6.65902 7.02621 6.84508
#
# Compressibility (1/GPa) = 0.02738588
#
# Stress axis : x y z
#
# Youngs Moduli (GPa) = 59.77582 54.74544 24.85085
#
# Poissons Ratio (x) = 0.59687 0.14430
# Poissons Ratio (y) = 0.65172 0.17931
# Poissons Ratio (z) = 0.34710 0.39501
#
# Static dielectric constant tensor:
#      x y z
#    x 1.624450 0.000000 0.000000 
#    y 0.000000 1.618790 0.000000 
#    z 0.000000 0.000000 1.675390 
# 
# From -- ./inp_files/23271.got.cif
#   From: 2010.05.17/outbox.cif.g08.bks.cpg/sg47_12_cif.got.tgz:23271.got - 2010.06.03 20:15:42.
