data_PCOD9387252
_publ_section_title
;
Structure prediction by ZEFSAII (Michael W. Deem and Ramdas Pophale) SiO2 
 PCOD9387252
Probable space group: P M M M
;
_chemical_formula_sum "Si O2"
_cell_formula_units_Z 56
_cell_length_a 15.247585
_cell_length_b 7.843224
_cell_length_c 23.890695
_cell_angle_alpha 90.000000
_cell_angle_beta 90.000000
_cell_angle_gamma 90.000000
_cell_volume 2857.093581
_symmetry_space_group_name_H-M "P M M M"
_symmetry_group_IT_number 47
_symmetry_cell_setting 'orthorhombic'
loop_
_space_group_symop_operation_xyz
x,y,z
-x,-y,z
x,-y,-z
-x,y,-z
-x,-y,-z
x,y,-z
-x,y,z
x,-y,z
loop_
_atom_site_type_symbol
_atom_site_label
_atom_site_fract_x
_atom_site_fract_y
_atom_site_fract_z
Si Si1 0.401127 0.201701 0.286648
Si Si2 0.599368 0.296080 0.837822
Si Si3 0.098040 0.794524 0.435833
Si Si4 0.099549 0.708073 0.241104
Si Si5 0.277990 0.708935 0.061877
Si Si6 0.098025 0.708018 0.112332
Si Si7 0.226888 0.701656 0.337622
O O1 0.500000 0.271130 0.296784
O O2 0.369823 0.265063 0.225577
O O3 0.327038 0.240701 0.332043
O O4 0.408067 0.000000 0.282629
O O5 0.500000 0.228004 0.841923
O O6 0.595459 0.500000 0.844612
O O7 0.661418 0.230840 0.887058
O O8 0.111875 0.737588 0.500000
O O9 0.174076 0.741229 0.393879
O O10 0.000000 0.735605 0.417981
O O11 0.096153 0.000000 0.436309
O O12 0.101414 0.500000 0.241705
O O13 0.115975 0.758508 0.176841
O O14 0.169357 0.773313 0.285816
O O15 0.000000 0.758981 0.256046
O O16 0.279024 0.500000 0.062817
O O17 0.178161 0.762666 0.073909
O O18 0.307046 0.761920 0.000000
O O19 0.096815 0.500000 0.111558
O O20 0.000000 0.764930 0.096828
O O21 0.228583 0.500000 0.330926
#
# Coordination Sequence:
#
# PCOD9387252 Si02
#       7
#     8   8   8   8   8   8   8
#     4  10  21  36  53  73  98 129 165 205 253 313
#     4   9  17  30  48  68  90 117 151 194 246 301
#     4   9  19  36  55  76 109 153 191 216 241 281
#     4   8  14  24  39  64  97 127 154 189 239 295
#     4   9  16  24  36  58  87 117 151 192 238 290
#     4   8  13  21  32  48  78 119 153 181 221 277
#     4  11  20  30  51  80 107 134 167 212 261 303
#
# _framework density 19.600338000000001
#
# number of rings (size 3 to 8) (size 9 to 14) (size 15 to 20)
#    0.000    2.857    0.000    3.429    0.000    4.857 
#    0.000    3.571    0.000    0.857    0.000    5.000 
#    0.000    0.000    0.000    5.143    0.000    4.571 
#
# Total GULP energy -312328.670074 kJ/mol
# GULP energy per Si atom -5577.297680 kJ/mol
# Density = 1.955573 g / cm^3
# Si number density = 19.600338 Si / 1000 Ang^3
#
#
#
# Elastic Constant Matrix: (Units=GPa)
#
#
# Indices 1 2 3 4 5 6 
#
# 1 112.2896 5.9153 71.3632 0.0000 0.0000 0.0000
# 2 5.9153 22.4539 1.1805 0.0000 0.0000 0.0000
# 3 71.3632 1.1805 75.8610 0.0000 0.0000 0.0000
# 4 0.0000 0.0000 0.0000 53.9839 0.0000 0.0000
# 5 0.0000 0.0000 0.0000 0.0000 -16.1145 0.0000
# 6 0.0000 0.0000 0.0000 0.0000 0.0000 10.3144
#
#
#
# Elastic Compliance Matrix: (Units=1/GPa)
#
#
# Indices 1 2 3 4 5 6 
#
# 1 0.022661 -0.004853 -0.021242 0.000000 0.000000 0.000000
# 2 -0.004853 0.045612 0.003855 0.000000 0.000000 0.000000
# 3 -0.021242 0.003855 0.033105 0.000000 0.000000 0.000000
# 4 0.000000 0.000000 0.000000 0.018524 0.000000 0.000000
# 5 0.000000 0.000000 0.000000 0.000000 -0.062056 0.000000
# 6 0.000000 0.000000 0.000000 0.000000 0.000000 0.096952
#
#
# Mechanical properties :
#
#
# Convention : Reuss Voigt Hill
#
# Bulk Modulus (GPa) = 17.57527 40.83585 29.20556
# Shear Modulus (GPa) = 22.91029 18.44644 20.67836
#
# Velocity S-wave (km/s) = 3.42259 3.07111 3.25160
# Velocity P-wave (km/s) = 4.96035 5.78404 5.38796
#
# Compressibility (1/GPa) = 0.05689814
#
# Stress axis : x y z
#
# Youngs Moduli (GPa) = 44.12850 21.92426 30.20732
#
# Poissons Ratio (x) = 0.10640 0.64166
# Poissons Ratio (y) = 0.21416 -0.11646
# Poissons Ratio (z) = 0.93738 -0.08453
#
# Static dielectric constant tensor:
#      x y z
#    x 1.831430 0.000000 0.000000 
#    y 0.000000 1.730590 0.000000 
#    z 0.000000 0.000000 1.673270 
# 
# From -- ./inp_files/30978.got.cif
#   From: 2010.05.17/outbox.cif.g08.bks.cpg/sg47_16_cif.got.tgz:30978.got - 2010.06.03 20:15:42.
