data_PCOD9387064
_publ_section_title
;
Structure prediction by ZEFSAII (Michael W. Deem and Ramdas Pophale) SiO2 
 PCOD9387064
Probable space group: P M M M
;
_chemical_formula_sum "Si O2"
_cell_formula_units_Z 64
_cell_length_a 7.408346
_cell_length_b 21.360428
_cell_length_c 18.442279
_cell_angle_alpha 90.000000
_cell_angle_beta 90.000000
_cell_angle_gamma 90.000000
_cell_volume 2918.406580
_symmetry_space_group_name_H-M "P M M M"
_symmetry_group_IT_number 47
_symmetry_cell_setting 'orthorhombic'
loop_
_space_group_symop_operation_xyz
x,y,z
-x,-y,z
x,-y,-z
-x,y,-z
-x,-y,-z
x,y,-z
-x,y,z
x,-y,z
loop_
_atom_site_type_symbol
_atom_site_label
_atom_site_fract_x
_atom_site_fract_y
_atom_site_fract_z
Si Si1 0.794385 0.070250 0.887845
Si Si2 0.783689 0.792822 0.078667
Si Si3 0.279803 0.432352 0.741949
Si Si4 0.719203 0.265050 0.376306
Si Si5 0.284695 0.295556 0.783652
Si Si6 0.279153 0.130714 0.422816
Si Si7 0.296277 0.926429 0.275645
Si Si8 0.280426 0.402548 0.421042
O O1 0.712194 0.135592 0.914908
O O2 0.798157 0.080198 0.801083
O O3 0.000000 0.066973 0.914545
O O4 0.714853 0.000000 0.900952
O O5 0.747897 0.747267 0.146351
O O6 0.000000 0.798988 0.077972
O O7 0.725800 0.767238 0.000000
O O8 0.500000 0.431323 0.742558
O O9 0.223175 0.500000 0.772112
O O10 0.219943 0.368171 0.781326
O O11 0.224712 0.429787 0.656842
O O12 0.500000 0.264964 0.375766
O O13 0.779647 0.265172 0.292229
O O14 0.772875 0.203140 0.417698
O O15 0.770933 0.329660 0.413667
O O16 0.500000 0.299333 0.777344
O O17 0.221031 0.103527 0.500000
O O18 0.500000 0.125868 0.421260
O O19 0.214275 0.101601 0.347939
O O20 0.500000 0.900179 0.265890
O O21 0.310101 0.000000 0.288840
O O22 0.219839 0.426377 0.500000
O O23 0.500000 0.407395 0.421384
#
# Coordination Sequence:
#
# PCOD9387064 Si02
#       8
#     8   8   8   8   8   8   8   8
#     4   9  18  33  52  71  91 118 149 177 212 267
#     4  10  21  35  51  73  98 119 141 177 224 269
#     4   8  14  24  39  62  91 123 160 198 231 264
#     4   8  13  21  34  54  80 111 149 188 221 256
#     4   9  17  30  49  70  93 124 157 187 223 270
#     4   9  15  21  32  52  79 112 148 186 226 263
#     4   9  17  28  42  61  85 113 147 188 227 259
#     4   8  12  17  27  48  83 123 154 182 223 270
#
# _framework density 21.929774999999999
#
# number of rings (size 3 to 8) (size 9 to 14) (size 15 to 20)
#    0.000    3.250    0.000    2.625    0.000    4.000 
#    0.000    3.750    0.000    1.125    0.000    7.000 
#    0.000   12.000    0.000    4.500    0.000    5.000 
#
# Total GULP energy -356670.268265 kJ/mol
# GULP energy per Si atom -5572.972942 kJ/mol
# Density = 2.187986 g / cm^3
# Si number density = 21.929775 Si / 1000 Ang^3
#
#
#
# Elastic Constant Matrix: (Units=GPa)
#
#
# Indices 1 2 3 4 5 6 
#
# 1 70.1082 2.1357 3.1937 0.0000 0.0000 0.0000
# 2 2.1357 87.4212 74.9434 0.0000 0.0000 0.0000
# 3 3.1937 74.9434 138.5033 0.0000 0.0000 0.0000
# 4 0.0000 0.0000 0.0000 -10.3948 0.0000 0.0000
# 5 0.0000 0.0000 0.0000 0.0000 5.3842 0.0000
# 6 0.0000 0.0000 0.0000 0.0000 0.0000 4.3367
#
#
#
# Elastic Compliance Matrix: (Units=1/GPa)
#
#
# Indices 1 2 3 4 5 6 
#
# 1 0.014279 -0.000124 -0.000262 0.000000 0.000000 0.000000
# 2 -0.000124 0.021337 -0.011542 0.000000 0.000000 0.000000
# 3 -0.000262 -0.011542 0.013472 0.000000 0.000000 0.000000
# 4 0.000000 0.000000 0.000000 -0.096202 0.000000 0.000000
# 5 0.000000 0.000000 0.000000 0.000000 0.185730 0.000000
# 6 0.000000 0.000000 0.000000 0.000000 0.000000 0.230589
#
#
# Mechanical properties :
#
#
# Convention : Reuss Voigt Hill
#
# Bulk Modulus (GPa) = 39.63447 50.73091 45.18269
# Shear Modulus (GPa) = 12.45416 14.24921 13.35169
#
# Velocity S-wave (km/s) = 2.38567 2.55182 2.47014
# Velocity P-wave (km/s) = 5.06963 5.64499 5.36503
#
# Compressibility (1/GPa) = 0.02523056
#
# Stress axis : x y z
#
# Youngs Moduli (GPa) = 70.03104 46.86736 74.23020
#
# Poissons Ratio (x) = 0.00582 0.01945
# Poissons Ratio (y) = 0.00870 0.85679
# Poissons Ratio (z) = 0.01835 0.54096
#
# Static dielectric constant tensor:
#      x y z
#    x 1.916210 0.000000 0.000000 
#    y 0.000000 1.814810 0.000000 
#    z 0.000000 0.000000 1.800270 
# 
# From -- ./inp_files/27744.got.cif
#   From: 2010.05.17/outbox.cif.g08.bks.cpg/sg47_14_cif.got.tgz:27744.got - 2010.06.03 20:15:42.
