data_PCOD9387219
_publ_section_title
;
Structure prediction by ZEFSAII (Michael W. Deem and Ramdas Pophale) SiO2 
 PCOD9387219
Probable space group: P M M M
;
_chemical_formula_sum "Si O2"
_cell_formula_units_Z 52
_cell_length_a 7.825764
_cell_length_b 13.213310
_cell_length_c 27.245499
_cell_angle_alpha 90.000000
_cell_angle_beta 90.000000
_cell_angle_gamma 90.000000
_cell_volume 2817.300273
_symmetry_space_group_name_H-M "P M M M"
_symmetry_group_IT_number 47
_symmetry_cell_setting 'orthorhombic'
loop_
_space_group_symop_operation_xyz
x,y,z
-x,-y,z
x,-y,-z
-x,y,-z
-x,-y,-z
x,y,-z
-x,y,z
x,-y,z
loop_
_atom_site_type_symbol
_atom_site_label
_atom_site_fract_x
_atom_site_fract_y
_atom_site_fract_z
Si Si1 0.201980 0.386522 0.885460
Si Si2 0.797072 0.800723 0.709482
Si Si3 0.702328 0.385917 0.775444
Si Si4 0.209577 0.000000 0.767183
Si Si5 0.302092 0.123116 0.500000
Si Si6 0.293835 0.883973 0.393404
Si Si7 0.790438 0.806770 0.943620
Si Si8 0.791298 0.000000 0.119610
O O1 0.274850 0.500000 0.891437
O O2 0.220973 0.357001 0.828335
O O3 0.270845 0.298656 0.920221
O O4 0.000000 0.393058 0.895704
O O5 0.738282 0.697453 0.734587
O O6 0.751168 0.815530 0.652692
O O7 0.000000 0.802969 0.713689
O O8 0.730721 0.899097 0.739143
O O9 0.500000 0.390488 0.782504
O O10 0.763798 0.500000 0.763228
O O11 0.263407 0.000000 0.823843
O O12 0.000000 0.000000 0.766351
O O13 0.500000 0.157262 0.500000
O O14 0.227483 0.151120 0.553092
O O15 0.303513 0.000000 0.500000
O O16 0.500000 0.888288 0.397022
O O17 0.233853 0.000000 0.384288
O O18 0.736383 0.900271 0.909741
O O19 0.000000 0.806208 0.942994
O O20 0.738098 0.818880 0.000000
O O21 0.000000 0.000000 0.119945
#
# Coordination Sequence:
#
# PCOD9387219 Si02
#       8
#     8   8   8   4   4   8   8   4
#     4   9  17  30  48  68  90 116 146 185 238 292
#     4  11  20  31  48  72 103 132 162 201 246 294
#     4  10  21  36  52  70  93 123 162 204 245 293
#     4   9  18  29  43  67  99 130 157 190 235 286
#     4   7  12  24  43  65  92 133 176 207 235 275
#     4   9  16  28  46  69 100 136 173 207 240 280
#     4   9  16  25  40  64  91 117 148 186 227 275
#     4   9  15  24  37  55  85 123 154 180 217 268
#
# _framework density 18.457384999999999
#
# number of rings (size 3 to 8) (size 9 to 14) (size 15 to 20)
#    0.000    2.692    0.769    3.000    0.000    4.615 
#    0.000    1.923    0.000    1.846    0.000    2.692 
#    0.000    6.769    0.000    0.000    0.000    0.000 
#
# Total GULP energy -289981.285231 kJ/mol
# GULP energy per Si atom -5576.563178 kJ/mol
# Density = 1.841538 g / cm^3
# Si number density = 18.457385 Si / 1000 Ang^3
#
#
#
# Elastic Constant Matrix: (Units=GPa)
#
#
# Indices 1 2 3 4 5 6 
#
# 1 23.3407 3.2171 -4.0202 0.0000 0.0000 0.0000
# 2 3.2171 82.1314 68.2598 0.0000 0.0000 0.0000
# 3 -4.0202 68.2598 140.8892 0.0000 0.0000 0.0000
# 4 0.0000 0.0000 0.0000 -16.8336 0.0000 0.0000
# 5 0.0000 0.0000 0.0000 0.0000 19.3259 0.0000
# 6 0.0000 0.0000 0.0000 0.0000 0.0000 7.3803
#
#
#
# Elastic Compliance Matrix: (Units=1/GPa)
#
#
# Indices 1 2 3 4 5 6 
#
# 1 0.044087 -0.004641 0.003507 0.000000 0.000000 0.000000
# 2 -0.004641 0.020872 -0.010245 0.000000 0.000000 0.000000
# 3 0.003507 -0.010245 0.012161 0.000000 0.000000 0.000000
# 4 0.000000 0.000000 0.000000 -0.059405 0.000000 0.000000
# 5 0.000000 0.000000 0.000000 0.000000 0.051744 0.000000
# 6 0.000000 0.000000 0.000000 0.000000 0.000000 0.135496
#
#
# Mechanical properties :
#
#
# Convention : Reuss Voigt Hill
#
# Bulk Modulus (GPa) = 18.39527 42.36386 30.37956
# Shear Modulus (GPa) = 20.33881 13.90148 17.12014
#
# Velocity S-wave (km/s) = 3.32314 2.74736 3.04887
# Velocity P-wave (km/s) = 4.97115 5.75031 5.37487
#
# Compressibility (1/GPa) = 0.05436181
#
# Stress axis : x y z
#
# Youngs Moduli (GPa) = 22.68226 47.91146 82.22786
#
# Poissons Ratio (x) = 0.22237 -0.28835
# Poissons Ratio (y) = 0.10528 0.84240
# Poissons Ratio (z) = -0.07954 0.49084
#
# Static dielectric constant tensor:
#      x y z
#    x 1.690280 0.000000 0.000000 
#    y 0.000000 1.649320 0.000000 
#    z 0.000000 0.000000 1.641970 
# 
# From -- ./inp_files/33288.got.cif
#   From: 2010.05.17/outbox.cif.g08.bks.cpg/sg47_17_cif.got.tgz:33288.got - 2010.06.03 20:15:42.
