data_PCOD9387384
_publ_section_title
;
Structure prediction by ZEFSAII (Michael W. Deem and Ramdas Pophale) SiO2 
 PCOD9387384
Probable space group: P M M M
;
_chemical_formula_sum "Si O2"
_cell_formula_units_Z 56
_cell_length_a 15.561556
_cell_length_b 8.897548
_cell_length_c 21.532252
_cell_angle_alpha 90.000000
_cell_angle_beta 90.000000
_cell_angle_gamma 90.000000
_cell_volume 2981.348968
_symmetry_space_group_name_H-M "P M M M"
_symmetry_group_IT_number 47
_symmetry_cell_setting 'orthorhombic'
loop_
_space_group_symop_operation_xyz
x,y,z
-x,-y,z
x,-y,-z
-x,y,-z
-x,-y,-z
x,y,-z
-x,y,z
x,-y,z
loop_
_atom_site_type_symbol
_atom_site_label
_atom_site_fract_x
_atom_site_fract_y
_atom_site_fract_z
Si Si1 0.097571 0.668752 0.315873
Si Si2 0.763108 0.823286 0.239075
Si Si3 0.226153 0.678024 0.894752
Si Si4 0.404789 0.171577 0.074332
Si Si5 0.837918 0.825423 0.427419
Si Si6 0.102947 0.818693 0.000000
Si Si7 0.500000 0.320669 0.572145
Si Si8 0.657548 0.823512 0.355794
O O1 0.132784 0.500000 0.306422
O O2 0.152915 0.791069 0.279981
O O3 0.103941 0.714240 0.387698
O O4 0.000000 0.670801 0.294675
O O5 0.778054 0.733403 0.176108
O O6 0.685582 0.776097 0.285812
O O7 0.753310 0.000000 0.226119
O O8 0.214847 0.500000 0.899978
O O9 0.323318 0.725791 0.912406
O O10 0.156191 0.756490 0.940235
O O11 0.500000 0.220154 0.096867
O O12 0.389498 0.000000 0.097166
O O13 0.409828 0.163343 0.000000
O O14 0.837164 0.792891 0.500000
O O15 0.742600 0.810482 0.398416
O O16 0.864375 0.000000 0.418818
O O17 0.000000 0.778836 0.000000
O O18 0.108239 0.000000 0.000000
O O19 0.500000 0.500000 0.570044
O O20 0.500000 0.265507 0.500000
O O21 0.582341 0.264401 0.610415
O O22 0.634891 0.000000 0.352597
#
# Coordination Sequence:
#
# PCOD9387384 Si02
#       8
#     8   8   8   8   8   4   4   8
#     4  10  21  36  54  79 111 144 181 230 286 342
#     4  10  22  41  63  83 109 152 200 242 289 351
#     4  12  24  39  63  94 127 160 195 248 312 366
#     4   9  18  35  61  90 121 160 200 238 282 339
#     4   9  18  33  54  79 106 140 183 229 278 336
#     4  11  25  45  68  93 124 165 211 256 302 361
#     4  11  23  35  53  85 121 156 193 240 301 361
#     4   9  19  37  58  79 105 144 194 242 285 337
#
# _framework density 18.783443999999999
#
# number of rings (size 3 to 8) (size 9 to 14) (size 15 to 20)
#    0.000    2.000    0.714    4.286    0.000    7.143 
#    1.286    2.143    0.000    0.000    0.000    0.000 
#    0.000    0.000    0.000    0.000    0.000    0.000 
#
# Total GULP energy -312215.621286 kJ/mol
# GULP energy per Si atom -5575.278952 kJ/mol
# Density = 1.874069 g / cm^3
# Si number density = 18.783444 Si / 1000 Ang^3
#
#
#
# Elastic Constant Matrix: (Units=GPa)
#
#
# Indices 1 2 3 4 5 6 
#
# 1 100.5786 48.7692 45.8134 0.0000 0.0000 0.0000
# 2 48.7692 66.6822 37.4871 0.0000 0.0000 0.0000
# 3 45.8134 37.4871 114.7618 0.0000 0.0000 0.0000
# 4 0.0000 0.0000 0.0000 -5.3331 0.0000 0.0000
# 5 0.0000 0.0000 0.0000 0.0000 8.3077 0.0000
# 6 0.0000 0.0000 0.0000 0.0000 0.0000 22.5414
#
#
#
# Elastic Compliance Matrix: (Units=1/GPa)
#
#
# Indices 1 2 3 4 5 6 
#
# 1 0.016314 -0.010131 -0.003203 0.000000 0.000000 0.000000
# 2 -0.010131 0.024661 -0.004011 0.000000 0.000000 0.000000
# 3 -0.003203 -0.004011 0.011303 0.000000 0.000000 0.000000
# 4 0.000000 0.000000 0.000000 -0.187507 0.000000 0.000000
# 5 0.000000 0.000000 0.000000 0.000000 0.120371 0.000000
# 6 0.000000 0.000000 0.000000 0.000000 0.000000 0.044363
#
#
# Mechanical properties :
#
#
# Convention : Reuss Voigt Hill
#
# Bulk Modulus (GPa) = 56.86057 60.68466 58.77262
# Shear Modulus (GPa) = 71.37110 15.10005 43.23558
#
# Velocity S-wave (km/s) = 6.17084 2.83839 4.80290
# Velocity P-wave (km/s) = 9.00610 6.56655 7.88129
#
# Compressibility (1/GPa) = 0.01758688
#
# Stress axis : x y z
#
# Youngs Moduli (GPa) = 61.29798 40.55033 88.47364
#
# Poissons Ratio (x) = 0.41080 0.28341
# Poissons Ratio (y) = 0.62098 0.35490
# Poissons Ratio (z) = 0.19636 0.16266
#
# Static dielectric constant tensor:
#      x y z
#    x 1.666940 0.000000 0.000000 
#    y 0.000000 1.646490 0.000000 
#    z 0.000000 0.000000 1.692350 
# 
# From -- ./inp_files/31076.got.cif
#   From: 2010.05.17/outbox.cif.g08.bks.cpg/sg47_16_cif.got.tgz:31076.got - 2010.06.03 20:15:42.
