data_PCOD9387226
_publ_section_title
;
Structure prediction by ZEFSAII (Michael W. Deem and Ramdas Pophale) SiO2 
 PCOD9387226
Probable space group: P M M M
;
_chemical_formula_sum "Si O2"
_cell_formula_units_Z 48
_cell_length_a 7.841311
_cell_length_b 16.047205
_cell_length_c 18.147271
_cell_angle_alpha 90.000000
_cell_angle_beta 90.000000
_cell_angle_gamma 90.000000
_cell_volume 2283.491527
_symmetry_space_group_name_H-M "P M M M"
_symmetry_group_IT_number 47
_symmetry_cell_setting 'orthorhombic'
loop_
_space_group_symop_operation_xyz
x,y,z
-x,-y,z
x,-y,-z
-x,y,-z
-x,-y,-z
x,y,-z
-x,y,z
x,-y,z
loop_
_atom_site_type_symbol
_atom_site_label
_atom_site_fract_x
_atom_site_fract_y
_atom_site_fract_z
Si Si1 0.209078 0.907619 0.666516
Si Si2 0.800488 0.688122 0.500000
Si Si3 0.198090 0.884411 0.500000
Si Si4 0.199293 0.592872 0.635640
Si Si5 0.196051 0.779077 0.788827
Si Si6 0.706332 0.904516 0.084408
Si Si7 0.306765 0.591609 0.800842
O O1 0.268736 0.906871 0.580935
O O2 0.271105 0.830347 0.717681
O O3 0.000000 0.902601 0.664272
O O4 0.252124 0.000000 0.697427
O O5 0.800537 0.785522 0.500000
O O6 0.726409 0.653812 0.424731
O O7 0.000000 0.658817 0.500000
O O8 0.000000 0.911936 0.500000
O O9 0.202430 0.500000 0.603801
O O10 0.295517 0.592185 0.712166
O O11 0.000000 0.613233 0.652366
O O12 0.219394 0.841698 0.856601
O O13 0.249052 0.686519 0.815559
O O14 0.000000 0.768818 0.769030
O O15 0.500000 0.900837 0.088642
O O16 0.757892 0.000000 0.099393
O O17 0.754517 0.884747 0.000000
O O18 0.500000 0.587472 0.826940
O O19 0.225755 0.500000 0.822031
#
# Coordination Sequence:
#
# PCOD9387226 Si02
#       7
#     8   4   4   8   8   8   8
#     4   9  17  28  43  68 102 137 174 217 264 312
#     4   9  15  23  38  63  92 121 160 211 269 330
#     4   9  15  23  37  58  92 137 175 209 253 305
#     4   9  16  27  44  65  90 122 163 215 274 330
#     4  11  21  33  54  83 112 141 178 227 277 324
#     4   9  19  37  60  86 118 154 186 215 255 314
#     4  10  21  36  52  71  99 136 177 221 270 326
#
# _framework density 21.020441000000002
#
# number of rings (size 3 to 8) (size 9 to 14) (size 15 to 20)
#    0.000    2.500    0.000    3.500    0.000    7.000 
#    0.000    1.250    0.000    2.500    0.000    5.250 
#    0.000    8.000    0.000    0.000    0.000    0.000 
#
# Total GULP energy -267242.012848 kJ/mol
# GULP energy per Si atom -5567.541934 kJ/mol
# Density = 2.097260 g / cm^3
# Si number density = 21.020441 Si / 1000 Ang^3
#
#
#
# Elastic Constant Matrix: (Units=GPa)
#
#
# Indices 1 2 3 4 5 6 
#
# 1 21.6932 13.2961 -7.1879 0.0000 0.0000 0.0000
# 2 13.2961 158.3947 56.1754 0.0000 0.0000 0.0000
# 3 -7.1879 56.1754 58.1806 0.0000 0.0000 0.0000
# 4 0.0000 0.0000 0.0000 26.2477 0.0000 0.0000
# 5 0.0000 0.0000 0.0000 0.0000 16.0686 0.0000
# 6 0.0000 0.0000 0.0000 0.0000 0.0000 74.6538
#
#
#
# Elastic Compliance Matrix: (Units=1/GPa)
#
#
# Indices 1 2 3 4 5 6 
#
# 1 0.059265 -0.011514 0.018439 0.000000 0.000000 0.000000
# 2 -0.011514 0.011838 -0.012853 0.000000 0.000000 0.000000
# 3 0.018439 -0.012853 0.031876 0.000000 0.000000 0.000000
# 4 0.000000 0.000000 0.000000 0.038099 0.000000 0.000000
# 5 0.000000 0.000000 0.000000 0.000000 0.062233 0.000000
# 6 0.000000 0.000000 0.000000 0.000000 0.000000 0.013395
#
#
# Mechanical properties :
#
#
# Convention : Reuss Voigt Hill
#
# Bulk Modulus (GPa) = 10.97419 40.31506 25.64462
# Shear Modulus (GPa) = 19.30985 35.12633 27.21809
#
# Velocity S-wave (km/s) = 3.03417 4.09229 3.60229
# Velocity P-wave (km/s) = 4.18413 6.44591 5.43400
#
# Compressibility (1/GPa) = 0.09112290
#
# Stress axis : x y z
#
# Youngs Moduli (GPa) = 16.87350 84.47253 31.37186
#
# Poissons Ratio (x) = 0.97265 -0.57848
# Poissons Ratio (y) = 0.19429 0.40321
# Poissons Ratio (z) = -0.31114 1.08570
#
# Static dielectric constant tensor:
#      x y z
#    x 1.848730 0.000000 0.000000 
#    y 0.000000 1.850610 0.000000 
#    z 0.000000 0.000000 1.737490 
# 
# From -- ./inp_files/26540.got.cif
#   From: 2010.05.17/outbox.cif.g08.bks.cpg/sg47_14_cif.got.tgz:26540.got - 2010.06.03 20:15:42.
