data_PCOD9387852
_publ_section_title
;
Structure prediction by ZEFSAII (Michael W. Deem and Ramdas Pophale) SiO2 
 PCOD9387852
Probable space group: P M M M
;
_chemical_formula_sum "Si O2"
_cell_formula_units_Z 56
_cell_length_a 16.325820
_cell_length_b 11.325907
_cell_length_c 14.237816
_cell_angle_alpha 90.000000
_cell_angle_beta 90.000000
_cell_angle_gamma 90.000000
_cell_volume 2632.639367
_symmetry_space_group_name_H-M "P M M M"
_symmetry_group_IT_number 47
_symmetry_cell_setting 'orthorhombic'
loop_
_space_group_symop_operation_xyz
x,y,z
-x,-y,z
x,-y,-z
-x,y,-z
-x,-y,-z
x,y,-z
-x,y,z
x,-y,z
loop_
_atom_site_type_symbol
_atom_site_label
_atom_site_fract_x
_atom_site_fract_y
_atom_site_fract_z
Si Si1 0.847152 0.126850 0.289982
Si Si2 0.347151 0.126850 0.710017
Si Si3 0.091877 0.218438 0.891951
Si Si4 0.598299 0.368522 0.611492
Si Si5 0.901701 0.368522 0.611492
Si Si6 0.408123 0.218436 0.108049
Si Si7 0.250000 0.627157 0.887434
O O1 0.750000 0.128865 0.270223
O O2 0.896184 0.127477 0.191891
O O3 0.867879 0.248493 0.343057
O O4 0.864610 0.000000 0.338807
O O5 0.367879 0.248494 0.656943
O O6 0.396184 0.127476 0.808108
O O7 0.364610 0.000000 0.661192
O O8 0.164885 0.308332 0.868619
O O9 0.000000 0.269082 0.887168
O O10 0.103416 0.176059 0.000000
O O11 0.615144 0.364138 0.500000
O O12 0.500000 0.365867 0.624515
O O13 0.626410 0.500000 0.644805
O O14 0.884855 0.364139 0.500000
O O15 0.873590 0.500000 0.644805
O O16 0.000000 0.365867 0.624514
O O17 0.500000 0.269079 0.112831
O O18 0.335115 0.308330 0.131379
O O19 0.396584 0.176055 0.000000
O O20 0.250001 0.500000 0.842186
O O21 0.250000 0.617243 0.000000
#
# Coordination Sequence:
#
# PCOD9387852 Si02
#       7
#     8   8   8   8   8   8   8
#     4  11  24  40  60  90 128 168 211 261 317 377
#     4  11  24  40  60  90 128 168 211 261 317 377
#     4  10  21  38  60  86 120 166 216 263 315 374
#     4   9  20  41  67  93 122 159 205 257 316 383
#     4   9  20  41  67  93 122 159 205 257 316 383
#     4  10  21  38  60  86 120 166 216 263 315 374
#     4   9  18  34  55  81 116 157 204 259 313 366
#
# _framework density 21.271428
#
# number of rings (size 3 to 8) (size 9 to 14) (size 15 to 20)
#    0.000    2.143    1.429    1.714    0.000    6.286 
#    0.000   10.000    0.000    0.000    0.000    0.000 
#    0.000    0.000    0.000    0.000    0.000    0.000 
#
# Total GULP energy -311909.879540 kJ/mol
# GULP energy per Si atom -5569.819277 kJ/mol
# Density = 2.122301 g / cm^3
# Si number density = 21.271428 Si / 1000 Ang^3
#
#
#
# Elastic Constant Matrix: (Units=GPa)
#
#
# Indices 1 2 3 4 5 6 
#
# 1 111.7058 65.6517 30.2380 0.0000 0.0000 0.0000
# 2 65.6517 193.8068 59.9983 0.0000 0.0000 0.0000
# 3 30.2380 59.9983 65.7670 0.0000 0.0000 0.0000
# 4 0.0000 0.0000 0.0000 16.4336 0.0000 0.0000
# 5 0.0000 0.0000 0.0000 0.0000 30.1230 0.0000
# 6 0.0000 0.0000 0.0000 0.0000 0.0000 17.1411
#
#
#
# Elastic Compliance Matrix: (Units=1/GPa)
#
#
# Indices 1 2 3 4 5 6 
#
# 1 0.011444 -0.003132 -0.002404 0.000000 0.000000 0.000000
# 2 -0.003132 0.008048 -0.005902 0.000000 0.000000 0.000000
# 3 -0.002404 -0.005902 0.021695 0.000000 0.000000 0.000000
# 4 0.000000 0.000000 0.000000 0.060851 0.000000 0.000000
# 5 0.000000 0.000000 0.000000 0.000000 0.033197 0.000000
# 6 0.000000 0.000000 0.000000 0.000000 0.000000 0.058339
#
#
# Mechanical properties :
#
#
# Convention : Reuss Voigt Hill
#
# Bulk Modulus (GPa) = 54.61485 75.89507 65.25496
# Shear Modulus (GPa) = 22.46651 27.09898 24.78274
#
# Velocity S-wave (km/s) = 3.25342 3.57313 3.41702
# Velocity P-wave (km/s) = 6.31221 7.26497 6.80528
#
# Compressibility (1/GPa) = 0.01831004
#
# Stress axis : x y z
#
# Youngs Moduli (GPa) = 87.38389 124.25559 46.09432
#
# Poissons Ratio (x) = 0.38921 0.11081
# Poissons Ratio (y) = 0.27372 0.27204
# Poissons Ratio (z) = 0.21007 0.73334
#
# Static dielectric constant tensor:
#      x y z
#    x 1.769540 0.000000 0.000000 
#    y 0.000000 1.811400 0.000000 
#    z 0.000000 0.000000 1.779300 
# 
# From -- ./inp_files/23659.got.cif
#   From: 2010.05.17/outbox.cif.g08.bks.cpg/sg47_12_cif.got.tgz:23659.got - 2010.06.03 20:15:42.
