data_PCOD9387804
_publ_section_title
;
Structure prediction by ZEFSAII (Michael W. Deem and Ramdas Pophale) SiO2 
 PCOD9387804
Probable space group: P M M M
;
_chemical_formula_sum "Si O2"
_cell_formula_units_Z 52
_cell_length_a 7.678176
_cell_length_b 21.057292
_cell_length_c 15.153133
_cell_angle_alpha 90.000000
_cell_angle_beta 90.000000
_cell_angle_gamma 90.000000
_cell_volume 2449.982698
_symmetry_space_group_name_H-M "P M M M"
_symmetry_group_IT_number 47
_symmetry_cell_setting 'orthorhombic'
loop_
_space_group_symop_operation_xyz
x,y,z
-x,-y,z
x,-y,-z
-x,y,-z
-x,-y,-z
x,y,-z
-x,y,z
x,-y,z
loop_
_atom_site_type_symbol
_atom_site_label
_atom_site_fract_x
_atom_site_fract_y
_atom_site_fract_z
Si Si1 0.792674 0.097911 0.595173
Si Si2 0.698552 0.306529 0.217717
Si Si3 0.792261 0.572922 0.500000
Si Si4 0.213411 0.930715 0.210490
Si Si5 0.794262 0.810573 0.900934
Si Si6 0.291685 0.427793 0.695863
Si Si7 0.206924 0.749365 0.597256
O O1 0.720987 0.076835 0.500000
O O2 0.724680 0.073024 0.688035
O O3 0.777164 0.174302 0.598530
O O4 0.000000 0.083357 0.593770
O O5 0.500000 0.314832 0.189038
O O6 0.777414 0.255207 0.151987
O O7 0.778233 0.376404 0.234461
O O8 0.703727 0.276513 0.315757
O O9 0.725325 0.500000 0.500000
O O10 0.738288 0.597309 0.595957
O O11 0.000000 0.573059 0.500000
O O12 0.276610 0.869969 0.155563
O O13 0.000000 0.927292 0.213471
O O14 0.259030 0.000000 0.173214
O O15 0.000000 0.822659 0.908352
O O16 0.721695 0.806895 0.000000
O O17 0.500000 0.430724 0.707266
O O18 0.222582 0.500000 0.702225
O O19 0.267849 0.727737 0.500000
O O20 0.000000 0.734639 0.603382
#
# Coordination Sequence:
#
# PCOD9387804 Si02
#       7
#     8   8   4   8   8   8   8
#     4   8  13  23  41  67 101 137 170 205 248 295
#     4  11  22  34  54  80 104 135 177 222 264 313
#     4   9  17  29  47  75 109 145 184 219 252 295
#     4   9  16  27  47  76 107 136 170 213 257 307
#     4  10  21  38  58  78 103 134 170 218 277 332
#     4   9  19  35  51  70 104 146 181 214 257 308
#     4   9  17  30  49  73 105 144 179 214 258 306
#
# _framework density 21.224639
#
# number of rings (size 3 to 8) (size 9 to 14) (size 15 to 20)
#    0.000    2.692    1.538    1.615    1.077    3.385 
#    0.000    3.077    0.000    0.923    0.000    4.308 
#    0.000    2.462    0.000    0.000    0.000    0.000 
#
# Total GULP energy -290016.806957 kJ/mol
# GULP energy per Si atom -5577.246288 kJ/mol
# Density = 2.117633 g / cm^3
# Si number density = 21.224639 Si / 1000 Ang^3
#
#
#
# Elastic Constant Matrix: (Units=GPa)
#
#
# Indices 1 2 3 4 5 6 
#
# 1 34.2941 5.0556 4.1194 0.0000 0.0000 0.0000
# 2 5.0556 136.5528 78.6642 0.0000 0.0000 0.0000
# 3 4.1194 78.6642 139.0524 0.0000 0.0000 0.0000
# 4 0.0000 0.0000 0.0000 86.3186 0.0000 0.0000
# 5 0.0000 0.0000 0.0000 0.0000 -18.3043 0.0000
# 6 0.0000 0.0000 0.0000 0.0000 0.0000 13.7565
#
#
#
# Elastic Compliance Matrix: (Units=1/GPa)
#
#
# Indices 1 2 3 4 5 6 
#
# 1 0.029333 -0.000868 -0.000378 0.000000 0.000000 0.000000
# 2 -0.000868 0.010889 -0.006134 0.000000 0.000000 0.000000
# 3 -0.000378 -0.006134 0.010673 0.000000 0.000000 0.000000
# 4 0.000000 0.000000 0.000000 0.011585 0.000000 0.000000
# 5 0.000000 0.000000 0.000000 0.000000 -0.054632 0.000000
# 6 0.000000 0.000000 0.000000 0.000000 0.000000 0.072693
#
#
# Mechanical properties :
#
#
# Convention : Reuss Voigt Hill
#
# Bulk Modulus (GPa) = 27.67473 53.95307 40.81390
# Shear Modulus (GPa) = 46.57782 31.15815 38.86799
#
# Velocity S-wave (km/s) = 4.68965 3.83563 4.28397
# Velocity P-wave (km/s) = 6.51084 6.71500 6.61371
#
# Compressibility (1/GPa) = 0.03613404
#
# Stress axis : x y z
#
# Youngs Moduli (GPa) = 34.09140 91.83385 93.69348
#
# Poissons Ratio (x) = 0.07975 0.03539
# Poissons Ratio (y) = 0.02961 0.57476
# Poissons Ratio (z) = 0.01288 0.56335
#
# Static dielectric constant tensor:
#      x y z
#    x 1.787170 0.000000 0.000000 
#    y 0.000000 1.828670 0.000000 
#    z 0.000000 0.000000 1.750590 
# 
# From -- ./inp_files/21400.got.cif
#   From: 2010.05.17/outbox.cif.g08.bks.cpg/sg47_11_cif.got.tgz:21400.got - 2010.06.03 20:15:42.
