data_PCOD9387571
_publ_section_title
;
Structure prediction by ZEFSAII (Michael W. Deem and Ramdas Pophale) SiO2 
 PCOD9387571
Probable space group: P M M M
;
_chemical_formula_sum "Si O2"
_cell_formula_units_Z 44
_cell_length_a 15.123397
_cell_length_b 9.001364
_cell_length_c 17.828531
_cell_angle_alpha 90.000000
_cell_angle_beta 90.000000
_cell_angle_gamma 90.000000
_cell_volume 2427.019343
_symmetry_space_group_name_H-M "P M M M"
_symmetry_group_IT_number 47
_symmetry_cell_setting 'orthorhombic'
loop_
_space_group_symop_operation_xyz
x,y,z
-x,-y,z
x,-y,-z
-x,y,-z
-x,-y,-z
x,y,-z
-x,y,z
x,-y,z
loop_
_atom_site_type_symbol
_atom_site_label
_atom_site_fract_x
_atom_site_fract_y
_atom_site_fract_z
Si Si1 0.500000 0.668432 0.090612
Si Si2 0.604262 0.819769 0.665803
Si Si3 0.315530 0.822727 0.912297
Si Si4 0.107671 0.829617 0.500000
Si Si5 0.250279 0.322222 0.228166
Si Si6 0.102255 0.677849 0.346737
Si Si7 0.392611 0.171177 0.500000
O O1 0.500000 0.500000 0.120599
O O2 0.588451 0.757022 0.109506
O O3 0.500000 0.658809 0.000000
O O4 0.500000 0.786984 0.677252
O O5 0.666627 0.744752 0.726549
O O6 0.631268 0.766223 0.581565
O O7 0.613037 0.000000 0.668239
O O8 0.248891 0.748535 0.854177
O O9 0.316552 0.000000 0.904583
O O10 0.299397 0.786926 0.000000
O O11 0.135985 0.750871 0.423606
O O12 0.000000 0.823084 0.500000
O O13 0.135251 0.000000 0.500000
O O14 0.258084 0.500000 0.223077
O O15 0.164274 0.283766 0.277245
O O16 0.103940 0.500000 0.356250
O O17 0.000000 0.722710 0.334914
O O18 0.500000 0.167834 0.500000
O O19 0.362314 0.000000 0.500000
#
# Coordination Sequence:
#
# PCOD9387571 Si02
#       7
#     4   8   8   4   8   8   4
#     4   9  17  31  53  79 105 134 169 212 259 305
#     4   9  18  33  52  73 102 140 178 215 257 311
#     4  10  21  37  56  77 104 139 177 215 263 325
#     4   9  17  30  53  84 111 137 174 222 273 321
#     4  11  23  35  52  79 106 136 176 223 271 316
#     4   9  19  37  57  77 107 146 183 220 269 326
#     4   7  12  27  49  68  89 129 180 215 243 288
#
# _framework density 18.129231999999998
#
# number of rings (size 3 to 8) (size 9 to 14) (size 15 to 20)
#    0.000    2.636    0.000    2.727    1.273    5.818 
#    0.000    2.273    0.000    2.182    0.000    3.818 
#    0.000    0.000    0.000    0.000    0.000    0.000 
#
# Total GULP energy -245459.543313 kJ/mol
# GULP energy per Si atom -5578.625984 kJ/mol
# Density = 1.808797 g / cm^3
# Si number density = 18.129232 Si / 1000 Ang^3
#
#
#
# Elastic Constant Matrix: (Units=GPa)
#
#
# Indices 1 2 3 4 5 6 
#
# 1 72.2643 38.7737 61.5932 0.0000 0.0000 0.0000
# 2 38.7737 50.7358 59.6406 0.0000 0.0000 0.0000
# 3 61.5932 59.6406 147.1686 0.0000 0.0000 0.0000
# 4 0.0000 0.0000 0.0000 29.6250 0.0000 0.0000
# 5 0.0000 0.0000 0.0000 0.0000 29.4380 0.0000
# 6 0.0000 0.0000 0.0000 0.0000 0.0000 2.0136
#
#
#
# Elastic Compliance Matrix: (Units=1/GPa)
#
#
# Indices 1 2 3 4 5 6 
#
# 1 0.025442 -0.013229 -0.005287 0.000000 0.000000 0.000000
# 2 -0.013229 0.044520 -0.012505 0.000000 0.000000 0.000000
# 3 -0.005287 -0.012505 0.014076 0.000000 0.000000 0.000000
# 4 0.000000 0.000000 0.000000 0.033755 0.000000 0.000000
# 5 0.000000 0.000000 0.000000 0.000000 0.033970 0.000000
# 6 0.000000 0.000000 0.000000 0.000000 0.000000 0.496613
#
#
# Mechanical properties :
#
#
# Convention : Reuss Voigt Hill
#
# Bulk Modulus (GPa) = 45.46394 65.57595 55.51995
# Shear Modulus (GPa) = 6.96622 19.55943 13.26283
#
# Velocity S-wave (km/s) = 1.96236 3.28821 2.70769
# Velocity P-wave (km/s) = 5.50151 7.11803 6.36133
#
# Compressibility (1/GPa) = 0.02199545
#
# Stress axis : x y z
#
# Youngs Moduli (GPa) = 39.30447 22.46192 71.04486
#
# Poissons Ratio (x) = 0.29714 0.37563
# Poissons Ratio (y) = 0.51994 0.88844
# Poissons Ratio (z) = 0.20781 0.28089
#
# Static dielectric constant tensor:
#      x y z
#    x 1.627600 0.000000 0.000000 
#    y 0.000000 1.606480 0.000000 
#    z 0.000000 0.000000 1.648540 
# 
# From -- ./inp_files/27944.got.cif
#   From: 2010.05.17/outbox.cif.g08.bks.cpg/sg47_14_cif.got.tgz:27944.got - 2010.06.03 20:15:42.
