data_PCOD9387719
_publ_section_title
;
Structure prediction by ZEFSAII (Michael W. Deem and Ramdas Pophale) SiO2 
 PCOD9387719
Probable space group: P M M M
;
_chemical_formula_sum "Si O2"
_cell_formula_units_Z 40
_cell_length_a 14.793483
_cell_length_b 8.967274
_cell_length_c 17.177785
_cell_angle_alpha 90.000000
_cell_angle_beta 90.000000
_cell_angle_gamma 90.000000
_cell_volume 2278.757126
_symmetry_space_group_name_H-M "P M M M"
_symmetry_group_IT_number 47
_symmetry_cell_setting 'orthorhombic'
loop_
_space_group_symop_operation_xyz
x,y,z
-x,-y,z
x,-y,-z
-x,y,-z
-x,-y,-z
x,y,-z
-x,y,z
x,-y,z
loop_
_atom_site_type_symbol
_atom_site_label
_atom_site_fract_x
_atom_site_fract_y
_atom_site_fract_z
Si Si1 0.892616 0.322986 0.911588
Si Si2 0.393458 0.678470 0.911859
Si Si3 0.249519 0.822024 0.199681
Si Si4 0.756911 0.180529 0.379909
Si Si5 0.603208 0.819286 0.500000
Si Si6 0.106298 0.679215 0.500000
O O1 0.873971 0.500000 0.904888
O O2 0.837075 0.236098 0.847355
O O3 0.000000 0.302193 0.903213
O O4 0.867607 0.277997 0.000000
O O5 0.500000 0.708500 0.902883
O O6 0.380615 0.500000 0.907135
O O7 0.334694 0.756919 0.846691
O O8 0.367029 0.724235 0.000000
O O9 0.246795 0.775385 0.289868
O O10 0.252776 0.000000 0.197809
O O11 0.664616 0.222629 0.425571
O O12 0.840147 0.253958 0.425981
O O13 0.765557 0.000000 0.385117
O O14 0.500000 0.763358 0.500000
O O15 0.598394 0.000000 0.500000
O O16 0.113747 0.500000 0.500000
O O17 0.000000 0.718451 0.500000
#
# Coordination Sequence:
#
# PCOD9387719 Si02
#       6
#     8   8   8   8   4   4
#     4   9  19  36  55  73  97 135 180 220 260 307
#     4   9  19  36  55  74 101 142 187 223 259 308
#     4  11  22  33  50  79 111 139 169 212 265 314
#     4   9  20  36  52  76 108 138 167 201 251 315
#     4   8  14  30  56  75  90 123 167 202 234 284
#     4  10  21  37  58  81 102 129 169 216 260 300
#
# _framework density 17.553429000000001
#
# number of rings (size 3 to 8) (size 9 to 14) (size 15 to 20)
#    0.000    2.600    0.000    3.300    0.000    8.000 
#    0.000    8.000    0.000    4.800    0.000    0.000 
#    0.000    0.000    0.000    0.000    0.000    0.000 
#
# Total GULP energy -223144.106074 kJ/mol
# GULP energy per Si atom -5578.602652 kJ/mol
# Density = 1.751348 g / cm^3
# Si number density = 17.553429 Si / 1000 Ang^3
#
#
#
# Elastic Constant Matrix: (Units=GPa)
#
#
# Indices 1 2 3 4 5 6 
#
# 1 130.3306 41.5275 95.5007 0.0000 0.0000 0.0000
# 2 41.5275 29.5877 55.2725 0.0000 0.0000 0.0000
# 3 95.5007 55.2725 197.1583 0.0000 0.0000 0.0000
# 4 0.0000 0.0000 0.0000 -60.3138 0.0000 0.0000
# 5 0.0000 0.0000 0.0000 0.0000 27.0224 0.0000
# 6 0.0000 0.0000 0.0000 0.0000 0.0000 42.9657
#
#
#
# Elastic Compliance Matrix: (Units=1/GPa)
#
#
# Indices 1 2 3 4 5 6 
#
# 1 0.014572 -0.015257 -0.002781 0.000000 0.000000 0.000000
# 2 -0.015257 0.086934 -0.016982 0.000000 0.000000 0.000000
# 3 -0.002781 -0.016982 0.011180 0.000000 0.000000 0.000000
# 4 0.000000 0.000000 0.000000 -0.016580 0.000000 0.000000
# 5 0.000000 0.000000 0.000000 0.000000 0.037006 0.000000
# 6 0.000000 0.000000 0.000000 0.000000 0.000000 0.023274
#
#
# Mechanical properties :
#
#
# Convention : Reuss Voigt Hill
#
# Bulk Modulus (GPa) = 23.44819 82.40868 52.92843
# Shear Modulus (GPa) = 20.77773 12.91992 16.84883
#
# Velocity S-wave (km/s) = 3.44421 2.71594 3.10152
# Velocity P-wave (km/s) = 5.40406 7.54217 6.56080
#
# Compressibility (1/GPa) = 0.04264722
#
# Stress axis : x y z
#
# Youngs Moduli (GPa) = 68.62412 11.50294 89.44502
#
# Poissons Ratio (x) = 0.17550 0.24878
# Poissons Ratio (y) = 1.04697 1.51892
# Poissons Ratio (z) = 0.19087 0.19534
#
# Static dielectric constant tensor:
#      x y z
#    x 1.594590 0.000000 0.000000 
#    y 0.000000 1.585720 0.000000 
#    z 0.000000 0.000000 1.566330 
# 
# From -- ./inp_files/23361.got.cif
#   From: 2010.05.17/outbox.cif.g08.bks.cpg/sg47_12_cif.got.tgz:23361.got - 2010.06.03 20:15:42.
