data_PCOD9387967
_publ_section_title
;
Structure prediction by ZEFSAII (Michael W. Deem and Ramdas Pophale) SiO2 
 PCOD9387967
Probable space group: P M M M
;
_chemical_formula_sum "Si O2"
_cell_formula_units_Z 33
_cell_length_a 21.085794
_cell_length_b 9.877247
_cell_length_c 7.599397
_cell_angle_alpha 90.000000
_cell_angle_beta 90.000000
_cell_angle_gamma 90.000000
_cell_volume 1582.723339
_symmetry_space_group_name_H-M "P M M M"
_symmetry_group_IT_number 47
_symmetry_cell_setting 'orthorhombic'
loop_
_space_group_symop_operation_xyz
x,y,z
-x,-y,z
x,-y,-z
-x,y,-z
-x,-y,-z
x,y,-z
-x,y,z
x,-y,z
loop_
_atom_site_type_symbol
_atom_site_label
_atom_site_fract_x
_atom_site_fract_y
_atom_site_fract_z
Si Si1 0.133553 0.849049 0.786425
Si Si2 0.638152 0.154667 0.712422
Si Si3 0.500000 0.835508 0.702318
Si Si4 0.755851 0.346832 0.210535
Si Si5 0.000000 0.500000 0.000000
Si Si6 0.000000 0.270031 0.303689
O O1 0.183307 0.736476 0.723298
O O2 0.063404 0.817890 0.720421
O O3 0.154314 0.000000 0.734866
O O4 0.132025 0.844279 0.000000
O O5 0.633380 0.148552 0.500000
O O6 0.568538 0.200051 0.780165
O O7 0.693447 0.258073 0.756842
O O8 0.651304 0.000000 0.773169
O O9 0.500000 0.786208 0.500000
O O10 0.500000 0.000000 0.697772
O O11 0.751744 0.500000 0.279742
O O12 0.763357 0.356151 0.000000
O O13 0.000000 0.382633 0.153517
O O14 0.000000 0.327944 0.500000
#
# Coordination Sequence:
#
# PCOD9387967 Si02
#       6
#     8   8   4   8   1   4
#     4  10  21  40  65  90 120 160 201 254 314 364
#     4   9  17  32  55  81 108 141 187 244 298 352
#     4   7  12  26  50  77 104 138 182 235 298 355
#     4  10  22  37  56  81 116 159 199 234 288 356
#     4  12  26  48  66  94 144 168 200 258 308 370
#     4  12  26  42  70  99 126 169 213 252 307 369
#
# _framework density 20.850135999999999
#
# number of rings (size 3 to 8) (size 9 to 14) (size 15 to 20)
#    0.000    2.303    1.212    2.727    1.697    4.848 
#    0.000    1.212    0.000    5.818    0.000    0.000 
#    0.000    0.000    0.000    0.000    0.000    0.000 
#
# Total GULP energy -183945.944855 kJ/mol
# GULP energy per Si atom -5574.119541 kJ/mol
# Density = 2.080268 g / cm^3
# Si number density = 20.850136 Si / 1000 Ang^3
#
#
#
# Elastic Constant Matrix: (Units=GPa)
#
#
# Indices 1 2 3 4 5 6 
#
# 1 192.4970 99.9035 -1.4015 0.0000 0.0000 0.0000
# 2 99.9035 158.6333 22.7538 0.0000 0.0000 0.0000
# 3 -1.4015 22.7538 77.6539 0.0000 0.0000 0.0000
# 4 0.0000 0.0000 0.0000 -16.1506 0.0000 0.0000
# 5 0.0000 0.0000 0.0000 0.0000 21.8256 0.0000
# 6 0.0000 0.0000 0.0000 0.0000 0.0000 -18.3440
#
#
#
# Elastic Compliance Matrix: (Units=1/GPa)
#
#
# Indices 1 2 3 4 5 6 
#
# 1 0.007921 -0.005228 0.001675 0.000000 0.000000 0.000000
# 2 -0.005228 0.010032 -0.003034 0.000000 0.000000 0.000000
# 3 0.001675 -0.003034 0.013797 0.000000 0.000000 0.000000
# 4 0.000000 0.000000 0.000000 -0.061917 0.000000 0.000000
# 5 0.000000 0.000000 0.000000 0.000000 0.045818 0.000000
# 6 0.000000 0.000000 0.000000 0.000000 0.000000 -0.054514
#
#
# Mechanical properties :
#
#
# Convention : Reuss Voigt Hill
#
# Bulk Modulus (GPa) = 53.83702 74.58842 64.21272
# Shear Modulus (GPa) = -256.43604 17.96810 -119.23397
#
# Velocity S-wave (km/s) = -11.10212 2.93878 -7.57036
# Velocity P-wave (km/s) = 11.76715 6.88233 6.74905
#
# Compressibility (1/GPa) = 0.01857458
#
# Stress axis : x y z
#
# Youngs Moduli (GPa) = 126.25349 99.68347 72.48033
#
# Poissons Ratio (x) = 0.52119 -0.12140
# Poissons Ratio (y) = 0.66011 0.21989
# Poissons Ratio (z) = -0.21147 0.30242
#
# Static dielectric constant tensor:
#      x y z
#    x 1.751430 0.000000 0.000000 
#    y 0.000000 1.718740 0.000000 
#    z 0.000000 0.000000 1.791790 
# 
# From -- ./inp_files/10414.got.cif
#   From: 2010.05.17/outbox.cif.g08.bks.cpg/sg47_6_cif.got.tgz:10414.got - 2010.06.03 20:15:42.
