data_PCOD9387455
_publ_section_title
;
Structure prediction by ZEFSAII (Michael W. Deem and Ramdas Pophale) SiO2 
 PCOD9387455
Probable space group: P M M M
;
_chemical_formula_sum "Si O2"
_cell_formula_units_Z 40
_cell_length_a 13.489003
_cell_length_b 9.973401
_cell_length_c 14.947835
_cell_angle_alpha 90.000000
_cell_angle_beta 90.000000
_cell_angle_gamma 90.000000
_cell_volume 2010.950718
_symmetry_space_group_name_H-M "P M M M"
_symmetry_group_IT_number 47
_symmetry_cell_setting 'orthorhombic'
loop_
_space_group_symop_operation_xyz
x,y,z
-x,-y,z
x,-y,-z
-x,y,-z
-x,-y,-z
x,y,-z
-x,y,z
x,-y,z
loop_
_atom_site_type_symbol
_atom_site_label
_atom_site_fract_x
_atom_site_fract_y
_atom_site_fract_z
Si Si1 0.617800 0.000000 0.100423
Si Si2 0.614571 0.259945 0.780720
Si Si3 0.817255 0.353509 0.844120
Si Si4 0.113111 0.656236 0.355620
Si Si5 0.296911 0.840885 0.600492
Si Si6 0.117679 0.160483 0.000000
O O1 0.637761 0.129528 0.159294
O O2 0.500000 0.000000 0.090098
O O3 0.659759 0.000000 0.000000
O O4 0.500000 0.300940 0.794038
O O5 0.702366 0.355669 0.812837
O O6 0.633697 0.219238 0.677895
O O7 0.843083 0.500000 0.882070
O O8 0.877514 0.333266 0.752188
O O9 0.838047 0.235809 0.913721
O O10 0.135985 0.500000 0.378468
O O11 0.193765 0.759069 0.393288
O O12 0.000000 0.683914 0.382862
O O13 0.337154 0.825541 0.500000
O O14 0.281920 0.000000 0.616856
O O15 0.000000 0.184549 0.000000
O O16 0.131212 0.000000 0.000000
#
# Coordination Sequence:
#
# PCOD9387455 Si02
#       6
#     4   8   8   8   8   4
#     4   9  18  32  53  81 109 146 190 236 289 340
#     4  10  21  37  58  84 117 156 198 243 294 350
#     4  10  22  38  59  86 117 156 197 244 299 353
#     4   9  19  37  59  81 109 149 195 242 296 359
#     4  10  21  36  55  83 117 152 194 244 298 359
#     4  11  25  41  60  89 122 158 200 244 292 351
#
# _framework density 19.891089999999998
#
# number of rings (size 3 to 8) (size 9 to 14) (size 15 to 20)
#    0.000    2.200    1.000    0.900    2.800    4.400 
#    0.000    3.000    0.000    1.200    0.000    5.600 
#    0.000    0.000    0.000    0.000    0.000    0.000 
#
# Total GULP energy -223136.664969 kJ/mol
# GULP energy per Si atom -5578.416624 kJ/mol
# Density = 1.984582 g / cm^3
# Si number density = 19.891090 Si / 1000 Ang^3
#
#
#
# Elastic Constant Matrix: (Units=GPa)
#
#
# Indices 1 2 3 4 5 6 
#
# 1 108.4610 16.1724 19.0128 0.0000 0.0000 0.0000
# 2 16.1724 86.9393 36.7172 0.0000 0.0000 0.0000
# 3 19.0128 36.7172 108.6678 0.0000 0.0000 0.0000
# 4 0.0000 0.0000 0.0000 16.1865 0.0000 0.0000
# 5 0.0000 0.0000 0.0000 0.0000 5.4156 0.0000
# 6 0.0000 0.0000 0.0000 0.0000 0.0000 0.6587
#
#
#
# Elastic Compliance Matrix: (Units=1/GPa)
#
#
# Indices 1 2 3 4 5 6 
#
# 1 0.009628 -0.001259 -0.001259 0.000000 0.000000 0.000000
# 2 -0.001259 0.013582 -0.004369 0.000000 0.000000 0.000000
# 3 -0.001259 -0.004369 0.010899 0.000000 0.000000 0.000000
# 4 0.000000 0.000000 0.000000 0.061780 0.000000 0.000000
# 5 0.000000 0.000000 0.000000 0.000000 0.184651 0.000000
# 6 0.000000 0.000000 0.000000 0.000000 0.000000 1.518243
#
#
# Mechanical properties :
#
#
# Convention : Reuss Voigt Hill
#
# Bulk Modulus (GPa) = 49.17740 49.76366 49.47053
# Shear Modulus (GPa) = 2.74826 19.92986 11.33906
#
# Velocity S-wave (km/s) = 1.17671 3.16879 2.39018
# Velocity P-wave (km/s) = 5.15977 6.20167 5.70456
#
# Compressibility (1/GPa) = 0.02033454
#
# Stress axis : x y z
#
# Youngs Moduli (GPa) = 103.85947 73.62924 91.75348
#
# Poissons Ratio (x) = 0.09272 0.11553
# Poissons Ratio (y) = 0.13079 0.40084
# Poissons Ratio (z) = 0.13077 0.32166
#
# Static dielectric constant tensor:
#      x y z
#    x 1.691320 0.000000 0.000000 
#    y 0.000000 1.668710 0.000000 
#    z 0.000000 0.000000 1.705770 
# 
# From -- ./inp_files/20682.got.cif
#   From: 2010.05.17/outbox.cif.g08.bks.cpg/sg47_11_cif.got.tgz:20682.got - 2010.06.03 20:15:42.
