data_PCOD9387290
_publ_section_title
;
Structure prediction by ZEFSAII (Michael W. Deem and Ramdas Pophale) SiO2 
 PCOD9387290
Probable space group: P M M M
;
_chemical_formula_sum "Si O2"
_cell_formula_units_Z 40
_cell_length_a 8.035916
_cell_length_b 13.808573
_cell_length_c 17.366960
_cell_angle_alpha 90.000000
_cell_angle_beta 90.000000
_cell_angle_gamma 90.000000
_cell_volume 1927.116601
_symmetry_space_group_name_H-M "P M M M"
_symmetry_group_IT_number 47
_symmetry_cell_setting 'orthorhombic'
loop_
_space_group_symop_operation_xyz
x,y,z
-x,-y,z
x,-y,-z
-x,y,-z
-x,-y,-z
x,y,-z
-x,y,z
x,-y,z
loop_
_atom_site_type_symbol
_atom_site_label
_atom_site_fract_x
_atom_site_fract_y
_atom_site_fract_z
Si Si1 0.305047 0.000000 0.593913
Si Si2 0.296042 0.210948 0.589987
Si Si3 0.305408 0.391884 0.312787
Si Si4 0.190423 0.697531 0.839894
Si Si5 0.309566 0.615293 0.000000
Si Si6 0.700851 0.890077 0.088956
O O1 0.235645 0.895245 0.617984
O O2 0.500000 0.000000 0.616267
O O3 0.300415 0.000000 0.500000
O O4 0.254594 0.221282 0.500000
O O5 0.500000 0.208199 0.594844
O O6 0.234057 0.303363 0.637209
O O7 0.500000 0.398283 0.334033
O O8 0.233243 0.500000 0.322245
O O9 0.294622 0.357488 0.224587
O O10 0.234656 0.809872 0.852627
O O11 0.000000 0.686824 0.817372
O O12 0.222573 0.650995 0.922987
O O13 0.313397 0.500000 0.000000
O O14 0.500000 0.652934 0.000000
O O15 0.500000 0.887522 0.090204
O O16 0.753418 0.000000 0.106283
O O17 0.751972 0.868438 0.000000
#
# Coordination Sequence:
#
# PCOD9387290 Si02
#       6
#     4   8   8   8   4   8
#     4   7  10  20  42  74 109 136 163 212 273 327
#     4   8  14  27  50  79 108 138 177 227 280 331
#     4  10  21  36  53  76 110 148 186 232 282 330
#     4  12  24  37  55  80 111 146 183 227 274 328
#     4  11  23  39  60  81 102 135 183 236 284 331
#     4   9  18  35  60  85 109 140 179 223 271 327
#
# _framework density 20.756398999999998
#
# number of rings (size 3 to 8) (size 9 to 14) (size 15 to 20)
#    0.000    2.400    1.000    4.500    0.000    4.400 
#    1.800    3.000    0.000    0.600    0.000    1.400 
#    0.000    2.400    0.000    0.000    0.000    0.000 
#
# Total GULP energy -223163.163910 kJ/mol
# GULP energy per Si atom -5579.079098 kJ/mol
# Density = 2.070916 g / cm^3
# Si number density = 20.756399 Si / 1000 Ang^3
#
#
#
# Elastic Constant Matrix: (Units=GPa)
#
#
# Indices 1 2 3 4 5 6 
#
# 1 24.0709 4.1139 -11.8550 0.0000 0.0000 0.0000
# 2 4.1139 207.1654 65.0172 0.0000 0.0000 0.0000
# 3 -11.8550 65.0172 59.9020 0.0000 0.0000 0.0000
# 4 0.0000 0.0000 0.0000 22.5110 0.0000 0.0000
# 5 0.0000 0.0000 0.0000 0.0000 -15.2367 0.0000
# 6 0.0000 0.0000 0.0000 0.0000 0.0000 -46.4377
#
#
#
# Elastic Compliance Matrix: (Units=1/GPa)
#
#
# Indices 1 2 3 4 5 6 
#
# 1 0.050985 -0.006338 0.016970 0.000000 0.000000 0.000000
# 2 -0.006338 0.008109 -0.010056 0.000000 0.000000 0.000000
# 3 0.016970 -0.010056 0.030967 0.000000 0.000000 0.000000
# 4 0.000000 0.000000 0.000000 0.044423 0.000000 0.000000
# 5 0.000000 0.000000 0.000000 0.000000 -0.065631 0.000000
# 6 0.000000 0.000000 0.000000 0.000000 0.000000 -0.021534
#
#
# Mechanical properties :
#
#
# Convention : Reuss Voigt Hill
#
# Bulk Modulus (GPa) = 10.96348 45.07673 28.02011
# Shear Modulus (GPa) = 65.29951 7.75812 36.52881
#
# Velocity S-wave (km/s) = 5.61500 1.93541 4.19965
# Velocity P-wave (km/s) = 6.87976 5.17287 6.08645
#
# Compressibility (1/GPa) = 0.09121191
#
# Stress axis : x y z
#
# Youngs Moduli (GPa) = 19.61370 123.32276 32.29279
#
# Poissons Ratio (x) = 0.78165 -0.54800
# Poissons Ratio (y) = 0.12432 0.32472
# Poissons Ratio (z) = -0.33284 1.24009
#
# Static dielectric constant tensor:
#      x y z
#    x 1.740530 0.000000 0.000000 
#    y 0.000000 1.791520 0.000000 
#    z 0.000000 0.000000 1.715210 
# 
# From -- ./inp_files/20709.got.cif
#   From: 2010.05.17/outbox.cif.g08.bks.cpg/sg47_11_cif.got.tgz:20709.got - 2010.06.03 20:15:42.
