data_PCOD9387831
_publ_section_title
;
Structure prediction by ZEFSAII (Michael W. Deem and Ramdas Pophale) SiO2 
 PCOD9387831
Probable space group: P M M M
;
_chemical_formula_sum "Si O2"
_cell_formula_units_Z 48
_cell_length_a 15.989939
_cell_length_b 9.257960
_cell_length_c 17.301418
_cell_angle_alpha 90.000000
_cell_angle_beta 90.000000
_cell_angle_gamma 90.000000
_cell_volume 2561.201844
_symmetry_space_group_name_H-M "P M M M"
_symmetry_group_IT_number 47
_symmetry_cell_setting 'orthorhombic'
loop_
_space_group_symop_operation_xyz
x,y,z
-x,-y,z
x,-y,-z
-x,y,-z
-x,-y,-z
x,y,-z
-x,y,z
x,-y,z
loop_
_atom_site_type_symbol
_atom_site_label
_atom_site_fract_x
_atom_site_fract_y
_atom_site_fract_z
Si Si1 0.906521 0.327313 0.692090
Si Si2 0.399642 0.334350 0.000000
Si Si3 0.347897 0.832889 0.153160
Si Si4 0.254408 0.673641 0.409601
Si Si5 0.594492 0.825868 0.321335
Si Si6 0.850722 0.167807 0.155397
Si Si7 0.100466 0.666524 0.000000
O O1 0.900286 0.500000 0.705872
O O2 0.831130 0.286352 0.634945
O O3 0.894557 0.245010 0.772713
O O4 0.000000 0.298572 0.661216
O O5 0.368174 0.257136 0.922695
O O6 0.371789 0.500000 0.000000
O O7 0.500000 0.329390 0.000000
O O8 0.393704 0.784105 0.231258
O O9 0.248914 0.826922 0.169063
O O10 0.371120 0.000000 0.138578
O O11 0.248780 0.709981 0.500000
O O12 0.263934 0.500000 0.402873
O O13 0.333633 0.750351 0.370686
O O14 0.500000 0.790431 0.346504
O O15 0.604751 0.000000 0.325072
O O16 0.875774 0.000000 0.149177
O O17 0.869518 0.250820 0.076248
O O18 0.129416 0.500000 0.000000
O O19 0.000000 0.666428 0.000000
#
# Coordination Sequence:
#
# PCOD9387831 Si02
#       7
#     8   4   8   8   8   8   4
#     4  10  21  38  61  88 119 157 198 239 291 354
#     4  11  24  37  52  82 118 151 194 244 291 341
#     4  10  21  38  59  82 112 153 197 240 290 346
#     4  10  22  40  62  89 121 155 192 240 296 352
#     4  10  21  39  63  89 118 156 200 243 291 350
#     4  11  22  37  59  86 115 150 197 248 294 342
#     4  11  24  39  54  78 116 159 200 240 287 345
#
# _framework density 18.741202000000001
#
# number of rings (size 3 to 8) (size 9 to 14) (size 15 to 20)
#    0.000    1.667    1.667    2.500    0.000    9.667 
#    0.000    3.333    0.000    0.000    0.000    2.333 
#    0.000    0.000    0.000    0.000    0.000    0.000 
#
# Total GULP energy -268197.057938 kJ/mol
# GULP energy per Si atom -5587.438707 kJ/mol
# Density = 1.869855 g / cm^3
# Si number density = 18.741202 Si / 1000 Ang^3
#
#
#
# Elastic Constant Matrix: (Units=GPa)
#
#
# Indices 1 2 3 4 5 6 
#
# 1 130.6270 52.3158 73.8467 0.0000 0.0000 0.0000
# 2 52.3158 63.6093 59.2351 0.0000 0.0000 0.0000
# 3 73.8467 59.2351 141.9240 0.0000 0.0000 0.0000
# 4 0.0000 0.0000 0.0000 20.9044 0.0000 0.0000
# 5 0.0000 0.0000 0.0000 0.0000 2.3968 0.0000
# 6 0.0000 0.0000 0.0000 0.0000 0.0000 26.3291
#
#
#
# Elastic Compliance Matrix: (Units=1/GPa)
#
#
# Indices 1 2 3 4 5 6 
#
# 1 0.012450 -0.006882 -0.003606 0.000000 0.000000 0.000000
# 2 -0.006882 0.029520 -0.008740 0.000000 0.000000 0.000000
# 3 -0.003606 -0.008740 0.012570 0.000000 0.000000 0.000000
# 4 0.000000 0.000000 0.000000 0.047837 0.000000 0.000000
# 5 0.000000 0.000000 0.000000 0.000000 0.417232 0.000000
# 6 0.000000 0.000000 0.000000 0.000000 0.000000 0.037981
#
#
# Mechanical properties :
#
#
# Convention : Reuss Voigt Hill
#
# Bulk Modulus (GPa) = 62.17049 78.55063 70.36056
# Shear Modulus (GPa) = 8.31386 19.97691 14.14539
#
# Velocity S-wave (km/s) = 2.10850 3.26841 2.75030
# Velocity P-wave (km/s) = 6.25882 7.49984 6.90726
#
# Compressibility (1/GPa) = 0.01608480
#
# Stress axis : x y z
#
# Youngs Moduli (GPa) = 80.32180 33.87553 79.55413
#
# Poissons Ratio (x) = 0.23312 0.28686
# Poissons Ratio (y) = 0.55275 0.69531
# Poissons Ratio (z) = 0.28962 0.29607
#
# Static dielectric constant tensor:
#      x y z
#    x 1.659240 0.000000 0.000000 
#    y 0.000000 1.634420 0.000000 
#    z 0.000000 0.000000 1.609490 
# 
# From -- ./inp_files/26508.got.cif
#   From: 2010.05.17/outbox.cif.g08.bks.cpg/sg47_14_cif.got.tgz:26508.got - 2010.06.03 20:15:42.
