data_PCOD9387707
_publ_section_title
;
Structure prediction by ZEFSAII (Michael W. Deem and Ramdas Pophale) SiO2 
 PCOD9387707
Probable space group: P M M M
;
_chemical_formula_sum "Si O2"
_cell_formula_units_Z 32
_cell_length_a 13.501178
_cell_length_b 14.447260
_cell_length_c 8.201371
_cell_angle_alpha 90.000000
_cell_angle_beta 90.000000
_cell_angle_gamma 90.000000
_cell_volume 1599.718657
_symmetry_space_group_name_H-M "P M M M"
_symmetry_group_IT_number 47
_symmetry_cell_setting 'orthorhombic'
loop_
_space_group_symop_operation_xyz
x,y,z
-x,-y,z
x,-y,-z
-x,y,-z
-x,-y,-z
x,y,-z
-x,y,z
x,-y,z
loop_
_atom_site_type_symbol
_atom_site_label
_atom_site_fract_x
_atom_site_fract_y
_atom_site_fract_z
Si Si1 0.209834 0.105522 0.693625
Si Si2 0.756503 0.389444 0.812368
Si Si3 0.389556 0.768005 0.806114
Si Si4 0.000000 0.106494 0.193664
Si Si5 0.887762 0.387373 0.500000
O O1 0.204915 0.101506 0.500000
O O2 0.305989 0.163047 0.741407
O O3 0.105126 0.147123 0.752643
O O4 0.217468 0.000000 0.759263
O O5 0.743804 0.500000 0.804842
O O6 0.654904 0.334503 0.781968
O O7 0.830455 0.361767 0.666202
O O8 0.789114 0.367062 0.000000
O O9 0.500000 0.779743 0.737501
O O10 0.394887 0.782710 0.000000
O O11 0.000000 0.000000 0.259863
O O12 0.000000 0.103254 0.000000
O O13 0.891384 0.500000 0.500000
O O14 0.000000 0.352223 0.500000
#
# Coordination Sequence:
#
# PCOD9387707 Si02
#       5
#     8   8   8   4   4
#     4  10  21  37  57  83 115 149 186 231 285 341
#     4   9  19  37  59  84 116 152 192 239 290 343
#     4  10  22  39  58  82 112 148 192 240 287 337
#     4   9  17  33  59  85 110 143 184 231 279 336
#     4   9  18  34  57  85 116 151 193 238 286 344
#
# _framework density 20.003519000000001
#
# number of rings (size 3 to 8) (size 9 to 14) (size 15 to 20)
#    0.000    2.500    0.000    1.125    1.750    5.000 
#    2.250    7.500    0.000    2.250    0.000    0.000 
#    0.000    0.000    0.000    0.000    0.000    0.000 
#
# Total GULP energy -178489.528782 kJ/mol
# GULP energy per Si atom -5577.797774 kJ/mol
# Density = 1.995799 g / cm^3
# Si number density = 20.003519 Si / 1000 Ang^3
#
#
#
# Elastic Constant Matrix: (Units=GPa)
#
#
# Indices 1 2 3 4 5 6 
#
# 1 212.2467 54.8563 77.7011 0.0000 0.0000 0.0000
# 2 54.8563 60.3395 31.2890 0.0000 0.0000 0.0000
# 3 77.7011 31.2890 76.8878 0.0000 0.0000 0.0000
# 4 0.0000 0.0000 0.0000 19.6918 0.0000 0.0000
# 5 0.0000 0.0000 0.0000 0.0000 52.9795 0.0000
# 6 0.0000 0.0000 0.0000 0.0000 0.0000 26.0943
#
#
#
# Elastic Compliance Matrix: (Units=1/GPa)
#
#
# Indices 1 2 3 4 5 6 
#
# 1 0.008171 -0.003988 -0.006635 0.000000 0.000000 0.000000
# 2 -0.003988 0.022952 -0.005310 0.000000 0.000000 0.000000
# 3 -0.006635 -0.005310 0.021871 0.000000 0.000000 0.000000
# 4 0.000000 0.000000 0.000000 0.050783 0.000000 0.000000
# 5 0.000000 0.000000 0.000000 0.000000 0.018875 0.000000
# 6 0.000000 0.000000 0.000000 0.000000 0.000000 0.038323
#
#
# Mechanical properties :
#
#
# Convention : Reuss Voigt Hill
#
# Bulk Modulus (GPa) = 47.32710 75.24073 61.28391
# Shear Modulus (GPa) = 25.01458 32.12829 28.57143
#
# Velocity S-wave (km/s) = 3.54009 4.01201 3.78341
# Velocity P-wave (km/s) = 6.35770 7.69136 7.05611
#
# Compressibility (1/GPa) = 0.02112954
#
# Stress axis : x y z
#
# Youngs Moduli (GPa) = 122.38233 43.56898 45.72164
#
# Poissons Ratio (x) = 0.17376 0.30334
# Poissons Ratio (y) = 0.48809 0.24277
# Poissons Ratio (z) = 0.81195 0.23134
#
# Static dielectric constant tensor:
#      x y z
#    x 1.717510 0.000000 0.000000 
#    y 0.000000 1.746520 0.000000 
#    z 0.000000 0.000000 1.697340 
# 
# From -- ./inp_files/3431.got.cif
#   From: 2010.05.17/outbox.cif.g08.bks.cpg/sg47_2_cif.got.tgz:3431.got - 2010.06.03 20:15:42.
