data_PCOD9387745
_publ_section_title
;
Structure prediction by ZEFSAII (Michael W. Deem and Ramdas Pophale) SiO2 
 PCOD9387745
Probable space group: P M M M
;
_chemical_formula_sum "Si O2"
_cell_formula_units_Z 52
_cell_length_a 9.425596
_cell_length_b 15.281685
_cell_length_c 19.063352
_cell_angle_alpha 90.000000
_cell_angle_beta 90.000000
_cell_angle_gamma 90.000000
_cell_volume 2745.865949
_symmetry_space_group_name_H-M "P M M M"
_symmetry_group_IT_number 47
_symmetry_cell_setting 'orthorhombic'
loop_
_space_group_symop_operation_xyz
x,y,z
-x,-y,z
x,-y,-z
-x,y,-z
-x,-y,-z
x,y,-z
-x,y,z
x,-y,z
loop_
_atom_site_type_symbol
_atom_site_label
_atom_site_fract_x
_atom_site_fract_y
_atom_site_fract_z
Si Si1 0.168821 0.104447 0.164436
Si Si2 0.839939 0.829401 0.417402
Si Si3 0.662916 0.500000 0.583570
Si Si4 0.343465 0.897041 0.300362
Si Si5 0.668987 0.396166 0.197033
Si Si6 0.836330 0.354759 0.336867
Si Si7 0.331985 0.250425 0.081783
O O1 0.237350 0.132311 0.239045
O O2 0.242461 0.167230 0.108064
O O3 0.000000 0.116940 0.166162
O O4 0.194846 0.000000 0.152673
O O5 0.812699 0.817646 0.500000
O O6 0.723659 0.884728 0.376597
O O7 0.836883 0.738459 0.375106
O O8 0.000000 0.866355 0.410150
O O9 0.500000 0.500000 0.608482
O O10 0.663503 0.500000 0.500000
O O11 0.746545 0.582219 0.613410
O O12 0.500000 0.855848 0.294382
O O13 0.357258 0.000000 0.288649
O O14 0.500000 0.389298 0.212089
O O15 0.699846 0.500000 0.187384
O O16 0.759491 0.359465 0.261968
O O17 0.698803 0.335368 0.129688
O O18 0.000000 0.383246 0.329883
O O19 0.500000 0.230680 0.090449
O O20 0.305440 0.268004 0.000000
#
# Coordination Sequence:
#
# PCOD9387745 Si02
#       7
#     8   8   4   8   8   8   8
#     4  10  21  38  61  88 118 154 195 238 289 351
#     4  10  22  38  55  79 113 153 194 237 290 348
#     4  11  23  37  55  81 112 145 182 227 281 338
#     4  10  21  37  58  84 113 147 191 242 291 340
#     4  10  21  38  60  85 116 154 196 240 288 346
#     4  11  22  37  58  83 111 145 188 236 282 335
#     4  10  22  39  60  89 122 156 195 239 289 345
#
# _framework density 18.937560999999999
#
# number of rings (size 3 to 8) (size 9 to 14) (size 15 to 20)
#    0.000    1.769    0.769    3.000    0.000    8.923 
#    0.000    4.615    0.000    0.000    0.000    2.154 
#    0.000    0.000    0.000    0.000    0.000    0.000 
#
# Total GULP energy -290274.947959 kJ/mol
# GULP energy per Si atom -5582.210538 kJ/mol
# Density = 1.889446 g / cm^3
# Si number density = 18.937561 Si / 1000 Ang^3
#
#
#
# Elastic Constant Matrix: (Units=GPa)
#
#
# Indices 1 2 3 4 5 6 
#
# 1 102.9236 39.8742 70.3976 0.0000 0.0000 0.0000
# 2 39.8742 46.1002 37.3635 0.0000 0.0000 0.0000
# 3 70.3976 37.3635 139.9819 0.0000 0.0000 0.0000
# 4 0.0000 0.0000 0.0000 37.0710 0.0000 0.0000
# 5 0.0000 0.0000 0.0000 0.0000 21.4750 0.0000
# 6 0.0000 0.0000 0.0000 0.0000 0.0000 16.2451
#
#
#
# Elastic Compliance Matrix: (Units=1/GPa)
#
#
# Indices 1 2 3 4 5 6 
#
# 1 0.018111 -0.010569 -0.006287 0.000000 0.000000 0.000000
# 2 -0.010569 0.033848 -0.003719 0.000000 0.000000 0.000000
# 3 -0.006287 -0.003719 0.011298 0.000000 0.000000 0.000000
# 4 0.000000 0.000000 0.000000 0.026975 0.000000 0.000000
# 5 0.000000 0.000000 0.000000 0.000000 0.046566 0.000000
# 6 0.000000 0.000000 0.000000 0.000000 0.000000 0.061557
#
#
# Mechanical properties :
#
#
# Convention : Reuss Voigt Hill
#
# Bulk Modulus (GPa) = 45.23623 64.91959 55.07791
# Shear Modulus (GPa) = 20.25316 24.38292 22.31804
#
# Velocity S-wave (km/s) = 3.27382 3.59213 3.43666
# Velocity P-wave (km/s) = 6.18300 7.18051 6.70035
#
# Compressibility (1/GPa) = 0.02210617
#
# Stress axis : x y z
#
# Youngs Moduli (GPa) = 55.21567 29.54357 88.50977
#
# Poissons Ratio (x) = 0.31226 0.55645
# Poissons Ratio (y) = 0.58360 0.32919
# Poissons Ratio (z) = 0.34713 0.10988
#
# Static dielectric constant tensor:
#      x y z
#    x 1.662060 0.000000 0.000000 
#    y 0.000000 1.719460 0.000000 
#    z 0.000000 0.000000 1.630250 
# 
# From -- ./inp_files/26726.got.cif
#   From: 2010.05.17/outbox.cif.g08.bks.cpg/sg47_14_cif.got.tgz:26726.got - 2010.06.03 20:15:42.
