data_PCOD9387830
_publ_section_title
;
Structure prediction by ZEFSAII (Michael W. Deem and Ramdas Pophale) SiO2 
 PCOD9387830
Probable space group: P M M M
;
_chemical_formula_sum "Si O2"
_cell_formula_units_Z 44
_cell_length_a 14.767771
_cell_length_b 17.949464
_cell_length_c 9.084480
_cell_angle_alpha 90.000000
_cell_angle_beta 90.000000
_cell_angle_gamma 90.000000
_cell_volume 2408.055581
_symmetry_space_group_name_H-M "P M M M"
_symmetry_group_IT_number 47
_symmetry_cell_setting 'orthorhombic'
loop_
_space_group_symop_operation_xyz
x,y,z
-x,-y,z
x,-y,-z
-x,y,-z
-x,-y,-z
x,y,-z
-x,y,z
x,-y,z
loop_
_atom_site_type_symbol
_atom_site_label
_atom_site_fract_x
_atom_site_fract_y
_atom_site_fract_z
Si Si1 0.389967 0.000000 0.668158
Si Si2 0.686185 0.415114 0.176351
Si Si3 0.500000 0.409902 0.334907
Si Si4 0.239043 0.262540 0.823900
Si Si5 0.108891 0.848269 0.670752
Si Si6 0.110363 0.000000 0.831366
Si Si7 0.393462 0.165083 0.678582
O O1 0.366979 0.081053 0.731043
O O2 0.500000 0.000000 0.661407
O O3 0.356040 0.000000 0.500000
O O4 0.708379 0.500000 0.222730
O O5 0.591279 0.391658 0.249196
O O6 0.757109 0.350418 0.212010
O O7 0.674259 0.416029 0.000000
O O8 0.500000 0.500000 0.344333
O O9 0.500000 0.378502 0.500000
O O10 0.154716 0.219795 0.754376
O O11 0.327687 0.223368 0.755086
O O12 0.239568 0.254142 0.000000
O O13 0.136039 0.848482 0.500000
O O14 0.000000 0.844201 0.678416
O O15 0.138033 0.925554 0.746538
O O16 0.000000 0.000000 0.833021
O O17 0.141538 0.000000 0.000000
O O18 0.384272 0.167498 0.500000
O O19 0.500000 0.177598 0.710918
#
# Coordination Sequence:
#
# PCOD9387830 Si02
#       7
#     4   8   4   8   8   4   8
#     4   7  12  27  49  68  90 130 180 214 243 289
#     4   9  19  36  54  72 101 142 182 219 268 329
#     4   9  17  29  49  77 103 130 169 218 269 319
#     4  11  23  35  52  79 107 138 177 225 276 323
#     4  10  21  38  59  82 110 144 181 220 267 326
#     4   9  17  32  57  86 114 142 174 218 269 316
#     4   9  18  33  52  73 101 139 179 220 262 311
#
# _framework density 18.272002000000001
#
# number of rings (size 3 to 8) (size 9 to 14) (size 15 to 20)
#    0.000    2.636    0.000    2.727    1.273    5.818 
#    0.000    3.182    0.000    2.182    0.000    3.818 
#    0.000    0.000    0.000    0.000    0.000    0.000 
#
# Total GULP energy -245430.394923 kJ/mol
# GULP energy per Si atom -5577.963521 kJ/mol
# Density = 1.823041 g / cm^3
# Si number density = 18.272002 Si / 1000 Ang^3
#
#
#
# Elastic Constant Matrix: (Units=GPa)
#
#
# Indices 1 2 3 4 5 6 
#
# 1 41.3888 33.0123 25.3696 0.0000 0.0000 0.0000
# 2 33.0123 135.7857 52.6038 0.0000 0.0000 0.0000
# 3 25.3696 52.6038 61.2315 0.0000 0.0000 0.0000
# 4 0.0000 0.0000 0.0000 16.6679 0.0000 0.0000
# 5 0.0000 0.0000 0.0000 0.0000 25.8353 0.0000
# 6 0.0000 0.0000 0.0000 0.0000 0.0000 34.2457
#
#
#
# Elastic Compliance Matrix: (Units=1/GPa)
#
#
# Indices 1 2 3 4 5 6 
#
# 1 0.033911 -0.004199 -0.010443 0.000000 0.000000 0.000000
# 2 -0.004199 0.011558 -0.008190 0.000000 0.000000 0.000000
# 3 -0.010443 -0.008190 0.027694 0.000000 0.000000 0.000000
# 4 0.000000 0.000000 0.000000 0.059996 0.000000 0.000000
# 5 0.000000 0.000000 0.000000 0.000000 0.038707 0.000000
# 6 0.000000 0.000000 0.000000 0.000000 0.000000 0.029201
#
#
# Mechanical properties :
#
#
# Convention : Reuss Voigt Hill
#
# Bulk Modulus (GPa) = 36.36350 51.15304 43.75827
# Shear Modulus (GPa) = 19.53912 23.84446 21.69179
#
# Velocity S-wave (km/s) = 3.27364 3.61636 3.44926
# Velocity P-wave (km/s) = 5.85093 6.74489 6.31375
#
# Compressibility (1/GPa) = 0.02750010
#
# Stress axis : x y z
#
# Youngs Moduli (GPa) = 29.48866 86.51889 36.10873
#
# Poissons Ratio (x) = 0.36328 0.37708
# Poissons Ratio (y) = 0.12382 0.29573
# Poissons Ratio (z) = 0.30795 0.70858
#
# Static dielectric constant tensor:
#      x y z
#    x 1.625000 0.000000 0.000000 
#    y 0.000000 1.660280 0.000000 
#    z 0.000000 0.000000 1.615480 
# 
# From -- ./inp_files/6302.got.cif
#   From: 2010.05.17/outbox.cif.g08.bks.cpg/sg47_4_cif.got.tgz:6302.got - 2010.06.03 20:15:42.
