data_PCOD9387275
_publ_section_title
;
Structure prediction by ZEFSAII (Michael W. Deem and Ramdas Pophale) SiO2 
 PCOD9387275
Probable space group: P M M M
;
_chemical_formula_sum "Si O2"
_cell_formula_units_Z 56
_cell_length_a 8.162980
_cell_length_b 21.401653
_cell_length_c 14.925245
_cell_angle_alpha 90.000000
_cell_angle_beta 90.000000
_cell_angle_gamma 90.000000
_cell_volume 2607.459188
_symmetry_space_group_name_H-M "P M M M"
_symmetry_group_IT_number 47
_symmetry_cell_setting 'orthorhombic'
loop_
_space_group_symop_operation_xyz
x,y,z
-x,-y,z
x,-y,-z
-x,y,-z
-x,-y,-z
x,y,-z
-x,y,z
x,-y,z
loop_
_atom_site_type_symbol
_atom_site_label
_atom_site_fract_x
_atom_site_fract_y
_atom_site_fract_z
Si Si1 0.195366 0.250414 0.394712
Si Si2 0.686793 0.122902 0.681799
Si Si3 0.184302 0.796957 0.105522
Si Si4 0.803341 0.500000 0.396475
Si Si5 0.303443 0.624318 0.706234
Si Si6 0.810155 0.931398 0.148364
Si Si7 0.306602 0.662075 0.897475
Si Si8 0.813866 0.926377 0.500000
O O1 0.251413 0.246010 0.500000
O O2 0.266081 0.195414 0.331395
O O3 0.238986 0.316680 0.350636
O O4 0.000000 0.243325 0.395742
O O5 0.500000 0.116923 0.711971
O O6 0.799433 0.080897 0.745904
O O7 0.714584 0.095682 0.584730
O O8 0.263633 0.865193 0.117610
O O9 0.280607 0.734769 0.129929
O O10 0.000000 0.796538 0.146859
O O11 0.164668 0.791185 0.000000
O O12 0.745647 0.500000 0.500000
O O13 0.744329 0.561372 0.344576
O O14 0.000000 0.500000 0.397722
O O15 0.500000 0.629450 0.709648
O O16 0.241528 0.625608 0.810058
O O17 0.000000 0.931469 0.117869
O O18 0.741543 0.000000 0.125455
O O19 0.500000 0.649863 0.903771
O O20 0.240092 0.652041 0.000000
O O21 0.000000 0.899644 0.500000
O O22 0.827053 0.000000 0.500000
#
# Coordination Sequence:
#
# PCOD9387275 Si02
#       8
#     8   8   8   4   8   8   8   4
#     4  11  23  39  60  85 117 155 195 242 300 362
#     4  12  24  37  55  79 108 141 185 240 291 344
#     4   9  18  33  55  83 112 145 190 243 295 348
#     4  11  25  45  66  91 128 172 211 243 290 355
#     4  11  23  39  64  95 125 160 203 250 296 341
#     4  10  21  36  53  74 105 147 191 237 296 364
#     4   9  19  37  60  88 122 158 195 238 295 359
#     4  11  23  39  57  75 101 140 183 228 287 355
#
# _framework density 21.476845000000001
#
# number of rings (size 3 to 8) (size 9 to 14) (size 15 to 20)
#    0.000    1.571    0.714    4.286    0.000   10.000 
#    0.000    1.786    0.000    2.143    0.000    3.000 
#    0.000    0.000    0.000    0.000    0.000    0.000 
#
# Total GULP energy -312429.750959 kJ/mol
# GULP energy per Si atom -5579.102696 kJ/mol
# Density = 2.142796 g / cm^3
# Si number density = 21.476845 Si / 1000 Ang^3
#
#
#
# Elastic Constant Matrix: (Units=GPa)
#
#
# Indices 1 2 3 4 5 6 
#
# 1 43.7788 3.7061 6.5969 0.0000 0.0000 0.0000
# 2 3.7061 124.4854 36.0460 0.0000 0.0000 0.0000
# 3 6.5969 36.0460 102.9953 0.0000 0.0000 0.0000
# 4 0.0000 0.0000 0.0000 48.6630 0.0000 0.0000
# 5 0.0000 0.0000 0.0000 0.0000 19.7323 0.0000
# 6 0.0000 0.0000 0.0000 0.0000 0.0000 27.1729
#
#
#
# Elastic Compliance Matrix: (Units=1/GPa)
#
#
# Indices 1 2 3 4 5 6 
#
# 1 0.023074 -0.000288 -0.001377 0.000000 0.000000 0.000000
# 2 -0.000288 0.008943 -0.003111 0.000000 0.000000 0.000000
# 3 -0.001377 -0.003111 0.010886 0.000000 0.000000 0.000000
# 4 0.000000 0.000000 0.000000 0.020549 0.000000 0.000000
# 5 0.000000 0.000000 0.000000 0.000000 0.050678 0.000000
# 6 0.000000 0.000000 0.000000 0.000000 0.000000 0.036801
#
#
# Mechanical properties :
#
#
# Convention : Reuss Voigt Hill
#
# Bulk Modulus (GPa) = 29.98515 40.43971 35.21243
# Shear Modulus (GPa) = 29.13728 34.10768 31.62248
#
# Velocity S-wave (km/s) = 3.68731 3.98944 3.84135
# Velocity P-wave (km/s) = 5.66748 6.33176 6.00880
#
# Compressibility (1/GPa) = 0.03334984
#
# Stress axis : x y z
#
# Youngs Moduli (GPa) = 43.33881 111.82509 91.85912
#
# Poissons Ratio (x) = 0.03223 0.12649
# Poissons Ratio (y) = 0.01249 0.28579
# Poissons Ratio (z) = 0.05968 0.34791
#
# Static dielectric constant tensor:
#      x y z
#    x 1.815530 0.000000 0.000000 
#    y 0.000000 1.769480 0.000000 
#    z 0.000000 0.000000 1.980000 
# 
# From -- ./inp_files/21627.got.cif
#   From: 2010.05.17/outbox.cif.g08.bks.cpg/sg47_11_cif.got.tgz:21627.got - 2010.06.03 20:15:42.
