data_PCOD9387809
_publ_section_title
;
Structure prediction by ZEFSAII (Michael W. Deem and Ramdas Pophale) SiO2 
 PCOD9387809
Probable space group: P M M M
;
_chemical_formula_sum "Si O2"
_cell_formula_units_Z 36
_cell_length_a 8.226437
_cell_length_b 16.163946
_cell_length_c 14.671273
_cell_angle_alpha 90.000000
_cell_angle_beta 90.000000
_cell_angle_gamma 90.000000
_cell_volume 1950.863869
_symmetry_space_group_name_H-M "P M M M"
_symmetry_group_IT_number 47
_symmetry_cell_setting 'orthorhombic'
loop_
_space_group_symop_operation_xyz
x,y,z
-x,-y,z
x,-y,-z
-x,y,-z
-x,-y,-z
x,y,-z
-x,y,z
x,-y,z
loop_
_atom_site_type_symbol
_atom_site_label
_atom_site_fract_x
_atom_site_fract_y
_atom_site_fract_z
Si Si1 0.181625 0.195183 0.394613
Si Si2 0.803465 0.094501 0.107233
Si Si3 0.500000 0.089476 0.609494
Si Si4 0.310494 0.253509 0.778133
Si Si5 0.804256 0.592280 0.892751
O O1 0.201417 0.223076 0.500000
O O2 0.329512 0.133774 0.372089
O O3 0.204858 0.260777 0.314261
O O4 0.000000 0.158694 0.387789
O O5 0.734423 0.169006 0.167786
O O6 0.000000 0.098043 0.113766
O O7 0.754374 0.000000 0.132591
O O8 0.761270 0.106389 0.000000
O O9 0.500000 0.082735 0.500000
O O10 0.500000 0.000000 0.653327
O O11 0.500000 0.251466 0.754632
O O12 0.274888 0.332197 0.840481
O O13 0.755433 0.500000 0.861460
O O14 0.000000 0.598396 0.884173
O O15 0.766333 0.598324 0.000000
#
# Coordination Sequence:
#
# PCOD9387809 Si02
#       5
#     8   8   4   8   8
#     4  10  21  38  58  79 108 149 193 238 290 343
#     4   9  19  36  55  75 104 145 192 237 277 326
#     4   9  18  34  54  78 108 139 182 240 292 341
#     4  12  23  34  54  83 115 150 188 234 287 344
#     4   9  19  37  60  85 114 148 188 236 286 340
#
# _framework density 18.453363
#
# number of rings (size 3 to 8) (size 9 to 14) (size 15 to 20)
#    0.000    2.111    1.111    4.000    0.000    5.778 
#    0.000    4.444    0.000    0.667    0.000    4.667 
#    0.000    0.000    0.000    0.000    0.000    0.000 
#
# Total GULP energy -200684.173677 kJ/mol
# GULP energy per Si atom -5574.560380 kJ/mol
# Density = 1.841136 g / cm^3
# Si number density = 18.453363 Si / 1000 Ang^3
#
#
#
# Elastic Constant Matrix: (Units=GPa)
#
#
# Indices 1 2 3 4 5 6 
#
# 1 91.9880 40.5618 38.4040 0.0000 0.0000 0.0000
# 2 40.5618 109.0645 58.6300 0.0000 0.0000 0.0000
# 3 38.4040 58.6300 87.7676 0.0000 0.0000 0.0000
# 4 0.0000 0.0000 0.0000 6.4906 0.0000 0.0000
# 5 0.0000 0.0000 0.0000 0.0000 28.6807 0.0000
# 6 0.0000 0.0000 0.0000 0.0000 0.0000 4.9252
#
#
#
# Elastic Compliance Matrix: (Units=1/GPa)
#
#
# Indices 1 2 3 4 5 6 
#
# 1 0.013888 -0.002962 -0.004098 0.000000 0.000000 0.000000
# 2 -0.002962 0.014938 -0.008683 0.000000 0.000000 0.000000
# 3 -0.004098 -0.008683 0.018987 0.000000 0.000000 0.000000
# 4 0.000000 0.000000 0.000000 0.154069 0.000000 0.000000
# 5 0.000000 0.000000 0.000000 0.000000 0.034867 0.000000
# 6 0.000000 0.000000 0.000000 0.000000 0.000000 0.203039
#
#
# Mechanical properties :
#
#
# Convention : Reuss Voigt Hill
#
# Bulk Modulus (GPa) = 61.24721 62.66795 61.95758
# Shear Modulus (GPa) = 10.48839 18.10092 14.29466
#
# Velocity S-wave (km/s) = 2.38664 3.13533 2.78625
# Velocity P-wave (km/s) = 6.39195 6.86593 6.63318
#
# Compressibility (1/GPa) = 0.01632727
#
# Stress axis : x y z
#
# Youngs Moduli (GPa) = 72.00451 66.94307 52.66693
#
# Poissons Ratio (x) = 0.19828 0.21585
# Poissons Ratio (y) = 0.21327 0.45730
# Poissons Ratio (z) = 0.29510 0.58125
#
# Static dielectric constant tensor:
#      x y z
#    x 1.649780 0.000000 0.000000 
#    y 0.000000 1.647340 0.000000 
#    z 0.000000 0.000000 1.656610 
# 
# From -- ./inp_files/20548.got.cif
#   From: 2010.05.17/outbox.cif.g08.bks.cpg/sg47_11_cif.got.tgz:20548.got - 2010.06.03 20:15:42.
