data_PCOD9387834
_publ_section_title
;
Structure prediction by ZEFSAII (Michael W. Deem and Ramdas Pophale) SiO2 
 PCOD9387834
Probable space group: P M M M
;
_chemical_formula_sum "Si O2"
_cell_formula_units_Z 40
_cell_length_a 17.229408
_cell_length_b 8.286350
_cell_length_c 13.826783
_cell_angle_alpha 90.000000
_cell_angle_beta 90.000000
_cell_angle_gamma 90.000000
_cell_volume 1974.034668
_symmetry_space_group_name_H-M "P M M M"
_symmetry_group_IT_number 47
_symmetry_cell_setting 'orthorhombic'
loop_
_space_group_symop_operation_xyz
x,y,z
-x,-y,z
x,-y,-z
-x,y,-z
-x,-y,-z
x,y,-z
-x,y,z
x,-y,z
loop_
_atom_site_type_symbol
_atom_site_label
_atom_site_fract_x
_atom_site_fract_y
_atom_site_fract_z
Si Si1 0.500000 0.691055 0.109048
Si Si2 0.252939 0.193576 0.390678
Si Si3 0.819723 0.817987 0.883998
Si Si4 0.344976 0.191530 0.210585
Si Si5 0.089005 0.500000 0.882096
Si Si6 0.084429 0.691120 0.382722
O O1 0.500000 0.500000 0.100511
O O2 0.577502 0.738597 0.165887
O O3 0.500000 0.762079 0.000000
O O4 0.261486 0.257214 0.500000
O O5 0.316177 0.255929 0.314664
O O6 0.165726 0.229548 0.354057
O O7 0.260275 0.000000 0.394309
O O8 0.730166 0.786225 0.857469
O O9 0.870231 0.665700 0.849821
O O10 0.839813 0.000000 0.848340
O O11 0.827522 0.822363 0.000000
O O12 0.357237 0.000000 0.219874
O O13 0.000000 0.500000 0.852408
O O14 0.091723 0.500000 0.000000
O O15 0.082849 0.708823 0.500000
O O16 0.088452 0.500000 0.362425
O O17 0.000000 0.752649 0.347497
#
# Coordination Sequence:
#
# PCOD9387834 Si02
#       6
#     4   8   8   8   4   8
#     4  11  25  41  62  93 118 138 173 227 288 351
#     4   9  18  33  54  80 110 148 194 237 277 326
#     4   9  18  33  55  81 109 146 191 237 288 350
#     4  10  21  38  59  83 113 149 185 226 284 349
#     4   9  18  32  52  79 112 152 193 235 288 346
#     4   8  14  26  45  70 102 142 188 236 284 329
#
# _framework density 20.263069000000002
#
# number of rings (size 3 to 8) (size 9 to 14) (size 15 to 20)
#    0.000    2.800    0.000    1.500    1.400    3.200 
#    0.000    5.500    0.000    6.600    0.000    0.000 
#    0.000    0.000    0.000    0.000    0.000    0.000 
#
# Total GULP energy -223194.483939 kJ/mol
# GULP energy per Si atom -5579.862098 kJ/mol
# Density = 2.021695 g / cm^3
# Si number density = 20.263069 Si / 1000 Ang^3
#
#
#
# Elastic Constant Matrix: (Units=GPa)
#
#
# Indices 1 2 3 4 5 6 
#
# 1 174.6184 76.0112 64.6291 0.0000 0.0000 0.0000
# 2 76.0112 78.0996 30.6468 0.0000 0.0000 0.0000
# 3 64.6291 30.6468 101.5248 0.0000 0.0000 0.0000
# 4 0.0000 0.0000 0.0000 17.0398 0.0000 0.0000
# 5 0.0000 0.0000 0.0000 0.0000 21.0732 0.0000
# 6 0.0000 0.0000 0.0000 0.0000 0.0000 36.8647
#
#
#
# Elastic Compliance Matrix: (Units=1/GPa)
#
#
# Indices 1 2 3 4 5 6 
#
# 1 0.011480 -0.009421 -0.004464 0.000000 0.000000 0.000000
# 2 -0.009421 0.022257 -0.000721 0.000000 0.000000 0.000000
# 3 -0.004464 -0.000721 0.012909 0.000000 0.000000 0.000000
# 4 0.000000 0.000000 0.000000 0.058686 0.000000 0.000000
# 5 0.000000 0.000000 0.000000 0.000000 0.047454 0.000000
# 6 0.000000 0.000000 0.000000 0.000000 0.000000 0.027126
#
#
# Mechanical properties :
#
#
# Convention : Reuss Voigt Hill
#
# Bulk Modulus (GPa) = 57.36248 77.42413 67.39331
# Shear Modulus (GPa) = 23.26278 27.19260 25.22769
#
# Velocity S-wave (km/s) = 3.39195 3.66728 3.53230
# Velocity P-wave (km/s) = 6.61141 7.49829 7.06877
#
# Compressibility (1/GPa) = 0.01743300
#
# Stress axis : x y z
#
# Youngs Moduli (GPa) = 87.10694 44.93054 77.46414
#
# Poissons Ratio (x) = 0.42331 0.34581
# Poissons Ratio (y) = 0.82067 0.05585
# Poissons Ratio (z) = 0.38885 0.03239
#
# Static dielectric constant tensor:
#      x y z
#    x 1.680310 0.000000 0.000000 
#    y 0.000000 1.714100 0.000000 
#    z 0.000000 0.000000 1.806760 
# 
# From -- ./inp_files/23369.got.cif
#   From: 2010.05.17/outbox.cif.g08.bks.cpg/sg47_12_cif.got.tgz:23369.got - 2010.06.03 20:15:42.
