data_PCOD9387444
_publ_section_title
;
Structure prediction by ZEFSAII (Michael W. Deem and Ramdas Pophale) SiO2 
 PCOD9387444
Probable space group: P M M M
;
_chemical_formula_sum "Si O2"
_cell_formula_units_Z 58
_cell_length_a 18.687922
_cell_length_b 18.469464
_cell_length_c 8.569056
_cell_angle_alpha 90.000000
_cell_angle_beta 90.000000
_cell_angle_gamma 90.000000
_cell_volume 2957.660258
_symmetry_space_group_name_H-M "P M M M"
_symmetry_group_IT_number 47
_symmetry_cell_setting 'orthorhombic'
loop_
_space_group_symop_operation_xyz
x,y,z
-x,-y,z
x,-y,-z
-x,y,-z
-x,-y,-z
x,y,-z
-x,y,z
x,-y,z
loop_
_atom_site_type_symbol
_atom_site_label
_atom_site_fract_x
_atom_site_fract_y
_atom_site_fract_z
Si Si1 0.201499 0.583097 0.818619
Si Si2 0.641481 0.581278 0.684748
Si Si3 0.414865 0.270078 0.824742
Si Si4 0.226511 0.085646 0.820765
Si Si5 0.920230 0.315063 0.314212
Si Si6 0.921384 0.152871 0.187894
Si Si7 0.380793 0.883081 0.682827
Si Si8 0.500000 0.000000 0.222412
O O1 0.176755 0.500000 0.808138
O O2 0.274325 0.588638 0.721147
O O3 0.141099 0.635368 0.755166
O O4 0.217798 0.598807 0.000000
O O5 0.628687 0.583627 0.500000
O O6 0.619841 0.500000 0.741099
O O7 0.605684 0.650865 0.762154
O O8 0.500000 0.266968 0.831444
O O9 0.391985 0.201386 0.722123
O O10 0.385251 0.260810 0.000000
O O11 0.152260 0.117272 0.754963
O O12 0.298821 0.100859 0.726959
O O13 0.217324 0.000000 0.827576
O O14 0.236498 0.112589 0.000000
O O15 0.911168 0.306941 0.500000
O O16 0.917786 0.236629 0.235014
O O17 0.000000 0.345499 0.285754
O O18 0.000000 0.125255 0.242552
O O19 0.921017 0.145168 0.000000
O O20 0.394243 0.897107 0.500000
O O21 0.436662 0.935983 0.771556
#
# Coordination Sequence:
#
# PCOD9387444 Si02
#       8
#     8   8   8   8   8   8   8   2
#     4  10  21  37  58  84 115 153 196 244 299 359
#     4  10  22  41  65  92 122 159 202 249 303 361
#     4  11  25  43  63  92 125 160 204 250 303 365
#     4  10  22  39  59  89 123 154 198 251 305 369
#     4  10  21  36  55  81 114 153 198 247 300 358
#     4   9  19  37  60  84 115 157 200 246 302 362
#     4  12  24  42  65  91 124 164 210 258 314 373
#     4  12  25  44  69  94 125 168 213 264 317 376
#
# _framework density 19.610095999999999
#
# number of rings (size 3 to 8) (size 9 to 14) (size 15 to 20)
#    0.000    1.655    1.379    2.690    1.931    4.690 
#    0.000    5.517    0.000    0.000    0.000    2.897 
#    0.000    0.000    0.000    0.000    0.000    0.000 
#
# Total GULP energy -323209.800059 kJ/mol
# GULP energy per Si atom -5572.582760 kJ/mol
# Density = 1.956546 g / cm^3
# Si number density = 19.610096 Si / 1000 Ang^3
#
#
#
# Elastic Constant Matrix: (Units=GPa)
#
#
# Indices 1 2 3 4 5 6 
#
# 1 89.8062 31.9781 10.7035 0.0000 0.0000 0.0000
# 2 31.9781 73.4743 4.5251 0.0000 0.0000 0.0000
# 3 10.7035 4.5251 14.6898 0.0000 0.0000 0.0000
# 4 0.0000 0.0000 0.0000 -10.4947 0.0000 0.0000
# 5 0.0000 0.0000 0.0000 0.0000 16.6947 0.0000
# 6 0.0000 0.0000 0.0000 0.0000 0.0000 46.0666
#
#
#
# Elastic Compliance Matrix: (Units=1/GPa)
#
#
# Indices 1 2 3 4 5 6 
#
# 1 0.014165 -0.005636 -0.008585 0.000000 0.000000 0.000000
# 2 -0.005636 0.016116 -0.000858 0.000000 0.000000 0.000000
# 3 -0.008585 -0.000858 0.074594 0.000000 0.000000 0.000000
# 4 0.000000 0.000000 0.000000 -0.095286 0.000000 0.000000
# 5 0.000000 0.000000 0.000000 0.000000 0.059899 0.000000
# 6 0.000000 0.000000 0.000000 0.000000 0.000000 0.021708
#
#
# Mechanical properties :
#
#
# Convention : Reuss Voigt Hill
#
# Bulk Modulus (GPa) = 13.38378 30.26486 21.82432
# Shear Modulus (GPa) = 34.18560 19.17088 26.67824
#
# Velocity S-wave (km/s) = 4.17977 3.13006 3.69241
# Velocity P-wave (km/s) = 5.48942 5.34133 5.41588
#
# Compressibility (1/GPa) = 0.07471728
#
# Stress axis : x y z
#
# Youngs Moduli (GPa) = 70.59499 62.04962 13.40588
#
# Poissons Ratio (x) = 0.34974 0.11509
# Poissons Ratio (y) = 0.39790 0.01150
# Poissons Ratio (z) = 0.60607 0.05322
#
# Static dielectric constant tensor:
#      x y z
#    x 1.684240 0.000000 0.000000 
#    y 0.000000 1.669670 0.000000 
#    z 0.000000 0.000000 1.704330 
# 
# From -- ./inp_files/9663.got.cif
#   From: 2010.05.17/outbox.cif.g08.bks.cpg/sg47_5_cif.got.tgz:9663.got - 2010.06.03 20:15:42.
