data_PCOD9387964
_publ_section_title
;
Structure prediction by ZEFSAII (Michael W. Deem and Ramdas Pophale) SiO2 
 PCOD9387964
Probable space group: P M M M
;
_chemical_formula_sum "Si O2"
_cell_formula_units_Z 26
_cell_length_a 7.171670
_cell_length_b 17.552065
_cell_length_c 9.959229
_cell_angle_alpha 90.000000
_cell_angle_beta 90.000000
_cell_angle_gamma 90.000000
_cell_volume 1253.644024
_symmetry_space_group_name_H-M "P M M M"
_symmetry_group_IT_number 47
_symmetry_cell_setting 'orthorhombic'
loop_
_space_group_symop_operation_xyz
x,y,z
-x,-y,z
x,-y,-z
-x,y,-z
-x,-y,-z
x,y,-z
-x,y,z
x,-y,z
loop_
_atom_site_type_symbol
_atom_site_label
_atom_site_fract_x
_atom_site_fract_y
_atom_site_fract_z
Si Si1 0.500000 0.824199 0.500000
Si Si2 0.225250 0.806346 0.248430
Si Si3 0.772963 0.500000 0.345166
Si Si4 0.225581 0.363995 0.847962
Si Si5 0.225448 0.913065 0.000000
O O1 0.337802 0.822340 0.382331
O O2 0.272394 0.721467 0.195706
O O3 0.000000 0.809127 0.268026
O O4 0.277000 0.866322 0.132549
O O5 0.712797 0.500000 0.500000
O O6 0.713759 0.425811 0.261406
O O7 0.000000 0.500000 0.347376
O O8 0.000000 0.367814 0.850814
O O9 0.288121 0.380399 0.000000
O O10 0.000000 0.914499 0.000000
O O11 0.290179 0.000000 0.000000
#
# Coordination Sequence:
#
# PCOD9387964 Si02
#       5
#     2   8   4   8   4
#     4  12  26  38  59  93 128 166 202 242 304 381
#     4  10  21  40  63  90 123 161 204 253 307 360
#     4   9  17  25  43  81 120 155 196 241 297 362
#     4   9  16  30  53  80 114 153 201 254 300 350
#     4   9  18  39  71  98 121 157 206 256 302 356
#
# _framework density 20.739540000000002
#
# number of rings (size 3 to 8) (size 9 to 14) (size 15 to 20)
#    0.000    2.462    1.538    0.923    2.154    2.462 
#    0.000    3.077    0.000    5.538    0.000    2.154 
#    0.000    0.000    0.000    0.000    0.000    0.000 
#
# Total GULP energy -144767.588729 kJ/mol
# GULP energy per Si atom -5567.984182 kJ/mol
# Density = 2.069234 g / cm^3
# Si number density = 20.739540 Si / 1000 Ang^3
#
#
#
# Elastic Constant Matrix: (Units=GPa)
#
#
# Indices 1 2 3 4 5 6 
#
# 1 129.3177 27.4685 54.3795 0.0000 0.0000 0.0000
# 2 27.4685 189.9500 132.2517 0.0000 0.0000 0.0000
# 3 54.3795 132.2517 288.6654 0.0000 0.0000 0.0000
# 4 0.0000 0.0000 0.0000 -11.6389 0.0000 0.0000
# 5 0.0000 0.0000 0.0000 0.0000-1357.0925 0.0000
# 6 0.0000 0.0000 0.0000 0.0000 0.0000 -22.4873
#
#
#
# Elastic Compliance Matrix: (Units=1/GPa)
#
#
# Indices 1 2 3 4 5 6 
#
# 1 0.008402 -0.000166 -0.001507 0.000000 0.000000 0.000000
# 2 -0.000166 0.007734 -0.003512 0.000000 0.000000 0.000000
# 3 -0.001507 -0.003512 0.005357 0.000000 0.000000 0.000000
# 4 0.000000 0.000000 0.000000 -0.085919 0.000000 0.000000
# 5 0.000000 0.000000 0.000000 0.000000 -0.000737 0.000000
# 6 0.000000 0.000000 0.000000 0.000000 0.000000 -0.044469
#
#
# Mechanical properties :
#
#
# Convention : Reuss Voigt Hill
#
# Bulk Modulus (GPa) = 89.90112 115.12584 102.51348
# Shear Modulus (GPa) = -52.32552 -251.98821 -152.15686
#
# Velocity S-wave (km/s) = -5.02838 -11.03472 -8.57466
# Velocity P-wave (km/s) = 3.11913 10.33067 6.96397
#
# Compressibility (1/GPa) = 0.01112333
#
# Stress axis : x y z
#
# Youngs Moduli (GPa) = 119.02304 129.30427 186.67009
#
# Poissons Ratio (x) = 0.02145 0.28126
# Poissons Ratio (y) = 0.01975 0.65557
# Poissons Ratio (z) = 0.17933 0.45411
#
# Static dielectric constant tensor:
#      x y z
#    x 1.759790 0.000000 0.000000 
#    y 0.000000 1.708310 0.000000 
#    z 0.000000 0.000000 1.669680 
# 
# From -- ./inp_files/713.got.cif
#   From: 2010.05.17/outbox.cif.g08.bks.cpg/sg47_1_cif.got.tgz:713.got - 2010.06.03 20:15:42.
