data_PCOD9387015
_publ_section_title
;
Structure prediction by ZEFSAII (Michael W. Deem and Ramdas Pophale) SiO2 
 PCOD9387015
Probable space group: P M M M
;
_chemical_formula_sum "Si O2"
_cell_formula_units_Z 40
_cell_length_a 13.229413
_cell_length_b 24.493200
_cell_length_c 7.605374
_cell_angle_alpha 90.000000
_cell_angle_beta 90.000000
_cell_angle_gamma 90.000000
_cell_volume 2464.374345
_symmetry_space_group_name_H-M "P M M M"
_symmetry_group_IT_number 47
_symmetry_cell_setting 'orthorhombic'
loop_
_space_group_symop_operation_xyz
x,y,z
-x,-y,z
x,-y,-z
-x,y,-z
-x,-y,-z
x,y,-z
-x,y,z
x,-y,z
loop_
_atom_site_type_symbol
_atom_site_label
_atom_site_fract_x
_atom_site_fract_y
_atom_site_fract_z
Si Si1 0.737402 0.560852 0.000000
Si Si2 0.619588 0.327957 0.000000
Si Si3 0.115105 0.178237 0.291517
Si Si4 0.234869 0.283746 0.708030
Si Si5 0.117619 0.604356 0.294407
Si Si6 0.882290 0.058751 0.788448
O O1 0.654830 0.608772 0.000000
O O2 0.809669 0.570366 0.831638
O O3 0.695431 0.500000 0.000000
O O4 0.671586 0.300678 0.170759
O O5 0.500000 0.322569 0.000000
O O6 0.106652 0.186958 0.500000
O O7 0.184503 0.227469 0.227643
O O8 0.159349 0.117494 0.265430
O O9 0.000000 0.179837 0.218412
O O10 0.260619 0.279825 0.500000
O O11 0.152810 0.332570 0.725167
O O12 0.129799 0.589908 0.500000
O O13 0.000000 0.598343 0.247597
O O14 0.000000 0.059421 0.730085
O O15 0.839053 0.000000 0.728813
O O16 0.881929 0.058113 0.000000
#
# Coordination Sequence:
#
# PCOD9387015 Si02
#       6
#     4   4   8   8   8   8
#     4  10  21  35  50  71  97 121 153 193 223 260
#     4  10  22  38  55  72  87 114 152 188 239 290
#     4   9  16  25  40  64  93 125 157 187 222 266
#     4   9  18  32  49  71  97 120 150 193 233 275
#     4   9  17  30  48  70 100 134 158 180 217 264
#     4   8  14  23  33  50  83 127 167 194 215 246
#
# _framework density 16.231299
#
# number of rings (size 3 to 8) (size 9 to 14) (size 15 to 20)
#    0.000    3.000    0.000    1.500    1.400    4.600 
#    0.000    4.000    0.000    0.000    0.000    5.600 
#    0.000    1.600    0.000    4.400    0.000    0.200 
#
# Total GULP energy -222755.810003 kJ/mol
# GULP energy per Si atom -5568.895250 kJ/mol
# Density = 1.619436 g / cm^3
# Si number density = 16.231299 Si / 1000 Ang^3
#
#
#
# Elastic Constant Matrix: (Units=GPa)
#
#
# Indices 1 2 3 4 5 6 
#
# 1 69.4373 37.7395 24.5041 0.0000 0.0000 0.0000
# 2 37.7395 134.5025 27.5406 0.0000 0.0000 0.0000
# 3 24.5041 27.5406 51.0303 0.0000 0.0000 0.0000
# 4 0.0000 0.0000 0.0000 16.5198 0.0000 0.0000
# 5 0.0000 0.0000 0.0000 0.0000 12.5303 0.0000
# 6 0.0000 0.0000 0.0000 0.0000 0.0000 6.8557
#
#
#
# Elastic Compliance Matrix: (Units=1/GPa)
#
#
# Indices 1 2 3 4 5 6 
#
# 1 0.018994 -0.003892 -0.007020 0.000000 0.000000 0.000000
# 2 -0.003892 0.009156 -0.003072 0.000000 0.000000 0.000000
# 3 -0.007020 -0.003072 0.024625 0.000000 0.000000 0.000000
# 4 0.000000 0.000000 0.000000 0.060533 0.000000 0.000000
# 5 0.000000 0.000000 0.000000 0.000000 0.079807 0.000000
# 6 0.000000 0.000000 0.000000 0.000000 0.000000 0.145864
#
#
# Mechanical properties :
#
#
# Convention : Reuss Voigt Hill
#
# Bulk Modulus (GPa) = 40.31278 48.28204 44.29741
# Shear Modulus (GPa) = 13.32558 18.19356 15.75957
#
# Velocity S-wave (km/s) = 2.86838 3.35161 3.11937
# Velocity P-wave (km/s) = 5.98837 6.69242 6.35016
#
# Compressibility (1/GPa) = 0.02480603
#
# Stress axis : x y z
#
# Youngs Moduli (GPa) = 52.64750 109.21824 40.60845
#
# Poissons Ratio (x) = 0.42508 0.28508
# Poissons Ratio (y) = 0.20491 0.12477
# Poissons Ratio (z) = 0.36960 0.33557
#
# Static dielectric constant tensor:
#      x y z
#    x 1.490450 0.000000 0.000000 
#    y 0.000000 1.588660 0.000000 
#    z 0.000000 0.000000 1.580580 
# 
# From -- ./inp_files/4104.got.cif
#   From: 2010.05.17/outbox.cif.g08.bks.cpg/sg47_3_cif.got.tgz:4104.got - 2010.06.03 20:15:42.
