data_PCOD9387518
_publ_section_title
;
Structure prediction by ZEFSAII (Michael W. Deem and Ramdas Pophale) SiO2 
 PCOD9387518
Probable space group: P M M M
;
_chemical_formula_sum "Si O2"
_cell_formula_units_Z 37
_cell_length_a 17.371533
_cell_length_b 7.190039
_cell_length_c 14.734897
_cell_angle_alpha 90.000000
_cell_angle_beta 90.000000
_cell_angle_gamma 90.000000
_cell_volume 1840.418102
_symmetry_space_group_name_H-M "P M M M"
_symmetry_group_IT_number 47
_symmetry_cell_setting 'orthorhombic'
loop_
_space_group_symop_operation_xyz
x,y,z
-x,-y,z
x,-y,-z
-x,y,-z
-x,-y,-z
x,y,-z
-x,y,z
x,-y,z
loop_
_atom_site_type_symbol
_atom_site_label
_atom_site_fract_x
_atom_site_fract_y
_atom_site_fract_z
Si Si1 0.834537 0.775212 0.242721
Si Si2 0.000000 0.225714 0.173097
Si Si3 0.000000 0.500000 0.000000
Si Si4 0.718922 0.773719 0.603627
Si Si5 0.587790 0.225983 0.742080
Si Si6 0.295623 0.225976 0.896436
O O1 0.922438 0.724013 0.227449
O O2 0.790994 0.715205 0.334074
O O3 0.781220 0.717019 0.157626
O O4 0.832114 0.000000 0.243618
O O5 0.000000 0.000000 0.158612
O O6 0.000000 0.337524 0.079708
O O7 0.721389 0.711734 0.500000
O O8 0.641920 0.718238 0.658045
O O9 0.719093 0.000000 0.602556
O O10 0.500000 0.288489 0.737035
O O11 0.632239 0.281625 0.833967
O O12 0.586807 0.000000 0.741953
O O13 0.295538 0.000000 0.898072
O O14 0.298168 0.288974 0.000000
#
# Coordination Sequence:
#
# PCOD9387518 Si02
#       6
#     8   4   1   8   8   8
#     4   8  15  27  43  62  86 122 163 203 251 297
#     4  10  21  37  54  74 107 140 168 208 251 295
#     4  12  26  36  52  86 106 132 176 212 248 294
#     4   8  13  22  36  56  83 115 159 211 252 297
#     4   8  13  19  26  42  73 114 158 202 250 299
#     4   8  13  20  31  48  71 106 156 204 242 293
#
# _framework density 20.104126999999998
#
# number of rings (size 3 to 8) (size 9 to 14) (size 15 to 20)
#    0.000    3.676    0.000    2.757    1.514    0.865 
#    0.000    4.865    0.000    3.243    0.000    1.514 
#    0.000    0.000    0.000   31.135    0.000   86.486 
#
# Total GULP energy -206121.760673 kJ/mol
# GULP energy per Si atom -5570.858397 kJ/mol
# Density = 2.005837 g / cm^3
# Si number density = 20.104127 Si / 1000 Ang^3
#
#
#
# Elastic Constant Matrix: (Units=GPa)
#
#
# Indices 1 2 3 4 5 6 
#
# 1 226.4909 14.5469 132.8481 0.0000 0.0000 0.0000
# 2 14.5469 109.3048 12.9199 0.0000 0.0000 0.0000
# 3 132.8481 12.9199 229.7648 0.0000 0.0000 0.0000
# 4 0.0000 0.0000 0.0000 -23.7483 0.0000 0.0000
# 5 0.0000 0.0000 0.0000 0.0000 0.7197 0.0000
# 6 0.0000 0.0000 0.0000 0.0000 0.0000 -27.5868
#
#
#
# Elastic Compliance Matrix: (Units=1/GPa)
#
#
# Indices 1 2 3 4 5 6 
#
# 1 0.006702 -0.000437 -0.003850 0.000000 0.000000 0.000000
# 2 -0.000437 0.009238 -0.000267 0.000000 0.000000 0.000000
# 3 -0.003850 -0.000267 0.006593 0.000000 0.000000 0.000000
# 4 0.000000 0.000000 0.000000 -0.042108 0.000000 0.000000
# 5 0.000000 0.000000 0.000000 0.000000 1.389486 0.000000
# 6 0.000000 0.000000 0.000000 0.000000 0.000000 -0.036249
#
#
# Mechanical properties :
#
#
# Convention : Reuss Voigt Hill
#
# Bulk Modulus (GPa) = 74.48495 98.46561 86.47528
# Shear Modulus (GPa) = 3.71128 16.89330 10.30229
#
# Velocity S-wave (km/s) = 1.36016 2.90192 2.26618
# Velocity P-wave (km/s) = 6.29259 7.76610 7.06785
#
# Compressibility (1/GPa) = 0.01342553
#
# Stress axis : x y z
#
# Youngs Moduli (GPa) = 149.21798 108.24375 151.66520
#
# Poissons Ratio (x) = 0.04728 0.58395
# Poissons Ratio (y) = 0.06518 0.04049
# Poissons Ratio (z) = 0.57453 0.02889
#
# Static dielectric constant tensor:
#      x y z
#    x 1.681540 0.000000 0.000000 
#    y 0.000000 1.742070 0.000000 
#    z 0.000000 0.000000 1.662580 
# 
# From -- ./inp_files/8891.got.cif
#   From: 2010.05.17/outbox.cif.g08.bks.cpg/sg47_5_cif.got.tgz:8891.got - 2010.06.03 20:15:42.
