data_PCOD9387172
_publ_section_title
;
Structure prediction by ZEFSAII (Michael W. Deem and Ramdas Pophale) SiO2 
 PCOD9387172
Probable space group: P M M M
;
_chemical_formula_sum "Si O2"
_cell_formula_units_Z 52
_cell_length_a 10.824793
_cell_length_b 7.782762
_cell_length_c 30.663070
_cell_angle_alpha 90.000000
_cell_angle_beta 90.000000
_cell_angle_gamma 90.000000
_cell_volume 2583.265146
_symmetry_space_group_name_H-M "P M M M"
_symmetry_group_IT_number 47
_symmetry_cell_setting 'orthorhombic'
loop_
_space_group_symop_operation_xyz
x,y,z
-x,-y,z
x,-y,-z
-x,y,-z
-x,-y,-z
x,y,-z
-x,y,z
x,-y,z
loop_
_atom_site_type_symbol
_atom_site_label
_atom_site_fract_x
_atom_site_fract_y
_atom_site_fract_z
Si Si1 0.226466 0.700035 0.549468
Si Si2 0.362536 0.206700 0.793231
Si Si3 0.500000 0.193265 0.447337
Si Si4 0.850394 0.702514 0.953152
Si Si5 0.141458 0.706505 0.857889
Si Si6 0.868030 0.798896 0.360789
Si Si7 0.363731 0.210215 0.307829
O O1 0.211892 0.768474 0.500000
O O2 0.194054 0.500000 0.548667
O O3 0.370635 0.718732 0.562727
O O4 0.150020 0.787512 0.587376
O O5 0.500000 0.266883 0.807977
O O6 0.245931 0.257005 0.822394
O O7 0.347581 0.260277 0.742739
O O8 0.366066 0.000000 0.793196
O O9 0.500000 0.182767 0.500000
O O10 0.500000 0.000000 0.428867
O O11 0.816566 0.500000 0.953646
O O12 0.816298 0.774371 0.905715
O O13 0.000000 0.709627 0.953116
O O14 0.808708 0.776706 0.000000
O O15 0.132932 0.500000 0.861817
O O16 0.000000 0.767178 0.848303
O O17 0.748804 0.724431 0.336820
O O18 0.000000 0.721070 0.348518
O O19 0.871307 0.000000 0.349050
O O20 0.500000 0.265775 0.322845
O O21 0.364266 0.000000 0.309354
#
# Coordination Sequence:
#
# PCOD9387172 Si02
#       7
#     8   8   4   8   8   8   8
#     4  10  21  36  53  75 106 140 170 200 240 293
#     4   9  18  33  52  73  98 130 167 204 246 301
#     4   9  17  31  53  79 103 129 165 207 245 277
#     4   7  10  19  37  61  90 124 161 202 247 292
#     4   9  17  28  45  73 103 128 161 207 255 300
#     4  10  21  35  53  79 105 129 164 210 254 294
#     4   8  16  33  55  75  95 124 165 210 251 292
#
# _framework density 20.129563000000001
#
# number of rings (size 3 to 8) (size 9 to 14) (size 15 to 20)
#    0.000    3.154    0.000    3.000    1.077    3.692 
#    0.000    3.846    0.000    1.846    0.000    5.385 
#    0.000    0.000    0.000    0.000    0.000    0.000 
#
# Total GULP energy -289638.849182 kJ/mol
# GULP energy per Si atom -5569.977869 kJ/mol
# Density = 2.008375 g / cm^3
# Si number density = 20.129563 Si / 1000 Ang^3
#
#
#
# Elastic Constant Matrix: (Units=GPa)
#
#
# Indices 1 2 3 4 5 6 
#
# 1 154.5058 5.3818 92.2955 0.0000 0.0000 0.0000
# 2 5.3818 27.3520 1.6704 0.0000 0.0000 0.0000
# 3 92.2955 1.6704 104.1962 0.0000 0.0000 0.0000
# 4 0.0000 0.0000 0.0000 13.6739 0.0000 0.0000
# 5 0.0000 0.0000 0.0000 0.0000 13.9952 0.0000
# 6 0.0000 0.0000 0.0000 0.0000 0.0000 15.9161
#
#
#
# Elastic Compliance Matrix: (Units=1/GPa)
#
#
# Indices 1 2 3 4 5 6 
#
# 1 0.013851 -0.001978 -0.012238 0.000000 0.000000 0.000000
# 2 -0.001978 0.036879 0.001161 0.000000 0.000000 0.000000
# 3 -0.012238 0.001161 0.020419 0.000000 0.000000 0.000000
# 4 0.000000 0.000000 0.000000 0.073132 0.000000 0.000000
# 5 0.000000 0.000000 0.000000 0.000000 0.071453 0.000000
# 6 0.000000 0.000000 0.000000 0.000000 0.000000 0.062829
#
#
# Mechanical properties :
#
#
# Convention : Reuss Voigt Hill
#
# Bulk Modulus (GPa) = 22.20291 53.86105 38.03198
# Shear Modulus (GPa) = 15.64033 21.16413 18.40223
#
# Velocity S-wave (km/s) = 2.79047 3.24604 3.02684
# Velocity P-wave (km/s) = 4.62993 6.39252 5.58124
#
# Compressibility (1/GPa) = 0.04503913
#
# Stress axis : x y z
#
# Youngs Moduli (GPa) = 72.19452 27.11593 48.97479
#
# Poissons Ratio (x) = 0.05364 0.59934
# Poissons Ratio (y) = 0.14281 -0.05686
# Poissons Ratio (z) = 0.88350 -0.03148
#
# Static dielectric constant tensor:
#      x y z
#    x 1.724200 0.000000 0.000000 
#    y 0.000000 1.749230 0.000000 
#    z 0.000000 0.000000 1.746420 
# 
# From -- ./inp_files/33584.got.cif
#   From: 2010.05.17/outbox.cif.g08.bks.cpg/sg47_17_cif.got.tgz:33584.got - 2010.06.03 20:15:42.
