data_PCOD9387796
_publ_section_title
;
Structure prediction by ZEFSAII (Michael W. Deem and Ramdas Pophale) SiO2 
 PCOD9387796
Probable space group: P M M M
;
_chemical_formula_sum "Si O2"
_cell_formula_units_Z 64
_cell_length_a 9.443975
_cell_length_b 20.069137
_cell_length_c 20.349789
_cell_angle_alpha 90.000000
_cell_angle_beta 90.000000
_cell_angle_gamma 90.000000
_cell_volume 3856.944920
_symmetry_space_group_name_H-M "P M M M"
_symmetry_group_IT_number 47
_symmetry_cell_setting 'orthorhombic'
loop_
_space_group_symop_operation_xyz
x,y,z
-x,-y,z
x,-y,-z
-x,y,-z
-x,-y,-z
x,y,-z
-x,y,z
x,-y,z
loop_
_atom_site_type_symbol
_atom_site_label
_atom_site_fract_x
_atom_site_fract_y
_atom_site_fract_z
Si Si1 0.334677 0.926244 0.398493
Si Si2 0.666295 0.420224 0.692778
Si Si3 0.833124 0.798155 0.763646
Si Si4 0.334655 0.927042 0.761212
Si Si5 0.334307 0.421558 0.921966
Si Si6 0.167127 0.796339 0.606671
Si Si7 0.170009 0.651719 0.189035
Si Si8 0.832232 0.354040 0.574521
O O1 0.500000 0.920625 0.416184
O O2 0.326404 0.926424 0.318613
O O3 0.250101 0.860741 0.419199
O O4 0.284108 0.000000 0.419980
O O5 0.500000 0.401987 0.696408
O O6 0.676567 0.500000 0.695428
O O7 0.752894 0.388401 0.752785
O O8 0.737359 0.392916 0.626349
O O9 0.748989 0.863203 0.785945
O O10 0.807515 0.789372 0.685276
O O11 0.796302 0.729638 0.799724
O O12 0.000000 0.809853 0.771426
O O13 0.500000 0.921962 0.777966
O O14 0.281459 0.000000 0.782593
O O15 0.500000 0.408366 0.906254
O O16 0.308789 0.500000 0.907972
O O17 0.232430 0.376704 0.878405
O O18 0.315509 0.411750 0.000000
O O19 0.204200 0.724639 0.577133
O O20 0.000000 0.807264 0.596500
O O21 0.000000 0.643901 0.193126
O O22 0.814594 0.378237 0.500000
O O23 0.000000 0.359145 0.592089
#
# Coordination Sequence:
#
# PCOD9387796 Si02
#       8
#     8   8   8   8   8   8   8   8
#     4   8  14  24  39  62  90 119 153 193 237 286
#     4  11  24  39  55  76 101 129 163 205 254 307
#     4   9  17  28  43  66  97 128 160 202 247 291
#     4   8  14  24  38  60  91 125 161 199 239 287
#     4   9  19  36  55  76 106 142 177 212 251 297
#     4   9  16  29  46  66  92 120 156 199 244 296
#     4  11  21  34  53  79 109 137 171 212 250 295
#     4  10  21  38  57  74  95 125 162 207 259 311
#
# _framework density 16.593444000000002
#
# number of rings (size 3 to 8) (size 9 to 14) (size 15 to 20)
#    0.000    2.625    1.250    2.250    0.000    5.500 
#    0.000    4.375    0.000    0.375    0.000    2.625 
#    0.000    0.500    0.000    5.500    0.000    4.250 
#
# Total GULP energy -356873.545036 kJ/mol
# GULP energy per Si atom -5576.149141 kJ/mol
# Density = 1.655568 g / cm^3
# Si number density = 16.593444 Si / 1000 Ang^3
#
#
#
# Elastic Constant Matrix: (Units=GPa)
#
#
# Indices 1 2 3 4 5 6 
#
# 1 68.9383 71.3591 41.8126 0.0000 0.0000 0.0000
# 2 71.3591 118.7665 47.5792 0.0000 0.0000 0.0000
# 3 41.8126 47.5792 47.1719 0.0000 0.0000 0.0000
# 4 0.0000 0.0000 0.0000 33.0893 0.0000 0.0000
# 5 0.0000 0.0000 0.0000 0.0000 11.4425 0.0000
# 6 0.0000 0.0000 0.0000 0.0000 0.0000 36.2751
#
#
#
# Elastic Compliance Matrix: (Units=1/GPa)
#
#
# Indices 1 2 3 4 5 6 
#
# 1 0.050400 -0.020783 -0.023711 0.000000 0.000000 0.000000
# 2 -0.020783 0.022699 -0.004473 0.000000 0.000000 0.000000
# 3 -0.023711 -0.004473 0.046728 0.000000 0.000000 0.000000
# 4 0.000000 0.000000 0.000000 0.030221 0.000000 0.000000
# 5 0.000000 0.000000 0.000000 0.000000 0.087394 0.000000
# 6 0.000000 0.000000 0.000000 0.000000 0.000000 0.027567
#
#
# Mechanical properties :
#
#
# Convention : Reuss Voigt Hill
#
# Bulk Modulus (GPa) = 45.67864 61.81981 53.74922
# Shear Modulus (GPa) = 13.50466 21.10311 17.30388
#
# Velocity S-wave (km/s) = 2.85591 3.57006 3.23277
# Velocity P-wave (km/s) = 6.20184 7.37090 6.81150
#
# Compressibility (1/GPa) = 0.02189207
#
# Stress axis : x y z
#
# Youngs Moduli (GPa) = 19.84124 44.05461 21.40025
#
# Poissons Ratio (x) = 0.91559 0.50743
# Poissons Ratio (y) = 0.41236 0.09573
# Poissons Ratio (z) = 0.47047 0.19707
#
# Static dielectric constant tensor:
#      x y z
#    x 1.550830 0.000000 0.000000 
#    y 0.000000 1.562210 0.000000 
#    z 0.000000 0.000000 1.560190 
# 
# From -- ./inp_files/26999.got.cif
#   From: 2010.05.17/outbox.cif.g08.bks.cpg/sg47_14_cif.got.tgz:26999.got - 2010.06.03 20:15:42.
