data_PCOD9387265
_publ_section_title
;
Structure prediction by ZEFSAII (Michael W. Deem and Ramdas Pophale) SiO2 
 PCOD9387265
Probable space group: P M M M
;
_chemical_formula_sum "Si O2"
_cell_formula_units_Z 40
_cell_length_a 7.457612
_cell_length_b 18.284236
_cell_length_c 13.053589
_cell_angle_alpha 90.000000
_cell_angle_beta 90.000000
_cell_angle_gamma 90.000000
_cell_volume 1779.944813
_symmetry_space_group_name_H-M "P M M M"
_symmetry_group_IT_number 47
_symmetry_cell_setting 'orthorhombic'
loop_
_space_group_symop_operation_xyz
x,y,z
-x,-y,z
x,-y,-z
-x,y,-z
-x,-y,-z
x,y,-z
-x,y,z
x,-y,z
loop_
_atom_site_type_symbol
_atom_site_label
_atom_site_fract_x
_atom_site_fract_y
_atom_site_fract_z
Si Si1 0.709029 0.371536 0.112453
Si Si2 0.719247 0.580291 0.329325
Si Si3 0.280970 0.306985 0.500000
Si Si4 0.216847 0.798844 0.115845
Si Si5 0.285735 0.859890 0.500000
Si Si6 0.788061 0.918924 0.724147
O O1 0.500000 0.392701 0.107794
O O2 0.784128 0.408990 0.213392
O O3 0.717680 0.284065 0.129625
O O4 0.787821 0.386817 0.000000
O O5 0.500000 0.582539 0.328495
O O6 0.770078 0.500000 0.368120
O O7 0.776716 0.646543 0.401391
O O8 0.500000 0.305368 0.500000
O O9 0.218480 0.223737 0.500000
O O10 0.283098 0.854781 0.202292
O O11 0.000000 0.795273 0.120525
O O12 0.265830 0.822251 0.000000
O O13 0.500000 0.857919 0.500000
O O14 0.231089 0.898989 0.395138
O O15 0.000000 0.922166 0.746028
O O16 0.713223 0.000000 0.743364
#
# Coordination Sequence:
#
# PCOD9387265 Si02
#       6
#     8   8   4   8   4   8
#     4   9  17  29  46  69  97 127 158 195 238 282
#     4   9  16  26  42  65  93 123 155 193 237 283
#     4   9  17  28  43  65  92 121 154 194 238 281
#     4   9  18  33  53  75  98 128 166 203 241 290
#     4  11  22  35  53  75 100 131 166 202 242 293
#     4  10  21  36  53  74 101 130 161 202 249 292
#
# _framework density 22.472607
#
# number of rings (size 3 to 8) (size 9 to 14) (size 15 to 20)
#    0.000    2.600    0.000    2.100    0.000    6.000 
#    0.000    4.000    0.000    0.600    0.000    7.000 
#    0.000    8.000    0.000    0.000    0.000    0.000 
#
# Total GULP energy -223436.014430 kJ/mol
# GULP energy per Si atom -5585.900361 kJ/mol
# Density = 2.242146 g / cm^3
# Si number density = 22.472607 Si / 1000 Ang^3
#
#
#
# Elastic Constant Matrix: (Units=GPa)
#
#
# Indices 1 2 3 4 5 6 
#
# 1 68.9681 -6.5981 -6.6659 0.0000 0.0000 0.0000
# 2 -6.5981 51.1099 8.2094 0.0000 0.0000 0.0000
# 3 -6.6659 8.2094 88.7910 0.0000 0.0000 0.0000
# 4 0.0000 0.0000 0.0000 12.6355 0.0000 0.0000
# 5 0.0000 0.0000 0.0000 0.0000 -5.3919 0.0000
# 6 0.0000 0.0000 0.0000 0.0000 0.0000 12.9525
#
#
#
# Elastic Compliance Matrix: (Units=1/GPa)
#
#
# Indices 1 2 3 4 5 6 
#
# 1 0.014759 0.001753 0.000946 0.000000 0.000000 0.000000
# 2 0.001753 0.020069 -0.001724 0.000000 0.000000 0.000000
# 3 0.000946 -0.001724 0.011493 0.000000 0.000000 0.000000
# 4 0.000000 0.000000 0.000000 0.079142 0.000000 0.000000
# 5 0.000000 0.000000 0.000000 0.000000 -0.185464 0.000000
# 6 0.000000 0.000000 0.000000 0.000000 0.000000 0.077205
#
#
# Mechanical properties :
#
#
# Convention : Reuss Voigt Hill
#
# Bulk Modulus (GPa) = 20.71636 22.08442 21.40039
# Shear Modulus (GPa) = 159.52325 18.30080 88.91202
#
# Velocity S-wave (km/s) = 8.43444 2.85680 6.29687
# Velocity P-wave (km/s) = 10.20252 4.55305 7.90006
#
# Compressibility (1/GPa) = 0.04827103
#
# Stress axis : x y z
#
# Youngs Moduli (GPa) = 67.75700 49.82831 87.01103
#
# Poissons Ratio (x) = -0.08737 -0.08230
# Poissons Ratio (y) = -0.11880 0.15000
# Poissons Ratio (z) = -0.06409 0.08590
#
# Static dielectric constant tensor:
#      x y z
#    x 1.871990 0.000000 0.000000 
#    y 0.000000 1.791920 0.000000 
#    z 0.000000 0.000000 1.824600 
# 
# From -- ./inp_files/15105.got.cif
#   From: 2010.05.17/outbox.cif.g08.bks.cpg/sg47_8_cif.got.tgz:15105.got - 2010.06.03 20:15:42.
