data_PCOD9387470
_publ_section_title
;
Structure prediction by ZEFSAII (Michael W. Deem and Ramdas Pophale) SiO2 
 PCOD9387470
Probable space group: P M M M
;
_chemical_formula_sum "Si O2"
_cell_formula_units_Z 48
_cell_length_a 29.790143
_cell_length_b 8.278286
_cell_length_c 9.886144
_cell_angle_alpha 90.000000
_cell_angle_beta 90.000000
_cell_angle_gamma 90.000000
_cell_volume 2438.035058
_symmetry_space_group_name_H-M "P M M M"
_symmetry_group_IT_number 47
_symmetry_cell_setting 'orthorhombic'
loop_
_space_group_symop_operation_xyz
x,y,z
-x,-y,z
x,-y,-z
-x,y,-z
-x,-y,-z
x,y,-z
-x,y,z
x,-y,z
loop_
_atom_site_type_symbol
_atom_site_label
_atom_site_fract_x
_atom_site_fract_y
_atom_site_fract_z
Si Si1 0.367826 0.697713 0.843381
Si Si2 0.448573 0.303118 0.346189
Si Si3 0.948419 0.192537 0.500000
Si Si4 0.053345 0.810780 0.000000
Si Si5 0.795427 0.191510 0.844142
Si Si6 0.891861 0.312007 0.247221
Si Si7 0.715136 0.694096 0.656033
O O1 0.367351 0.500000 0.845493
O O2 0.413445 0.749131 0.767446
O O3 0.326646 0.751234 0.748051
O O4 0.364397 0.750375 0.000000
O O5 0.435687 0.254869 0.500000
O O6 0.500000 0.252048 0.321830
O O7 0.448362 0.500000 0.345527
O O8 0.918831 0.246653 0.374229
O O9 0.000000 0.256157 0.500000
O O10 0.951725 0.000000 0.500000
O O11 0.074137 0.721372 0.873629
O O12 0.000000 0.805935 0.000000
O O13 0.067226 0.000000 0.000000
O O14 0.845279 0.226268 0.789811
O O15 0.759706 0.264880 0.740198
O O16 0.788282 0.000000 0.847947
O O17 0.791092 0.253130 0.000000
O O18 0.881991 0.500000 0.264372
O O19 0.715226 0.754329 0.500000
O O20 0.711437 0.500000 0.648145
#
# Coordination Sequence:
#
# PCOD9387470 Si02
#       7
#     8   8   4   4   8   8   8
#     4   9  16  26  42  66  98 138 182 232 288 344
#     4   8  13  21  34  55  89 135 184 231 282 343
#     4  11  25  45  67  91 125 167 203 241 294 351
#     4  11  23  41  65  93 127 165 203 241 290 351
#     4  11  24  42  63  85 114 150 189 234 291 355
#     4  12  25  41  65  94 124 158 200 249 295 346
#     4  10  21  36  56  81 110 144 186 235 288 348
#
# _framework density 19.687985999999999
#
# number of rings (size 3 to 8) (size 9 to 14) (size 15 to 20)
#    0.000    1.833    0.833    4.500    1.167    7.667 
#    0.000    1.667    0.000    0.000    0.000    0.000 
#    0.000    0.667    0.000    7.000    0.000    9.667 
#
# Total GULP energy -267964.868821 kJ/mol
# GULP energy per Si atom -5582.601434 kJ/mol
# Density = 1.964318 g / cm^3
# Si number density = 19.687986 Si / 1000 Ang^3
#
#
#
# Elastic Constant Matrix: (Units=GPa)
#
#
# Indices 1 2 3 4 5 6 
#
# 1 124.5990 -2.2660 99.0921 0.0000 0.0000 0.0000
# 2 -2.2660 13.3227 8.6737 0.0000 0.0000 0.0000
# 3 99.0921 8.6737 218.4596 0.0000 0.0000 0.0000
# 4 0.0000 0.0000 0.0000 -28.7902 0.0000 0.0000
# 5 0.0000 0.0000 0.0000 0.0000 48.4289 0.0000
# 6 0.0000 0.0000 0.0000 0.0000 0.0000 386.2662
#
#
#
# Elastic Compliance Matrix: (Units=1/GPa)
#
#
# Indices 1 2 3 4 5 6 
#
# 1 0.013040 0.006230 -0.006162 0.000000 0.000000 0.000000
# 2 0.006230 0.080028 -0.006003 0.000000 0.000000 0.000000
# 3 -0.006162 -0.006003 0.007611 0.000000 0.000000 0.000000
# 4 0.000000 0.000000 0.000000 -0.034734 0.000000 0.000000
# 5 0.000000 0.000000 0.000000 0.000000 0.020649 0.000000
# 6 0.000000 0.000000 0.000000 0.000000 0.000000 0.002589
#
#
# Mechanical properties :
#
#
# Convention : Reuss Voigt Hill
#
# Bulk Modulus (GPa) = 11.26036 63.04231 37.15134
# Shear Modulus (GPa) = 38.26864 97.90642 68.08753
#
# Velocity S-wave (km/s) = 4.41359 7.05953 5.88714
# Velocity P-wave (km/s) = 5.63070 9.92671 8.06983
#
# Compressibility (1/GPa) = 0.08880709
#
# Stress axis : x y z
#
# Youngs Moduli (GPa) = 76.68913 12.49569 131.38998
#
# Poissons Ratio (x) = -0.07784 0.80963
# Poissons Ratio (y) = -0.47775 0.78876
# Poissons Ratio (z) = 0.47256 0.07501
#
# Static dielectric constant tensor:
#      x y z
#    x 1.675150 0.000000 0.000000 
#    y 0.000000 1.695540 0.000000 
#    z 0.000000 0.000000 1.661770 
# 
# From -- ./inp_files/13929.got.cif
#   From: 2010.05.17/outbox.cif.g08.bks.cpg/sg47_7_cif.got.tgz:13929.got - 2010.06.03 20:15:42.
