data_PCOD9387997
_publ_section_title
;
Structure prediction by ZEFSAII (Michael W. Deem and Ramdas Pophale) SiO2 
 PCOD9387997
Probable space group: P M M M
;
_chemical_formula_sum "Si O2"
_cell_formula_units_Z 64
_cell_length_a 11.026846
_cell_length_b 23.614168
_cell_length_c 14.276687
_cell_angle_alpha 90.000000
_cell_angle_beta 90.000000
_cell_angle_gamma 90.000000
_cell_volume 3717.503586
_symmetry_space_group_name_H-M "P M M M"
_symmetry_group_IT_number 47
_symmetry_cell_setting 'orthorhombic'
loop_
_space_group_symop_operation_xyz
x,y,z
-x,-y,z
x,-y,-z
-x,y,-z
-x,-y,-z
x,y,-z
-x,y,z
x,-y,z
loop_
_atom_site_type_symbol
_atom_site_label
_atom_site_fract_x
_atom_site_fract_y
_atom_site_fract_z
Si Si1 0.145437 0.935992 0.607034
Si Si2 0.852556 0.369150 0.105536
Si Si3 0.854177 0.238783 0.108121
Si Si4 0.644955 0.936364 0.104545
Si Si5 0.263236 0.847860 0.746001
Si Si6 0.146640 0.563046 0.283990
Si Si7 0.861870 0.677085 0.611783
Si Si8 0.363863 0.241854 0.611357
O O1 0.186803 0.924706 0.500000
O O2 0.183635 0.886869 0.677259
O O3 0.000000 0.937595 0.605340
O O4 0.187353 0.000000 0.632952
O O5 0.817866 0.304190 0.127616
O O6 0.810944 0.413183 0.183568
O O7 0.000000 0.369986 0.105942
O O8 0.813297 0.382657 0.000000
O O9 0.805215 0.196518 0.186389
O O10 0.000000 0.236802 0.109247
O O11 0.816233 0.225724 0.000000
O O12 0.500000 0.939295 0.099707
O O13 0.676713 0.891592 0.182679
O O14 0.690292 0.000000 0.125626
O O15 0.689672 0.920728 0.000000
O O16 0.350377 0.812474 0.677676
O O17 0.192334 0.500000 0.305452
O O18 0.170393 0.613651 0.356147
O O19 0.000000 0.559368 0.280053
O O20 0.869965 0.679081 0.500000
O O21 0.751039 0.718398 0.637273
O O22 0.000000 0.690772 0.648652
O O23 0.352066 0.228553 0.500000
O O24 0.500000 0.266453 0.624055
#
# Coordination Sequence:
#
# PCOD9387997 Si02
#       8
#     8   8   8   8   8   8   8   8
#     4   9  19  34  48  66  96 130 163 202 248 297
#     4   8  14  25  38  54  86 130 162 184 225 286
#     4   9  18  30  44  68 102 133 160 197 245 292
#     4   9  19  35  51  67  89 116 148 190 239 290
#     4  12  19  29  51  75  92 120 164 205 242 292
#     4   9  16  25  41  69  99 123 155 203 248 280
#     4   9  18  33  52  72  96 130 168 200 237 293
#     4  10  22  37  51  72 104 136 165 205 256 302
#
# _framework density 17.215854
#
# number of rings (size 3 to 8) (size 9 to 14) (size 15 to 20)
#    0.000    2.625    0.000    4.125    0.000    2.500 
#    0.000    3.750    0.000    0.375    0.000   12.250 
#    0.000    0.000    0.000    4.500    0.000    2.375 
#
# Total GULP energy -356277.671853 kJ/mol
# GULP energy per Si atom -5566.838623 kJ/mol
# Density = 1.717667 g / cm^3
# Si number density = 17.215854 Si / 1000 Ang^3
#
#
#
# Elastic Constant Matrix: (Units=GPa)
#
#
# Indices 1 2 3 4 5 6 
#
# 1 51.0625 37.6981 30.1654 0.0000 0.0000 0.0000
# 2 37.6981 95.4857 46.8736 0.0000 0.0000 0.0000
# 3 30.1654 46.8736 70.3566 0.0000 0.0000 0.0000
# 4 0.0000 0.0000 0.0000 24.5271 0.0000 0.0000
# 5 0.0000 0.0000 0.0000 0.0000 11.6253 0.0000
# 6 0.0000 0.0000 0.0000 0.0000 0.0000 10.7196
#
#
#
# Elastic Compliance Matrix: (Units=1/GPa)
#
#
# Indices 1 2 3 4 5 6 
#
# 1 0.030023 -0.008224 -0.007393 0.000000 0.000000 0.000000
# 2 -0.008224 0.017815 -0.008343 0.000000 0.000000 0.000000
# 3 -0.007393 -0.008343 0.022942 0.000000 0.000000 0.000000
# 4 0.000000 0.000000 0.000000 0.040771 0.000000 0.000000
# 5 0.000000 0.000000 0.000000 0.000000 0.086020 0.000000
# 6 0.000000 0.000000 0.000000 0.000000 0.000000 0.093287
#
#
# Mechanical properties :
#
#
# Convention : Reuss Voigt Hill
#
# Bulk Modulus (GPa) = 43.74598 49.59767 46.67182
# Shear Modulus (GPa) = 14.43427 16.18557 15.30992
#
# Velocity S-wave (km/s) = 2.89871 3.06952 2.98533
# Velocity P-wave (km/s) = 6.05547 6.43696 6.24913
#
# Compressibility (1/GPa) = 0.02285924
#
# Stress axis : x y z
#
# Youngs Moduli (GPa) = 33.30784 56.13228 43.58893
#
# Poissons Ratio (x) = 0.46162 0.32227
# Poissons Ratio (y) = 0.27392 0.36366
# Poissons Ratio (z) = 0.24626 0.46831
#
# Static dielectric constant tensor:
#      x y z
#    x 1.569850 0.000000 0.000000 
#    y 0.000000 1.596380 0.000000 
#    z 0.000000 0.000000 1.612880 
# 
# From -- ./inp_files/21954.got.cif
#   From: 2010.05.17/outbox.cif.g08.bks.cpg/sg47_11_cif.got.tgz:21954.got - 2010.06.03 20:15:42.
