data_PCOD9387874
_publ_section_title
;
Structure prediction by ZEFSAII (Michael W. Deem and Ramdas Pophale) SiO2 
 PCOD9387874
Probable space group: P M M M
;
_chemical_formula_sum "Si O2"
_cell_formula_units_Z 48
_cell_length_a 7.326276
_cell_length_b 9.194759
_cell_length_c 35.945224
_cell_angle_alpha 90.000000
_cell_angle_beta 90.000000
_cell_angle_gamma 90.000000
_cell_volume 2421.390424
_symmetry_space_group_name_H-M "P M M M"
_symmetry_group_IT_number 47
_symmetry_cell_setting 'orthorhombic'
loop_
_space_group_symop_operation_xyz
x,y,z
-x,-y,z
x,-y,-z
-x,y,-z
-x,-y,-z
x,y,-z
-x,y,z
x,-y,z
loop_
_atom_site_type_symbol
_atom_site_label
_atom_site_fract_x
_atom_site_fract_y
_atom_site_fract_z
Si Si1 0.277575 0.167293 0.179097
Si Si2 0.722067 0.167209 0.327982
Si Si3 0.715791 0.327147 0.896256
Si Si4 0.000000 0.827001 0.544116
Si Si5 0.722839 0.667544 0.253542
Si Si6 0.000000 0.323280 0.042188
Si Si7 0.718419 0.671616 0.403923
O O1 0.500000 0.169370 0.179341
O O2 0.222706 0.242815 0.140613
O O3 0.218575 0.255423 0.215486
O O4 0.220271 0.000000 0.180902
O O5 0.500000 0.166313 0.327274
O O6 0.781536 0.244623 0.290036
O O7 0.773792 0.257040 0.364572
O O8 0.781833 0.000000 0.330030
O O9 0.500000 0.304050 0.901283
O O10 0.745113 0.500000 0.890373
O O11 0.826102 0.281875 0.932833
O O12 0.826083 0.753372 0.563707
O O13 0.000000 0.802299 0.500000
O O14 0.000000 0.000000 0.550955
O O15 0.500000 0.668535 0.253563
O O16 0.779668 0.500000 0.255048
O O17 0.000000 0.500000 0.040132
O O18 0.000000 0.268241 0.000000
O O19 0.500000 0.688897 0.407970
O O20 0.759305 0.500000 0.403962
#
# Coordination Sequence:
#
# PCOD9387874 Si02
#       7
#     8   8   8   4   8   4   8
#     4   9  16  26  42  66  97 133 172 212 255 303
#     4   9  16  27  46  74 109 148 188 228 272 323
#     4   9  17  30  49  72  98 129 164 202 247 299
#     4  11  25  43  63  88 117 150 189 235 289 348
#     4   9  15  23  39  67 103 140 180 223 263 308
#     4   9  18  32  51  76 101 124 157 203 251 300
#     4  10  21  38  61  88 118 153 193 237 286 340
#
# _framework density 19.823321
#
# number of rings (size 3 to 8) (size 9 to 14) (size 15 to 20)
#    0.000    2.667    0.000    2.250    0.000    8.333 
#    0.000    3.750    0.000    2.000    0.000    8.167 
#    0.000    0.000    0.000    0.000    0.000    0.000 
#
# Total GULP energy -268151.597771 kJ/mol
# GULP energy per Si atom -5586.491620 kJ/mol
# Density = 1.977820 g / cm^3
# Si number density = 19.823321 Si / 1000 Ang^3
#
#
#
# Elastic Constant Matrix: (Units=GPa)
#
#
# Indices 1 2 3 4 5 6 
#
# 1 83.7249 44.1571 52.3663 0.0000 0.0000 0.0000
# 2 44.1571 155.3544 121.1459 0.0000 0.0000 0.0000
# 3 52.3663 121.1459 216.1255 0.0000 0.0000 0.0000
# 4 0.0000 0.0000 0.0000 291.5251 0.0000 0.0000
# 5 0.0000 0.0000 0.0000 0.0000 48.3577 0.0000
# 6 0.0000 0.0000 0.0000 0.0000 0.0000 4.7248
#
#
#
# Elastic Compliance Matrix: (Units=1/GPa)
#
#
# Indices 1 2 3 4 5 6 
#
# 1 0.014592 -0.002470 -0.002151 0.000000 0.000000 0.000000
# 2 -0.002470 0.011854 -0.006046 0.000000 0.000000 0.000000
# 3 -0.002151 -0.006046 0.008537 0.000000 0.000000 0.000000
# 4 0.000000 0.000000 0.000000 0.003430 0.000000 0.000000
# 5 0.000000 0.000000 0.000000 0.000000 0.020679 0.000000
# 6 0.000000 0.000000 0.000000 0.000000 0.000000 0.211649
#
#
# Mechanical properties :
#
#
# Convention : Reuss Voigt Hill
#
# Bulk Modulus (GPa) = 73.26761 98.94928 86.10844
# Shear Modulus (GPa) = 16.85632 84.75720 50.80676
#
# Velocity S-wave (km/s) = 2.91920 6.54592 5.06808
# Velocity P-wave (km/s) = 6.95722 10.35162 8.81927
#
# Compressibility (1/GPa) = 0.01364860
#
# Stress axis : x y z
#
# Youngs Moduli (GPa) = 68.53061 84.36277 117.13735
#
# Poissons Ratio (x) = 0.20840 0.25195
# Poissons Ratio (y) = 0.16929 0.70819
# Poissons Ratio (z) = 0.14740 0.51004
#
# Static dielectric constant tensor:
#      x y z
#    x 1.761360 0.000000 0.000000 
#    y 0.000000 1.658400 0.000000 
#    z 0.000000 0.000000 1.645840 
# 
# From -- ./inp_files/34114.got.cif
#   From: 2010.05.17/outbox.cif.g08.bks.cpg/sg47_18_cif.got.tgz:34114.got - 2010.06.03 20:15:42.
