data_PCOD9387240
_publ_section_title
;
Structure prediction by ZEFSAII (Michael W. Deem and Ramdas Pophale) SiO2 
 PCOD9387240
Probable space group: P M M M
;
_chemical_formula_sum "Si O2"
_cell_formula_units_Z 52
_cell_length_a 21.524995
_cell_length_b 15.435202
_cell_length_c 7.529742
_cell_angle_alpha 90.000000
_cell_angle_beta 90.000000
_cell_angle_gamma 90.000000
_cell_volume 2501.701405
_symmetry_space_group_name_H-M "P M M M"
_symmetry_group_IT_number 47
_symmetry_cell_setting 'orthorhombic'
loop_
_space_group_symop_operation_xyz
x,y,z
-x,-y,z
x,-y,-z
-x,y,-z
-x,-y,-z
x,y,-z
-x,y,z
x,-y,z
loop_
_atom_site_type_symbol
_atom_site_label
_atom_site_fract_x
_atom_site_fract_y
_atom_site_fract_z
Si Si1 0.088784 0.905365 0.293803
Si Si2 0.574398 0.500000 0.301459
Si Si3 0.702505 0.731018 0.781404
Si Si4 0.808637 0.598999 0.788413
Si Si5 0.232871 0.906942 0.214658
Si Si6 0.067866 0.288665 0.285813
Si Si7 0.569831 0.690659 0.203445
O O1 0.069514 0.905933 0.500000
O O2 0.163179 0.904414 0.285235
O O3 0.070761 0.811265 0.218647
O O4 0.070033 0.000000 0.217429
O O5 0.500000 0.500000 0.317449
O O6 0.601314 0.500000 0.500000
O O7 0.587593 0.588854 0.204327
O O8 0.748933 0.654035 0.722661
O O9 0.732107 0.821779 0.727487
O O10 0.631671 0.730180 0.714889
O O11 0.700487 0.727311 0.000000
O O12 0.812518 0.500000 0.719188
O O13 0.872107 0.654130 0.762095
O O14 0.800626 0.592869 0.000000
O O15 0.261044 0.000000 0.264429
O O16 0.228876 0.904055 0.000000
O O17 0.068989 0.283943 0.500000
O O18 0.000000 0.324848 0.232380
O O19 0.500000 0.700293 0.281492
O O20 0.565355 0.720262 0.000000
#
# Coordination Sequence:
#
# PCOD9387240 Si02
#       7
#     8   4   8   8   8   8   8
#     4   9  17  30  49  73 100 126 154 193 240 292
#     4   9  17  29  43  63  95 127 156 195 240 283
#     4   9  17  30  50  73  97 124 158 202 243 281
#     4  10  21  36  53  72  95 127 167 207 244 284
#     4   9  16  28  49  73  95 123 158 196 243 293
#     4  10  21  36  53  73  99 130 161 198 245 293
#     4   9  17  29  47  69  94 129 168 199 234 287
#
# _framework density 20.785852999999999
#
# number of rings (size 3 to 8) (size 9 to 14) (size 15 to 20)
#    0.000    2.692    1.538    0.231    1.077    2.154 
#    0.000    4.615    0.000    0.462    0.000    6.462 
#    0.000    0.000    0.000    7.692    0.000    8.000 
#
# Total GULP energy -289693.062094 kJ/mol
# GULP energy per Si atom -5571.020425 kJ/mol
# Density = 2.073854 g / cm^3
# Si number density = 20.785853 Si / 1000 Ang^3
#
#
#
# Elastic Constant Matrix: (Units=GPa)
#
#
# Indices 1 2 3 4 5 6 
#
# 1 174.9246 86.7245 4.2884 0.0000 0.0000 0.0000
# 2 86.7245 146.6495 8.3656 0.0000 0.0000 0.0000
# 3 4.2884 8.3656 54.6555 0.0000 0.0000 0.0000
# 4 0.0000 0.0000 0.0000 5.3390 0.0000 0.0000
# 5 0.0000 0.0000 0.0000 0.0000 -8.5507 0.0000
# 6 0.0000 0.0000 0.0000 0.0000 0.0000 -6.6550
#
#
#
# Elastic Compliance Matrix: (Units=1/GPa)
#
#
# Indices 1 2 3 4 5 6 
#
# 1 0.008089 -0.004789 0.000098 0.000000 0.000000 0.000000
# 2 -0.004789 0.009714 -0.001111 0.000000 0.000000 0.000000
# 3 0.000098 -0.001111 0.018459 0.000000 0.000000 0.000000
# 4 0.000000 0.000000 0.000000 0.187300 0.000000 0.000000
# 5 0.000000 0.000000 0.000000 0.000000 -0.116949 0.000000
# 6 0.000000 0.000000 0.000000 0.000000 0.000000 -0.150263
#
#
# Mechanical properties :
#
#
# Convention : Reuss Voigt Hill
#
# Bulk Modulus (GPa) = 40.55434 63.88739 52.22087
# Shear Modulus (GPa) = -209.84156 16.48340 -96.67908
#
# Velocity S-wave (km/s) = -10.05849 2.81910 -6.82737
# Velocity P-wave (km/s) = 10.73986 6.43422 6.08052
#
# Compressibility (1/GPa) = 0.02465827
#
# Stress axis : x y z
#
# Youngs Moduli (GPa) = 123.63007 102.93935 54.17481
#
# Poissons Ratio (x) = 0.49298 -0.00533
# Poissons Ratio (y) = 0.59207 0.06020
# Poissons Ratio (z) = -0.01216 0.11438
#
# Static dielectric constant tensor:
#      x y z
#    x 1.745770 0.000000 0.000000 
#    y 0.000000 1.764540 0.000000 
#    z 0.000000 0.000000 1.805380 
# 
# From -- ./inp_files/10956.got.cif
#   From: 2010.05.17/outbox.cif.g08.bks.cpg/sg47_6_cif.got.tgz:10956.got - 2010.06.03 20:15:42.
