data_PCOD9387261
_publ_section_title
;
Structure prediction by ZEFSAII (Michael W. Deem and Ramdas Pophale) SiO2 
 PCOD9387261
Probable space group: P M M M
;
_chemical_formula_sum "Si O2"
_cell_formula_units_Z 48
_cell_length_a 9.451107
_cell_length_b 32.182281
_cell_length_c 7.895400
_cell_angle_alpha 90.000000
_cell_angle_beta 90.000000
_cell_angle_gamma 90.000000
_cell_volume 2401.450504
_symmetry_space_group_name_H-M "P M M M"
_symmetry_group_IT_number 47
_symmetry_cell_setting 'orthorhombic'
loop_
_space_group_symop_operation_xyz
x,y,z
-x,-y,z
x,-y,-z
-x,y,-z
-x,-y,-z
x,y,-z
-x,y,z
x,-y,z
loop_
_atom_site_type_symbol
_atom_site_label
_atom_site_fract_x
_atom_site_fract_y
_atom_site_fract_z
Si Si1 0.340334 0.794080 0.202157
Si Si2 0.663343 0.635124 0.295002
Si Si3 0.662035 0.047043 0.204675
Si Si4 0.160588 0.283969 0.203766
Si Si5 0.840075 0.126474 0.700728
Si Si6 0.328607 0.455339 0.701308
O O1 0.500000 0.795607 0.271196
O O2 0.250943 0.755093 0.270143
O O3 0.257473 0.836781 0.229990
O O4 0.351141 0.788282 0.000000
O O5 0.660696 0.633217 0.500000
O O6 0.500000 0.641404 0.238877
O O7 0.760136 0.673246 0.242942
O O8 0.716416 0.589788 0.232174
O O9 0.500000 0.056037 0.259082
O O10 0.768438 0.082187 0.264089
O O11 0.697573 0.000000 0.259678
O O12 0.662264 0.047299 0.000000
O O13 0.000000 0.283571 0.269041
O O14 0.153668 0.280057 0.000000
O O15 0.846864 0.132176 0.500000
O O16 0.000000 0.128499 0.770010
O O17 0.296221 0.456006 0.500000
O O18 0.500000 0.454812 0.714677
O O19 0.279785 0.500000 0.772774
#
# Coordination Sequence:
#
# PCOD9387261 Si02
#       6
#     8   8   8   8   8   8
#     4  10  21  38  60  81  99 126 169 216 258 303
#     4   9  17  29  48  75 102 128 162 205 253 302
#     4   9  19  37  60  84 109 140 181 224 261 300
#     4  10  21  36  53  73  99 133 170 206 249 302
#     4  11  24  38  53  79 114 146 174 208 254 306
#     4   7  10  19  38  65  95 124 156 198 246 293
#
# _framework density 19.987919999999999
#
# number of rings (size 3 to 8) (size 9 to 14) (size 15 to 20)
#    0.000    2.667    0.000    4.000    0.000    7.333 
#    0.000    2.500    0.000    1.000    0.000    5.833 
#    0.000    0.000    0.000    0.000    0.000    0.000 
#
# Total GULP energy -267712.234298 kJ/mol
# GULP energy per Si atom -5577.338215 kJ/mol
# Density = 1.994243 g / cm^3
# Si number density = 19.987920 Si / 1000 Ang^3
#
#
#
# Elastic Constant Matrix: (Units=GPa)
#
#
# Indices 1 2 3 4 5 6 
#
# 1 150.4091 108.7280 8.5373 0.0000 0.0000 0.0000
# 2 108.7280 176.9792 -1.3477 0.0000 0.0000 0.0000
# 3 8.5373 -1.3477 17.9920 0.0000 0.0000 0.0000
# 4 0.0000 0.0000 0.0000 24.9219 0.0000 0.0000
# 5 0.0000 0.0000 0.0000 0.0000 -3.3741 0.0000
# 6 0.0000 0.0000 0.0000 0.0000 0.0000 -35.8998
#
#
#
# Elastic Compliance Matrix: (Units=1/GPa)
#
#
# Indices 1 2 3 4 5 6 
#
# 1 0.012701 -0.007853 -0.006615 0.000000 0.000000 0.000000
# 2 -0.007853 0.010509 0.004514 0.000000 0.000000 0.000000
# 3 -0.006615 0.004514 0.059057 0.000000 0.000000 0.000000
# 4 0.000000 0.000000 0.000000 0.040125 0.000000 0.000000
# 5 0.000000 0.000000 0.000000 0.000000 -0.296372 0.000000
# 6 0.000000 0.000000 0.000000 0.000000 0.000000 -0.027855
#
#
# Mechanical properties :
#
#
# Convention : Reuss Voigt Hill
#
# Bulk Modulus (GPa) = 16.03629 64.13504 40.08566
# Shear Modulus (GPa) = -31.02906 12.42711 -9.30098
#
# Velocity S-wave (km/s) = -3.94431 2.49616 -2.15949
# Velocity P-wave (km/s) = 3.56414 6.36116 3.72567
#
# Compressibility (1/GPa) = 0.06235858
#
# Stress axis : x y z
#
# Youngs Moduli (GPa) = 78.73399 95.15240 16.93271
#
# Poissons Ratio (x) = 0.74726 0.11201
# Poissons Ratio (y) = 0.61832 -0.07643
# Poissons Ratio (z) = 0.52082 -0.42949
#
# Static dielectric constant tensor:
#      x y z
#    x 1.692280 0.000000 0.000000 
#    y 0.000000 1.710400 0.000000 
#    z 0.000000 0.000000 1.739960 
# 
# From -- ./inp_files/2450.got.cif
#   From: 2010.05.17/outbox.cif.g08.bks.cpg/sg47_2_cif.got.tgz:2450.got - 2010.06.03 20:15:42.
