data_PCOD9387596
_publ_section_title
;
Structure prediction by ZEFSAII (Michael W. Deem and Ramdas Pophale) SiO2 
 PCOD9387596
Probable space group: P M M M
;
_chemical_formula_sum "Si O2"
_cell_formula_units_Z 56
_cell_length_a 15.473433
_cell_length_b 21.065790
_cell_length_c 8.851333
_cell_angle_alpha 90.000000
_cell_angle_beta 90.000000
_cell_angle_gamma 90.000000
_cell_volume 2885.181303
_symmetry_space_group_name_H-M "P M M M"
_symmetry_group_IT_number 47
_symmetry_cell_setting 'orthorhombic'
loop_
_space_group_symop_operation_xyz
x,y,z
-x,-y,z
x,-y,-z
-x,y,-z
-x,-y,-z
x,y,-z
-x,y,z
x,-y,z
loop_
_atom_site_type_symbol
_atom_site_label
_atom_site_fract_x
_atom_site_fract_y
_atom_site_fract_z
Si Si1 0.000000 0.575817 0.827578
Si Si2 0.403275 0.923172 0.322919
Si Si3 0.596573 0.290715 0.180630
Si Si4 0.350305 0.569378 0.818308
Si Si5 0.898031 0.000000 0.318403
Si Si6 0.234502 0.239299 0.677257
Si Si7 0.780296 0.110225 0.821207
Si Si8 0.176527 0.382386 0.678527
O O1 0.915214 0.597861 0.741174
O O2 0.000000 0.500000 0.831679
O O3 0.000000 0.599597 0.000000
O O4 0.394848 0.905423 0.500000
O O5 0.500000 0.903036 0.270596
O O6 0.318677 0.900345 0.234713
O O7 0.402043 0.000000 0.316016
O O8 0.500000 0.267792 0.206636
O O9 0.602773 0.365262 0.227075
O O10 0.667173 0.251508 0.270705
O O11 0.614952 0.287454 0.000000
O O12 0.381813 0.500000 0.764634
O O13 0.252357 0.580105 0.763993
O O14 0.353988 0.568150 0.000000
O O15 0.845125 0.939485 0.256417
O O16 0.893853 0.000000 0.500000
O O17 0.000000 0.000000 0.274761
O O18 0.230362 0.224380 0.500000
O O19 0.196496 0.181541 0.771805
O O20 0.190152 0.307274 0.704074
O O21 0.783779 0.101932 0.000000
O O22 0.184282 0.394471 0.500000
#
# Coordination Sequence:
#
# PCOD9387596 Si02
#       8
#     4   8   8   8   4   8   8   8
#     4  11  23  37  57  85 115 146 179 222 285 353
#     4   9  18  34  58  87 121 161 199 236 285 347
#     4   9  18  33  53  79 113 151 194 244 290 337
#     4   9  17  30  50  76 108 147 188 233 289 348
#     4  11  25  47  72  95 122 159 197 238 288 345
#     4  10  22  40  60  81 111 154 197 236 284 344
#     4  12  24  39  64  95 125 157 195 245 298 348
#     4  10  21  37  56  79 107 143 188 236 283 336
#
# _framework density 19.409527000000001
#
# number of rings (size 3 to 8) (size 9 to 14) (size 15 to 20)
#    0.000    2.000    0.714    3.429    0.000    6.286 
#    1.286    2.143    0.000    0.000    0.000    4.000 
#    0.000    0.000    0.000    0.000    0.000    0.000 
#
# Total GULP energy -312703.482278 kJ/mol
# GULP energy per Si atom -5583.990755 kJ/mol
# Density = 1.936535 g / cm^3
# Si number density = 19.409527 Si / 1000 Ang^3
#
#
#
# Elastic Constant Matrix: (Units=GPa)
#
#
# Indices 1 2 3 4 5 6 
#
# 1 90.9980 18.5707 25.6677 0.0000 0.0000 0.0000
# 2 18.5707 77.6056 30.0248 0.0000 0.0000 0.0000
# 3 25.6677 30.0248 44.1651 0.0000 0.0000 0.0000
# 4 0.0000 0.0000 0.0000 28.7615 0.0000 0.0000
# 5 0.0000 0.0000 0.0000 0.0000 -38.6909 0.0000
# 6 0.0000 0.0000 0.0000 0.0000 0.0000 -4.6245
#
#
#
# Elastic Compliance Matrix: (Units=1/GPa)
#
#
# Indices 1 2 3 4 5 6 
#
# 1 0.013148 -0.000258 -0.007466 0.000000 0.000000 0.000000
# 2 -0.000258 0.017489 -0.011740 0.000000 0.000000 0.000000
# 3 -0.007466 -0.011740 0.034963 0.000000 0.000000 0.000000
# 4 0.000000 0.000000 0.000000 0.034769 0.000000 0.000000
# 5 0.000000 0.000000 0.000000 0.000000 -0.025846 0.000000
# 6 0.000000 0.000000 0.000000 0.000000 0.000000 -0.216240
#
#
# Mechanical properties :
#
#
# Convention : Reuss Voigt Hill
#
# Bulk Modulus (GPa) = 37.49207 40.14391 38.81799
# Shear Modulus (GPa) = -53.24898 6.32291 -23.46303
#
# Velocity S-wave (km/s) = -5.24347 1.80685 -3.48061
# Velocity P-wave (km/s) = 4.15938 5.00804 1.97231
#
# Compressibility (1/GPa) = 0.02667231
#
# Stress axis : x y z
#
# Youngs Moduli (GPa) = 76.05851 57.17726 28.60193
#
# Poissons Ratio (x) = 0.01473 0.21354
# Poissons Ratio (y) = 0.01960 0.33579
# Poissons Ratio (z) = 0.56785 0.67127
#
# Static dielectric constant tensor:
#      x y z
#    x 1.660060 0.000000 0.000000 
#    y 0.000000 1.705210 0.000000 
#    z 0.000000 0.000000 1.652420 
# 
# From -- ./inp_files/7437.got.cif
#   From: 2010.05.17/outbox.cif.g08.bks.cpg/sg47_4_cif.got.tgz:7437.got - 2010.06.03 20:15:42.
