data_PCOD9387326
_publ_section_title
;
Structure prediction by ZEFSAII (Michael W. Deem and Ramdas Pophale) SiO2 
 PCOD9387326
Probable space group: P M M M
;
_chemical_formula_sum "Si O2"
_cell_formula_units_Z 40
_cell_length_a 9.698468
_cell_length_b 8.725256
_cell_length_c 26.364543
_cell_angle_alpha 90.000000
_cell_angle_beta 90.000000
_cell_angle_gamma 90.000000
_cell_volume 2231.010237
_symmetry_space_group_name_H-M "P M M M"
_symmetry_group_IT_number 47
_symmetry_cell_setting 'orthorhombic'
loop_
_space_group_symop_operation_xyz
x,y,z
-x,-y,z
x,-y,-z
-x,y,-z
-x,-y,-z
x,y,-z
-x,y,z
x,-y,z
loop_
_atom_site_type_symbol
_atom_site_label
_atom_site_fract_x
_atom_site_fract_y
_atom_site_fract_z
Si Si1 0.163793 0.317046 0.709240
Si Si2 0.660799 0.818121 0.800020
Si Si3 0.658603 0.312496 0.500000
Si Si4 0.158756 0.313138 0.405075
Si Si5 0.840083 0.183682 0.000000
Si Si6 0.660529 0.683253 0.909095
O O1 0.187606 0.500000 0.712703
O O2 0.248258 0.235156 0.752962
O O3 0.200409 0.266530 0.651865
O O4 0.000000 0.291595 0.715204
O O5 0.500000 0.781077 0.790137
O O6 0.699924 0.735773 0.852523
O O7 0.672868 0.000000 0.807254
O O8 0.659649 0.500000 0.500000
O O9 0.500000 0.263493 0.500000
O O10 0.740573 0.262606 0.550257
O O11 0.158390 0.500000 0.405020
O O12 0.000000 0.266135 0.414359
O O13 0.759302 0.244432 0.049112
O O14 0.000000 0.233703 0.000000
O O15 0.837070 0.000000 0.000000
O O16 0.500000 0.730261 0.917446
O O17 0.666566 0.500000 0.912740
#
# Coordination Sequence:
#
# PCOD9387326 Si02
#       6
#     8   8   4   8   4   8
#     4   9  18  32  50  73 100 132 171 212 255 304
#     4  10  21  36  54  77 104 135 171 210 255 307
#     4   9  15  21  33  59  92 123 158 201 248 296
#     4   8  14  25  40  59  88 126 163 199 244 299
#     4  11  24  39  56  82 114 145 176 211 254 302
#     4  10  21  38  60  83 106 137 177 216 256 304
#
# _framework density 17.929096000000001
#
# number of rings (size 3 to 8) (size 9 to 14) (size 15 to 20)
#    0.000    2.600    0.000    3.300    0.000    7.600 
#    0.000    2.000    0.000    0.000    0.000    0.700 
#    0.000    5.600    0.000    0.000    0.000    0.000 
#
# Total GULP energy -223170.895418 kJ/mol
# GULP energy per Si atom -5579.272385 kJ/mol
# Density = 1.788829 g / cm^3
# Si number density = 17.929096 Si / 1000 Ang^3
#
#
#
# Elastic Constant Matrix: (Units=GPa)
#
#
# Indices 1 2 3 4 5 6 
#
# 1 93.8343 32.4027 100.9460 0.0000 0.0000 0.0000
# 2 32.4027 24.2905 39.1451 0.0000 0.0000 0.0000
# 3 100.9460 39.1451 165.4996 0.0000 0.0000 0.0000
# 4 0.0000 0.0000 0.0000 -50.9311 0.0000 0.0000
# 5 0.0000 0.0000 0.0000 0.0000 37.1808 0.0000
# 6 0.0000 0.0000 0.0000 0.0000 0.0000 22.1892
#
#
#
# Elastic Compliance Matrix: (Units=1/GPa)
#
#
# Indices 1 2 3 4 5 6 
#
# 1 0.036461 -0.020682 -0.017348 0.000000 0.000000 0.000000
# 2 -0.020682 0.078258 -0.005895 0.000000 0.000000 0.000000
# 3 -0.017348 -0.005895 0.018018 0.000000 0.000000 0.000000
# 4 0.000000 0.000000 0.000000 -0.019634 0.000000 0.000000
# 5 0.000000 0.000000 0.000000 0.000000 0.026896 0.000000
# 6 0.000000 0.000000 0.000000 0.000000 0.000000 0.045067
#
#
# Mechanical properties :
#
#
# Convention : Reuss Voigt Hill
#
# Bulk Modulus (GPa) = 22.27796 69.84578 46.06187
# Shear Modulus (GPa) = 17.36854 9.09649 13.23252
#
# Velocity S-wave (km/s) = 3.11583 2.25491 2.71965
# Velocity P-wave (km/s) = 5.03955 6.76910 5.96732
#
# Compressibility (1/GPa) = 0.04488741
#
# Stress axis : x y z
#
# Youngs Moduli (GPa) = 27.42630 12.77832 55.50034
#
# Poissons Ratio (x) = 0.26428 0.96280
# Poissons Ratio (y) = 0.56722 0.32719
# Poissons Ratio (z) = 0.47578 0.07533
#
# Static dielectric constant tensor:
#      x y z
#    x 1.598860 0.000000 0.000000 
#    y 0.000000 1.602070 0.000000 
#    z 0.000000 0.000000 1.594200 
# 
# From -- ./inp_files/1781.got.cif
#   From: 2010.05.17/outbox.cif.g08.bks.cpg/sg47_1_cif.got.tgz:1781.got - 2010.06.03 20:15:42.
