data_PCOD9387304
_publ_section_title
;
Structure prediction by ZEFSAII (Michael W. Deem and Ramdas Pophale) SiO2 
 PCOD9387304
Probable space group: P M M M
;
_chemical_formula_sum "Si O2"
_cell_formula_units_Z 56
_cell_length_a 14.697110
_cell_length_b 9.159145
_cell_length_c 23.690067
_cell_angle_alpha 90.000000
_cell_angle_beta 90.000000
_cell_angle_gamma 90.000000
_cell_volume 3188.990079
_symmetry_space_group_name_H-M "P M M M"
_symmetry_group_IT_number 47
_symmetry_cell_setting 'orthorhombic'
loop_
_space_group_symop_operation_xyz
x,y,z
-x,-y,z
x,-y,-z
-x,y,-z
-x,-y,-z
x,y,-z
-x,y,z
x,-y,z
loop_
_atom_site_type_symbol
_atom_site_label
_atom_site_fract_x
_atom_site_fract_y
_atom_site_fract_z
Si Si1 0.606326 0.175531 0.287890
Si Si2 0.608714 0.171681 0.841829
Si Si3 0.273569 0.673771 0.063245
Si Si4 0.895127 0.825230 0.433535
Si Si5 0.892720 0.329015 0.230790
Si Si6 0.772992 0.674201 0.659063
Si Si7 0.893874 0.173648 0.886537
O O1 0.500000 0.210041 0.297537
O O2 0.628995 0.216472 0.222801
O O3 0.674966 0.255371 0.329469
O O4 0.616087 0.000000 0.292047
O O5 0.500000 0.185669 0.849139
O O6 0.662014 0.261820 0.888403
O O7 0.631848 0.000000 0.847433
O O8 0.267217 0.500000 0.069032
O O9 0.174915 0.745124 0.072380
O O10 0.307106 0.707984 0.000000
O O11 0.881335 0.795030 0.500000
O O12 0.824882 0.742127 0.394075
O O13 0.000000 0.785417 0.419541
O O14 0.886470 0.000000 0.425637
O O15 0.877144 0.500000 0.216248
O O16 0.833496 0.292312 0.285269
O O17 0.872170 0.230195 0.176664
O O18 0.000000 0.312461 0.243942
O O19 0.766716 0.500000 0.653762
O O20 0.000000 0.207961 0.897376
O O21 0.882010 0.000000 0.889851
#
# Coordination Sequence:
#
# PCOD9387304 Si02
#       7
#     8   8   8   8   8   8   8
#     4   9  19  36  56  78 105 137 173 213 258 310
#     4   9  19  37  60  83 105 131 166 210 260 310
#     4  11  24  38  52  73 101 134 171 209 253 310
#     4   9  19  36  56  78 107 146 189 225 256 297
#     4   9  18  32  49  73 107 140 167 200 250 314
#     4  11  21  31  50  81 112 141 174 214 261 309
#     4  10  21  36  54  75  98 128 169 216 263 308
#
# _framework density 17.560419
#
# number of rings (size 3 to 8) (size 9 to 14) (size 15 to 20)
#    0.000    2.286    0.000    3.857    0.000    8.286 
#    0.000    6.429    0.000    0.429    0.000    3.000 
#    0.000    0.000    0.000    0.000    0.000    0.000 
#
# Total GULP energy -312688.673491 kJ/mol
# GULP energy per Si atom -5583.726312 kJ/mol
# Density = 1.752045 g / cm^3
# Si number density = 17.560419 Si / 1000 Ang^3
#
#
#
# Elastic Constant Matrix: (Units=GPa)
#
#
# Indices 1 2 3 4 5 6 
#
# 1 89.7907 50.0614 72.5915 0.0000 0.0000 0.0000
# 2 50.0614 51.0044 52.2301 0.0000 0.0000 0.0000
# 3 72.5915 52.2301 90.4310 0.0000 0.0000 0.0000
# 4 0.0000 0.0000 0.0000 27.3847 0.0000 0.0000
# 5 0.0000 0.0000 0.0000 0.0000 23.1574 0.0000
# 6 0.0000 0.0000 0.0000 0.0000 0.0000 22.0157
#
#
#
# Elastic Compliance Matrix: (Units=1/GPa)
#
#
# Indices 1 2 3 4 5 6 
#
# 1 0.035281 -0.013773 -0.020366 0.000000 0.000000 0.000000
# 2 -0.013773 0.053366 -0.019767 0.000000 0.000000 0.000000
# 3 -0.020366 -0.019767 0.038823 0.000000 0.000000 0.000000
# 4 0.000000 0.000000 0.000000 0.036517 0.000000 0.000000
# 5 0.000000 0.000000 0.000000 0.000000 0.043183 0.000000
# 6 0.000000 0.000000 0.000000 0.000000 0.000000 0.045422
#
#
# Mechanical properties :
#
#
# Convention : Reuss Voigt Hill
#
# Bulk Modulus (GPa) = 50.86803 64.55468 57.71136
# Shear Modulus (GPa) = 13.62558 18.26777 15.94668
#
# Velocity S-wave (km/s) = 2.78857 3.22884 3.01674
# Velocity P-wave (km/s) = 6.27682 7.12333 6.71343
#
# Compressibility (1/GPa) = 0.01965871
#
# Stress axis : x y z
#
# Youngs Moduli (GPa) = 28.34375 18.73845 25.75779
#
# Poissons Ratio (x) = 0.25809 0.52459
# Poissons Ratio (y) = 0.39038 0.50914
# Poissons Ratio (z) = 0.57725 0.37039
#
# Static dielectric constant tensor:
#      x y z
#    x 1.599410 0.000000 0.000000 
#    y 0.000000 1.579280 0.000000 
#    z 0.000000 0.000000 1.578660 
# 
# From -- ./inp_files/7223.got.cif
#   From: 2010.05.17/outbox.cif.g08.bks.cpg/sg47_4_cif.got.tgz:7223.got - 2010.06.03 20:15:42.
