data_PCOD9387917
_publ_section_title
;
Structure prediction by ZEFSAII (Michael W. Deem and Ramdas Pophale) SiO2 
 PCOD9387917
Probable space group: P M M M
;
_chemical_formula_sum "Si O2"
_cell_formula_units_Z 25
_cell_length_a 7.793014
_cell_length_b 7.376066
_cell_length_c 22.195824
_cell_angle_alpha 90.000000
_cell_angle_beta 90.000000
_cell_angle_gamma 90.000000
_cell_volume 1275.855596
_symmetry_space_group_name_H-M "P M M M"
_symmetry_group_IT_number 47
_symmetry_cell_setting 'orthorhombic'
loop_
_space_group_symop_operation_xyz
x,y,z
-x,-y,z
x,-y,-z
-x,y,-z
-x,-y,-z
x,y,-z
-x,y,z
x,-y,z
loop_
_atom_site_type_symbol
_atom_site_label
_atom_site_fract_x
_atom_site_fract_y
_atom_site_fract_z
Si Si1 0.197199 0.279883 0.703874
Si Si2 0.205897 0.296128 0.835958
Si Si3 0.500000 0.720238 0.612096
Si Si4 0.500000 0.000000 0.500000
Si Si5 0.703619 0.000000 0.067610
O O1 0.192374 0.500000 0.707198
O O2 0.260103 0.221905 0.770403
O O3 0.331736 0.234509 0.652149
O O4 0.000000 0.219739 0.693172
O O5 0.273389 0.500000 0.843912
O O6 0.000000 0.305436 0.830955
O O7 0.246706 0.172193 0.892316
O O8 0.500000 0.500000 0.601576
O O9 0.500000 0.840449 0.552745
O O10 0.500000 0.000000 0.062706
O O11 0.777144 0.000000 0.000000
#
# Coordination Sequence:
#
# PCOD9387917 Si02
#       5
#     8   8   4   1   4
#     4   8  16  34  61  90 113 140 185 236 290 341
#     4   9  19  37  61  86 109 138 186 245 293 338
#     4  10  21  39  61  82 115 155 181 228 283 322
#     4  12  26  40  54  86 120 150 204 224 246 342
#     4  11  25  38  49  75 116 158 194 228 277 346
#
# _framework density 19.594691999999998
#
# number of rings (size 3 to 8) (size 9 to 14) (size 15 to 20)
#    0.000    2.720    0.000    2.640    2.240    3.840 
#    0.000    7.200    0.000    3.840    0.000    0.000 
#    0.000    0.000    0.000    0.000    0.000    0.000 
#
# Total GULP energy -139210.799855 kJ/mol
# GULP energy per Si atom -5568.431994 kJ/mol
# Density = 1.955009 g / cm^3
# Si number density = 19.594692 Si / 1000 Ang^3
#
#
#
# Elastic Constant Matrix: (Units=GPa)
#
#
# Indices 1 2 3 4 5 6 
#
# 1 71.3475 24.9604 66.5726 0.0000 0.0000 0.0000
# 2 24.9604 114.4561 88.5315 0.0000 0.0000 0.0000
# 3 66.5726 88.5315 237.6334 0.0000 0.0000 0.0000
# 4 0.0000 0.0000 0.0000 39.7443 0.0000 0.0000
# 5 0.0000 0.0000 0.0000 0.0000 -2.2168 0.0000
# 6 0.0000 0.0000 0.0000 0.0000 0.0000 9.3696
#
#
#
# Elastic Compliance Matrix: (Units=1/GPa)
#
#
# Indices 1 2 3 4 5 6 
#
# 1 0.018976 -0.000037 -0.005302 0.000000 0.000000 0.000000
# 2 -0.000037 0.012274 -0.004562 0.000000 0.000000 0.000000
# 3 -0.005302 -0.004562 0.007393 0.000000 0.000000 0.000000
# 4 0.000000 0.000000 0.000000 0.025161 0.000000 0.000000
# 5 0.000000 0.000000 0.000000 0.000000 -0.451093 0.000000
# 6 0.000000 0.000000 0.000000 0.000000 0.000000 0.106728
#
#
# Mechanical properties :
#
#
# Convention : Reuss Voigt Hill
#
# Bulk Modulus (GPa) = 53.07778 87.06290 70.07034
# Shear Modulus (GPa) = -19.64818 25.60424 2.97803
#
# Velocity S-wave (km/s) = -3.17003 3.61874 1.23415
# Velocity P-wave (km/s) = 3.70781 7.87329 6.15372
#
# Compressibility (1/GPa) = 0.01884028
#
# Stress axis : x y z
#
# Youngs Moduli (GPa) = 52.69700 81.47281 135.25594
#
# Poissons Ratio (x) = 0.00301 0.71719
# Poissons Ratio (y) = 0.00194 0.61709
# Poissons Ratio (z) = 0.27942 0.37171
#
# Static dielectric constant tensor:
#      x y z
#    x 1.696190 0.000000 0.000000 
#    y 0.000000 1.752390 0.000000 
#    z 0.000000 0.000000 1.673700 
# 
# From -- ./inp_files/8405.got.cif
#   From: 2010.05.17/outbox.cif.g08.bks.cpg/sg47_5_cif.got.tgz:8405.got - 2010.06.03 20:15:42.
