data_PCOD9387395
_publ_section_title
;
Structure prediction by ZEFSAII (Michael W. Deem and Ramdas Pophale) SiO2 
 PCOD9387395
Probable space group: P M M M
;
_chemical_formula_sum "Si O2"
_cell_formula_units_Z 53
_cell_length_a 15.554981
_cell_length_b 21.984030
_cell_length_c 7.887591
_cell_angle_alpha 90.000000
_cell_angle_beta 90.000000
_cell_angle_gamma 90.000000
_cell_volume 2697.249839
_symmetry_space_group_name_H-M "P M M M"
_symmetry_group_IT_number 47
_symmetry_cell_setting 'orthorhombic'
loop_
_space_group_symop_operation_xyz
x,y,z
-x,-y,z
x,-y,-z
-x,y,-z
-x,-y,-z
x,y,-z
-x,y,z
x,-y,z
loop_
_atom_site_type_symbol
_atom_site_label
_atom_site_fract_x
_atom_site_fract_y
_atom_site_fract_z
Si Si1 0.902571 0.364810 0.794975
Si Si2 0.848729 0.000000 0.290024
Si Si3 0.597324 0.670868 0.799560
Si Si4 0.239161 0.127020 0.701710
Si Si5 0.403392 0.806097 0.298910
Si Si6 0.731475 0.432100 0.700671
Si Si7 0.097187 0.225787 0.204595
Si Si8 0.000000 0.000000 0.000000
O O1 0.827846 0.408885 0.735190
O O2 0.884355 0.295082 0.739744
O O3 0.000000 0.380402 0.740685
O O4 0.901907 0.365054 0.000000
O O5 0.794141 0.939368 0.251408
O O6 0.869065 0.000000 0.500000
O O7 0.926091 0.000000 0.154198
O O8 0.500000 0.656344 0.739194
O O9 0.623557 0.735601 0.721789
O O10 0.663947 0.617266 0.766674
O O11 0.593986 0.680666 0.000000
O O12 0.249395 0.125572 0.500000
O O13 0.329731 0.150607 0.774785
O O14 0.166408 0.176997 0.739973
O O15 0.409469 0.817520 0.500000
O O16 0.500000 0.812446 0.227094
O O17 0.719357 0.434712 0.500000
O O18 0.718740 0.500000 0.771841
O O19 0.000000 0.209924 0.260790
O O20 0.096558 0.226396 0.000000
#
# Coordination Sequence:
#
# PCOD9387395 Si02
#       8
#     8   4   8   8   8   8   8   1
#     4   9  19  37  57  80 108 140 181 233 284 334
#     4  10  25  43  60  90 127 160 210 258 287 353
#     4  10  21  37  58  85 113 142 180 231 289 341
#     4  10  21  36  54  81 118 152 189 241 286 329
#     4   9  18  35  60  87 114 149 190 231 286 348
#     4  11  24  38  53  76 107 145 186 228 278 338
#     4   9  19  33  53  79 107 138 180 228 278 342
#     4  12  26  44  68  86 114 180 214 236 314 350
#
# _framework density 19.649643000000001
#
# number of rings (size 3 to 8) (size 9 to 14) (size 15 to 20)
#    0.000    2.264    0.000    2.830    2.113    6.943 
#    0.000    4.906    0.000    2.264    0.000    0.528 
#    0.000    0.000    0.000    0.000    0.000    0.151 
#
# Total GULP energy -295426.393398 kJ/mol
# GULP energy per Si atom -5574.082894 kJ/mol
# Density = 1.960492 g / cm^3
# Si number density = 19.649643 Si / 1000 Ang^3
#
#
#
# Elastic Constant Matrix: (Units=GPa)
#
#
# Indices 1 2 3 4 5 6 
#
# 1 125.9221 85.8036 19.6754 0.0000 0.0000 0.0000
# 2 85.8036 92.9053 19.3926 0.0000 0.0000 0.0000
# 3 19.6754 19.3926 36.2163 0.0000 0.0000 0.0000
# 4 0.0000 0.0000 0.0000 21.8417 0.0000 0.0000
# 5 0.0000 0.0000 0.0000 0.0000 20.9483 0.0000
# 6 0.0000 0.0000 0.0000 0.0000 0.0000 0.9495
#
#
#
# Elastic Compliance Matrix: (Units=1/GPa)
#
#
# Indices 1 2 3 4 5 6 
#
# 1 0.021468 -0.019581 -0.001178 0.000000 0.000000 0.000000
# 2 -0.019581 0.029978 -0.005414 0.000000 0.000000 0.000000
# 3 -0.001178 -0.005414 0.031151 0.000000 0.000000 0.000000
# 4 0.000000 0.000000 0.000000 0.045784 0.000000 0.000000
# 5 0.000000 0.000000 0.000000 0.000000 0.047737 0.000000
# 6 0.000000 0.000000 0.000000 0.000000 0.000000 1.053192
#
#
# Mechanical properties :
#
#
# Convention : Reuss Voigt Hill
#
# Bulk Modulus (GPa) = 33.05759 56.08743 44.57251
# Shear Modulus (GPa) = 3.87075 17.42604 10.64839
#
# Velocity S-wave (km/s) = 1.40505 2.98121 2.33043
# Velocity P-wave (km/s) = 4.41500 6.36049 5.47486
#
# Compressibility (1/GPa) = 0.03025024
#
# Stress axis : x y z
#
# Youngs Moduli (GPa) = 46.58062 33.35753 32.10166
#
# Poissons Ratio (x) = 0.65318 0.03782
# Poissons Ratio (y) = 0.91211 0.17381
# Poissons Ratio (z) = 0.05487 0.18061
#
# Static dielectric constant tensor:
#      x y z
#    x 1.707600 0.000000 0.000000 
#    y 0.000000 1.683190 0.000000 
#    z 0.000000 0.000000 1.711590 
# 
# From -- ./inp_files/7119.got.cif
#   From: 2010.05.17/outbox.cif.g08.bks.cpg/sg47_4_cif.got.tgz:7119.got - 2010.06.03 20:15:42.
