data_PCOD9387954
_publ_section_title
;
Structure prediction by ZEFSAII (Michael W. Deem and Ramdas Pophale) SiO2 
 PCOD9387954
Probable space group: P M M M
;
_chemical_formula_sum "Si O2"
_cell_formula_units_Z 48
_cell_length_a 19.643124
_cell_length_b 14.267320
_cell_length_c 8.290727
_cell_angle_alpha 90.000000
_cell_angle_beta 90.000000
_cell_angle_gamma 90.000000
_cell_volume 2323.515506
_symmetry_space_group_name_H-M "P M M M"
_symmetry_group_IT_number 47
_symmetry_cell_setting 'orthorhombic'
loop_
_space_group_symop_operation_xyz
x,y,z
-x,-y,z
x,-y,-z
-x,y,-z
-x,-y,-z
x,y,-z
-x,y,z
x,-y,z
loop_
_atom_site_type_symbol
_atom_site_label
_atom_site_fract_x
_atom_site_fract_y
_atom_site_fract_z
Si Si1 0.120692 0.000000 0.816045
Si Si2 0.644415 0.819879 0.313957
Si Si3 0.304767 0.364978 0.813876
Si Si4 0.500000 0.111070 0.806336
Si Si5 0.921531 0.207290 0.305749
Si Si6 0.716682 0.000000 0.812170
Si Si7 0.155276 0.603935 0.691696
Si Si8 0.422664 0.500000 0.196506
O O1 0.098625 0.899095 0.743579
O O2 0.202392 0.000000 0.812046
O O3 0.096264 0.000000 0.000000
O O4 0.648128 0.790729 0.500000
O O5 0.679506 0.743301 0.202928
O O6 0.567242 0.841253 0.263805
O O7 0.687023 0.912422 0.281632
O O8 0.236334 0.390144 0.720802
O O9 0.374489 0.413763 0.755566
O O10 0.294101 0.391340 0.000000
O O11 0.500000 0.000000 0.765990
O O12 0.500000 0.119403 0.000000
O O13 0.916776 0.208696 0.500000
O O14 0.878042 0.298170 0.245499
O O15 0.000000 0.222208 0.258358
O O16 0.692669 0.000000 0.000000
O O17 0.142167 0.602956 0.500000
O O18 0.132685 0.500000 0.754345
O O19 0.500000 0.500000 0.257585
O O20 0.427277 0.500000 0.000000
#
# Coordination Sequence:
#
# PCOD9387954 Si02
#       8
#     4   8   8   4   8   4   8   4
#     4  11  24  40  62  91 124 161 206 258 312 366
#     4  12  25  39  59  88 121 156 200 256 312 365
#     4  11  22  39  63  89 119 159 206 254 305 371
#     4  11  23  41  63  84 116 163 208 254 311 378
#     4  10  22  40  63  92 126 166 209 251 306 380
#     4  11  23  41  61  87 118 157 203 246 293 362
#     4  10  21  39  64  93 127 164 205 261 322 377
#     4   9  20  38  59  85 112 149 201 251 298 354
#
# _framework density 20.658352000000001
#
# number of rings (size 3 to 8) (size 9 to 14) (size 15 to 20)
#    0.000    1.333    1.667    4.000    1.167    6.667 
#    0.000    1.667    0.000    2.000    0.000    2.333 
#    0.000    0.000    0.000    0.000    0.000    0.000 
#
# Total GULP energy -267904.032584 kJ/mol
# GULP energy per Si atom -5581.334012 kJ/mol
# Density = 2.061133 g / cm^3
# Si number density = 20.658352 Si / 1000 Ang^3
#
#
#
# Elastic Constant Matrix: (Units=GPa)
#
#
# Indices 1 2 3 4 5 6 
#
# 1 108.6146 60.7275 10.5242 0.0000 0.0000 0.0000
# 2 60.7275 175.1239 5.8735 0.0000 0.0000 0.0000
# 3 10.5242 5.8735 37.6734 0.0000 0.0000 0.0000
# 4 0.0000 0.0000 0.0000 19.0133 0.0000 0.0000
# 5 0.0000 0.0000 0.0000 0.0000 1141.1479 0.0000
# 6 0.0000 0.0000 0.0000 0.0000 0.0000 -39.1907
#
#
#
# Elastic Compliance Matrix: (Units=1/GPa)
#
#
# Indices 1 2 3 4 5 6 
#
# 1 0.011678 -0.003961 -0.002645 0.000000 0.000000 0.000000
# 2 -0.003961 0.007084 0.000002 0.000000 0.000000 0.000000
# 3 -0.002645 0.000002 0.027282 0.000000 0.000000 0.000000
# 4 0.000000 0.000000 0.000000 0.052595 0.000000 0.000000
# 5 0.000000 0.000000 0.000000 0.000000 0.000876 0.000000
# 6 0.000000 0.000000 0.000000 0.000000 0.000000 -0.025516
#
#
# Mechanical properties :
#
#
# Convention : Reuss Voigt Hill
#
# Bulk Modulus (GPa) = 30.45347 52.85134 41.65240
# Shear Modulus (GPa) = 50.94200 240.47988 145.71094
#
# Velocity S-wave (km/s) = 4.97120 10.80096 8.40754
# Velocity P-wave (km/s) = 6.90825 13.46056 10.69838
#
# Compressibility (1/GPa) = 0.03283698
#
# Stress axis : x y z
#
# Youngs Moduli (GPa) = 85.63405 141.17058 36.65365
#
# Poissons Ratio (x) = 0.55914 0.09694
# Poissons Ratio (y) = 0.33917 -0.00008
# Poissons Ratio (z) = 0.22647 -0.00029
#
# Static dielectric constant tensor:
#      x y z
#    x 1.706020 0.000000 0.000000 
#    y 0.000000 1.946550 0.000000 
#    z 0.000000 0.000000 1.743560 
# 
# From -- ./inp_files/9293.got.cif
#   From: 2010.05.17/outbox.cif.g08.bks.cpg/sg47_5_cif.got.tgz:9293.got - 2010.06.03 20:15:42.
