data_PCOD9387292
_publ_section_title
;
Structure prediction by ZEFSAII (Michael W. Deem and Ramdas Pophale) SiO2 
 PCOD9387292
Probable space group: P M M M
;
_chemical_formula_sum "Si O2"
_cell_formula_units_Z 56
_cell_length_a 9.596771
_cell_length_b 15.587324
_cell_length_c 20.116210
_cell_angle_alpha 90.000000
_cell_angle_beta 90.000000
_cell_angle_gamma 90.000000
_cell_volume 3009.143198
_symmetry_space_group_name_H-M "P M M M"
_symmetry_group_IT_number 47
_symmetry_cell_setting 'orthorhombic'
loop_
_space_group_symop_operation_xyz
x,y,z
-x,-y,z
x,-y,-z
-x,y,-z
-x,-y,-z
x,y,-z
-x,y,z
x,-y,z
loop_
_atom_site_type_symbol
_atom_site_label
_atom_site_fract_x
_atom_site_fract_y
_atom_site_fract_z
Si Si1 0.156535 0.343547 0.616648
Si Si2 0.159414 0.857032 0.578393
Si Si3 0.659223 0.232423 0.180102
Si Si4 0.350918 0.399944 0.500000
Si Si5 0.163993 0.673062 0.079612
Si Si6 0.661569 0.500000 0.919830
Si Si7 0.336038 0.097229 0.294479
Si Si8 0.654823 0.401637 0.733586
O O1 0.154922 0.242276 0.601418
O O2 0.261735 0.378862 0.563329
O O3 0.221043 0.373132 0.685754
O O4 0.000000 0.375910 0.608406
O O5 0.202417 0.863352 0.500000
O O6 0.256201 0.897235 0.635179
O O7 0.000000 0.889808 0.581963
O O8 0.500000 0.208343 0.160272
O O9 0.763592 0.248694 0.119192
O O10 0.706994 0.166060 0.237880
O O11 0.650425 0.326578 0.212970
O O12 0.370165 0.500000 0.500000
O O13 0.500000 0.354320 0.500000
O O14 0.249161 0.585364 0.095598
O O15 0.000000 0.664315 0.096971
O O16 0.173486 0.685364 0.000000
O O17 0.500000 0.500000 0.894074
O O18 0.649419 0.500000 0.000000
O O19 0.500000 0.114161 0.307015
O O20 0.320726 0.000000 0.268925
O O21 0.500000 0.399549 0.700151
O O22 0.674476 0.500000 0.756559
#
# Coordination Sequence:
#
# PCOD9387292 Si02
#       8
#     8   8   8   4   8   4   8   8
#     4  11  21  35  53  75 105 142 185 233 281 334
#     4  10  21  38  58  82 112 146 185 230 286 350
#     4  10  21  37  59  85 114 152 193 237 289 344
#     4  11  23  35  49  71 100 141 190 235 283 336
#     4  10  21  36  55  84 122 160 199 243 287 334
#     4   9  17  31  53  81 117 163 208 243 280 331
#     4  10  22  41  64  89 114 143 186 238 291 348
#     4  10  21  36  53  77 110 147 188 232 280 335
#
# _framework density 18.609949
#
# number of rings (size 3 to 8) (size 9 to 14) (size 15 to 20)
#    0.000    1.857    2.143    1.714    1.000    6.857 
#    0.000    1.429    0.000    0.429    0.000    3.000 
#    0.000    0.000    0.000    0.000    0.000    0.000 
#
# Total GULP energy -312111.511322 kJ/mol
# GULP energy per Si atom -5573.419845 kJ/mol
# Density = 1.856759 g / cm^3
# Si number density = 18.609949 Si / 1000 Ang^3
#
#
#
# Elastic Constant Matrix: (Units=GPa)
#
#
# Indices 1 2 3 4 5 6 
#
# 1 122.7275 33.0891 56.2598 0.0000 0.0000 0.0000
# 2 33.0891 82.9861 42.9812 0.0000 0.0000 0.0000
# 3 56.2598 42.9812 80.0747 0.0000 0.0000 0.0000
# 4 0.0000 0.0000 0.0000 19.6305 0.0000 0.0000
# 5 0.0000 0.0000 0.0000 0.0000 33.0325 0.0000
# 6 0.0000 0.0000 0.0000 0.0000 0.0000 16.3723
#
#
#
# Elastic Compliance Matrix: (Units=1/GPa)
#
#
# Indices 1 2 3 4 5 6 
#
# 1 0.012039 -0.000581 -0.008147 0.000000 0.000000 0.000000
# 2 -0.000581 0.016718 -0.008566 0.000000 0.000000 0.000000
# 3 -0.008147 -0.008566 0.022810 0.000000 0.000000 0.000000
# 4 0.000000 0.000000 0.000000 0.050941 0.000000 0.000000
# 5 0.000000 0.000000 0.000000 0.000000 0.030273 0.000000
# 6 0.000000 0.000000 0.000000 0.000000 0.000000 0.061079
#
#
# Mechanical properties :
#
#
# Convention : Reuss Voigt Hill
#
# Bulk Modulus (GPa) = 58.89030 61.16093 60.02562
# Shear Modulus (GPa) = 21.35765 24.03761 22.69763
#
# Velocity S-wave (km/s) = 3.39137 3.59786 3.49614
# Velocity P-wave (km/s) = 6.85918 7.08487 6.97294
#
# Compressibility (1/GPa) = 0.01698072
#
# Stress axis : x y z
#
# Youngs Moduli (GPa) = 83.06039 59.81492 43.84030
#
# Poissons Ratio (x) = 0.03475 0.35717
# Poissons Ratio (y) = 0.04825 0.37552
# Poissons Ratio (z) = 0.67669 0.51235
#
# Static dielectric constant tensor:
#      x y z
#    x 1.797030 0.000000 0.000000 
#    y 0.000000 1.702560 0.000000 
#    z 0.000000 0.000000 1.688390 
# 
# From -- ./inp_files/29800.got.cif
#   From: 2010.05.17/outbox.cif.g08.bks.cpg/sg47_15_cif.got.tgz:29800.got - 2010.06.03 20:15:42.
