data_PCOD9387365
_publ_section_title
;
Structure prediction by ZEFSAII (Michael W. Deem and Ramdas Pophale) SiO2 
 PCOD9387365
Probable space group: P M M M
;
_chemical_formula_sum "Si O2"
_cell_formula_units_Z 64
_cell_length_a 19.115964
_cell_length_b 8.390047
_cell_length_c 20.996660
_cell_angle_alpha 90.000000
_cell_angle_beta 90.000000
_cell_angle_gamma 90.000000
_cell_volume 3367.524883
_symmetry_space_group_name_H-M "P M M M"
_symmetry_group_IT_number 47
_symmetry_cell_setting 'orthorhombic'
loop_
_space_group_symop_operation_xyz
x,y,z
-x,-y,z
x,-y,-z
-x,y,-z
-x,-y,-z
x,y,-z
-x,y,z
x,-y,z
loop_
_atom_site_type_symbol
_atom_site_label
_atom_site_fract_x
_atom_site_fract_y
_atom_site_fract_z
Si Si1 0.326624 0.808835 0.310108
Si Si2 0.331814 0.307486 0.072102
Si Si3 0.079859 0.192426 0.811237
Si Si4 0.824762 0.807326 0.927566
Si Si5 0.580133 0.194244 0.427694
Si Si6 0.580088 0.306940 0.192835
Si Si7 0.919073 0.807462 0.427046
Si Si8 0.168259 0.311552 0.308573
O O1 0.365819 0.751321 0.374283
O O2 0.371962 0.753245 0.250080
O O3 0.247653 0.748665 0.306029
O O4 0.325386 0.000000 0.311264
O O5 0.331500 0.500000 0.071867
O O6 0.253555 0.250009 0.087811
O O7 0.385993 0.254577 0.125862
O O8 0.348348 0.253516 0.000000
O O9 0.120769 0.248539 0.874367
O O10 0.123006 0.239422 0.748931
O O11 0.000000 0.250715 0.808544
O O12 0.077730 0.000000 0.813823
O O13 0.824704 0.000000 0.927130
O O14 0.841233 0.755250 0.000000
O O15 0.596776 0.244784 0.500000
O O16 0.500000 0.242461 0.413005
O O17 0.580757 0.000000 0.427507
O O18 0.500000 0.253021 0.199603
O O19 0.580429 0.500000 0.193722
O O20 0.902778 0.761050 0.500000
O O21 0.867744 0.736983 0.374942
O O22 0.000000 0.762356 0.413914
O O23 0.915504 0.000000 0.423786
O O24 0.167890 0.500000 0.301908
#
# Coordination Sequence:
#
# PCOD9387365 Si02
#       8
#     8   8   8   8   8   8   8   8
#     4  11  22  36  56  80 106 140 183 226 268 319
#     4   9  18  33  53  76 103 139 181 219 258 313
#     4  10  21  37  57  80 107 141 181 224 270 324
#     4   9  18  33  54  80 108 138 174 219 271 323
#     4   8  15  30  53  80 106 131 165 211 258 303
#     4  10  21  36  54  78 109 142 176 221 276 327
#     4   9  19  38  63  87 111 142 181 224 270 323
#     4  12  25  38  54  79 112 147 183 226 275 324
#
# _framework density 19.005056
#
# number of rings (size 3 to 8) (size 9 to 14) (size 15 to 20)
#    0.000    2.250    0.000    3.750    0.000    7.000 
#    0.000    4.375    0.000    1.125    0.000    9.625 
#    0.000    0.000    0.000    0.000    0.000    0.000 
#
# Total GULP energy -357351.652350 kJ/mol
# GULP energy per Si atom -5583.619568 kJ/mol
# Density = 1.896180 g / cm^3
# Si number density = 19.005056 Si / 1000 Ang^3
#
#
#
# Elastic Constant Matrix: (Units=GPa)
#
#
# Indices 1 2 3 4 5 6 
#
# 1 162.0929 17.3753 106.8536 0.0000 0.0000 0.0000
# 2 17.3753 12.4636 14.3986 0.0000 0.0000 0.0000
# 3 106.8536 14.3986 125.1420 0.0000 0.0000 0.0000
# 4 0.0000 0.0000 0.0000 15.6493 0.0000 0.0000
# 5 0.0000 0.0000 0.0000 0.0000 43.3104 0.0000
# 6 0.0000 0.0000 0.0000 0.0000 0.0000 24.9488
#
#
#
# Elastic Compliance Matrix: (Units=1/GPa)
#
#
# Indices 1 2 3 4 5 6 
#
# 1 0.014606 -0.006867 -0.011681 0.000000 0.000000 0.000000
# 2 -0.006867 0.095762 -0.005155 0.000000 0.000000 0.000000
# 3 -0.011681 -0.005155 0.018558 0.000000 0.000000 0.000000
# 4 0.000000 0.000000 0.000000 0.063900 0.000000 0.000000
# 5 0.000000 0.000000 0.000000 0.000000 0.023089 0.000000
# 6 0.000000 0.000000 0.000000 0.000000 0.000000 0.040082
#
#
# Mechanical properties :
#
#
# Convention : Reuss Voigt Hill
#
# Bulk Modulus (GPa) = 12.26693 64.10594 38.18644
# Shear Modulus (GPa) = 15.12509 27.51976 21.32243
#
# Velocity S-wave (km/s) = 2.82413 3.80942 3.35316
# Velocity P-wave (km/s) = 4.13556 7.29062 5.92689
#
# Compressibility (1/GPa) = 0.08152001
#
# Stress axis : x y z
#
# Youngs Moduli (GPa) = 68.46620 10.44257 53.88491
#
# Poissons Ratio (x) = 0.07171 0.62944
# Poissons Ratio (y) = 0.47015 0.27776
# Poissons Ratio (z) = 0.79976 0.05383
#
# Static dielectric constant tensor:
#      x y z
#    x 1.636450 0.000000 0.000000 
#    y 0.000000 1.659400 0.000000 
#    z 0.000000 0.000000 1.658050 
# 
# From -- ./inp_files/27011.got.cif
#   From: 2010.05.17/outbox.cif.g08.bks.cpg/sg47_14_cif.got.tgz:27011.got - 2010.06.03 20:15:42.
