data_PCOD9387890
_publ_section_title
;
Structure prediction by ZEFSAII (Michael W. Deem and Ramdas Pophale) SiO2 
 PCOD9387890
Probable space group: P M M M
;
_chemical_formula_sum "Si O2"
_cell_formula_units_Z 37
_cell_length_a 7.879787
_cell_length_b 23.213569
_cell_length_c 9.620319
_cell_angle_alpha 90.000000
_cell_angle_beta 90.000000
_cell_angle_gamma 90.000000
_cell_volume 1759.729311
_symmetry_space_group_name_H-M "P M M M"
_symmetry_group_IT_number 47
_symmetry_cell_setting 'orthorhombic'
loop_
_space_group_symop_operation_xyz
x,y,z
-x,-y,z
x,-y,-z
-x,y,-z
-x,-y,-z
x,y,-z
-x,y,z
x,-y,z
loop_
_atom_site_type_symbol
_atom_site_label
_atom_site_fract_x
_atom_site_fract_y
_atom_site_fract_z
Si Si1 0.702560 0.154211 0.743092
Si Si2 0.795980 0.387166 0.661499
Si Si3 0.297121 0.500000 0.161423
Si Si4 0.705888 0.066637 0.500000
Si Si5 0.817004 0.911484 0.000000
Si Si6 0.500000 0.000000 0.000000
Si Si7 0.795032 0.723695 0.836716
O O1 0.500000 0.148441 0.759170
O O2 0.753128 0.107723 0.626963
O O3 0.802421 0.130713 0.872398
O O4 0.741690 0.221741 0.742065
O O5 0.733736 0.388293 0.500000
O O6 0.756840 0.444443 0.749218
O O7 0.734942 0.333287 0.755133
O O8 0.000000 0.382163 0.653016
O O9 0.500000 0.500000 0.153539
O O10 0.232860 0.500000 0.000000
O O11 0.500000 0.062023 0.500000
O O12 0.768302 0.000000 0.500000
O O13 0.651401 0.951210 0.000000
O O14 0.000000 0.940413 0.000000
O O15 0.000000 0.722605 0.842267
O O16 0.736468 0.727494 0.000000
#
# Coordination Sequence:
#
# PCOD9387890 Si02
#       7
#     8   8   4   4   4   1   8
#     4  11  22  40  65  94 129 172 218 274 335 397
#     4  10  22  40  64  94 129 171 218 269 327 389
#     4  11  24  41  62  92 130 171 220 271 324 384
#     4   9  22  40  63  87 125 172 218 267 330 400
#     4  12  25  43  69 100 131 170 221 274 335 409
#     4  12  26  44  68 100 136 172 218 276 344 394
#     4  10  21  38  61  90 126 168 215 267 322 388
#
# _framework density 21.025963000000001
#
# number of rings (size 3 to 8) (size 9 to 14) (size 15 to 20)
#    0.000    1.514    2.162    2.108    3.027    4.324 
#    0.000    1.622    0.000    2.595    0.000    0.000 
#    0.000    0.000    0.000    0.000    0.000    0.000 
#
# Total GULP energy -206044.052123 kJ/mol
# GULP energy per Si atom -5568.758165 kJ/mol
# Density = 2.097811 g / cm^3
# Si number density = 21.025963 Si / 1000 Ang^3
#
#
#
# Elastic Constant Matrix: (Units=GPa)
#
#
# Indices 1 2 3 4 5 6 
#
# 1 63.1943 16.5410 9.7544 0.0000 0.0000 0.0000
# 2 16.5410 232.5505 93.3204 0.0000 0.0000 0.0000
# 3 9.7544 93.3204 167.9460 0.0000 0.0000 0.0000
# 4 0.0000 0.0000 0.0000 90.5426 0.0000 0.0000
# 5 0.0000 0.0000 0.0000 0.0000 24.7223 0.0000
# 6 0.0000 0.0000 0.0000 0.0000 0.0000 22.4117
#
#
#
# Elastic Compliance Matrix: (Units=1/GPa)
#
#
# Indices 1 2 3 4 5 6 
#
# 1 0.016144 -0.000994 -0.000386 0.000000 0.000000 0.000000
# 2 -0.000994 0.005595 -0.003051 0.000000 0.000000 0.000000
# 3 -0.000386 -0.003051 0.007672 0.000000 0.000000 0.000000
# 4 0.000000 0.000000 0.000000 0.011045 0.000000 0.000000
# 5 0.000000 0.000000 0.000000 0.000000 0.040449 0.000000
# 6 0.000000 0.000000 0.000000 0.000000 0.000000 0.044620
#
#
# Mechanical properties :
#
#
# Convention : Reuss Voigt Hill
#
# Bulk Modulus (GPa) = 48.66106 78.10249 63.38177
# Shear Modulus (GPa) = 35.40179 50.47366 42.93772
#
# Velocity S-wave (km/s) = 4.10776 4.90485 4.52389
# Velocity P-wave (km/s) = 6.75958 8.32485 7.58271
#
# Compressibility (1/GPa) = 0.02055031
#
# Stress axis : x y z
#
# Youngs Moduli (GPa) = 61.94337 178.72168 130.34080
#
# Poissons Ratio (x) = 0.17757 0.05025
# Poissons Ratio (y) = 0.06154 0.39772
# Poissons Ratio (z) = 0.02388 0.54534
#
# Static dielectric constant tensor:
#      x y z
#    x 1.762220 0.000000 0.000000 
#    y 0.000000 1.786290 0.000000 
#    z 0.000000 0.000000 1.854550 
# 
# From -- ./inp_files/1595.got.cif
#   From: 2010.05.17/outbox.cif.g08.bks.cpg/sg47_1_cif.got.tgz:1595.got - 2010.06.03 20:15:42.
