data_PCOD9387699
_publ_section_title
;
Structure prediction by ZEFSAII (Michael W. Deem and Ramdas Pophale) SiO2 
 PCOD9387699
Probable space group: P M M M
;
_chemical_formula_sum "Si O2"
_cell_formula_units_Z 64
_cell_length_a 7.948470
_cell_length_b 24.600077
_cell_length_c 15.945007
_cell_angle_alpha 90.000000
_cell_angle_beta 90.000000
_cell_angle_gamma 90.000000
_cell_volume 3117.774640
_symmetry_space_group_name_H-M "P M M M"
_symmetry_group_IT_number 47
_symmetry_cell_setting 'orthorhombic'
loop_
_space_group_symop_operation_xyz
x,y,z
-x,-y,z
x,-y,-z
-x,y,-z
-x,-y,-z
x,y,-z
-x,y,z
x,-y,z
loop_
_atom_site_type_symbol
_atom_site_label
_atom_site_fract_x
_atom_site_fract_y
_atom_site_fract_z
Si Si1 0.202373 0.061589 0.248953
Si Si2 0.299858 0.561240 0.255967
Si Si3 0.696032 0.256469 0.857500
Si Si4 0.296697 0.136832 0.093038
Si Si5 0.205592 0.132780 0.405542
Si Si6 0.199853 0.249112 0.332989
Si Si7 0.703934 0.636826 0.406478
Si Si8 0.196798 0.374572 0.907905
O O1 0.242533 0.097558 0.167680
O O2 0.263835 0.091789 0.333093
O O3 0.000000 0.059249 0.255250
O O4 0.266464 0.000000 0.241756
O O5 0.500000 0.557312 0.269251
O O6 0.230952 0.500000 0.253050
O O7 0.232499 0.597182 0.333114
O O8 0.274537 0.592920 0.169195
O O9 0.500000 0.260759 0.880910
O O10 0.762341 0.198658 0.890359
O O11 0.712787 0.255393 0.756953
O O12 0.783585 0.310214 0.891838
O O13 0.500000 0.138418 0.094324
O O14 0.242379 0.119151 0.000000
O O15 0.261868 0.120232 0.500000
O O16 0.254385 0.193813 0.378609
O O17 0.000000 0.131521 0.406141
O O18 0.236034 0.302314 0.387174
O O19 0.000000 0.245116 0.317397
O O20 0.755127 0.619978 0.500000
O O21 0.500000 0.637450 0.403585
O O22 0.000000 0.387726 0.908101
O O23 0.267993 0.387648 0.000000
#
# Coordination Sequence:
#
# PCOD9387699 Si02
#       8
#     8   8   8   8   8   8   8   8
#     4  10  21  37  57  82 112 147 191 240 284 328
#     4  10  22  40  61  85 115 155 200 242 283 330
#     4  11  21  36  60  87 116 149 187 233 287 346
#     4  10  22  39  59  83 112 148 187 229 282 343
#     4   9  18  33  54  82 115 149 185 227 278 336
#     4  11  20  33  57  86 118 153 187 230 288 347
#     4  10  21  37  58  86 119 154 192 235 285 341
#     4  11  24  40  60  88 119 152 189 233 289 346
#
# _framework density 20.527460999999999
#
# number of rings (size 3 to 8) (size 9 to 14) (size 15 to 20)
#    0.000    1.750    2.500    1.875    0.000    4.500 
#    0.000    5.000    0.000    1.125    0.000    2.625 
#    0.000    0.000    0.000    0.000    0.000    0.000 
#
# Total GULP energy -357595.539059 kJ/mol
# GULP energy per Si atom -5587.430298 kJ/mol
# Density = 2.048074 g / cm^3
# Si number density = 20.527461 Si / 1000 Ang^3
#
#
#
# Elastic Constant Matrix: (Units=GPa)
#
#
# Indices 1 2 3 4 5 6 
#
# 1 19.6635 1.5391 -3.3562 0.0000 0.0000 0.0000
# 2 1.5391 144.1950 65.9190 0.0000 0.0000 0.0000
# 3 -3.3562 65.9190 158.6116 0.0000 0.0000 0.0000
# 4 0.0000 0.0000 0.0000 -1.2458 0.0000 0.0000
# 5 0.0000 0.0000 0.0000 0.0000 19.2387 0.0000
# 6 0.0000 0.0000 0.0000 0.0000 0.0000 29.4066
#
#
#
# Elastic Compliance Matrix: (Units=1/GPa)
#
#
# Indices 1 2 3 4 5 6 
#
# 1 0.051233 -0.001287 0.001619 0.000000 0.000000 0.000000
# 2 -0.001287 0.008594 -0.003599 0.000000 0.000000 0.000000
# 3 0.001619 -0.003599 0.007835 0.000000 0.000000 0.000000
# 4 0.000000 0.000000 0.000000 -0.802714 0.000000 0.000000
# 5 0.000000 0.000000 0.000000 0.000000 0.051979 0.000000
# 6 0.000000 0.000000 0.000000 0.000000 0.000000 0.034006
#
#
# Mechanical properties :
#
#
# Convention : Reuss Voigt Hill
#
# Bulk Modulus (GPa) = 16.35922 50.07488 33.21705
# Shear Modulus (GPa) = -8.03655 26.70443 9.33394
#
# Velocity S-wave (km/s) = -1.98079 3.61073 2.13469
# Velocity P-wave (km/s) = 1.65993 6.46763 4.72152
#
# Compressibility (1/GPa) = 0.06112760
#
# Stress axis : x y z
#
# Youngs Moduli (GPa) = 19.51876 116.35965 127.63768
#
# Poissons Ratio (x) = 0.14975 -0.20663
# Poissons Ratio (y) = 0.02512 0.45936
# Poissons Ratio (z) = -0.03160 0.41877
#
# Static dielectric constant tensor:
#      x y z
#    x 1.749410 0.000000 0.000000 
#    y 0.000000 1.705890 0.000000 
#    z 0.000000 0.000000 1.723950 
# 
# From -- ./inp_files/7842.got.cif
#   From: 2010.05.17/outbox.cif.g08.bks.cpg/sg47_4_cif.got.tgz:7842.got - 2010.06.03 20:15:42.
