data_PCOD9387001
_publ_section_title
;
Structure prediction by ZEFSAII (Michael W. Deem and Ramdas Pophale) SiO2 
 PCOD9387001
Probable space group: P M M M
;
_chemical_formula_sum "Si O2"
_cell_formula_units_Z 64
_cell_length_a 24.320419
_cell_length_b 14.433351
_cell_length_c 9.281222
_cell_angle_alpha 90.000000
_cell_angle_beta 90.000000
_cell_angle_gamma 90.000000
_cell_volume 3257.942288
_symmetry_space_group_name_H-M "P M M M"
_symmetry_group_IT_number 47
_symmetry_cell_setting 'orthorhombic'
loop_
_space_group_symop_operation_xyz
x,y,z
-x,-y,z
x,-y,-z
-x,y,-z
-x,-y,-z
x,y,-z
-x,y,z
x,-y,z
loop_
_atom_site_type_symbol
_atom_site_label
_atom_site_fract_x
_atom_site_fract_y
_atom_site_fract_z
Si Si1 0.670098 0.293952 0.829756
Si Si2 0.232156 0.388709 0.664331
Si Si3 0.437082 0.712837 0.329524
Si Si4 0.728672 0.107059 0.171522
Si Si5 0.565733 0.102891 0.162068
Si Si6 0.062126 0.218896 0.171111
Si Si7 0.841879 0.888670 0.666734
Si Si8 0.104160 0.608726 0.671270
O O1 0.723618 0.345346 0.769631
O O2 0.614763 0.330518 0.753104
O O3 0.682803 0.184653 0.799232
O O4 0.665451 0.306311 0.000000
O O5 0.243156 0.357516 0.500000
O O6 0.236576 0.500000 0.666906
O O7 0.168523 0.367716 0.698479
O O8 0.432433 0.699951 0.500000
O O9 0.500000 0.686352 0.286360
O O10 0.429388 0.820119 0.283824
O O11 0.783874 0.132960 0.257380
O O12 0.714821 0.000000 0.207292
O O13 0.739838 0.110434 0.000000
O O14 0.500000 0.094467 0.148402
O O15 0.587516 0.000000 0.193082
O O16 0.585372 0.130980 0.000000
O O17 0.107837 0.157936 0.250494
O O18 0.068563 0.322065 0.234706
O O19 0.000000 0.185385 0.198687
O O20 0.071536 0.218775 0.000000
O O21 0.841119 0.858920 0.500000
O O22 0.847759 0.000000 0.671582
O O23 0.094308 0.621623 0.500000
O O24 0.095736 0.500000 0.702856
#
# Coordination Sequence:
#
# PCOD9387001 Si02
#       8
#     8   8   8   8   8   8   8   8
#     4  11  22  34  54  83 111 142 179 221 269 319
#     4   9  19  37  60  85 112 140 172 216 272 330
#     4  10  21  35  50  70  99 138 181 220 262 316
#     4   9  19  36  56  80 112 147 182 221 270 330
#     4   8  14  26  44  64  88 122 164 209 255 301
#     4  11  24  38  53  78 113 153 194 233 275 325
#     4  10  21  37  58  82 107 140 185 237 289 334
#     4   9  19  37  61  87 114 146 182 221 270 326
#
# _framework density 19.644300000000001
#
# number of rings (size 3 to 8) (size 9 to 14) (size 15 to 20)
#    0.000    2.375    0.000    3.375    0.000    7.750 
#    0.000    6.250    0.000    0.375    0.000    2.625 
#    0.000    0.000    0.000    0.000    0.000    0.000 
#
# Total GULP energy -357145.109185 kJ/mol
# GULP energy per Si atom -5580.392331 kJ/mol
# Density = 1.959959 g / cm^3
# Si number density = 19.644300 Si / 1000 Ang^3
#
#
#
# Elastic Constant Matrix: (Units=GPa)
#
#
# Indices 1 2 3 4 5 6 
#
# 1 124.0668 22.7474 66.1811 0.0000 0.0000 0.0000
# 2 22.7474 19.2736 15.2419 0.0000 0.0000 0.0000
# 3 66.1811 15.2419 65.0887 0.0000 0.0000 0.0000
# 4 0.0000 0.0000 0.0000 24.1357 0.0000 0.0000
# 5 0.0000 0.0000 0.0000 0.0000 30.9950 0.0000
# 6 0.0000 0.0000 0.0000 0.0000 0.0000 10.6498
#
#
#
# Elastic Compliance Matrix: (Units=1/GPa)
#
#
# Indices 1 2 3 4 5 6 
#
# 1 0.018717 -0.008640 -0.017008 0.000000 0.000000 0.000000
# 2 -0.008640 0.067665 -0.007060 0.000000 0.000000 0.000000
# 3 -0.017008 -0.007060 0.034310 0.000000 0.000000 0.000000
# 4 0.000000 0.000000 0.000000 0.041432 0.000000 0.000000
# 5 0.000000 0.000000 0.000000 0.000000 0.032263 0.000000
# 6 0.000000 0.000000 0.000000 0.000000 0.000000 0.093898
#
#
# Mechanical properties :
#
#
# Convention : Reuss Voigt Hill
#
# Bulk Modulus (GPa) = 18.09101 46.30775 32.19938
# Shear Modulus (GPa) = 13.43630 20.10668 16.77149
#
# Velocity S-wave (km/s) = 2.61814 3.20275 2.92508
# Velocity P-wave (km/s) = 4.28588 6.10746 5.27588
#
# Compressibility (1/GPa) = 0.05527609
#
# Stress axis : x y z
#
# Youngs Moduli (GPa) = 53.42829 14.77871 29.14613
#
# Poissons Ratio (x) = 0.12769 0.49570
# Poissons Ratio (y) = 0.46163 0.20577
# Poissons Ratio (z) = 0.90868 0.10434
#
# Static dielectric constant tensor:
#      x y z
#    x 1.720130 0.000000 0.000000 
#    y 0.000000 1.724620 0.000000 
#    z 0.000000 0.000000 1.653590 
# 
# From -- ./inp_files/12680.got.cif
#   From: 2010.05.17/outbox.cif.g08.bks.cpg/sg47_7_cif.got.tgz:12680.got - 2010.06.03 20:15:42.
