data_PCOD9387443
_publ_section_title
;
Structure prediction by ZEFSAII (Michael W. Deem and Ramdas Pophale) SiO2 
 PCOD9387443
Probable space group: P M M M
;
_chemical_formula_sum "Si O2"
_cell_formula_units_Z 40
_cell_length_a 7.756287
_cell_length_b 15.498772
_cell_length_c 14.085669
_cell_angle_alpha 90.000000
_cell_angle_beta 90.000000
_cell_angle_gamma 90.000000
_cell_volume 1693.279454
_symmetry_space_group_name_H-M "P M M M"
_symmetry_group_IT_number 47
_symmetry_cell_setting 'orthorhombic'
loop_
_space_group_symop_operation_xyz
x,y,z
-x,-y,z
x,-y,-z
-x,y,-z
-x,-y,-z
x,y,-z
-x,y,z
x,-y,z
loop_
_atom_site_type_symbol
_atom_site_label
_atom_site_fract_x
_atom_site_fract_y
_atom_site_fract_z
Si Si1 0.708034 0.598495 0.783542
Si Si2 0.702893 0.290783 0.396817
Si Si3 0.799206 0.904918 0.368014
Si Si4 0.189285 0.770329 0.000000
Si Si5 0.294044 0.095148 0.150513
Si Si6 0.740074 0.402137 0.000000
O O1 0.500000 0.612050 0.801391
O O2 0.727144 0.500000 0.747943
O O3 0.768101 0.664868 0.701078
O O4 0.798747 0.601531 0.887285
O O5 0.775004 0.319906 0.500000
O O6 0.500000 0.311910 0.396661
O O7 0.719576 0.186633 0.396237
O O8 0.780255 0.904538 0.255046
O O9 0.000000 0.902765 0.394029
O O10 0.729029 0.000000 0.397548
O O11 0.211667 0.830839 0.910565
O O12 0.326615 0.695100 0.000000
O O13 0.000000 0.728997 0.000000
O O14 0.500000 0.107835 0.154827
O O15 0.262837 0.000000 0.109338
O O16 0.671582 0.500000 0.000000
#
# Coordination Sequence:
#
# PCOD9387443 Si02
#       6
#     8   8   8   4   8   4
#     4   9  18  34  57  85 115 146 186 239 295 349
#     4  10  21  36  56  84 117 154 195 238 287 347
#     4  10  21  37  57  81 111 149 192 239 291 345
#     4  12  24  35  53  81 114 155 199 244 293 344
#     4  10  21  37  57  82 114 152 193 239 293 352
#     4  10  21  36  55  81 113 151 195 241 292 348
#
# _framework density 23.622799000000001
#
# number of rings (size 3 to 8) (size 9 to 14) (size 15 to 20)
#    0.000    2.000    0.000    3.300    0.000    9.400 
#    0.000    4.000    0.000    1.800    0.000    1.400 
#    0.000    0.000    0.000    0.000    0.000    0.000 
#
# Total GULP energy -222700.368029 kJ/mol
# GULP energy per Si atom -5567.509201 kJ/mol
# Density = 2.356903 g / cm^3
# Si number density = 23.622799 Si / 1000 Ang^3
#
#
#
# Elastic Constant Matrix: (Units=GPa)
#
#
# Indices 1 2 3 4 5 6 
#
# 1 65.2776 27.3208 15.8201 0.0000 0.0000 0.0000
# 2 27.3208 145.1683 86.9776 0.0000 0.0000 0.0000
# 3 15.8201 86.9776 211.7443 0.0000 0.0000 0.0000
# 4 0.0000 0.0000 0.0000 57.0372 0.0000 0.0000
# 5 0.0000 0.0000 0.0000 0.0000 -6.7599 0.0000
# 6 0.0000 0.0000 0.0000 0.0000 0.0000 -4.9946
#
#
#
# Elastic Compliance Matrix: (Units=1/GPa)
#
#
# Indices 1 2 3 4 5 6 
#
# 1 0.016630 -0.003164 0.000057 0.000000 0.000000 0.000000
# 2 -0.003164 0.009739 -0.003764 0.000000 0.000000 0.000000
# 3 0.000057 -0.003764 0.006265 0.000000 0.000000 0.000000
# 4 0.000000 0.000000 0.000000 0.017532 0.000000 0.000000
# 5 0.000000 0.000000 0.000000 0.000000 -0.147931 0.000000
# 6 0.000000 0.000000 0.000000 0.000000 0.000000 -0.200216
#
#
# Mechanical properties :
#
#
# Convention : Reuss Voigt Hill
#
# Bulk Modulus (GPa) = 52.93368 75.82524 64.37946
# Shear Modulus (GPa) = -17.98938 28.52798 5.26930
#
# Velocity S-wave (km/s) = -2.76257 3.47889 1.49514
# Velocity P-wave (km/s) = 3.50440 6.95017 5.50389
#
# Compressibility (1/GPa) = 0.01889157
#
# Stress axis : x y z
#
# Youngs Moduli (GPa) = 60.13393 102.67629 159.62658
#
# Poissons Ratio (x) = 0.32486 -0.00913
# Poissons Ratio (y) = 0.19026 0.60087
# Poissons Ratio (z) = -0.00344 0.38650
#
# Static dielectric constant tensor:
#      x y z
#    x 1.021790 0.000000 0.000000 
#    y 0.000000 1.862080 0.000000 
#    z 0.000000 0.000000 1.903730 
# 
# From -- ./inp_files/20726.got.cif
#   From: 2010.05.17/outbox.cif.g08.bks.cpg/sg47_11_cif.got.tgz:20726.got - 2010.06.03 20:15:42.
