data_PCOD9387566
_publ_section_title
;
Structure prediction by ZEFSAII (Michael W. Deem and Ramdas Pophale) SiO2 
 PCOD9387566
Probable space group: P M M M
;
_chemical_formula_sum "Si O2"
_cell_formula_units_Z 40
_cell_length_a 8.458330
_cell_length_b 7.783529
_cell_length_c 28.468679
_cell_angle_alpha 90.000000
_cell_angle_beta 90.000000
_cell_angle_gamma 90.000000
_cell_volume 1874.254182
_symmetry_space_group_name_H-M "P M M M"
_symmetry_group_IT_number 47
_symmetry_cell_setting 'orthorhombic'
loop_
_space_group_symop_operation_xyz
x,y,z
-x,-y,z
x,-y,-z
-x,y,-z
-x,-y,-z
x,y,-z
-x,y,z
x,-y,z
loop_
_atom_site_type_symbol
_atom_site_label
_atom_site_fract_x
_atom_site_fract_y
_atom_site_fract_z
Si Si1 0.176448 0.796274 0.599278
Si Si2 0.176406 0.709806 0.106420
Si Si3 0.679185 0.290212 0.203177
Si Si4 0.819175 0.705417 0.699072
Si Si5 0.325847 0.295632 0.500000
Si Si6 0.500000 0.709609 0.054605
O O1 0.256346 0.740404 0.648079
O O2 0.246708 0.753684 0.548914
O O3 0.000000 0.719073 0.600182
O O4 0.166826 0.000000 0.601793
O O5 0.175939 0.500000 0.104141
O O6 0.206414 0.759694 0.160710
O O7 0.334369 0.766158 0.078478
O O8 0.000000 0.765856 0.090956
O O9 0.500000 0.236791 0.192612
O O10 0.679612 0.500000 0.203899
O O11 0.731119 0.229721 0.254669
O O12 0.827273 0.500000 0.703597
O O13 0.000000 0.772939 0.698854
O O14 0.333770 0.500000 0.500000
O O15 0.500000 0.218796 0.500000
O O16 0.500000 0.500000 0.057993
O O17 0.500000 0.756739 0.000000
#
# Coordination Sequence:
#
# PCOD9387566 Si02
#       6
#     8   8   8   8   4   4
#     4  10  21  37  56  77 102 133 167 202 247 304
#     4   9  15  23  35  50  72 105 146 193 245 296
#     4   9  15  24  39  59  83 110 144 191 243 291
#     4   9  17  29  46  69  94 120 155 199 244 292
#     4  11  24  39  56  78 102 129 166 211 254 296
#     4   9  16  24  32  46  72 106 149 198 243 292
#
# _framework density 21.341819999999998
#
# number of rings (size 3 to 8) (size 9 to 14) (size 15 to 20)
#    0.000    2.600    1.000    1.800    0.000    6.800 
#    0.000    4.000    0.000    0.000    0.000    0.000 
#    0.000    0.000    0.000    0.000    0.000    2.000 
#
# Total GULP energy -223012.913622 kJ/mol
# GULP energy per Si atom -5575.322841 kJ/mol
# Density = 2.129325 g / cm^3
# Si number density = 21.341820 Si / 1000 Ang^3
#
#
#
# Elastic Constant Matrix: (Units=GPa)
#
#
# Indices 1 2 3 4 5 6 
#
# 1 135.4194 1.2566 81.2776 0.0000 0.0000 0.0000
# 2 1.2566 30.7609 2.5672 0.0000 0.0000 0.0000
# 3 81.2776 2.5672 164.7477 0.0000 0.0000 0.0000
# 4 0.0000 0.0000 0.0000 -56.8432 0.0000 0.0000
# 5 0.0000 0.0000 0.0000 0.0000 35.0856 0.0000
# 6 0.0000 0.0000 0.0000 0.0000 0.0000 4.2229
#
#
#
# Elastic Compliance Matrix: (Units=1/GPa)
#
#
# Indices 1 2 3 4 5 6 
#
# 1 0.010491 0.000003 -0.005176 0.000000 0.000000 0.000000
# 2 0.000003 0.032551 -0.000509 0.000000 0.000000 0.000000
# 3 -0.005176 -0.000509 0.008631 0.000000 0.000000 0.000000
# 4 0.000000 0.000000 0.000000 -0.017592 0.000000 0.000000
# 5 0.000000 0.000000 0.000000 0.000000 0.028502 0.000000
# 6 0.000000 0.000000 0.000000 0.000000 0.000000 0.236805
#
#
# Mechanical properties :
#
#
# Convention : Reuss Voigt Hill
#
# Bulk Modulus (GPa) = 24.80723 55.68120 40.24422
# Shear Modulus (GPa) = 15.42321 12.88150 14.15235
#
# Velocity S-wave (km/s) = 2.69118 2.45945 2.57792
# Velocity P-wave (km/s) = 4.61580 5.84910 5.26866
#
# Compressibility (1/GPa) = 0.04031083
#
# Stress axis : x y z
#
# Youngs Moduli (GPa) = 95.32142 30.72087 115.85872
#
# Poissons Ratio (x) = -0.00010 0.59964
# Poissons Ratio (y) = -0.00032 0.05896
# Poissons Ratio (z) = 0.49335 0.01563
#
# Static dielectric constant tensor:
#      x y z
#    x 1.801720 0.000000 0.000000 
#    y 0.000000 1.771740 0.000000 
#    z 0.000000 0.000000 1.924310 
# 
# From -- ./inp_files/1843.got.cif
#   From: 2010.05.17/outbox.cif.g08.bks.cpg/sg47_1_cif.got.tgz:1843.got - 2010.06.03 20:15:42.
