data_PCOD9387594
_publ_section_title
;
Structure prediction by ZEFSAII (Michael W. Deem and Ramdas Pophale) SiO2 
 PCOD9387594
Probable space group: P M M M
;
_chemical_formula_sum "Si O2"
_cell_formula_units_Z 40
_cell_length_a 9.411798
_cell_length_b 7.762047
_cell_length_c 28.598680
_cell_angle_alpha 90.000000
_cell_angle_beta 90.000000
_cell_angle_gamma 90.000000
_cell_volume 2089.271375
_symmetry_space_group_name_H-M "P M M M"
_symmetry_group_IT_number 47
_symmetry_cell_setting 'orthorhombic'
loop_
_space_group_symop_operation_xyz
x,y,z
-x,-y,z
x,-y,-z
-x,y,-z
-x,-y,-z
x,y,-z
-x,y,z
x,-y,z
loop_
_atom_site_type_symbol
_atom_site_label
_atom_site_fract_x
_atom_site_fract_y
_atom_site_fract_z
Si Si1 0.160670 0.793130 0.908076
Si Si2 0.172866 0.000000 0.446640
Si Si3 0.338788 0.294490 0.000000
Si Si4 0.829354 0.701835 0.375996
Si Si5 0.337777 0.793618 0.819980
Si Si6 0.337523 0.292893 0.283606
O O1 0.239960 0.726217 0.861720
O O2 0.000000 0.726209 0.912779
O O3 0.151418 0.000000 0.903497
O O4 0.253587 0.758381 0.953829
O O5 0.214435 0.170176 0.417571
O O6 0.223948 0.000000 0.500000
O O7 0.000000 0.000000 0.448068
O O8 0.346851 0.500000 0.000000
O O9 0.500000 0.224803 0.000000
O O10 0.793643 0.500000 0.384763
O O11 0.756346 0.760150 0.327697
O O12 0.000000 0.711851 0.371006
O O13 0.500000 0.726055 0.823305
O O14 0.283570 0.757769 0.767711
O O15 0.345390 0.000000 0.825072
O O16 0.500000 0.228159 0.287848
O O17 0.341586 0.500000 0.284605
#
# Coordination Sequence:
#
# PCOD9387594 Si02
#       6
#     8   4   4   8   8   8
#     4  10  21  37  56  79 106 136 171 212 261 314
#     4   9  18  32  51  77 105 135 175 220 265 312
#     4  11  24  39  56  78 102 133 174 217 262 312
#     4   9  18  32  50  74 103 135 173 217 265 316
#     4   9  18  32  50  73 101 134 171 209 251 303
#     4   9  18  32  50  73 102 137 173 210 256 307
#
# _framework density 19.145430999999999
#
# number of rings (size 3 to 8) (size 9 to 14) (size 15 to 20)
#    0.000    2.600    0.000    1.200    1.400    5.200 
#    0.000    4.000    0.000    1.200    0.000    2.800 
#    0.000    0.000    0.000    0.000    0.000    0.000 
#
# Total GULP energy -223130.510724 kJ/mol
# GULP energy per Si atom -5578.262768 kJ/mol
# Density = 1.910186 g / cm^3
# Si number density = 19.145431 Si / 1000 Ang^3
#
#
#
# Elastic Constant Matrix: (Units=GPa)
#
#
# Indices 1 2 3 4 5 6 
#
# 1 83.3931 26.5075 86.7094 0.0000 0.0000 0.0000
# 2 26.5075 50.0205 44.4275 0.0000 0.0000 0.0000
# 3 86.7094 44.4275 213.9479 0.0000 0.0000 0.0000
# 4 0.0000 0.0000 0.0000 59.8680 0.0000 0.0000
# 5 0.0000 0.0000 0.0000 0.0000 50.4697 0.0000
# 6 0.0000 0.0000 0.0000 0.0000 0.0000 12.5245
#
#
#
# Elastic Compliance Matrix: (Units=1/GPa)
#
#
# Indices 1 2 3 4 5 6 
#
# 1 0.021515 -0.004484 -0.007789 0.000000 0.000000 0.000000
# 2 -0.004484 0.025447 -0.003467 0.000000 0.000000 0.000000
# 3 -0.007789 -0.003467 0.008551 0.000000 0.000000 0.000000
# 4 0.000000 0.000000 0.000000 0.016703 0.000000 0.000000
# 5 0.000000 0.000000 0.000000 0.000000 0.019814 0.000000
# 6 0.000000 0.000000 0.000000 0.000000 0.000000 0.079844
#
#
# Mechanical properties :
#
#
# Convention : Reuss Voigt Hill
#
# Bulk Modulus (GPa) = 41.60780 73.62783 57.61781
# Shear Modulus (GPa) = 23.65591 37.22025 30.43808
#
# Velocity S-wave (km/s) = 3.51891 4.41396 3.99160
# Velocity P-wave (km/s) = 6.18789 8.03231 7.16966
#
# Compressibility (1/GPa) = 0.02403396
#
# Stress axis : x y z
#
# Youngs Moduli (GPa) = 46.47949 39.29692 116.95155
#
# Poissons Ratio (x) = 0.17620 0.91088
# Poissons Ratio (y) = 0.20840 0.40548
# Poissons Ratio (z) = 0.36201 0.13625
#
# Static dielectric constant tensor:
#      x y z
#    x 1.672150 0.000000 0.000000 
#    y 0.000000 1.692490 0.000000 
#    z 0.000000 0.000000 1.641730 
# 
# From -- ./inp_files/1876.got.cif
#   From: 2010.05.17/outbox.cif.g08.bks.cpg/sg47_1_cif.got.tgz:1876.got - 2010.06.03 20:15:42.
