data_PCOD9387892
_publ_section_title
;
Structure prediction by ZEFSAII (Michael W. Deem and Ramdas Pophale) SiO2 
 PCOD9387892
Probable space group: P M M M
;
_chemical_formula_sum "Si O2"
_cell_formula_units_Z 48
_cell_length_a 16.837958
_cell_length_b 8.866964
_cell_length_c 17.492613
_cell_angle_alpha 90.000000
_cell_angle_beta 90.000000
_cell_angle_gamma 90.000000
_cell_volume 2611.674539
_symmetry_space_group_name_H-M "P M M M"
_symmetry_group_IT_number 47
_symmetry_cell_setting 'orthorhombic'
loop_
_space_group_symop_operation_xyz
x,y,z
-x,-y,z
x,-y,-z
-x,y,-z
-x,-y,-z
x,y,-z
-x,y,z
x,-y,z
loop_
_atom_site_type_symbol
_atom_site_label
_atom_site_fract_x
_atom_site_fract_y
_atom_site_fract_z
Si Si1 0.824668 0.819171 0.156450
Si Si2 0.091603 0.183823 0.000000
Si Si3 0.856322 0.679636 0.317081
Si Si4 0.327567 0.680524 0.650655
Si Si5 0.405867 0.180148 0.500000
Si Si6 0.500000 0.319216 0.910561
Si Si7 0.359340 0.820079 0.812369
Si Si8 0.000000 0.819425 0.588908
O O1 0.861558 0.740167 0.230529
O O2 0.730256 0.789676 0.158403
O O3 0.835555 0.000000 0.163973
O O4 0.863929 0.768645 0.077252
O O5 0.000000 0.231757 0.000000
O O6 0.092756 0.000000 0.000000
O O7 0.866324 0.500000 0.318084
O O8 0.766864 0.714672 0.345693
O O9 0.922409 0.755740 0.369240
O O10 0.337056 0.500000 0.651609
O O11 0.366418 0.749462 0.575356
O O12 0.364749 0.750867 0.727477
O O13 0.500000 0.211253 0.500000
O O14 0.394457 0.000000 0.500000
O O15 0.500000 0.500000 0.904438
O O16 0.576676 0.252832 0.868069
O O17 0.500000 0.278015 0.000000
O O18 0.370556 0.000000 0.808733
O O19 0.000000 0.775055 0.500000
O O20 0.000000 0.000000 0.593790
#
# Coordination Sequence:
#
# PCOD9387892 Si02
#       8
#     8   4   8   8   4   4   8   4
#     4   9  19  36  60  88 118 156 198 240 291 351
#     4   9  18  32  55  88 121 152 193 240 286 338
#     4  10  22  40  62  88 120 157 196 242 298 354
#     4  10  22  41  64  89 121 160 199 241 300 362
#     4  11  25  41  61  90 123 156 201 251 293 344
#     4  11  25  41  59  86 119 156 201 249 305 363
#     4  10  21  38  62  88 118 155 199 248 298 352
#     4  11  25  41  61  90 119 154 199 245 296 351
#
# _framework density 18.379013
#
# number of rings (size 3 to 8) (size 9 to 14) (size 15 to 20)
#    0.000    2.000    0.000    2.250    4.667    4.667 
#    0.000    0.417    0.000    0.500    0.000    0.000 
#    0.000    0.000    0.000    0.000    0.000    0.000 
#
# Total GULP energy -268210.621716 kJ/mol
# GULP energy per Si atom -5587.721286 kJ/mol
# Density = 1.833718 g / cm^3
# Si number density = 18.379013 Si / 1000 Ang^3
#
#
#
# Elastic Constant Matrix: (Units=GPa)
#
#
# Indices 1 2 3 4 5 6 
#
# 1 106.3197 65.6639 125.8060 0.0000 0.0000 0.0000
# 2 65.6639 60.5332 81.9557 0.0000 0.0000 0.0000
# 3 125.8060 81.9557 225.3059 0.0000 0.0000 0.0000
# 4 0.0000 0.0000 0.0000 27.1068 0.0000 0.0000
# 5 0.0000 0.0000 0.0000 0.0000 31.0387 0.0000
# 6 0.0000 0.0000 0.0000 0.0000 0.0000 27.8325
#
#
#
# Elastic Compliance Matrix: (Units=1/GPa)
#
#
# Indices 1 2 3 4 5 6 
#
# 1 0.043141 -0.027947 -0.013923 0.000000 0.000000 0.000000
# 2 -0.027947 0.050654 -0.002821 0.000000 0.000000 0.000000
# 3 -0.013923 -0.002821 0.013239 0.000000 0.000000 0.000000
# 4 0.000000 0.000000 0.000000 0.036891 0.000000 0.000000
# 5 0.000000 0.000000 0.000000 0.000000 0.032218 0.000000
# 6 0.000000 0.000000 0.000000 0.000000 0.000000 0.035929
#
#
# Mechanical properties :
#
#
# Convention : Reuss Voigt Hill
#
# Bulk Modulus (GPa) = 56.64894 104.33444 80.49169
# Shear Modulus (GPa) = 16.26873 25.11114 20.68994
#
# Velocity S-wave (km/s) = 2.97842 3.70035 3.35884
# Velocity P-wave (km/s) = 6.53587 8.66881 7.67678
#
# Compressibility (1/GPa) = 0.01765258
#
# Stress axis : x y z
#
# Youngs Moduli (GPa) = 23.17993 19.74161 75.53508
#
# Poissons Ratio (x) = 0.55171 1.05169
# Poissons Ratio (y) = 0.64780 0.21307
# Poissons Ratio (z) = 0.32274 0.05569
#
# Static dielectric constant tensor:
#      x y z
#    x 1.617290 0.000000 0.000000 
#    y 0.000000 1.609750 0.000000 
#    z 0.000000 0.000000 1.595060 
# 
# From -- ./inp_files/24525.got.cif
#   From: 2010.05.17/outbox.cif.g08.bks.cpg/sg47_13_cif.got.tgz:24525.got - 2010.06.03 20:15:42.
