data_PCOD9387715
_publ_section_title
;
Structure prediction by ZEFSAII (Michael W. Deem and Ramdas Pophale) SiO2 
 PCOD9387715
Probable space group: P M M M
;
_chemical_formula_sum "Si O2"
_cell_formula_units_Z 56
_cell_length_a 21.215945
_cell_length_b 9.155621
_cell_length_c 14.551590
_cell_angle_alpha 90.000000
_cell_angle_beta 90.000000
_cell_angle_gamma 90.000000
_cell_volume 2826.575805
_symmetry_space_group_name_H-M "P M M M"
_symmetry_group_IT_number 47
_symmetry_cell_setting 'orthorhombic'
loop_
_space_group_symop_operation_xyz
x,y,z
-x,-y,z
x,-y,-z
-x,y,-z
-x,-y,-z
x,y,-z
-x,y,z
x,-y,z
loop_
_atom_site_type_symbol
_atom_site_label
_atom_site_fract_x
_atom_site_fract_y
_atom_site_fract_z
Si Si1 0.198067 0.838793 0.607035
Si Si2 0.385510 0.827131 0.782193
Si Si3 0.674861 0.674551 0.609747
Si Si4 0.745297 0.828865 0.109124
Si Si5 0.926946 0.332950 0.353512
Si Si6 0.500000 0.323905 0.890261
Si Si7 0.930809 0.172028 0.000000
Si Si8 0.863514 0.664630 0.157857
O O1 0.210784 0.857763 0.500000
O O2 0.254568 0.731205 0.634802
O O3 0.128096 0.771734 0.611059
O O4 0.201377 0.000000 0.652165
O O5 0.370536 0.755720 0.682506
O O6 0.322955 0.814881 0.845231
O O7 0.440156 0.744372 0.837546
O O8 0.399602 0.000000 0.771520
O O9 0.662961 0.704683 0.500000
O O10 0.671405 0.500000 0.621566
O O11 0.793814 0.729875 0.166436
O O12 0.763736 0.000000 0.113769
O O13 0.745588 0.788521 0.000000
O O14 0.920345 0.500000 0.388692
O O15 0.907705 0.337975 0.246655
O O16 0.000000 0.288728 0.367352
O O17 0.500000 0.500000 0.882685
O O18 0.500000 0.287813 0.000000
O O19 0.894902 0.227310 0.087441
O O20 0.000000 0.238112 0.000000
O O21 0.934164 0.000000 0.000000
O O22 0.859314 0.500000 0.122223
#
# Coordination Sequence:
#
# PCOD9387715 Si02
#       8
#     8   8   8   8   8   4   4   8
#     4  10  21  37  58  85 116 150 192 245 303 362
#     4  11  23  40  66  97 129 169 211 256 308 361
#     4  10  21  39  64  94 128 165 205 253 309 369
#     4  10  21  37  57  84 119 155 194 244 302 363
#     4  10  22  38  54  75 106 146 192 243 302 368
#     4  11  25  45  68  97 136 181 221 258 300 355
#     4  11  23  37  53  73 101 140 183 228 285 351
#     4  11  22  36  55  79 106 140 185 238 292 347
#
# _framework density 19.811955999999999
#
# number of rings (size 3 to 8) (size 9 to 14) (size 15 to 20)
#    0.000    1.571    0.714    3.857    0.000    9.143 
#    0.000    1.786    0.000    2.143    0.000    0.000 
#    0.000    0.000    0.000    0.000    0.000    0.000 
#
# Total GULP energy -312466.479976 kJ/mol
# GULP energy per Si atom -5579.758571 kJ/mol
# Density = 1.976686 g / cm^3
# Si number density = 19.811956 Si / 1000 Ang^3
#
#
#
# Elastic Constant Matrix: (Units=GPa)
#
#
# Indices 1 2 3 4 5 6 
#
# 1 116.9947 61.5817 42.6100 0.0000 0.0000 0.0000
# 2 61.5817 113.2996 49.2987 0.0000 0.0000 0.0000
# 3 42.6100 49.2987 114.9888 0.0000 0.0000 0.0000
# 4 0.0000 0.0000 0.0000 32.8861 0.0000 0.0000
# 5 0.0000 0.0000 0.0000 0.0000 -30.2265 0.0000
# 6 0.0000 0.0000 0.0000 0.0000 0.0000 26.2371
#
#
#
# Elastic Compliance Matrix: (Units=1/GPa)
#
#
# Indices 1 2 3 4 5 6 
#
# 1 0.012369 -0.005813 -0.002091 0.000000 0.000000 0.000000
# 2 -0.005813 0.013582 -0.003669 0.000000 0.000000 0.000000
# 3 -0.002091 -0.003669 0.011044 0.000000 0.000000 0.000000
# 4 0.000000 0.000000 0.000000 0.030408 0.000000 0.000000
# 5 0.000000 0.000000 0.000000 0.000000 -0.033084 0.000000
# 6 0.000000 0.000000 0.000000 0.000000 0.000000 0.038114
#
#
# Mechanical properties :
#
#
# Convention : Reuss Voigt Hill
#
# Bulk Modulus (GPa) = 72.20687 72.47374 72.34030
# Shear Modulus (GPa) = 49.90222 18.56552 34.23387
#
# Velocity S-wave (km/s) = 5.02420 3.06451 4.16136
# Velocity P-wave (km/s) = 8.37747 7.01298 7.72541
#
# Compressibility (1/GPa) = 0.01384910
#
# Stress axis : x y z
#
# Youngs Moduli (GPa) = 80.84935 73.62663 90.54360
#
# Poissons Ratio (x) = 0.42798 0.18935
# Poissons Ratio (y) = 0.46996 0.33220
# Poissons Ratio (z) = 0.16907 0.27013
#
# Static dielectric constant tensor:
#      x y z
#    x 1.684960 0.000000 0.000000 
#    y 0.000000 1.700350 0.000000 
#    z 0.000000 0.000000 0.543930 
# 
# From -- ./inp_files/25194.got.cif
#   From: 2010.05.17/outbox.cif.g08.bks.cpg/sg47_13_cif.got.tgz:25194.got - 2010.06.03 20:15:42.
