data_PCOD9387405
_publ_section_title
;
Structure prediction by ZEFSAII (Michael W. Deem and Ramdas Pophale) SiO2 
 PCOD9387405
Probable space group: P M M M
;
_chemical_formula_sum "Si O2"
_cell_formula_units_Z 52
_cell_length_a 11.982781
_cell_length_b 9.007199
_cell_length_c 29.089041
_cell_angle_alpha 90.000000
_cell_angle_beta 90.000000
_cell_angle_gamma 90.000000
_cell_volume 3139.617808
_symmetry_space_group_name_H-M "P M M M"
_symmetry_group_IT_number 47
_symmetry_cell_setting 'orthorhombic'
loop_
_space_group_symop_operation_xyz
x,y,z
-x,-y,z
x,-y,-z
-x,y,-z
-x,-y,-z
x,y,-z
-x,y,z
x,-y,z
loop_
_atom_site_type_symbol
_atom_site_label
_atom_site_fract_x
_atom_site_fract_y
_atom_site_fract_z
Si Si1 0.629508 0.821867 0.811367
Si Si2 0.369019 0.322983 0.360402
Si Si3 0.770826 0.178134 0.721163
Si Si4 0.363935 0.171274 0.000000
Si Si5 0.635774 0.670920 0.906339
Si Si6 0.000000 0.823222 0.592282
Si Si7 0.000000 0.321957 0.693533
Si Si8 0.781374 0.676058 0.552465
O O1 0.500000 0.777105 0.803142
O O2 0.705140 0.782929 0.767853
O O3 0.668853 0.750556 0.859131
O O4 0.630620 0.000000 0.816338
O O5 0.500000 0.288162 0.359920
O O6 0.355939 0.500000 0.351317
O O7 0.302977 0.232460 0.321847
O O8 0.313679 0.293320 0.409940
O O9 0.889211 0.259227 0.717516
O O10 0.785336 0.000000 0.719217
O O11 0.326473 0.250101 0.046864
O O12 0.500000 0.176546 0.000000
O O13 0.331073 0.000000 0.000000
O O14 0.500000 0.675800 0.906970
O O15 0.669966 0.500000 0.906177
O O16 0.000000 0.742305 0.641667
O O17 0.890297 0.769599 0.565449
O O18 0.000000 0.000000 0.598575
O O19 0.000000 0.500000 0.692198
O O20 0.746787 0.704770 0.500000
O O21 0.809250 0.500000 0.556129
#
# Coordination Sequence:
#
# PCOD9387405 Si02
#       8
#     8   8   8   4   8   4   4   8
#     4   9  18  32  49  71 102 138 172 206 250 304
#     4  10  21  36  55  79 107 141 176 208 247 301
#     4  11  22  37  57  80 104 134 171 213 260 309
#     4   9  15  23  37  57  87 130 175 216 259 305
#     4   9  16  25  39  62  93 130 173 217 256 296
#     4  12  23  37  58  83 106 132 167 211 259 308
#     4  12  24  39  59  80 104 132 165 210 261 314
#     4  10  21  37  57  80 108 141 173 208 252 303
#
# _framework density 16.562525000000001
#
# number of rings (size 3 to 8) (size 9 to 14) (size 15 to 20)
#    0.000    1.923    1.538    3.231    0.000    6.462 
#    0.000    3.077    0.000    0.000    0.000    2.154 
#    0.000    0.615    0.000    6.462    0.000    4.923 
#
# Total GULP energy -290229.769007 kJ/mol
# GULP energy per Si atom -5581.341712 kJ/mol
# Density = 1.652483 g / cm^3
# Si number density = 16.562525 Si / 1000 Ang^3
#
#
#
# Elastic Constant Matrix: (Units=GPa)
#
#
# Indices 1 2 3 4 5 6 
#
# 1 89.6278 51.7025 61.9394 0.0000 0.0000 0.0000
# 2 51.7025 80.4111 78.4653 0.0000 0.0000 0.0000
# 3 61.9394 78.4653 171.5703 0.0000 0.0000 0.0000
# 4 0.0000 0.0000 0.0000 31.1042 0.0000 0.0000
# 5 0.0000 0.0000 0.0000 0.0000 7.2830 0.0000
# 6 0.0000 0.0000 0.0000 0.0000 0.0000 17.3775
#
#
#
# Elastic Compliance Matrix: (Units=1/GPa)
#
#
# Indices 1 2 3 4 5 6 
#
# 1 0.018183 -0.009546 -0.002199 0.000000 0.000000 0.000000
# 2 -0.009546 0.027470 -0.009117 0.000000 0.000000 0.000000
# 3 -0.002199 -0.009117 0.010792 0.000000 0.000000 0.000000
# 4 0.000000 0.000000 0.000000 0.032150 0.000000 0.000000
# 5 0.000000 0.000000 0.000000 0.000000 0.137305 0.000000
# 6 0.000000 0.000000 0.000000 0.000000 0.000000 0.057546
#
#
# Mechanical properties :
#
#
# Convention : Reuss Voigt Hill
#
# Bulk Modulus (GPa) = 67.92474 80.64705 74.28589
# Shear Modulus (GPa) = 15.14799 21.11976 18.13387
#
# Velocity S-wave (km/s) = 3.02751 3.57480 3.31248
# Velocity P-wave (km/s) = 7.30214 8.11401 7.71875
#
# Compressibility (1/GPa) = 0.01472218
#
# Stress axis : x y z
#
# Youngs Moduli (GPa) = 54.99520 36.40316 92.66323
#
# Poissons Ratio (x) = 0.34750 0.20375
# Poissons Ratio (y) = 0.52498 0.84480
# Poissons Ratio (z) = 0.12092 0.33188
#
# Static dielectric constant tensor:
#      x y z
#    x 1.532470 0.000000 0.000000 
#    y 0.000000 1.558290 0.000000 
#    z 0.000000 0.000000 1.549090 
# 
# From -- ./inp_files/15500.got.cif
#   From: 2010.05.17/outbox.cif.g08.bks.cpg/sg47_8_cif.got.tgz:15500.got - 2010.06.03 20:15:42.
