data_PCOD9387101
_publ_section_title
;
Structure prediction by ZEFSAII (Michael W. Deem and Ramdas Pophale) SiO2 
 PCOD9387101
Probable space group: P M M M
;
_chemical_formula_sum "Si O2"
_cell_formula_units_Z 64
_cell_length_a 7.528370
_cell_length_b 9.883901
_cell_length_c 41.993761
_cell_angle_alpha 90.000000
_cell_angle_beta 90.000000
_cell_angle_gamma 90.000000
_cell_volume 3124.741637
_symmetry_space_group_name_H-M "P M M M"
_symmetry_group_IT_number 47
_symmetry_cell_setting 'orthorhombic'
loop_
_space_group_symop_operation_xyz
x,y,z
-x,-y,z
x,-y,-z
-x,y,-z
-x,-y,-z
x,y,-z
-x,y,z
x,-y,z
loop_
_atom_site_type_symbol
_atom_site_label
_atom_site_fract_x
_atom_site_fract_y
_atom_site_fract_z
Si Si1 0.712447 0.845993 0.350732
Si Si2 0.214065 0.151974 0.536303
Si Si3 0.716461 0.345971 0.036319
Si Si4 0.287675 0.345706 0.849105
Si Si5 0.289217 0.347580 0.406062
Si Si6 0.282352 0.844344 0.906312
Si Si7 0.786441 0.846201 0.721159
Si Si8 0.213402 0.653618 0.222937
O O1 0.500000 0.853938 0.354852
O O2 0.784004 0.744167 0.377294
O O3 0.745806 0.799057 0.314641
O O4 0.782403 0.000000 0.354025
O O5 0.274049 0.177514 0.500000
O O6 0.267125 0.264974 0.561340
O O7 0.000000 0.149193 0.535769
O O8 0.274314 0.000000 0.545701
O O9 0.500000 0.345338 0.036412
O O10 0.769968 0.500000 0.044653
O O11 0.774276 0.236936 0.062161
O O12 0.772401 0.317899 0.000000
O O13 0.500000 0.353482 0.853080
O O14 0.218341 0.500000 0.852746
O O15 0.222593 0.241688 0.875656
O O16 0.252776 0.300122 0.812974
O O17 0.500000 0.359063 0.400547
O O18 0.216711 0.500000 0.407499
O O19 0.500000 0.845410 0.906207
O O20 0.224795 0.000000 0.905787
O O21 0.718944 0.750298 0.749194
O O22 0.000000 0.851163 0.723860
O O23 0.718991 0.000000 0.724172
O O24 0.281349 0.500000 0.226061
O O25 0.000000 0.648460 0.225830
#
# Coordination Sequence:
#
# PCOD9387101 Si02
#       8
#     8   8   8   8   8   8   8   8
#     4   9  18  33  51  70  95 128 163 197 234 278
#     4   9  19  36  56  77 101 131 169 210 249 291
#     4   8  13  21  33  49  72 106 144 176 210 257
#     4   9  17  29  44  61  83 113 146 177 213 260
#     4  10  21  35  51  75 106 136 166 202 245 291
#     4   9  16  24  35  54  80 108 139 178 220 257
#     4   9  18  32  49  69  92 118 149 186 229 275
#     4   9  18  32  48  66  89 116 146 182 223 266
#
# _framework density 20.481693
#
# number of rings (size 3 to 8) (size 9 to 14) (size 15 to 20)
#    0.000    3.000    0.000    1.500    0.000    5.250 
#    0.000    4.375    0.000    0.000    0.000    0.000 
#    0.000    0.500    0.000    5.750    0.000    7.375 
#
# Total GULP energy -357109.107239 kJ/mol
# GULP energy per Si atom -5579.829801 kJ/mol
# Density = 2.043508 g / cm^3
# Si number density = 20.481693 Si / 1000 Ang^3
#
#
#
# Elastic Constant Matrix: (Units=GPa)
#
#
# Indices 1 2 3 4 5 6 
#
# 1 51.1553 5.6301 -1.9044 0.0000 0.0000 0.0000
# 2 5.6301 159.8323 141.6974 0.0000 0.0000 0.0000
# 3 -1.9044 141.6974 181.8518 0.0000 0.0000 0.0000
# 4 0.0000 0.0000 0.0000 31.1300 0.0000 0.0000
# 5 0.0000 0.0000 0.0000 0.0000 17.3597 0.0000
# 6 0.0000 0.0000 0.0000 0.0000 0.0000 0.0064
#
#
#
# Elastic Compliance Matrix: (Units=1/GPa)
#
#
# Indices 1 2 3 4 5 6 
#
# 1 0.019956 -0.002872 0.002447 0.000000 0.000000 0.000000
# 2 -0.002872 0.020647 -0.016118 0.000000 0.000000 0.000000
# 3 0.002447 -0.016118 0.018084 0.000000 0.000000 0.000000
# 4 0.000000 0.000000 0.000000 0.032123 0.000000 0.000000
# 5 0.000000 0.000000 0.000000 0.000000 0.057605 0.000000
# 6 0.000000 0.000000 0.000000 0.000000 0.000000155.284551
#
#
# Mechanical properties :
#
#
# Convention : Reuss Voigt Hill
#
# Bulk Modulus (GPa) = 39.06318 75.96507 57.51413
# Shear Modulus (GPa) = 0.03216 26.19365 13.11290
#
# Velocity S-wave (km/s) = 0.12544 3.58002 2.53301
# Velocity P-wave (km/s) = 4.37431 7.36604 6.05777
#
# Compressibility (1/GPa) = 0.02559955
#
# Stress axis : x y z
#
# Youngs Moduli (GPa) = 50.11137 48.43319 55.29855
#
# Poissons Ratio (x) = 0.13912 -0.13532
# Poissons Ratio (y) = 0.14394 0.89130
# Poissons Ratio (z) = -0.12263 0.78065
#
# Static dielectric constant tensor:
#      x y z
#    x 1.936140 0.000000 0.000000 
#    y 0.000000 1.719100 0.000000 
#    z 0.000000 0.000000 1.699170 
# 
# From -- ./inp_files/34594.got.cif
#   From: 2010.05.17/outbox.cif.g08.bks.cpg/sg47_18_cif.got.tgz:34594.got - 2010.06.03 20:15:42.
