data_PCOD9387269
_publ_section_title
;
Structure prediction by ZEFSAII (Michael W. Deem and Ramdas Pophale) SiO2 
 PCOD9387269
Probable space group: P M M M
;
_chemical_formula_sum "Si O2"
_cell_formula_units_Z 48
_cell_length_a 9.580066
_cell_length_b 7.787657
_cell_length_c 31.971519
_cell_angle_alpha 90.000000
_cell_angle_beta 90.000000
_cell_angle_gamma 90.000000
_cell_volume 2385.275716
_symmetry_space_group_name_H-M "P M M M"
_symmetry_group_IT_number 47
_symmetry_cell_setting 'orthorhombic'
loop_
_space_group_symop_operation_xyz
x,y,z
-x,-y,z
x,-y,-z
-x,y,-z
-x,-y,-z
x,y,-z
-x,y,z
x,-y,z
loop_
_atom_site_type_symbol
_atom_site_label
_atom_site_fract_x
_atom_site_fract_y
_atom_site_fract_z
Si Si1 0.157584 0.795464 0.251575
Si Si2 0.341588 0.206258 0.671385
Si Si3 0.169780 0.301825 0.500000
Si Si4 0.659193 0.793283 0.921345
Si Si5 0.839730 0.292157 0.591074
Si Si6 0.160053 0.210640 0.000000
Si Si7 0.659103 0.704294 0.172650
O O1 0.250887 0.725531 0.289689
O O2 0.237661 0.769220 0.208136
O O3 0.000000 0.725256 0.251098
O O4 0.146906 0.000000 0.258065
O O5 0.500000 0.273087 0.671480
O O6 0.261276 0.242898 0.628457
O O7 0.349623 0.000000 0.675840
O O8 0.218752 0.500000 0.500000
O O9 0.207719 0.226444 0.454815
O O10 0.000000 0.305109 0.500000
O O11 0.500000 0.729555 0.926726
O O12 0.758424 0.732245 0.958453
O O13 0.704983 0.747811 0.874478
O O14 0.654958 0.000000 0.923989
O O15 0.843562 0.500000 0.588483
O O16 0.000000 0.234837 0.598965
O O17 0.000000 0.265801 0.000000
O O18 0.160866 0.000000 0.000000
O O19 0.500000 0.772578 0.178132
O O20 0.653098 0.500000 0.176351
#
# Coordination Sequence:
#
# PCOD9387269 Si02
#       7
#     8   8   4   8   8   4   8
#     4  10  21  37  57  78  99 129 170 212 254 302
#     4  10  21  36  53  74 102 135 169 207 253 303
#     4   7  12  26  48  73 100 130 166 207 248 293
#     4   9  17  31  52  75 100 133 171 208 248 296
#     4   9  17  31  53  78 102 131 169 211 253 298
#     4   9  17  29  48  75 102 128 166 215 256 291
#     4  10  21  36  54  78 107 137 169 207 253 304
#
# _framework density 20.123459
#
# number of rings (size 3 to 8) (size 9 to 14) (size 15 to 20)
#    0.000    2.667    0.000    2.750    0.000    5.667 
#    0.000    2.917    0.000    6.500    0.000    0.000 
#    0.000    0.000    0.000    0.000    0.000    0.000 
#
# Total GULP energy -267818.561114 kJ/mol
# GULP energy per Si atom -5579.553357 kJ/mol
# Density = 2.007766 g / cm^3
# Si number density = 20.123459 Si / 1000 Ang^3
#
#
#
# Elastic Constant Matrix: (Units=GPa)
#
#
# Indices 1 2 3 4 5 6 
#
# 1 153.0095 8.5908 135.9578 0.0000 0.0000 0.0000
# 2 8.5908 25.8894 -1.4043 0.0000 0.0000 0.0000
# 3 135.9578 -1.4043 208.9370 0.0000 0.0000 0.0000
# 4 0.0000 0.0000 0.0000 26.3904 0.0000 0.0000
# 5 0.0000 0.0000 0.0000 0.0000 28.8563 0.0000
# 6 0.0000 0.0000 0.0000 0.0000 0.0000 14.3956
#
#
#
# Elastic Compliance Matrix: (Units=1/GPa)
#
#
# Indices 1 2 3 4 5 6 
#
# 1 0.016380 -0.006016 -0.010699 0.000000 0.000000 0.000000
# 2 -0.006016 0.040849 0.004189 0.000000 0.000000 0.000000
# 3 -0.010699 0.004189 0.011776 0.000000 0.000000 0.000000
# 4 0.000000 0.000000 0.000000 0.037893 0.000000 0.000000
# 5 0.000000 0.000000 0.000000 0.000000 0.034655 0.000000
# 6 0.000000 0.000000 0.000000 0.000000 0.000000 0.069466
#
#
# Mechanical properties :
#
#
# Convention : Reuss Voigt Hill
#
# Bulk Modulus (GPa) = 22.75106 74.90274 48.82690
# Shear Modulus (GPa) = 19.94244 30.24123 25.09184
#
# Velocity S-wave (km/s) = 3.15144 3.88078 3.53497
# Velocity P-wave (km/s) = 4.95705 7.57516 6.40138
#
# Compressibility (1/GPa) = 0.04395399
#
# Stress axis : x y z
#
# Youngs Moduli (GPa) = 61.04952 24.48030 84.91578
#
# Poissons Ratio (x) = 0.14727 0.90853
# Poissons Ratio (y) = 0.36726 -0.35572
# Poissons Ratio (z) = 0.65318 -0.10255
#
# Static dielectric constant tensor:
#      x y z
#    x 1.703720 0.000000 0.000000 
#    y 0.000000 1.747750 0.000000 
#    z 0.000000 0.000000 1.698420 
# 
# From -- ./inp_files/2717.got.cif
#   From: 2010.05.17/outbox.cif.g08.bks.cpg/sg47_2_cif.got.tgz:2717.got - 2010.06.03 20:15:42.
