data_PCOD9387723
_publ_section_title
;
Structure prediction by ZEFSAII (Michael W. Deem and Ramdas Pophale) SiO2 
 PCOD9387723
Probable space group: P M M M
;
_chemical_formula_sum "Si O2"
_cell_formula_units_Z 52
_cell_length_a 8.914570
_cell_length_b 10.512247
_cell_length_c 30.955078
_cell_angle_alpha 90.000000
_cell_angle_beta 90.000000
_cell_angle_gamma 90.000000
_cell_volume 2900.867276
_symmetry_space_group_name_H-M "P M M M"
_symmetry_group_IT_number 47
_symmetry_cell_setting 'orthorhombic'
loop_
_space_group_symop_operation_xyz
x,y,z
-x,-y,z
x,-y,-z
-x,y,-z
-x,-y,-z
x,y,-z
-x,y,z
x,-y,z
loop_
_atom_site_type_symbol
_atom_site_label
_atom_site_fract_x
_atom_site_fract_y
_atom_site_fract_z
Si Si1 0.819179 0.861236 0.639374
Si Si2 0.681242 0.351588 0.119839
Si Si3 0.667773 0.500000 0.552041
Si Si4 0.682630 0.144583 0.950365
Si Si5 0.679439 0.352303 0.698923
Si Si6 0.171260 0.345998 0.210404
Si Si7 0.819834 0.234611 0.451198
O O1 0.745565 0.744864 0.664350
O O2 0.779202 0.854792 0.588537
O O3 0.000000 0.849987 0.642466
O O4 0.775165 0.000000 0.656768
O O5 0.500000 0.348071 0.122445
O O6 0.723159 0.500000 0.111603
O O7 0.731214 0.254547 0.082456
O O8 0.748620 0.309769 0.165835
O O9 0.500000 0.500000 0.570828
O O10 0.655246 0.500000 0.500000
O O11 0.756805 0.627560 0.561902
O O12 0.500000 0.145648 0.950105
O O13 0.728404 0.000000 0.938421
O O14 0.729150 0.168181 0.000000
O O15 0.500000 0.348234 0.698588
O O16 0.725301 0.500000 0.690849
O O17 0.740152 0.312715 0.746151
O O18 0.168122 0.500000 0.209819
O O19 0.000000 0.299942 0.212211
O O20 0.766976 0.202312 0.500000
O O21 0.000000 0.240489 0.453161
#
# Coordination Sequence:
#
# PCOD9387723 Si02
#       7
#     8   8   4   8   8   8   8
#     4  10  22  38  55  78 108 140 173 211 256 305
#     4   9  16  26  44  71  99 125 159 207 254 294
#     4   9  17  29  47  73 103 131 163 207 251 289
#     4   8  14  25  41  63  94 131 168 205 246 293
#     4  10  21  37  58  82 105 133 172 214 257 309
#     4   9  17  31  52  76 101 130 164 204 253 307
#     4   9  18  33  53  76 103 136 172 209 251 299
#
# _framework density 17.925671999999999
#
# number of rings (size 3 to 8) (size 9 to 14) (size 15 to 20)
#    0.000    2.846    0.000    1.615    1.077    5.231 
#    0.000    3.846    0.000    3.692    0.000    6.462 
#    0.000    0.000    0.000    0.000    0.000    0.000 
#
# Total GULP energy -289697.876266 kJ/mol
# GULP energy per Si atom -5571.113005 kJ/mol
# Density = 1.788487 g / cm^3
# Si number density = 17.925672 Si / 1000 Ang^3
#
#
#
# Elastic Constant Matrix: (Units=GPa)
#
#
# Indices 1 2 3 4 5 6 
#
# 1 21.0578 31.2457 35.5708 0.0000 0.0000 0.0000
# 2 31.2457 107.0005 82.2491 0.0000 0.0000 0.0000
# 3 35.5708 82.2491 132.1046 0.0000 0.0000 0.0000
# 4 0.0000 0.0000 0.0000 13.8330 0.0000 0.0000
# 5 0.0000 0.0000 0.0000 0.0000 58.8799 0.0000
# 6 0.0000 0.0000 0.0000 0.0000 0.0000 9.8519
#
#
#
# Elastic Compliance Matrix: (Units=1/GPa)
#
#
# Indices 1 2 3 4 5 6 
#
# 1 0.100041 -0.016316 -0.016779 0.000000 0.000000 0.000000
# 2 -0.016316 0.020585 -0.008423 0.000000 0.000000 0.000000
# 3 -0.016779 -0.008423 0.017332 0.000000 0.000000 0.000000
# 4 0.000000 0.000000 0.000000 0.072291 0.000000 0.000000
# 5 0.000000 0.000000 0.000000 0.000000 0.016984 0.000000
# 6 0.000000 0.000000 0.000000 0.000000 0.000000 0.101503
#
#
# Mechanical properties :
#
#
# Convention : Reuss Voigt Hill
#
# Bulk Modulus (GPa) = 18.20756 62.03268 40.12012
# Shear Modulus (GPa) = 11.62580 23.91945 17.77262
#
# Velocity S-wave (km/s) = 2.54944 3.65686 3.15217
# Velocity P-wave (km/s) = 4.34114 7.24644 5.97312
#
# Compressibility (1/GPa) = 0.05492223
#
# Stress axis : x y z
#
# Youngs Moduli (GPa) = 9.99590 48.57966 57.69705
#
# Poissons Ratio (x) = 0.79261 0.96810
# Poissons Ratio (y) = 0.16309 0.48598
# Poissons Ratio (z) = 0.16772 0.40918
#
# Static dielectric constant tensor:
#      x y z
#    x 1.612320 0.000000 0.000000 
#    y 0.000000 1.607880 0.000000 
#    z 0.000000 0.000000 1.619790 
# 
# From -- ./inp_files/34279.got.cif
#   From: 2010.05.17/outbox.cif.g08.bks.cpg/sg47_18_cif.got.tgz:34279.got - 2010.06.03 20:15:42.
