data_PCOD9387102
_publ_section_title
;
Structure prediction by ZEFSAII (Michael W. Deem and Ramdas Pophale) SiO2 
 PCOD9387102
Probable space group: P M M M
;
_chemical_formula_sum "Si O2"
_cell_formula_units_Z 44
_cell_length_a 29.007168
_cell_length_b 9.627849
_cell_length_c 9.267174
_cell_angle_alpha 90.000000
_cell_angle_beta 90.000000
_cell_angle_gamma 90.000000
_cell_volume 2588.105156
_symmetry_space_group_name_H-M "P M M M"
_symmetry_group_IT_number 47
_symmetry_cell_setting 'orthorhombic'
loop_
_space_group_symop_operation_xyz
x,y,z
-x,-y,z
x,-y,-z
-x,y,-z
-x,-y,-z
x,y,-z
-x,y,z
x,-y,z
loop_
_atom_site_type_symbol
_atom_site_label
_atom_site_fract_x
_atom_site_fract_y
_atom_site_fract_z
Si Si1 0.500000 0.840025 0.675905
Si Si2 0.683502 0.663826 0.172054
Si Si3 0.226520 0.835304 0.171534
Si Si4 0.132072 0.834820 0.328984
Si Si5 0.411351 0.337172 0.326609
Si Si6 0.947057 0.335082 0.171764
O O1 0.500000 0.839404 0.500000
O O2 0.454174 0.757254 0.720663
O O3 0.500000 0.000000 0.723124
O O4 0.691455 0.500000 0.198780
O O5 0.728154 0.751231 0.216733
O O6 0.636664 0.703990 0.253098
O O7 0.677266 0.682629 0.000000
O O8 0.180521 0.793498 0.256084
O O9 0.233835 0.000000 0.193690
O O10 0.219466 0.812422 0.000000
O O11 0.133860 0.811929 0.500000
O O12 0.090172 0.751834 0.258557
O O13 0.126126 0.000000 0.302908
O O14 0.406980 0.326367 0.500000
O O15 0.420239 0.500000 0.292874
O O16 0.941221 0.500000 0.197041
O O17 0.000000 0.298966 0.209601
O O18 0.941452 0.311652 0.000000
#
# Coordination Sequence:
#
# PCOD9387102 Si02
#       6
#     4   8   8   8   8   8
#     4   9  17  29  46  69  94 120 154 193 230 272
#     4   9  18  32  49  70  95 122 155 196 240 285
#     4   9  18  33  51  69  93 128 165 199 239 288
#     4  10  21  35  51  75 106 136 167 205 249 297
#     4   9  17  30  48  68  91 121 155 190 230 278
#     4   9  19  36  56  77 101 131 169 210 250 295
#
# _framework density 17.000852999999999
#
# number of rings (size 3 to 8) (size 9 to 14) (size 15 to 20)
#    0.000    2.818    0.000    1.364    0.000    5.455 
#    0.000    5.000    0.000    2.727    0.000    0.000 
#    0.000    0.000    0.000    0.000    0.000    0.000 
#
# Total GULP energy -245360.223588 kJ/mol
# GULP energy per Si atom -5576.368718 kJ/mol
# Density = 1.696216 g / cm^3
# Si number density = 17.000853 Si / 1000 Ang^3
#
#
#
# Elastic Constant Matrix: (Units=GPa)
#
#
# Indices 1 2 3 4 5 6 
#
# 1 212.2086 104.3023 77.8594 0.0000 0.0000 0.0000
# 2 104.3023 69.8457 47.9080 0.0000 0.0000 0.0000
# 3 77.8594 47.9080 37.3125 0.0000 0.0000 0.0000
# 4 0.0000 0.0000 0.0000 20.8238 0.0000 0.0000
# 5 0.0000 0.0000 0.0000 0.0000 41.5660 0.0000
# 6 0.0000 0.0000 0.0000 0.0000 0.0000 59.7835
#
#
#
# Elastic Compliance Matrix: (Units=1/GPa)
#
#
# Indices 1 2 3 4 5 6 
#
# 1 0.021058 -0.010951 -0.029882 0.000000 0.000000 0.000000
# 2 -0.010951 0.125693 -0.138535 0.000000 0.000000 0.000000
# 3 -0.029882 -0.138535 0.267029 0.000000 0.000000 0.000000
# 4 0.000000 0.000000 0.000000 0.048022 0.000000 0.000000
# 5 0.000000 0.000000 0.000000 0.000000 0.024058 0.000000
# 6 0.000000 0.000000 0.000000 0.000000 0.000000 0.016727
#
#
# Mechanical properties :
#
#
# Convention : Reuss Voigt Hill
#
# Bulk Modulus (GPa) = 18.16689 86.61183 52.38936
# Shear Modulus (GPa) = 5.68394 30.38781 18.03587
#
# Velocity S-wave (km/s) = 1.83046 4.23239 3.26065
# Velocity P-wave (km/s) = 3.89570 8.65681 6.71256
#
# Compressibility (1/GPa) = 0.05504520
#
# Stress axis : x y z
#
# Youngs Moduli (GPa) = 47.48727 7.95589 3.74491
#
# Poissons Ratio (x) = 0.08712 0.11190
# Poissons Ratio (y) = 0.52001 0.51880
# Poissons Ratio (z) = 1.41901 1.10217
#
# Static dielectric constant tensor:
#      x y z
#    x 1.547550 0.000000 0.000000 
#    y 0.000000 1.566230 0.000000 
#    z 0.000000 0.000000 1.563290 
# 
# From -- ./inp_files/2222.got.cif
#   From: 2010.05.17/outbox.cif.g08.bks.cpg/sg47_2_cif.got.tgz:2222.got - 2010.06.03 20:15:42.
