data_PCOD9387751
_publ_section_title
;
Structure prediction by ZEFSAII (Michael W. Deem and Ramdas Pophale) SiO2 
 PCOD9387751
Probable space group: P M M M
;
_chemical_formula_sum "Si O2"
_cell_formula_units_Z 56
_cell_length_a 9.034526
_cell_length_b 21.728185
_cell_length_c 14.199621
_cell_angle_alpha 90.000000
_cell_angle_beta 90.000000
_cell_angle_gamma 90.000000
_cell_volume 2787.440304
_symmetry_space_group_name_H-M "P M M M"
_symmetry_group_IT_number 47
_symmetry_cell_setting 'orthorhombic'
loop_
_space_group_symop_operation_xyz
x,y,z
-x,-y,z
x,-y,-z
-x,y,-z
-x,-y,-z
x,y,-z
-x,y,z
x,-y,z
loop_
_atom_site_type_symbol
_atom_site_label
_atom_site_fract_x
_atom_site_fract_y
_atom_site_fract_z
Si Si1 0.176662 0.621777 0.110234
Si Si2 0.174121 0.318544 0.386638
Si Si3 0.676338 0.567902 0.283390
Si Si4 0.330763 0.250000 0.885728
Si Si5 0.676338 0.067902 0.716610
Si Si6 0.176662 0.121777 0.889766
Si Si7 0.174121 0.818544 0.613362
O O1 0.252026 0.574189 0.180220
O O2 0.242589 0.688341 0.138723
O O3 0.000000 0.621896 0.120744
O O4 0.210772 0.611144 0.000000
O O5 0.184406 0.320770 0.500000
O O6 0.259854 0.375671 0.343156
O O7 0.226368 0.250000 0.356912
O O8 0.000000 0.323301 0.361741
O O9 0.500000 0.573481 0.276456
O O10 0.711854 0.500000 0.322803
O O11 0.500000 0.250000 0.850377
O O12 0.242589 0.188341 0.861277
O O13 0.337847 0.250000 0.000000
O O14 0.500000 0.073481 0.723544
O O15 0.747974 0.074189 0.819780
O O16 0.740146 0.124329 0.656844
O O17 0.711854 0.000000 0.677197
O O18 0.000000 0.121896 0.879256
O O19 0.210772 0.111144 0.000000
O O20 0.184406 0.820770 0.500000
O O21 0.000000 0.823301 0.638259
#
# Coordination Sequence:
#
# PCOD9387751 Si02
#       7
#     8   8   8   8   8   8   8
#     4  10  21  37  58  84 116 157 205 254 302 353
#     4   9  20  41  68  95 121 152 194 246 304 364
#     4  11  25  41  58  86 124 165 205 247 302 363
#     4   9  17  31  53  81 112 147 190 241 297 353
#     4  11  25  41  58  86 124 165 205 247 302 363
#     4  10  21  37  58  84 116 157 205 254 302 353
#     4   9  20  41  68  95 121 152 194 246 304 364
#
# _framework density 20.090116999999999
#
# number of rings (size 3 to 8) (size 9 to 14) (size 15 to 20)
#    0.000    2.143    0.000    3.000    2.000    8.000 
#    0.000    7.143    0.000    0.000    0.000    0.000 
#    0.000    0.000    0.000    0.000    0.000    0.000 
#
# Total GULP energy -312877.163902 kJ/mol
# GULP energy per Si atom -5587.092213 kJ/mol
# Density = 2.004439 g / cm^3
# Si number density = 20.090117 Si / 1000 Ang^3
#
#
#
# Elastic Constant Matrix: (Units=GPa)
#
#
# Indices 1 2 3 4 5 6 
#
# 1 86.4034 75.9229 30.1686 0.0000 0.0000 0.0000
# 2 75.9229 173.3833 53.4938 0.0000 0.0000 0.0000
# 3 30.1686 53.4938 59.7436 0.0000 0.0000 0.0000
# 4 0.0000 0.0000 0.0000 19.1114 0.0000 0.0000
# 5 0.0000 0.0000 0.0000 0.0000 21.5072 0.0000
# 6 0.0000 0.0000 0.0000 0.0000 0.0000 35.4988
#
#
#
# Elastic Compliance Matrix: (Units=1/GPa)
#
#
# Indices 1 2 3 4 5 6 
#
# 1 0.019192 -0.007480 -0.002993 0.000000 0.000000 0.000000
# 2 -0.007480 0.010885 -0.005969 0.000000 0.000000 0.000000
# 3 -0.002993 -0.005969 0.023594 0.000000 0.000000 0.000000
# 4 0.000000 0.000000 0.000000 0.052325 0.000000 0.000000
# 5 0.000000 0.000000 0.000000 0.000000 0.046496 0.000000
# 6 0.000000 0.000000 0.000000 0.000000 0.000000 0.028170
#
#
# Mechanical properties :
#
#
# Convention : Reuss Voigt Hill
#
# Bulk Modulus (GPa) = 48.11011 70.96677 59.53844
# Shear Modulus (GPa) = 22.67834 25.88648 24.28241
#
# Velocity S-wave (km/s) = 3.36345 3.59349 3.48037
# Velocity P-wave (km/s) = 6.25163 7.25386 6.77131
#
# Compressibility (1/GPa) = 0.02078565
#
# Stress axis : x y z
#
# Youngs Moduli (GPa) = 52.10561 91.87245 42.38352
#
# Poissons Ratio (x) = 0.68724 0.12687
# Poissons Ratio (y) = 0.38977 0.25297
# Poissons Ratio (z) = 0.15597 0.54836
#
# Static dielectric constant tensor:
#      x y z
#    x 1.667740 0.000000 0.000000 
#    y 0.000000 1.710760 0.000000 
#    z 0.000000 0.000000 1.734560 
# 
# From -- ./inp_files/7276.got.cif
#   From: 2010.05.17/outbox.cif.g08.bks.cpg/sg47_4_cif.got.tgz:7276.got - 2010.06.03 20:15:42.
