data_PCOD9387807
_publ_section_title
;
Structure prediction by ZEFSAII (Michael W. Deem and Ramdas Pophale) SiO2 
 PCOD9387807
Probable space group: P M M M
;
_chemical_formula_sum "Si O2"
_cell_formula_units_Z 56
_cell_length_a 15.261677
_cell_length_b 22.629111
_cell_length_c 8.586807
_cell_angle_alpha 90.000000
_cell_angle_beta 90.000000
_cell_angle_gamma 90.000000
_cell_volume 2965.524062
_symmetry_space_group_name_H-M "P M M M"
_symmetry_group_IT_number 47
_symmetry_cell_setting 'orthorhombic'
loop_
_space_group_symop_operation_xyz
x,y,z
-x,-y,z
x,-y,-z
-x,y,-z
-x,-y,-z
x,y,-z
-x,y,z
x,-y,z
loop_
_atom_site_type_symbol
_atom_site_label
_atom_site_fract_x
_atom_site_fract_y
_atom_site_fract_z
Si Si1 0.100872 0.628943 0.690657
Si Si2 0.397354 0.067003 0.312585
Si Si3 0.106726 0.500000 0.678937
Si Si4 0.252835 0.846456 0.813955
Si Si5 0.398033 0.625705 0.186062
Si Si6 0.606475 0.500000 0.320470
Si Si7 0.100303 0.066955 0.189712
Si Si8 0.255362 0.285572 0.313592
O O1 0.101009 0.626384 0.500000
O O2 0.130340 0.563672 0.747793
O O3 0.168221 0.679207 0.739414
O O4 0.000000 0.639497 0.737529
O O5 0.388628 0.070768 0.500000
O O6 0.500000 0.074953 0.275661
O O7 0.337153 0.115518 0.234021
O O8 0.372205 0.000000 0.265523
O O9 0.138441 0.500000 0.500000
O O10 0.000000 0.500000 0.673828
O O11 0.168852 0.884162 0.756609
O O12 0.255821 0.781067 0.745897
O O13 0.248229 0.842392 0.000000
O O14 0.500000 0.632198 0.235540
O O15 0.365745 0.561166 0.241862
O O16 0.338045 0.676934 0.254698
O O17 0.395460 0.627625 0.000000
O O18 0.500000 0.500000 0.312752
O O19 0.633332 0.500000 0.500000
O O20 0.000000 0.078559 0.237470
O O21 0.124038 0.000000 0.238730
O O22 0.101556 0.067025 0.000000
O O23 0.256111 0.285433 0.500000
#
# Coordination Sequence:
#
# PCOD9387807 Si02
#       8
#     8   8   4   8   8   4   8   8
#     4   8  15  29  49  74 104 136 172 218 271 325
#     4   9  19  37  60  84 109 137 169 209 262 320
#     4   7  10  21  44  71  97 125 160 207 261 310
#     4  11  22  35  53  78 109 144 182 222 263 311
#     4  10  21  38  58  79 107 142 180 226 276 323
#     4   9  17  32  57  86 111 137 174 220 271 327
#     4   8  15  30  53  80 107 135 171 216 265 316
#     4  11  23  36  52  76 107 146 188 226 267 318
#
# _framework density 18.883676999999999
#
# number of rings (size 3 to 8) (size 9 to 14) (size 15 to 20)
#    0.000    2.714    0.000    3.643    0.000    4.571 
#    0.000    2.143    0.000    2.571    0.000    5.000 
#    0.000    8.000    0.000    0.000    0.000    0.000 
#
# Total GULP energy -312425.282046 kJ/mol
# GULP energy per Si atom -5579.022894 kJ/mol
# Density = 1.884070 g / cm^3
# Si number density = 18.883677 Si / 1000 Ang^3
#
#
#
# Elastic Constant Matrix: (Units=GPa)
#
#
# Indices 1 2 3 4 5 6 
#
# 1 103.4616 102.7465 29.2224 0.0000 0.0000 0.0000
# 2 102.7465 209.1193 43.8834 0.0000 0.0000 0.0000
# 3 29.2224 43.8834 29.1312 0.0000 0.0000 0.0000
# 4 0.0000 0.0000 0.0000 7.7049 0.0000 0.0000
# 5 0.0000 0.0000 0.0000 0.0000 9.8392 0.0000
# 6 0.0000 0.0000 0.0000 0.0000 0.0000 -31.8892
#
#
#
# Elastic Compliance Matrix: (Units=1/GPa)
#
#
# Indices 1 2 3 4 5 6 
#
# 1 0.019987 -0.008207 -0.007686 0.000000 0.000000 0.000000
# 2 -0.008207 0.010362 -0.007377 0.000000 0.000000 0.000000
# 3 -0.007686 -0.007377 0.053150 0.000000 0.000000 0.000000
# 4 0.000000 0.000000 0.000000 0.129788 0.000000 0.000000
# 5 0.000000 0.000000 0.000000 0.000000 0.101634 0.000000
# 6 0.000000 0.000000 0.000000 0.000000 0.000000 -0.031359
#
#
# Mechanical properties :
#
#
# Convention : Reuss Voigt Hill
#
# Bulk Modulus (GPa) = 27.05701 77.04630 52.05166
# Shear Modulus (GPa) = 14.60181 8.18832 11.39506
#
# Velocity S-wave (km/s) = 2.78375 2.08461 2.45916
# Velocity P-wave (km/s) = 4.96908 6.83251 5.97390
#
# Compressibility (1/GPa) = 0.03695899
#
# Stress axis : x y z
#
# Youngs Moduli (GPa) = 50.03314 96.50184 18.81451
#
# Poissons Ratio (x) = 0.79201 0.14461
# Poissons Ratio (y) = 0.41063 0.13880
# Poissons Ratio (z) = 0.38455 0.71192
#
# Static dielectric constant tensor:
#      x y z
#    x 1.664400 0.000000 0.000000 
#    y 0.000000 1.637930 0.000000 
#    z 0.000000 0.000000 1.640090 
# 
# From -- ./inp_files/7422.got.cif
#   From: 2010.05.17/outbox.cif.g08.bks.cpg/sg47_4_cif.got.tgz:7422.got - 2010.06.03 20:15:42.
