data_PCOD9387883
_publ_section_title
;
Structure prediction by ZEFSAII (Michael W. Deem and Ramdas Pophale) SiO2 
 PCOD9387883
Probable space group: P M M M
;
_chemical_formula_sum "Si O2"
_cell_formula_units_Z 64
_cell_length_a 15.838132
_cell_length_b 24.301523
_cell_length_c 8.809533
_cell_angle_alpha 90.000000
_cell_angle_beta 90.000000
_cell_angle_gamma 90.000000
_cell_volume 3390.707579
_symmetry_space_group_name_H-M "P M M M"
_symmetry_group_IT_number 47
_symmetry_cell_setting 'orthorhombic'
loop_
_space_group_symop_operation_xyz
x,y,z
-x,-y,z
x,-y,-z
-x,y,-z
-x,-y,-z
x,y,-z
-x,y,z
x,-y,z
loop_
_atom_site_type_symbol
_atom_site_label
_atom_site_fract_x
_atom_site_fract_y
_atom_site_fract_z
Si Si1 0.095609 0.636069 0.818585
Si Si2 0.095281 0.129288 0.682232
Si Si3 0.347281 0.248396 0.181213
Si Si4 0.404778 0.865865 0.318672
Si Si5 0.245386 0.436197 0.316684
Si Si6 0.252365 0.935688 0.818504
Si Si7 0.840618 0.748779 0.318359
Si Si8 0.405431 0.637392 0.317725
O O1 0.165768 0.595174 0.753372
O O2 0.111754 0.696046 0.747248
O O3 0.000000 0.618095 0.783213
O O4 0.104598 0.639816 0.000000
O O5 0.101749 0.122270 0.500000
O O6 0.167572 0.093638 0.760193
O O7 0.112772 0.193734 0.713488
O O8 0.000000 0.114773 0.729175
O O9 0.391639 0.194514 0.248486
O O10 0.251748 0.248937 0.244011
O O11 0.390521 0.304206 0.238437
O O12 0.347083 0.246038 0.000000
O O13 0.394934 0.862000 0.500000
O O14 0.500000 0.885231 0.284915
O O15 0.332770 0.905182 0.253078
O O16 0.239196 0.433613 0.500000
O O17 0.247936 0.500000 0.271717
O O18 0.331071 0.404232 0.272711
O O19 0.251863 0.000000 0.777529
O O20 0.256866 0.930666 0.000000
O O21 0.831874 0.743047 0.500000
O O22 0.399191 0.645503 0.500000
O O23 0.500000 0.616962 0.284476
#
# Coordination Sequence:
#
# PCOD9387883 Si02
#       8
#     8   8   8   8   8   8   8   8
#     4  11  24  40  60  89 123 160 200 245 303 363
#     4  10  22  40  64  93 123 159 202 248 300 358
#     4  12  23  36  60  93 127 161 197 241 300 362
#     4  11  24  42  65  92 122 160 205 250 301 361
#     4  10  22  40  62  87 116 157 207 255 302 354
#     4  11  25  43  63  89 122 162 206 253 306 360
#     4  11  21  37  63  92 123 159 199 244 299 360
#     4  10  21  38  61  89 122 160 200 244 297 358
#
# _framework density 18.875115999999998
#
# number of rings (size 3 to 8) (size 9 to 14) (size 15 to 20)
#    0.000    1.250    2.500    3.375    0.000    7.250 
#    0.000    5.000    0.000    0.000    0.000    1.750 
#    0.000    0.000    0.000    0.000    0.000    0.000 
#
# Total GULP energy -357873.005477 kJ/mol
# GULP energy per Si atom -5591.765711 kJ/mol
# Density = 1.883216 g / cm^3
# Si number density = 18.875116 Si / 1000 Ang^3
#
#
#
# Elastic Constant Matrix: (Units=GPa)
#
#
# Indices 1 2 3 4 5 6 
#
# 1 192.4653 97.0410 68.2344 0.0000 0.0000 0.0000
# 2 97.0410 157.7908 62.7206 0.0000 0.0000 0.0000
# 3 68.2344 62.7206 54.3735 0.0000 0.0000 0.0000
# 4 0.0000 0.0000 0.0000 59.0334 0.0000 0.0000
# 5 0.0000 0.0000 0.0000 0.0000 -30.0090 0.0000
# 6 0.0000 0.0000 0.0000 0.0000 0.0000 -4.2522
#
#
#
# Elastic Compliance Matrix: (Units=1/GPa)
#
#
# Indices 1 2 3 4 5 6 
#
# 1 0.009718 -0.002085 -0.009790 0.000000 0.000000 0.000000
# 2 -0.002085 0.012151 -0.011400 0.000000 0.000000 0.000000
# 3 -0.009790 -0.011400 0.043827 0.000000 0.000000 0.000000
# 4 0.000000 0.000000 0.000000 0.016940 0.000000 0.000000
# 5 0.000000 0.000000 0.000000 0.000000 -0.033323 0.000000
# 6 0.000000 0.000000 0.000000 0.000000 0.000000 -0.235172
#
#
# Mechanical properties :
#
#
# Convention : Reuss Voigt Hill
#
# Bulk Modulus (GPa) = 52.23026 95.62460 73.92743
# Shear Modulus (GPa) = -37.61448 16.73003 -10.44223
#
# Velocity S-wave (km/s) = -4.46893 2.98040 -2.35463
# Velocity P-wave (km/s) = 1.05029 7.91299 5.64440
#
# Compressibility (1/GPa) = 0.01914599
#
# Stress axis : x y z
#
# Youngs Moduli (GPa) = 102.90357 82.29627 22.81687
#
# Poissons Ratio (x) = 0.17159 0.22338
# Poissons Ratio (y) = 0.21455 0.26011
# Poissons Ratio (z) = 1.00743 0.93819
#
# Static dielectric constant tensor:
#      x y z
#    x 1.650120 0.000000 0.000000 
#    y 0.000000 1.623870 0.000000 
#    z 0.000000 0.000000 1.631310 
# 
# From -- ./inp_files/7807.got.cif
#   From: 2010.05.17/outbox.cif.g08.bks.cpg/sg47_4_cif.got.tgz:7807.got - 2010.06.03 20:15:42.
