data_PCOD9387179
_publ_section_title
;
Structure prediction by ZEFSAII (Michael W. Deem and Ramdas Pophale) SiO2 
 PCOD9387179
Probable space group: P M M M
;
_chemical_formula_sum "Si O2"
_cell_formula_units_Z 36
_cell_length_a 10.575812
_cell_length_b 20.328917
_cell_length_c 9.334142
_cell_angle_alpha 90.000000
_cell_angle_beta 90.000000
_cell_angle_gamma 90.000000
_cell_volume 2006.792033
_symmetry_space_group_name_H-M "P M M M"
_symmetry_group_IT_number 47
_symmetry_cell_setting 'orthorhombic'
loop_
_space_group_symop_operation_xyz
x,y,z
-x,-y,z
x,-y,-z
-x,y,-z
-x,-y,-z
x,y,-z
-x,y,z
x,-y,z
loop_
_atom_site_type_symbol
_atom_site_label
_atom_site_fract_x
_atom_site_fract_y
_atom_site_fract_z
Si Si1 0.653015 0.426321 0.664157
Si Si2 0.648547 0.705334 0.171184
Si Si3 0.247759 0.925123 0.330272
Si Si4 0.859994 0.211236 0.670903
Si Si5 0.500000 0.920546 0.839848
O O1 0.693835 0.412456 0.500000
O O2 0.500000 0.428726 0.661829
O O3 0.696873 0.500000 0.703901
O O4 0.684414 0.367199 0.769967
O O5 0.500000 0.717911 0.209378
O O6 0.746039 0.754691 0.245527
O O7 0.658176 0.708256 0.000000
O O8 0.275802 0.926242 0.500000
O O9 0.148549 0.867411 0.305549
O O10 0.373911 0.904757 0.246157
O O11 0.211308 0.000000 0.289390
O O12 0.844434 0.222298 0.500000
O O13 0.000000 0.234872 0.713072
O O14 0.500000 0.000000 0.850019
O O15 0.500000 0.892348 0.000000
#
# Coordination Sequence:
#
# PCOD9387179 Si02
#       5
#     8   8   8   8   4
#     4   8  14  27  50  80 111 141 174 214 260 308
#     4  10  21  35  53  80 111 144 181 218 260 312
#     4   9  18  33  53  76 101 130 169 218 271 323
#     4  10  22  38  55  76 103 139 180 222 272 324
#     4   9  17  29  47  73 103 131 160 201 254 311
#
# _framework density 17.939077999999999
#
# number of rings (size 3 to 8) (size 9 to 14) (size 15 to 20)
#    0.000    2.778    0.000    1.667    1.556    4.889 
#    0.000    4.444    0.000    0.667    0.000    9.333 
#    0.000    0.000    0.000    0.000    0.000    0.000 
#
# Total GULP energy -200557.111820 kJ/mol
# GULP energy per Si atom -5571.030884 kJ/mol
# Density = 1.789825 g / cm^3
# Si number density = 17.939078 Si / 1000 Ang^3
#
#
#
# Elastic Constant Matrix: (Units=GPa)
#
#
# Indices 1 2 3 4 5 6 
#
# 1 91.4971 54.8338 51.0327 0.0000 0.0000 0.0000
# 2 54.8338 101.6238 50.7763 0.0000 0.0000 0.0000
# 3 51.0327 50.7763 51.9423 0.0000 0.0000 0.0000
# 4 0.0000 0.0000 0.0000 8.7517 0.0000 0.0000
# 5 0.0000 0.0000 0.0000 0.0000 13.9015 0.0000
# 6 0.0000 0.0000 0.0000 0.0000 0.0000 3.2789
#
#
#
# Elastic Compliance Matrix: (Units=1/GPa)
#
#
# Indices 1 2 3 4 5 6 
#
# 1 0.024457 -0.002327 -0.021754 0.000000 0.000000 0.000000
# 2 -0.002327 0.019457 -0.016734 0.000000 0.000000 0.000000
# 3 -0.021754 -0.016734 0.056983 0.000000 0.000000 0.000000
# 4 0.000000 0.000000 0.000000 0.114263 0.000000 0.000000
# 5 0.000000 0.000000 0.000000 0.000000 0.071934 0.000000
# 6 0.000000 0.000000 0.000000 0.000000 0.000000 0.304983
#
#
# Mechanical properties :
#
#
# Convention : Reuss Voigt Hill
#
# Bulk Modulus (GPa) = 51.90059 62.03876 56.96967
# Shear Modulus (GPa) = 7.35152 11.08112 9.21632
#
# Velocity S-wave (km/s) = 2.02656 2.48807 2.26908
# Velocity P-wave (km/s) = 5.87114 6.55073 6.22023
#
# Compressibility (1/GPa) = 0.01926760
#
# Stress axis : x y z
#
# Youngs Moduli (GPa) = 40.88745 51.39566 17.54895
#
# Poissons Ratio (x) = 0.11960 0.38176
# Poissons Ratio (y) = 0.09515 0.29366
# Poissons Ratio (z) = 0.88947 0.86004
#
# Static dielectric constant tensor:
#      x y z
#    x 1.587920 0.000000 0.000000 
#    y 0.000000 1.649990 0.000000 
#    z 0.000000 0.000000 1.603350 
# 
# From -- ./inp_files/3916.got.cif
#   From: 2010.05.17/outbox.cif.g08.bks.cpg/sg47_2_cif.got.tgz:3916.got - 2010.06.03 20:15:42.
