data_PCOD9387611
_publ_section_title
;
Structure prediction by ZEFSAII (Michael W. Deem and Ramdas Pophale) SiO2 
 PCOD9387611
Probable space group: P M M M
;
_chemical_formula_sum "Si O2"
_cell_formula_units_Z 37
_cell_length_a 8.185679
_cell_length_b 23.494041
_cell_length_c 10.215487
_cell_angle_alpha 90.000000
_cell_angle_beta 90.000000
_cell_angle_gamma 90.000000
_cell_volume 1964.588093
_symmetry_space_group_name_H-M "P M M M"
_symmetry_group_IT_number 47
_symmetry_cell_setting 'orthorhombic'
loop_
_space_group_symop_operation_xyz
x,y,z
-x,-y,z
x,-y,-z
-x,y,-z
-x,-y,-z
x,y,-z
-x,y,z
x,-y,z
loop_
_atom_site_type_symbol
_atom_site_label
_atom_site_fract_x
_atom_site_fract_y
_atom_site_fract_z
Si Si1 0.303023 0.500000 0.286435
Si Si2 0.805657 0.285385 0.648238
Si Si3 0.694411 0.840742 0.351782
Si Si4 0.803241 0.064247 0.148767
Si Si5 0.000000 0.500000 0.500000
Si Si6 0.305942 0.620504 0.853025
O O1 0.500000 0.500000 0.331884
O O2 0.150777 0.500000 0.388117
O O3 0.282877 0.443132 0.200588
O O4 0.742665 0.297415 0.500000
O O5 0.742920 0.223149 0.688569
O O6 0.760749 0.334298 0.749380
O O7 0.000000 0.282340 0.641129
O O8 0.759956 0.849688 0.500000
O O9 0.500000 0.843306 0.357517
O O10 0.752033 0.888463 0.251652
O O11 0.000000 0.063165 0.146145
O O12 0.747401 0.000000 0.182887
O O13 0.747212 0.076786 0.000000
O O14 0.500000 0.630010 0.859216
O O15 0.238426 0.627207 0.000000
#
# Coordination Sequence:
#
# PCOD9387611 Si02
#       6
#     4   8   8   8   1   8
#     4  10  24  43  65  93 128 163 202 256 304 356
#     4  10  22  38  59  85 115 149 193 244 291 345
#     4  10  21  37  56  81 113 149 189 233 285 342
#     4   9  19  36  57  81 110 145 186 232 282 338
#     4  12  26  40  66  98 128 160 212 248 298 378
#     4  10  22  41  63  87 120 160 198 240 298 358
#
# _framework density 18.833463999999999
#
# number of rings (size 3 to 8) (size 9 to 14) (size 15 to 20)
#    0.000    2.162    0.000    2.432    3.027    6.486 
#    0.000    3.784    0.000    0.000    0.000    0.000 
#    0.000    0.000    0.000    0.000    0.000    0.000 
#
# Total GULP energy -206100.615042 kJ/mol
# GULP energy per Si atom -5570.286893 kJ/mol
# Density = 1.879060 g / cm^3
# Si number density = 18.833464 Si / 1000 Ang^3
#
#
#
# Elastic Constant Matrix: (Units=GPa)
#
#
# Indices 1 2 3 4 5 6 
#
# 1 55.2479 33.5380 37.8841 0.0000 0.0000 0.0000
# 2 33.5380 172.1362 110.4953 0.0000 0.0000 0.0000
# 3 37.8841 110.4953 120.2952 0.0000 0.0000 0.0000
# 4 0.0000 0.0000 0.0000 -32.4690 0.0000 0.0000
# 5 0.0000 0.0000 0.0000 0.0000 30.5633 0.0000
# 6 0.0000 0.0000 0.0000 0.0000 0.0000 32.4232
#
#
#
# Elastic Compliance Matrix: (Units=1/GPa)
#
#
# Indices 1 2 3 4 5 6 
#
# 1 0.023097 0.000412 -0.007652 0.000000 0.000000 0.000000
# 2 0.000412 0.014163 -0.013139 0.000000 0.000000 0.000000
# 3 -0.007652 -0.013139 0.022792 0.000000 0.000000 0.000000
# 4 0.000000 0.000000 0.000000 -0.030799 0.000000 0.000000
# 5 0.000000 0.000000 0.000000 0.000000 0.032719 0.000000
# 6 0.000000 0.000000 0.000000 0.000000 0.000000 0.030842
#
#
# Mechanical properties :
#
#
# Convention : Reuss Voigt Hill
#
# Bulk Modulus (GPa) = 51.83199 79.05714 65.44456
# Shear Modulus (GPa) = 35.71306 17.15429 26.43367
#
# Velocity S-wave (km/s) = 4.35933 3.02129 3.75046
# Velocity P-wave (km/s) = 7.27456 7.36471 7.31978
#
# Compressibility (1/GPa) = 0.01929311
#
# Stress axis : x y z
#
# Youngs Moduli (GPa) = 43.29475 70.60578 43.87595
#
# Poissons Ratio (x) = -0.02909 0.33576
# Poissons Ratio (y) = -0.01784 0.57649
# Poissons Ratio (z) = 0.33131 0.92769
#
# Static dielectric constant tensor:
#      x y z
#    x 1.668630 0.000000 0.000000 
#    y 0.000000 1.621160 0.000000 
#    z 0.000000 0.000000 1.667090 
# 
# From -- ./inp_files/1468.got.cif
#   From: 2010.05.17/outbox.cif.g08.bks.cpg/sg47_1_cif.got.tgz:1468.got - 2010.06.03 20:15:42.
