data_PCOD9387911
_publ_section_title
;
Structure prediction by ZEFSAII (Michael W. Deem and Ramdas Pophale) SiO2 
 PCOD9387911
Probable space group: P M M M
;
_chemical_formula_sum "Si O2"
_cell_formula_units_Z 56
_cell_length_a 15.602046
_cell_length_b 22.825379
_cell_length_c 8.172152
_cell_angle_alpha 90.000000
_cell_angle_beta 90.000000
_cell_angle_gamma 90.000000
_cell_volume 2910.288125
_symmetry_space_group_name_H-M "P M M M"
_symmetry_group_IT_number 47
_symmetry_cell_setting 'orthorhombic'
loop_
_space_group_symop_operation_xyz
x,y,z
-x,-y,z
x,-y,-z
-x,y,-z
-x,-y,-z
x,y,-z
-x,y,z
x,-y,z
loop_
_atom_site_type_symbol
_atom_site_label
_atom_site_fract_x
_atom_site_fract_y
_atom_site_fract_z
Si Si1 0.338591 0.374346 0.807214
Si Si2 0.000000 0.431849 0.802862
Si Si3 0.400439 0.500000 0.800883
Si Si4 0.596518 0.067903 0.800226
Si Si5 0.905088 0.784338 0.696375
Si Si6 0.149628 0.346119 0.695947
Si Si7 0.594481 0.254888 0.692585
Si Si8 0.270005 0.163426 0.191939
O O1 0.358049 0.439586 0.744934
O O2 0.239467 0.359745 0.779686
O O3 0.392258 0.323805 0.719507
O O4 0.359436 0.371807 0.000000
O O5 0.081885 0.396412 0.737968
O O6 0.000000 0.500000 0.752538
O O7 0.000000 0.429922 0.000000
O O8 0.500000 0.500000 0.756734
O O9 0.394513 0.500000 0.000000
O O10 0.500000 0.085517 0.747398
O O11 0.671851 0.110255 0.739782
O O12 0.609499 0.000000 0.754954
O O13 0.596398 0.070461 0.000000
O O14 0.908898 0.782514 0.500000
O O15 0.884932 0.717592 0.750695
O O16 0.824465 0.824753 0.740158
O O17 0.000000 0.801821 0.757074
O O18 0.162334 0.343518 0.500000
O O19 0.599761 0.242014 0.500000
O O20 0.500000 0.237507 0.753936
O O21 0.671012 0.220506 0.779089
O O22 0.260060 0.153627 0.000000
#
# Coordination Sequence:
#
# PCOD9387911 Si02
#       8
#     8   4   4   8   8   8   8   8
#     4  11  22  37  58  81 105 137 181 229 280 336
#     4  11  25  41  59  83 111 141 182 235 290 343
#     4   9  20  38  57  76 101 134 173 221 274 327
#     4   8  15  30  53  83 121 160 193 229 277 333
#     4  10  21  39  59  78 108 148 186 228 282 343
#     4  11  22  39  59  80 108 142 181 225 284 348
#     4  11  23  37  53  77 113 152 186 226 279 336
#     4  11  21  33  56  89 117 145 189 239 286 337
#
# _framework density 19.242082
#
# number of rings (size 3 to 8) (size 9 to 14) (size 15 to 20)
#    0.000    1.714    2.143    3.214    1.000    3.714 
#    0.000    1.071    0.000    4.714    0.000    8.000 
#    0.000    0.000    0.000    0.000    0.000    0.000 
#
# Total GULP energy -312750.358946 kJ/mol
# GULP energy per Si atom -5584.827838 kJ/mol
# Density = 1.919829 g / cm^3
# Si number density = 19.242082 Si / 1000 Ang^3
#
#
#
# Elastic Constant Matrix: (Units=GPa)
#
#
# Indices 1 2 3 4 5 6 
#
# 1 159.0222 66.4441 3.5504 0.0000 0.0000 0.0000
# 2 66.4441 110.7506 2.3319 0.0000 0.0000 0.0000
# 3 3.5504 2.3319 12.3867 0.0000 0.0000 0.0000
# 4 0.0000 0.0000 0.0000 -25.9104 0.0000 0.0000
# 5 0.0000 0.0000 0.0000 0.0000 26.8210 0.0000
# 6 0.0000 0.0000 0.0000 0.0000 0.0000 34.3429
#
#
#
# Elastic Compliance Matrix: (Units=1/GPa)
#
#
# Indices 1 2 3 4 5 6 
#
# 1 0.008419 -0.005020 -0.001468 0.000000 0.000000 0.000000
# 2 -0.005020 0.012058 -0.000831 0.000000 0.000000 0.000000
# 3 -0.001468 -0.000831 0.081309 0.000000 0.000000 0.000000
# 4 0.000000 0.000000 0.000000 -0.038595 0.000000 0.000000
# 5 0.000000 0.000000 0.000000 0.000000 0.037284 0.000000
# 6 0.000000 0.000000 0.000000 0.000000 0.000000 0.029118
#
#
# Mechanical properties :
#
#
# Convention : Reuss Voigt Hill
#
# Bulk Modulus (GPa) = 11.47474 47.42360 29.44917
# Shear Modulus (GPa) = 28.85481 21.03958 24.94719
#
# Velocity S-wave (km/s) = 3.87663 3.31027 3.60459
# Velocity P-wave (km/s) = 5.10039 6.26975 5.71506
#
# Compressibility (1/GPa) = 0.08714792
#
# Stress axis : x y z
#
# Youngs Moduli (GPa) = 118.78437 82.92981 12.29874
#
# Poissons Ratio (x) = 0.41629 0.01805
# Poissons Ratio (y) = 0.59627 0.01022
# Poissons Ratio (z) = 0.17438 0.06894
#
# Static dielectric constant tensor:
#      x y z
#    x 1.607970 0.000000 0.000000 
#    y 0.000000 1.672160 0.000000 
#    z 0.000000 0.000000 1.674620 
# 
# From -- ./inp_files/7429.got.cif
#   From: 2010.05.17/outbox.cif.g08.bks.cpg/sg47_4_cif.got.tgz:7429.got - 2010.06.03 20:15:42.
