data_PCOD9387494
_publ_section_title
;
Structure prediction by ZEFSAII (Michael W. Deem and Ramdas Pophale) SiO2 
 PCOD9387494
Probable space group: P M M M
;
_chemical_formula_sum "Si O2"
_cell_formula_units_Z 44
_cell_length_a 19.740302
_cell_length_b 13.953623
_cell_length_c 9.479757
_cell_angle_alpha 90.000000
_cell_angle_beta 90.000000
_cell_angle_gamma 90.000000
_cell_volume 2611.187045
_symmetry_space_group_name_H-M "P M M M"
_symmetry_group_IT_number 47
_symmetry_cell_setting 'orthorhombic'
loop_
_space_group_symop_operation_xyz
x,y,z
-x,-y,z
x,-y,-z
-x,y,-z
-x,-y,-z
x,y,-z
-x,y,z
x,-y,z
loop_
_atom_site_type_symbol
_atom_site_label
_atom_site_fract_x
_atom_site_fract_y
_atom_site_fract_z
Si Si1 0.500000 0.384092 0.839581
Si Si2 0.878511 0.612127 0.160857
Si Si3 0.226980 0.282373 0.331748
Si Si4 0.000000 0.309922 0.344815
Si Si5 0.154983 0.110546 0.836542
Si Si6 0.633635 0.387297 0.333665
Si Si7 0.000000 0.107318 0.252818
O O1 0.500000 0.500000 0.843761
O O2 0.431676 0.358603 0.756787
O O3 0.500000 0.348354 0.000000
O O4 0.892255 0.500000 0.154578
O O5 0.811138 0.634068 0.246577
O O6 0.936311 0.660351 0.252711
O O7 0.876099 0.648950 0.000000
O O8 0.212378 0.282946 0.500000
O O9 0.195152 0.186070 0.261644
O O10 0.305415 0.311648 0.313089
O O11 0.000000 0.196014 0.356351
O O12 0.000000 0.354316 0.500000
O O13 0.072446 0.117917 0.826772
O O14 0.170892 0.000000 0.797979
O O15 0.173799 0.125991 0.000000
O O16 0.616729 0.386821 0.500000
O O17 0.651895 0.500000 0.300153
O O18 0.000000 0.000000 0.312802
#
# Coordination Sequence:
#
# PCOD9387494 Si02
#       7
#     4   8   8   4   8   8   4
#     4   9  17  29  49  79 110 139 176 219 255 292
#     4  11  24  39  54  72  99 138 178 217 263 316
#     4  11  22  35  54  80 108 139 175 218 265 312
#     4  12  24  37  55  77  99 131 172 221 273 318
#     4  10  21  37  57  79 104 137 176 221 275 330
#     4   9  18  33  52  75 108 148 181 209 250 306
#     4  10  21  36  57  81 103 130 171 221 277 331
#
# _framework density 16.850574999999999
#
# number of rings (size 3 to 8) (size 9 to 14) (size 15 to 20)
#    0.000    1.727    1.818    2.727    0.000    8.182 
#    0.000    3.636    0.000    0.000    0.000    0.636 
#    0.000    5.091    0.000    0.000    0.000    0.000 
#
# Total GULP energy -245150.729670 kJ/mol
# GULP energy per Si atom -5571.607493 kJ/mol
# Density = 1.681222 g / cm^3
# Si number density = 16.850575 Si / 1000 Ang^3
#
#
#
# Elastic Constant Matrix: (Units=GPa)
#
#
# Indices 1 2 3 4 5 6 
#
# 1 108.6444 31.6553 77.2722 0.0000 0.0000 0.0000
# 2 31.6553 89.6233 43.9136 0.0000 0.0000 0.0000
# 3 77.2722 43.9136 127.6892 0.0000 0.0000 0.0000
# 4 0.0000 0.0000 0.0000 31.9159 0.0000 0.0000
# 5 0.0000 0.0000 0.0000 0.0000 -19.8917 0.0000
# 6 0.0000 0.0000 0.0000 0.0000 0.0000 16.5358
#
#
#
# Elastic Compliance Matrix: (Units=1/GPa)
#
#
# Indices 1 2 3 4 5 6 
#
# 1 0.016251 -0.001108 -0.009453 0.000000 0.000000 0.000000
# 2 -0.001108 0.013495 -0.003970 0.000000 0.000000 0.000000
# 3 -0.009453 -0.003970 0.014918 0.000000 0.000000 0.000000
# 4 0.000000 0.000000 0.000000 0.031332 0.000000 0.000000
# 5 0.000000 0.000000 0.000000 0.000000 -0.050272 0.000000
# 6 0.000000 0.000000 0.000000 0.000000 0.000000 0.060475
#
#
# Mechanical properties :
#
#
# Convention : Reuss Voigt Hill
#
# Bulk Modulus (GPa) = 64.10355 70.18214 67.14284
# Shear Modulus (GPa) = 41.50722 17.25305 29.38014
#
# Velocity S-wave (km/s) = 4.96850 3.20329 4.18014
# Velocity P-wave (km/s) = 8.42850 7.44457 7.95177
#
# Compressibility (1/GPa) = 0.01559976
#
# Stress axis : x y z
#
# Youngs Moduli (GPa) = 61.53605 74.10384 67.03460
#
# Poissons Ratio (x) = 0.08210 0.63369
# Poissons Ratio (y) = 0.06818 0.26616
# Poissons Ratio (z) = 0.58171 0.29423
#
# Static dielectric constant tensor:
#      x y z
#    x 1.690770 0.000000 0.000000 
#    y 0.000000 1.588860 0.000000 
#    z 0.000000 0.000000 1.575690 
# 
# From -- ./inp_files/9045.got.cif
#   From: 2010.05.17/outbox.cif.g08.bks.cpg/sg47_5_cif.got.tgz:9045.got - 2010.06.03 20:15:42.
