data_PCOD9387621
_publ_section_title
;
Structure prediction by ZEFSAII (Michael W. Deem and Ramdas Pophale) SiO2 
 PCOD9387621
Probable space group: P M M M
;
_chemical_formula_sum "Si O2"
_cell_formula_units_Z 48
_cell_length_a 35.597031
_cell_length_b 9.279617
_cell_length_c 7.934455
_cell_angle_alpha 90.000000
_cell_angle_beta 90.000000
_cell_angle_gamma 90.000000
_cell_volume 2620.963241
_symmetry_space_group_name_H-M "P M M M"
_symmetry_group_IT_number 47
_symmetry_cell_setting 'orthorhombic'
loop_
_space_group_symop_operation_xyz
x,y,z
-x,-y,z
x,-y,-z
-x,y,-z
-x,-y,-z
x,y,-z
-x,y,z
x,-y,z
loop_
_atom_site_type_symbol
_atom_site_label
_atom_site_fract_x
_atom_site_fract_y
_atom_site_fract_z
Si Si1 0.956891 0.824597 0.808586
Si Si2 0.905111 0.176418 0.500000
Si Si3 0.235703 0.173427 0.197923
Si Si4 0.541984 0.665670 0.203436
Si Si5 0.688865 0.662344 0.798342
Si Si6 0.384500 0.838321 0.700078
Si Si7 0.181068 0.175118 0.500000
O O1 0.927931 0.776992 0.666075
O O2 0.000000 0.782001 0.770752
O O3 0.956508 0.000000 0.807854
O O4 0.947708 0.779396 0.000000
O O5 0.861988 0.224581 0.500000
O O6 0.905016 0.000000 0.500000
O O7 0.274680 0.246800 0.254079
O O8 0.203533 0.217151 0.330523
O O9 0.239859 0.000000 0.205861
O O10 0.227983 0.209404 0.000000
O O11 0.500000 0.709618 0.259572
O O12 0.548289 0.500000 0.258840
O O13 0.575692 0.766199 0.259284
O O14 0.541788 0.664770 0.000000
O O15 0.689166 0.500000 0.728858
O O16 0.650062 0.741782 0.760247
O O17 0.691514 0.653213 0.000000
O O18 0.381313 0.847038 0.500000
O O19 0.382210 0.000000 0.771759
O O20 0.180357 0.000000 0.500000
#
# Coordination Sequence:
#
# PCOD9387621 Si02
#       7
#     8   4   8   8   8   8   4
#     4   8  13  20  30  46  71 106 149 198 249 295
#     4   9  15  22  33  51  75 107 150 201 249 290
#     4   9  18  33  51  70  96 129 161 200 253 306
#     4   9  19  37  59  80 103 134 172 211 248 289
#     4  10  21  37  57  79 100 124 161 208 252 298
#     4  11  24  37  51  77 110 139 166 201 246 296
#     4   9  18  29  43  64  89 121 163 207 250 304
#
# _framework density 18.313877999999999
#
# number of rings (size 3 to 8) (size 9 to 14) (size 15 to 20)
#    0.000    2.667    0.000    2.750    1.167    7.000 
#    0.000    5.833    0.000    0.000    0.000    0.000 
#    0.000    0.000    0.000    0.000    0.000    6.667 
#
# Total GULP energy -267607.369546 kJ/mol
# GULP energy per Si atom -5575.153532 kJ/mol
# Density = 1.827219 g / cm^3
# Si number density = 18.313878 Si / 1000 Ang^3
#
#
#
# Elastic Constant Matrix: (Units=GPa)
#
#
# Indices 1 2 3 4 5 6 
#
# 1 171.6422 52.2058 71.0788 0.0000 0.0000 0.0000
# 2 52.2058 48.4576 29.5879 0.0000 0.0000 0.0000
# 3 71.0788 29.5879 70.0212 0.0000 0.0000 0.0000
# 4 0.0000 0.0000 0.0000 21.2930 0.0000 0.0000
# 5 0.0000 0.0000 0.0000 0.0000 22.1441 0.0000
# 6 0.0000 0.0000 0.0000 0.0000 0.0000 6.6114
#
#
#
# Elastic Compliance Matrix: (Units=1/GPa)
#
#
# Indices 1 2 3 4 5 6 
#
# 1 0.011652 -0.007185 -0.008792 0.000000 0.000000 0.000000
# 2 -0.007185 0.032243 -0.006331 0.000000 0.000000 0.000000
# 3 -0.008792 -0.006331 0.025882 0.000000 0.000000 0.000000
# 4 0.000000 0.000000 0.000000 0.046964 0.000000 0.000000
# 5 0.000000 0.000000 0.000000 0.000000 0.045159 0.000000
# 6 0.000000 0.000000 0.000000 0.000000 0.000000 0.151254
#
#
# Mechanical properties :
#
#
# Convention : Reuss Voigt Hill
#
# Bulk Modulus (GPa) = 39.74471 66.20732 52.97602
# Shear Modulus (GPa) = 13.65533 19.15960 16.40747
#
# Velocity S-wave (km/s) = 2.73358 3.23798 2.99641
# Velocity P-wave (km/s) = 5.63137 7.08585 6.40006
#
# Compressibility (1/GPa) = 0.02516058
#
# Stress axis : x y z
#
# Youngs Moduli (GPa) = 85.81860 31.01437 38.63754
#
# Poissons Ratio (x) = 0.22285 0.33971
# Poissons Ratio (y) = 0.61663 0.24460
# Poissons Ratio (z) = 0.75454 0.19634
#
# Static dielectric constant tensor:
#      x y z
#    x 1.611110 0.000000 0.000000 
#    y 0.000000 1.633890 0.000000 
#    z 0.000000 0.000000 1.646510 
# 
# From -- ./inp_files/13911.got.cif
#   From: 2010.05.17/outbox.cif.g08.bks.cpg/sg47_7_cif.got.tgz:13911.got - 2010.06.03 20:15:42.
