data_PCOD9387953
_publ_section_title
;
Structure prediction by ZEFSAII (Michael W. Deem and Ramdas Pophale) SiO2 
 PCOD9387953
Probable space group: P M M M
;
_chemical_formula_sum "Si O2"
_cell_formula_units_Z 40
_cell_length_a 9.573446
_cell_length_b 7.676669
_cell_length_c 28.077478
_cell_angle_alpha 90.000000
_cell_angle_beta 90.000000
_cell_angle_gamma 90.000000
_cell_volume 2063.474959
_symmetry_space_group_name_H-M "P M M M"
_symmetry_group_IT_number 47
_symmetry_cell_setting 'orthorhombic'
loop_
_space_group_symop_operation_xyz
x,y,z
-x,-y,z
x,-y,-z
-x,y,-z
-x,-y,-z
x,y,-z
-x,y,z
x,-y,z
loop_
_atom_site_type_symbol
_atom_site_label
_atom_site_fract_x
_atom_site_fract_y
_atom_site_fract_z
Si Si1 0.340448 0.792294 0.603525
Si Si2 0.335128 0.699833 0.108072
Si Si3 0.660752 0.789151 0.783547
Si Si4 0.160284 0.213492 0.307120
Si Si5 0.835655 0.000000 0.056905
Si Si6 0.340603 0.292855 0.500000
O O1 0.500000 0.722088 0.605106
O O2 0.246052 0.726293 0.646607
O O3 0.279224 0.760891 0.550789
O O4 0.350268 0.000000 0.609525
O O5 0.500000 0.744404 0.102592
O O6 0.315288 0.500000 0.093273
O O7 0.303947 0.717356 0.164407
O O8 0.240460 0.832471 0.079124
O O9 0.500000 0.741888 0.772456
O O10 0.761477 0.732658 0.741128
O O11 0.666813 0.000000 0.786811
O O12 0.000000 0.269439 0.308291
O O13 0.161143 0.000000 0.307485
O O14 0.000000 0.000000 0.068769
O O15 0.821036 0.000000 0.000000
O O16 0.347421 0.500000 0.500000
O O17 0.500000 0.220061 0.500000
#
# Coordination Sequence:
#
# PCOD9387953 Si02
#       6
#     8   8   8   8   4   4
#     4   9  16  28  47  69  91 119 159 207 257 310
#     4  10  21  39  64  93 122 155 201 254 302 350
#     4   9  16  30  53  80 110 144 180 224 279 335
#     4   9  17  28  45  72 102 133 171 213 258 316
#     4  11  25  43  63  89 125 167 205 244 295 354
#     4   9  17  29  46  67  88 114 154 205 258 310
#
# _framework density 19.384777
#
# number of rings (size 3 to 8) (size 9 to 14) (size 15 to 20)
#    0.000    2.600    1.000    1.200    0.000    6.000 
#    0.000    3.500    0.000    9.600    0.000    0.000 
#    0.000    0.000    0.000    0.000    0.000    0.000 
#
# Total GULP energy -223229.333307 kJ/mol
# GULP energy per Si atom -5580.733333 kJ/mol
# Density = 1.934066 g / cm^3
# Si number density = 19.384777 Si / 1000 Ang^3
#
#
#
# Elastic Constant Matrix: (Units=GPa)
#
#
# Indices 1 2 3 4 5 6 
#
# 1 117.5968 46.4662 103.2614 0.0000 0.0000 0.0000
# 2 46.4662 63.8187 46.8898 0.0000 0.0000 0.0000
# 3 103.2614 46.8898 136.3330 0.0000 0.0000 0.0000
# 4 0.0000 0.0000 0.0000 -28.1752 0.0000 0.0000
# 5 0.0000 0.0000 0.0000 0.0000 122.6504 0.0000
# 6 0.0000 0.0000 0.0000 0.0000 0.0000 5.7692
#
#
#
# Elastic Compliance Matrix: (Units=1/GPa)
#
#
# Indices 1 2 3 4 5 6 
#
# 1 0.027122 -0.006228 -0.018401 0.000000 0.000000 0.000000
# 2 -0.006228 0.022398 -0.002986 0.000000 0.000000 0.000000
# 3 -0.018401 -0.002986 0.022299 0.000000 0.000000 0.000000
# 4 0.000000 0.000000 0.000000 -0.035492 0.000000 0.000000
# 5 0.000000 0.000000 0.000000 0.000000 0.008153 0.000000
# 6 0.000000 0.000000 0.000000 0.000000 0.000000 0.173335
#
#
# Mechanical properties :
#
#
# Convention : Reuss Voigt Hill
#
# Bulk Modulus (GPa) = 60.27989 78.99815 69.63902
# Shear Modulus (GPa) = 17.94842 28.12427 23.03634
#
# Velocity S-wave (km/s) = 3.04617 3.81313 3.45102
# Velocity P-wave (km/s) = 6.59820 7.76065 7.20291
#
# Compressibility (1/GPa) = 0.01658928
#
# Stress axis : x y z
#
# Youngs Moduli (GPa) = 36.87001 44.64669 44.84421
#
# Poissons Ratio (x) = 0.27805 0.82518
# Poissons Ratio (y) = 0.22962 0.13392
# Poissons Ratio (z) = 0.67845 0.13333
#
# Static dielectric constant tensor:
#      x y z
#    x 1.654680 0.000000 0.000000 
#    y 0.000000 1.711080 0.000000 
#    z 0.000000 0.000000 1.663340 
# 
# From -- ./inp_files/33055.got.cif
#   From: 2010.05.17/outbox.cif.g08.bks.cpg/sg47_17_cif.got.tgz:33055.got - 2010.06.03 20:15:42.
