data_PCOD9387770
_publ_section_title
;
Structure prediction by ZEFSAII (Michael W. Deem and Ramdas Pophale) SiO2 
 PCOD9387770
Probable space group: P M M M
;
_chemical_formula_sum "Si O2"
_cell_formula_units_Z 56
_cell_length_a 8.961432
_cell_length_b 15.917689
_cell_length_c 19.786263
_cell_angle_alpha 90.000000
_cell_angle_beta 90.000000
_cell_angle_gamma 90.000000
_cell_volume 2822.417176
_symmetry_space_group_name_H-M "P M M M"
_symmetry_group_IT_number 47
_symmetry_cell_setting 'orthorhombic'
loop_
_space_group_symop_operation_xyz
x,y,z
-x,-y,z
x,-y,-z
-x,y,-z
-x,-y,-z
x,y,-z
-x,y,z
x,-y,z
loop_
_atom_site_type_symbol
_atom_site_label
_atom_site_fract_x
_atom_site_fract_y
_atom_site_fract_z
Si Si1 0.672921 0.256646 0.921863
Si Si2 0.824056 0.741126 0.214082
Si Si3 0.678717 0.096801 0.716429
Si Si4 0.170413 0.353537 0.577973
Si Si5 0.675310 0.407314 0.704250
Si Si6 0.165974 0.907319 0.919085
Si Si7 0.823661 0.150887 0.577071
O O1 0.500000 0.278577 0.912992
O O2 0.774463 0.288648 0.861039
O O3 0.700561 0.157158 0.910921
O O4 0.715759 0.275871 0.000000
O O5 0.755082 0.830918 0.237643
O O6 0.761584 0.669263 0.262438
O O7 0.000000 0.746664 0.220339
O O8 0.500000 0.107124 0.720514
O O9 0.733132 0.111967 0.639118
O O10 0.715764 0.000000 0.734692
O O11 0.184900 0.377247 0.500000
O O12 0.286809 0.398972 0.625466
O O13 0.189330 0.252325 0.581957
O O14 0.000000 0.372430 0.599851
O O15 0.500000 0.397490 0.716596
O O16 0.721415 0.500000 0.728437
O O17 0.000000 0.877812 0.895618
O O18 0.192578 0.000000 0.891673
O O19 0.153064 0.913946 0.000000
O O20 0.779217 0.126834 0.500000
O O21 0.000000 0.130697 0.584647
#
# Coordination Sequence:
#
# PCOD9387770 Si02
#       7
#     8   8   8   8   8   8   8
#     4  10  21  37  59  86 115 149 188 233 292 359
#     4  12  25  42  65  89 119 158 200 249 299 354
#     4  11  24  40  59  86 121 161 207 257 308 361
#     4   9  18  34  58  89 124 162 203 247 298 354
#     4  11  24  41  63  92 125 160 199 245 301 363
#     4   8  14  26  45  71 105 143 183 227 273 326
#     4   9  18  34  57  85 118 159 206 254 305 357
#
# _framework density 19.841149000000001
#
# number of rings (size 3 to 8) (size 9 to 14) (size 15 to 20)
#    0.000    2.000    1.429    3.857    0.000    5.143 
#    0.000    5.714    0.000    0.429    0.000    3.000 
#    0.000    0.000    0.000    0.000    0.000    0.000 
#
# Total GULP energy -312375.275060 kJ/mol
# GULP energy per Si atom -5578.129912 kJ/mol
# Density = 1.979599 g / cm^3
# Si number density = 19.841149 Si / 1000 Ang^3
#
#
#
# Elastic Constant Matrix: (Units=GPa)
#
#
# Indices 1 2 3 4 5 6 
#
# 1 77.0846 41.3035 46.2726 0.0000 0.0000 0.0000
# 2 41.3035 73.2867 36.2582 0.0000 0.0000 0.0000
# 3 46.2726 36.2582 108.0452 0.0000 0.0000 0.0000
# 4 0.0000 0.0000 0.0000 0.5837 0.0000 0.0000
# 5 0.0000 0.0000 0.0000 0.0000 30.4647 0.0000
# 6 0.0000 0.0000 0.0000 0.0000 0.0000 29.8913
#
#
#
# Elastic Compliance Matrix: (Units=1/GPa)
#
#
# Indices 1 2 3 4 5 6 
#
# 1 0.021553 -0.009089 -0.006180 0.000000 0.000000 0.000000
# 2 -0.009089 0.020195 -0.002884 0.000000 0.000000 0.000000
# 3 -0.006180 -0.002884 0.012870 0.000000 0.000000 0.000000
# 4 0.000000 0.000000 0.000000 1.713289 0.000000 0.000000
# 5 0.000000 0.000000 0.000000 0.000000 0.032825 0.000000
# 6 0.000000 0.000000 0.000000 0.000000 0.000000 0.033455
#
#
# Mechanical properties :
#
#
# Convention : Reuss Voigt Hill
#
# Bulk Modulus (GPa) = 54.61512 56.23167 55.42340
# Shear Modulus (GPa) = 2.66440 21.16007 11.91223
#
# Velocity S-wave (km/s) = 1.16008 3.26923 2.45292
# Velocity P-wave (km/s) = 5.42036 6.53093 6.00139
#
# Compressibility (1/GPa) = 0.01830995
#
# Stress axis : x y z
#
# Youngs Moduli (GPa) = 46.39745 49.51797 77.69930
#
# Poissons Ratio (x) = 0.45009 0.48020
# Poissons Ratio (y) = 0.42172 0.22411
# Poissons Ratio (z) = 0.28675 0.14283
#
# Static dielectric constant tensor:
#      x y z
#    x 1.683040 0.000000 0.000000 
#    y 0.000000 1.714770 0.000000 
#    z 0.000000 0.000000 1.760310 
# 
# From -- ./inp_files/29717.got.cif
#   From: 2010.05.17/outbox.cif.g08.bks.cpg/sg47_15_cif.got.tgz:29717.got - 2010.06.03 20:15:42.
