data_PCOD9387937
_publ_section_title
;
Structure prediction by ZEFSAII (Michael W. Deem and Ramdas Pophale) SiO2 
 PCOD9387937
Probable space group: P M M M
;
_chemical_formula_sum "Si O2"
_cell_formula_units_Z 44
_cell_length_a 7.324223
_cell_length_b 33.258287
_cell_length_c 9.166759
_cell_angle_alpha 90.000000
_cell_angle_beta 90.000000
_cell_angle_gamma 90.000000
_cell_volume 2232.941005
_symmetry_space_group_name_H-M "P M M M"
_symmetry_group_IT_number 47
_symmetry_cell_setting 'orthorhombic'
loop_
_space_group_symop_operation_xyz
x,y,z
-x,-y,z
x,-y,-z
-x,y,-z
-x,-y,-z
x,y,-z
-x,y,z
x,-y,z
loop_
_atom_site_type_symbol
_atom_site_label
_atom_site_fract_x
_atom_site_fract_y
_atom_site_fract_z
Si Si1 0.721412 0.000000 0.168397
Si Si2 0.277326 0.624247 0.167480
Si Si3 0.000000 0.859363 0.824889
Si Si4 0.280780 0.082641 0.327345
Si Si5 0.722150 0.544229 0.669696
Si Si6 0.713176 0.294633 0.326554
Si Si7 0.000000 0.226560 0.325047
O O1 0.774226 0.040176 0.254688
O O2 0.500000 0.000000 0.165449
O O3 0.783381 0.000000 0.000000
O O4 0.500000 0.623937 0.173759
O O5 0.215213 0.583206 0.243620
O O6 0.220673 0.665080 0.247303
O O7 0.222777 0.624965 0.000000
O O8 0.173831 0.882669 0.757331
O O9 0.000000 0.814028 0.765808
O O10 0.000000 0.861255 0.000000
O O11 0.238227 0.083073 0.500000
O O12 0.500000 0.086965 0.312504
O O13 0.773716 0.547563 0.500000
O O14 0.500000 0.544440 0.674122
O O15 0.779691 0.500000 0.723927
O O16 0.730134 0.301363 0.500000
O O17 0.500000 0.288716 0.291926
O O18 0.827632 0.255071 0.291167
O O19 0.000000 0.217875 0.500000
#
# Coordination Sequence:
#
# PCOD9387937 Si02
#       7
#     4   8   4   8   8   8   4
#     4   9  17  32  57  90 126 159 195 242 293 342
#     4   9  16  25  40  65  96 128 164 207 254 308
#     4  12  26  41  59  86 120 155 192 238 294 353
#     4  10  21  39  63  89 120 160 204 246 286 334
#     4   8  13  21  34  55  87 127 167 205 246 296
#     4   9  18  34  56  78 101 132 170 216 268 319
#     4  10  22  40  59  81 107 137 182 230 273 332
#
# _framework density 19.704955999999999
#
# number of rings (size 3 to 8) (size 9 to 14) (size 15 to 20)
#    0.000    2.636    0.000    2.727    0.000    6.545 
#    0.000    5.455    0.000    0.000    0.000    0.636 
#    0.000    5.091    0.000    0.545    0.000    0.000 
#
# Total GULP energy -245734.791741 kJ/mol
# GULP energy per Si atom -5584.881630 kJ/mol
# Density = 1.966011 g / cm^3
# Si number density = 19.704956 Si / 1000 Ang^3
#
#
#
# Elastic Constant Matrix: (Units=GPa)
#
#
# Indices 1 2 3 4 5 6 
#
# 1 90.1894 58.8620 49.0351 0.0000 0.0000 0.0000
# 2 58.8620 221.1601 120.7384 0.0000 0.0000 0.0000
# 3 49.0351 120.7384 133.2857 0.0000 0.0000 0.0000
# 4 0.0000 0.0000 0.0000 -30.9876 0.0000 0.0000
# 5 0.0000 0.0000 0.0000 0.0000 8.2030 0.0000
# 6 0.0000 0.0000 0.0000 0.0000 0.0000 41.3333
#
#
#
# Elastic Compliance Matrix: (Units=1/GPa)
#
#
# Indices 1 2 3 4 5 6 
#
# 1 0.014228 -0.001838 -0.003569 0.000000 0.000000 0.000000
# 2 -0.001838 0.009183 -0.007642 0.000000 0.000000 0.000000
# 3 -0.003569 -0.007642 0.015739 0.000000 0.000000 0.000000
# 4 0.000000 0.000000 0.000000 -0.032271 0.000000 0.000000
# 5 0.000000 0.000000 0.000000 0.000000 0.121907 0.000000
# 6 0.000000 0.000000 0.000000 0.000000 0.000000 0.024194
#
#
# Mechanical properties :
#
#
# Convention : Reuss Voigt Hill
#
# Bulk Modulus (GPa) = 76.62713 100.21180 88.41947
# Shear Modulus (GPa) = 27.25854 18.10973 22.68414
#
# Velocity S-wave (km/s) = 3.72336 3.03486 3.39660
# Velocity P-wave (km/s) = 7.57998 7.95280 7.76863
#
# Compressibility (1/GPa) = 0.01305021
#
# Stress axis : x y z
#
# Youngs Moduli (GPa) = 70.28364 108.89666 63.53804
#
# Poissons Ratio (x) = 0.20018 0.22678
# Poissons Ratio (y) = 0.12920 0.48557
# Poissons Ratio (z) = 0.25086 0.83222
#
# Static dielectric constant tensor:
#      x y z
#    x 1.771370 0.000000 0.000000 
#    y 0.000000 1.649720 0.000000 
#    z 0.000000 0.000000 1.650860 
# 
# From -- ./inp_files/2362.got.cif
#   From: 2010.05.17/outbox.cif.g08.bks.cpg/sg47_2_cif.got.tgz:2362.got - 2010.06.03 20:15:42.
