data_PCOD9387235
_publ_section_title
;
Structure prediction by ZEFSAII (Michael W. Deem and Ramdas Pophale) SiO2 
 PCOD9387235
Probable space group: P M M M
;
_chemical_formula_sum "Si O2"
_cell_formula_units_Z 48
_cell_length_a 19.317915
_cell_length_b 13.122702
_cell_length_c 7.352083
_cell_angle_alpha 90.000000
_cell_angle_beta 90.000000
_cell_angle_gamma 90.000000
_cell_volume 1863.776875
_symmetry_space_group_name_H-M "P M M M"
_symmetry_group_IT_number 47
_symmetry_cell_setting 'orthorhombic'
loop_
_space_group_symop_operation_xyz
x,y,z
-x,-y,z
x,-y,-z
-x,y,-z
-x,-y,-z
x,y,-z
-x,y,z
x,-y,z
loop_
_atom_site_type_symbol
_atom_site_label
_atom_site_fract_x
_atom_site_fract_y
_atom_site_fract_z
Si Si1 0.574533 0.333289 0.208034
Si Si2 0.922415 0.838929 0.777330
Si Si3 0.275707 0.388371 0.778789
Si Si4 0.382599 0.889915 0.289181
Si Si5 0.082470 0.391341 0.794010
Si Si6 0.773356 0.167809 0.780032
O O1 0.500000 0.357054 0.290910
O O2 0.645466 0.375394 0.288363
O O3 0.585743 0.211166 0.203727
O O4 0.572701 0.369845 0.000000
O O5 0.912644 0.721443 0.716767
O O6 0.846875 0.881340 0.724029
O O7 0.000000 0.874008 0.719967
O O8 0.924770 0.841867 0.000000
O O9 0.250730 0.500000 0.724906
O O10 0.234018 0.287462 0.724092
O O11 0.277746 0.385524 0.000000
O O12 0.402717 0.886586 0.500000
O O13 0.298842 0.881348 0.279458
O O14 0.403058 0.000000 0.213692
O O15 0.103665 0.500000 0.711191
O O16 0.000000 0.399034 0.812873
O O17 0.112772 0.387626 0.000000
O O18 0.772465 0.165100 0.000000
#
# Coordination Sequence:
#
# PCOD9387235 Si02
#       6
#     8   8   8   8   8   8
#     4   9  18  32  51  77 105 130 158 192 230 273
#     4   8  13  21  35  58  88 119 150 189 239 288
#     4   8  14  25  42  67 100 135 167 195 223 261
#     4  10  21  36  53  71  92 122 158 195 240 292
#     4   7   9  13  22  41  74 112 142 169 209 262
#     4   9  17  29  47  71  96 124 161 202 241 283
#
# _framework density 25.754155000000001
#
# number of rings (size 3 to 8) (size 9 to 14) (size 15 to 20)
#    0.000    3.500    0.000    3.000    0.000    3.000 
#    0.000    6.667    0.000    9.000    0.000    8.167 
#    0.000    0.000    0.000   10.167    0.000   10.000 
#
# Total GULP energy -267603.188246 kJ/mol
# GULP energy per Si atom -5575.066422 kJ/mol
# Density = 2.569554 g / cm^3
# Si number density = 25.754155 Si / 1000 Ang^3
#
#
#
# Elastic Constant Matrix: (Units=GPa)
#
#
# Indices 1 2 3 4 5 6 
#
# 1 200.8281 -1.0267 0.6581 0.0000 0.0000 0.0000
# 2 -1.0267 116.2488 -3.3800 0.0000 0.0000 0.0000
# 3 0.6581 -3.3800 95.5975 0.0000 0.0000 0.0000
# 4 0.0000 0.0000 0.0000 4.6502 0.0000 0.0000
# 5 0.0000 0.0000 0.0000 0.0000 18.4693 0.0000
# 6 0.0000 0.0000 0.0000 0.0000 0.0000 -20.9358
#
#
#
# Elastic Compliance Matrix: (Units=1/GPa)
#
#
# Indices 1 2 3 4 5 6 
#
# 1 0.004980 0.000043 -0.000033 0.000000 0.000000 0.000000
# 2 0.000043 0.008611 0.000304 0.000000 0.000000 0.000000
# 3 -0.000033 0.000304 0.010472 0.000000 0.000000 0.000000
# 4 0.000000 0.000000 0.000000 0.215044 0.000000 0.000000
# 5 0.000000 0.000000 0.000000 0.000000 0.054144 0.000000
# 6 0.000000 0.000000 0.000000 0.000000 0.000000 -0.047765
#
#
# Mechanical properties :
#
#
# Convention : Reuss Voigt Hill
#
# Bulk Modulus (GPa) = 40.49964 45.01967 42.75966
# Shear Modulus (GPa) = 19.75606 28.19828 23.97717
#
# Velocity S-wave (km/s) = 2.77267 3.31252 3.05454
# Velocity P-wave (km/s) = 5.09998 5.67000 5.39253
#
# Compressibility (1/GPa) = 0.02469158
#
# Stress axis : x y z
#
# Youngs Moduli (GPa) = 200.81494 116.12425 95.49727
#
# Poissons Ratio (x) = -0.00500 0.00313
# Poissons Ratio (y) = -0.00864 -0.02905
# Poissons Ratio (z) = 0.00658 -0.03532
#
# Static dielectric constant tensor:
#      x y z
#    x 2.040140 0.000000 0.000000 
#    y 0.000000 1.907420 0.000000 
#    z 0.000000 0.000000 2.002810 
# 
# From -- ./inp_files/10874.got.cif
#   From: 2010.05.17/outbox.cif.g08.bks.cpg/sg47_6_cif.got.tgz:10874.got - 2010.06.03 20:15:42.
