data_PCOD9387039
_publ_section_title
;
Structure prediction by ZEFSAII (Michael W. Deem and Ramdas Pophale) SiO2 
 PCOD9387039
Probable space group: P M M M
;
_chemical_formula_sum "Si O2"
_cell_formula_units_Z 52
_cell_length_a 20.218709
_cell_length_b 9.728820
_cell_length_c 14.312649
_cell_angle_alpha 90.000000
_cell_angle_beta 90.000000
_cell_angle_gamma 90.000000
_cell_volume 2815.357892
_symmetry_space_group_name_H-M "P M M M"
_symmetry_group_IT_number 47
_symmetry_cell_setting 'orthorhombic'
loop_
_space_group_symop_operation_xyz
x,y,z
-x,-y,z
x,-y,-z
-x,y,-z
-x,-y,-z
x,y,-z
-x,y,z
x,-y,z
loop_
_atom_site_type_symbol
_atom_site_label
_atom_site_fract_x
_atom_site_fract_y
_atom_site_fract_z
Si Si1 0.578659 0.500000 0.893875
Si Si2 0.229256 0.339850 0.609564
Si Si3 0.576184 0.786058 0.799622
Si Si4 0.707924 0.844703 0.897358
Si Si5 0.825577 0.833672 0.233395
Si Si6 0.361363 0.840524 0.606239
Si Si7 0.079341 0.341862 0.109581
O O1 0.500000 0.500000 0.906607
O O2 0.592050 0.631240 0.830937
O O3 0.606968 0.500000 0.000000
O O4 0.212195 0.337844 0.500000
O O5 0.232199 0.500000 0.639535
O O6 0.179464 0.247221 0.669397
O O7 0.300451 0.263898 0.617497
O O8 0.500000 0.818933 0.823926
O O9 0.633945 0.856836 0.858361
O O10 0.588139 0.812880 0.690329
O O11 0.758339 0.786915 0.821480
O O12 0.732763 0.000000 0.907943
O O13 0.708854 0.778253 0.000000
O O14 0.884489 0.771296 0.171796
O O15 0.827973 0.000000 0.244219
O O16 0.387543 0.825745 0.500000
O O17 0.338482 0.000000 0.616113
O O18 0.098112 0.500000 0.134718
O O19 0.000000 0.332025 0.118098
O O20 0.096096 0.322140 0.000000
#
# Coordination Sequence:
#
# PCOD9387039 Si02
#       7
#     4   8   8   8   8   8   8
#     4   9  20  38  55  73 101 139 183 231 287 350
#     4  10  21  37  59  85 112 147 193 241 290 350
#     4  11  22  36  55  76 103 145 194 242 293 352
#     4  10  21  35  50  74 108 142 182 235 287 336
#     4  11  21  35  58  86 119 156 192 238 292 344
#     4  10  21  37  56  80 112 146 184 239 304 361
#     4   9  19  37  60  88 125 165 201 236 276 330
#
# _framework density 18.470120000000001
#
# number of rings (size 3 to 8) (size 9 to 14) (size 15 to 20)
#    0.000    1.923    1.538    2.769    1.077    4.615 
#    1.385    2.308    0.000    1.846    0.000    3.231 
#    0.000    0.000    0.000    0.000    0.000    0.000 
#
# Total GULP energy -289641.462530 kJ/mol
# GULP energy per Si atom -5570.028126 kJ/mol
# Density = 1.842808 g / cm^3
# Si number density = 18.470120 Si / 1000 Ang^3
#
#
#
# Elastic Constant Matrix: (Units=GPa)
#
#
# Indices 1 2 3 4 5 6 
#
# 1 44.4554 28.4093 22.6164 0.0000 0.0000 0.0000
# 2 28.4093 130.0595 46.7236 0.0000 0.0000 0.0000
# 3 22.6164 46.7236 91.6801 0.0000 0.0000 0.0000
# 4 0.0000 0.0000 0.0000 30.2149 0.0000 0.0000
# 5 0.0000 0.0000 0.0000 0.0000 35.5012 0.0000
# 6 0.0000 0.0000 0.0000 0.0000 0.0000 23.0499
#
#
#
# Elastic Compliance Matrix: (Units=1/GPa)
#
#
# Indices 1 2 3 4 5 6 
#
# 1 0.027629 -0.004390 -0.004578 0.000000 0.000000 0.000000
# 2 -0.004390 0.010110 -0.004069 0.000000 0.000000 0.000000
# 3 -0.004578 -0.004069 0.014111 0.000000 0.000000 0.000000
# 4 0.000000 0.000000 0.000000 0.033096 0.000000 0.000000
# 5 0.000000 0.000000 0.000000 0.000000 0.028168 0.000000
# 6 0.000000 0.000000 0.000000 0.000000 0.000000 0.043384
#
#
# Mechanical properties :
#
#
# Convention : Reuss Voigt Hill
#
# Bulk Modulus (GPa) = 38.79899 51.29929 45.04914
# Shear Modulus (GPa) = 26.15537 28.98290 27.56914
#
# Velocity S-wave (km/s) = 3.76718 3.96558 3.86765
# Velocity P-wave (km/s) = 6.32251 6.98586 6.66245
#
# Compressibility (1/GPa) = 0.02577386
#
# Stress axis : x y z
#
# Youngs Moduli (GPa) = 36.19343 98.91539 70.86810
#
# Poissons Ratio (x) = 0.43428 0.32446
# Poissons Ratio (y) = 0.15890 0.28838
# Poissons Ratio (z) = 0.16570 0.40251
#
# Static dielectric constant tensor:
#      x y z
#    x 1.624280 0.000000 0.000000 
#    y 0.000000 1.444370 0.000000 
#    z 0.000000 0.000000 1.682410 
# 
# From -- ./inp_files/24999.got.cif
#   From: 2010.05.17/outbox.cif.g08.bks.cpg/sg47_13_cif.got.tgz:24999.got - 2010.06.03 20:15:42.
