data_PCOD9387559
_publ_section_title
;
Structure prediction by ZEFSAII (Michael W. Deem and Ramdas Pophale) SiO2 
 PCOD9387559
Probable space group: P M M M
;
_chemical_formula_sum "Si O2"
_cell_formula_units_Z 32
_cell_length_a 9.744518
_cell_length_b 21.592765
_cell_length_c 8.132950
_cell_angle_alpha 90.000000
_cell_angle_beta 90.000000
_cell_angle_gamma 90.000000
_cell_volume 1711.262852
_symmetry_space_group_name_H-M "P M M M"
_symmetry_group_IT_number 47
_symmetry_cell_setting 'orthorhombic'
loop_
_space_group_symop_operation_xyz
x,y,z
-x,-y,z
x,-y,-z
-x,y,-z
-x,-y,-z
x,y,-z
-x,y,z
x,-y,z
loop_
_atom_site_type_symbol
_atom_site_label
_atom_site_fract_x
_atom_site_fract_y
_atom_site_fract_z
Si Si1 0.842797 0.750694 0.801538
Si Si2 0.667101 0.000000 0.808570
Si Si3 0.344087 0.500000 0.195818
Si Si4 0.340918 0.134900 0.201729
Si Si5 0.157173 0.386071 0.696158
O O1 0.749680 0.807394 0.743116
O O2 0.796062 0.682385 0.749310
O O3 0.000000 0.757922 0.744367
O O4 0.842770 0.752345 0.000000
O O5 0.708148 0.933085 0.739031
O O6 0.500000 0.000000 0.807186
O O7 0.710102 0.000000 0.000000
O O8 0.500000 0.500000 0.262701
O O9 0.258549 0.560386 0.247085
O O10 0.352463 0.500000 0.000000
O O11 0.500000 0.143056 0.248280
O O12 0.337664 0.133156 0.000000
O O13 0.151151 0.387968 0.500000
O O14 0.000000 0.395242 0.759328
#
# Coordination Sequence:
#
# PCOD9387559 Si02
#       5
#     8   4   4   8   8
#     4   9  17  29  45  67  95 124 155 195 241 285
#     4   7  10  18  33  55  84 117 152 190 234 283
#     4  11  24  39  56  80 106 129 156 195 242 288
#     4   8  13  22  38  60  87 120 156 193 235 285
#     4  10  21  37  56  76  99 131 168 201 237 286
#
# _framework density 18.699641
#
# number of rings (size 3 to 8) (size 9 to 14) (size 15 to 20)
#    0.000    3.000    0.000    3.000    0.000    5.000 
#    0.000    3.125    0.000    3.750    0.000    0.875 
#    0.000    7.000    0.000    0.000    0.000    0.000 
#
# Total GULP energy -178316.044896 kJ/mol
# GULP energy per Si atom -5572.376403 kJ/mol
# Density = 1.865708 g / cm^3
# Si number density = 18.699641 Si / 1000 Ang^3
#
#
#
# Elastic Constant Matrix: (Units=GPa)
#
#
# Indices 1 2 3 4 5 6 
#
# 1 81.6716 113.3403 9.5514 0.0000 0.0000 0.0000
# 2 113.3403 240.5544 16.8737 0.0000 0.0000 0.0000
# 3 9.5514 16.8737 13.9390 0.0000 0.0000 0.0000
# 4 0.0000 0.0000 0.0000 -37.6975 0.0000 0.0000
# 5 0.0000 0.0000 0.0000 0.0000 10.1889 0.0000
# 6 0.0000 0.0000 0.0000 0.0000 0.0000 39.2977
#
#
#
# Elastic Compliance Matrix: (Units=1/GPa)
#
#
# Indices 1 2 3 4 5 6 
#
# 1 0.035627 -0.016472 -0.004472 0.000000 0.000000 0.000000
# 2 -0.016472 0.012159 -0.003432 0.000000 0.000000 0.000000
# 3 -0.004472 -0.003432 0.078960 0.000000 0.000000 0.000000
# 4 0.000000 0.000000 0.000000 -0.026527 0.000000 0.000000
# 5 0.000000 0.000000 0.000000 0.000000 0.098146 0.000000
# 6 0.000000 0.000000 0.000000 0.000000 0.000000 0.025447
#
#
# Mechanical properties :
#
#
# Convention : Reuss Voigt Hill
#
# Bulk Modulus (GPa) = 12.82159 68.41065 40.61612
# Shear Modulus (GPa) = 16.74702 15.45112 16.09907
#
# Velocity S-wave (km/s) = 2.99587 2.87763 2.93734
# Velocity P-wave (km/s) = 4.34033 6.90683 5.76814
#
# Compressibility (1/GPa) = 0.07799343
#
# Stress axis : x y z
#
# Youngs Moduli (GPa) = 28.06890 82.24437 12.66472
#
# Poissons Ratio (x) = 1.35475 0.05664
# Poissons Ratio (y) = 0.46236 0.04346
# Poissons Ratio (z) = 0.12552 0.28223
#
# Static dielectric constant tensor:
#      x y z
#    x 1.644400 0.000000 0.000000 
#    y 0.000000 1.656740 0.000000 
#    z 0.000000 0.000000 1.650190 
# 
# From -- ./inp_files/3575.got.cif
#   From: 2010.05.17/outbox.cif.g08.bks.cpg/sg47_2_cif.got.tgz:3575.got - 2010.06.03 20:15:42.
