data_PCOD9387648
_publ_section_title
;
Structure prediction by ZEFSAII (Michael W. Deem and Ramdas Pophale) SiO2 
 PCOD9387648
Probable space group: P M M M
;
_chemical_formula_sum "Si O2"
_cell_formula_units_Z 40
_cell_length_a 26.712840
_cell_length_b 7.758178
_cell_length_c 9.413634
_cell_angle_alpha 90.000000
_cell_angle_beta 90.000000
_cell_angle_gamma 90.000000
_cell_volume 1950.909446
_symmetry_space_group_name_H-M "P M M M"
_symmetry_group_IT_number 47
_symmetry_cell_setting 'orthorhombic'
loop_
_space_group_symop_operation_xyz
x,y,z
-x,-y,z
x,-y,-z
-x,y,-z
-x,-y,-z
x,y,-z
-x,y,z
x,-y,z
loop_
_atom_site_type_symbol
_atom_site_label
_atom_site_fract_x
_atom_site_fract_y
_atom_site_fract_z
Si Si1 0.803124 0.211213 0.163290
Si Si2 0.292370 0.205561 0.338082
Si Si3 0.000000 0.789173 0.835875
Si Si4 0.098515 0.210721 0.663894
Si Si5 0.402797 0.295327 0.660705
Si Si6 0.500000 0.204487 0.158749
O O1 0.751957 0.270678 0.238256
O O2 0.851055 0.264559 0.255566
O O3 0.802976 0.000000 0.162210
O O4 0.806730 0.266874 0.000000
O O5 0.289227 0.274761 0.500000
O O6 0.348637 0.236339 0.284294
O O7 0.285634 0.000000 0.347177
O O8 0.950378 0.734616 0.751525
O O9 0.000000 0.000000 0.837007
O O10 0.000000 0.733518 0.000000
O O11 0.097284 0.266834 0.500000
O O12 0.098342 0.000000 0.662596
O O13 0.409072 0.223976 0.500000
O O14 0.400514 0.500000 0.650613
O O15 0.450098 0.252172 0.756231
O O16 0.500000 0.000000 0.147572
O O17 0.500000 0.279789 0.000000
#
# Coordination Sequence:
#
# PCOD9387648 Si02
#       6
#     8   8   4   8   8   4
#     4   9  16  25  38  57  81 110 147 192 238 283
#     4   9  17  30  48  69  93 123 159 198 240 287
#     4   9  15  21  29  43  67 101 142 187 234 285
#     4   9  15  22  32  47  70 103 144 188 234 285
#     4  10  21  37  57  80 105 134 168 205 247 296
#     4  11  24  39  56  80 108 137 170 207 246 290
#
# _framework density 20.503257999999999
#
# number of rings (size 3 to 8) (size 9 to 14) (size 15 to 20)
#    0.000    2.600    0.000    2.700    0.000   10.000 
#    0.000    2.000    0.000    0.000    0.000    0.000 
#    0.000    0.000    0.000    0.900    0.000   19.600 
#
# Total GULP energy -223317.971479 kJ/mol
# GULP energy per Si atom -5582.949287 kJ/mol
# Density = 2.045659 g / cm^3
# Si number density = 20.503258 Si / 1000 Ang^3
#
#
#
# Elastic Constant Matrix: (Units=GPa)
#
#
# Indices 1 2 3 4 5 6 
#
# 1 235.8307 1.2698 145.0528 0.0000 0.0000 0.0000
# 2 1.2698 29.4759 4.7076 0.0000 0.0000 0.0000
# 3 145.0528 4.7076 180.8865 0.0000 0.0000 0.0000
# 4 0.0000 0.0000 0.0000 0.1711 0.0000 0.0000
# 5 0.0000 0.0000 0.0000 0.0000 -13.2822 0.0000
# 6 0.0000 0.0000 0.0000 0.0000 0.0000 -44.7121
#
#
#
# Elastic Compliance Matrix: (Units=1/GPa)
#
#
# Indices 1 2 3 4 5 6 
#
# 1 0.008382 0.000715 -0.006740 0.000000 0.000000 0.000000
# 2 0.000715 0.034129 -0.001462 0.000000 0.000000 0.000000
# 3 -0.006740 -0.001462 0.010971 0.000000 0.000000 0.000000
# 4 0.000000 0.000000 0.000000 5.845472 0.000000 0.000000
# 5 0.000000 0.000000 0.000000 0.000000 -0.075289 0.000000
# 6 0.000000 0.000000 0.000000 0.000000 0.000000 -0.022365
#
#
# Mechanical properties :
#
#
# Convention : Reuss Voigt Hill
#
# Bulk Modulus (GPa) = 25.96816 83.13926 54.55371
# Shear Modulus (GPa) = 0.85776 8.11287 4.48532
#
# Velocity S-wave (km/s) = 0.64751 1.99135 1.48066
# Velocity P-wave (km/s) = 3.64031 6.77677 5.43951
#
# Compressibility (1/GPa) = 0.03850870
#
# Stress axis : x y z
#
# Youngs Moduli (GPa) = 119.29915 29.30091 91.14549
#
# Poissons Ratio (x) = -0.02096 0.61435
# Poissons Ratio (y) = -0.08535 0.13324
# Poissons Ratio (z) = 0.80412 0.04283
#
# Static dielectric constant tensor:
#      x y z
#    x 2.036470 0.000000 0.000000 
#    y 0.000000 1.741590 0.000000 
#    z 0.000000 0.000000 1.728870 
# 
# From -- ./inp_files/1884.got.cif
#   From: 2010.05.17/outbox.cif.g08.bks.cpg/sg47_1_cif.got.tgz:1884.got - 2010.06.03 20:15:42.
