data_PCOD9387936
_publ_section_title
;
Structure prediction by ZEFSAII (Michael W. Deem and Ramdas Pophale) SiO2 
 PCOD9387936
Probable space group: P M M M
;
_chemical_formula_sum "Si O2"
_cell_formula_units_Z 56
_cell_length_a 15.940627
_cell_length_b 7.756087
_cell_length_c 20.815682
_cell_angle_alpha 90.000000
_cell_angle_beta 90.000000
_cell_angle_gamma 90.000000
_cell_volume 2573.586183
_symmetry_space_group_name_H-M "P M M M"
_symmetry_group_IT_number 47
_symmetry_cell_setting 'orthorhombic'
loop_
_space_group_symop_operation_xyz
x,y,z
-x,-y,z
x,-y,-z
-x,y,-z
-x,-y,-z
x,y,-z
-x,y,z
x,-y,z
loop_
_atom_site_type_symbol
_atom_site_label
_atom_site_fract_x
_atom_site_fract_y
_atom_site_fract_z
Si Si1 0.661834 0.793301 0.706154
Si Si2 0.745684 0.204428 0.072151
Si Si3 0.407091 0.211475 0.158759
Si Si4 0.856301 0.790533 0.707552
Si Si5 0.676155 0.295391 0.569066
Si Si6 0.870302 0.799380 0.430558
Si Si7 0.909442 0.296273 0.150875
O O1 0.611522 0.732193 0.768121
O O2 0.758773 0.733272 0.711239
O O3 0.630042 0.747043 0.635193
O O4 0.664024 0.000000 0.709319
O O5 0.667083 0.273941 0.112682
O O6 0.830419 0.224968 0.112632
O O7 0.731211 0.000000 0.066745
O O8 0.752559 0.275593 0.000000
O O9 0.500000 0.264009 0.138458
O O10 0.405189 0.000000 0.158985
O O11 0.894268 0.728001 0.639467
O O12 0.899255 0.735421 0.773091
O O13 0.857236 0.000000 0.705547
O O14 0.637123 0.247964 0.500000
O O15 0.690822 0.500000 0.568893
O O16 0.768307 0.208482 0.571172
O O17 0.895396 0.722744 0.500000
O O18 0.895639 0.000000 0.431677
O O19 0.909165 0.500000 0.140012
O O20 0.000000 0.225237 0.130143
#
# Coordination Sequence:
#
# PCOD9387936 Si02
#       7
#     8   8   8   8   8   8   8
#     4   9  16  28  48  73 103 139 177 219 267 318
#     4  10  21  39  63  89 115 142 175 216 265 322
#     4   9  17  32  56  86 117 144 174 216 265 318
#     4   9  16  29  51  77 105 139 182 229 273 320
#     4   9  16  24  37  63  98 135 179 228 272 315
#     4   8  14  25  42  67 100 136 174 219 272 325
#     4  11  24  39  56  80 111 148 187 226 270 320
#
# _framework density 21.759522
#
# number of rings (size 3 to 8) (size 9 to 14) (size 15 to 20)
#    0.000    2.714    1.429    1.714    0.000    5.143 
#    0.000    2.857    0.000    2.571    0.000    7.000 
#    0.000    0.000    0.000    0.000    0.000    0.000 
#
# Total GULP energy -312298.070058 kJ/mol
# GULP energy per Si atom -5576.751251 kJ/mol
# Density = 2.171000 g / cm^3
# Si number density = 21.759522 Si / 1000 Ang^3
#
#
#
# Elastic Constant Matrix: (Units=GPa)
#
#
# Indices 1 2 3 4 5 6 
#
# 1 110.0678 3.9107 79.5476 0.0000 0.0000 0.0000
# 2 3.9107 31.5098 2.5605 0.0000 0.0000 0.0000
# 3 79.5476 2.5605 190.4697 0.0000 0.0000 0.0000
# 4 0.0000 0.0000 0.0000 -70.5953 0.0000 0.0000
# 5 0.0000 0.0000 0.0000 0.0000 13.3916 0.0000
# 6 0.0000 0.0000 0.0000 0.0000 0.0000 7.4493
#
#
#
# Elastic Compliance Matrix: (Units=1/GPa)
#
#
# Indices 1 2 3 4 5 6 
#
# 1 0.013057 -0.001179 -0.005437 0.000000 0.000000 0.000000
# 2 -0.001179 0.031877 0.000064 0.000000 0.000000 0.000000
# 3 -0.005437 0.000064 0.007520 0.000000 0.000000 0.000000
# 4 0.000000 0.000000 0.000000 -0.014165 0.000000 0.000000
# 5 0.000000 0.000000 0.000000 0.000000 0.074674 0.000000
# 6 0.000000 0.000000 0.000000 0.000000 0.000000 0.134241
#
#
# Mechanical properties :
#
#
# Convention : Reuss Voigt Hill
#
# Bulk Modulus (GPa) = 25.41306 56.00945 40.71125
# Shear Modulus (GPa) = 18.28660 6.45100 12.36880
#
# Velocity S-wave (km/s) = 2.90210 1.72369 2.38677
# Velocity P-wave (km/s) = 4.78895 5.45505 5.13281
#
# Compressibility (1/GPa) = 0.03934985
#
# Stress axis : x y z
#
# Youngs Moduli (GPa) = 76.58908 31.37037 132.97716
#
# Poissons Ratio (x) = 0.03697 0.72302
# Poissons Ratio (y) = 0.09027 -0.00847
# Poissons Ratio (z) = 0.41643 -0.00200
#
# Static dielectric constant tensor:
#      x y z
#    x 1.794220 0.000000 0.000000 
#    y 0.000000 1.804200 0.000000 
#    z 0.000000 0.000000 1.828990 
# 
# From -- ./inp_files/25128.got.cif
#   From: 2010.05.17/outbox.cif.g08.bks.cpg/sg47_13_cif.got.tgz:25128.got - 2010.06.03 20:15:42.
