data_PCOD9387734
_publ_section_title
;
Structure prediction by ZEFSAII (Michael W. Deem and Ramdas Pophale) SiO2 
 PCOD9387734
Probable space group: P M M M
;
_chemical_formula_sum "Si O2"
_cell_formula_units_Z 52
_cell_length_a 21.739374
_cell_length_b 7.950698
_cell_length_c 14.855630
_cell_angle_alpha 90.000000
_cell_angle_beta 90.000000
_cell_angle_gamma 90.000000
_cell_volume 2567.694588
_symmetry_space_group_name_H-M "P M M M"
_symmetry_group_IT_number 47
_symmetry_cell_setting 'orthorhombic'
loop_
_space_group_symop_operation_xyz
x,y,z
-x,-y,z
x,-y,-z
-x,y,-z
-x,-y,-z
x,y,-z
-x,y,z
x,-y,z
loop_
_atom_site_type_symbol
_atom_site_label
_atom_site_fract_x
_atom_site_fract_y
_atom_site_fract_z
Si Si1 0.433679 0.000000 0.851613
Si Si2 0.115245 0.800879 0.770511
Si Si3 0.665537 0.689437 0.607642
Si Si4 0.358181 0.674397 0.892905
Si Si5 0.428777 0.000000 0.640201
Si Si6 0.195774 0.204236 0.394732
Si Si7 0.232490 0.802752 0.104089
Si Si8 0.000000 0.793287 0.892477
O O1 0.398068 0.833993 0.875546
O O2 0.438109 0.000000 0.745590
O O3 0.500000 0.000000 0.894958
O O4 0.141867 0.736932 0.674121
O O5 0.173045 0.783797 0.836470
O O6 0.058168 0.737416 0.830939
O O7 0.102302 0.000000 0.756162
O O8 0.669709 0.679905 0.500000
O O9 0.650081 0.500000 0.641184
O O10 0.735462 0.739344 0.635699
O O11 0.613991 0.834479 0.622720
O O12 0.385945 0.500000 0.860535
O O13 0.289663 0.700831 0.857380
O O14 0.350567 0.667757 0.000000
O O15 0.500000 0.000000 0.601885
O O16 0.186419 0.253773 0.500000
O O17 0.196480 0.000000 0.391806
O O18 0.250657 0.000000 0.104749
O O19 0.219915 0.757448 0.000000
O O20 0.000000 0.000000 0.895978
O O21 0.000000 0.742268 0.000000
#
# Coordination Sequence:
#
# PCOD9387734 Si02
#       8
#     4   8   8   8   4   8   8   4
#     4  11  25  41  57  79 113 153 190 233 291 358
#     4   9  17  27  47  75 108 154 195 236 295 352
#     4  10  21  38  62  89 116 152 199 250 304 361
#     4  10  21  37  58  83 109 142 191 247 297 350
#     4  11  25  41  59  85 121 159 195 242 303 371
#     4   9  17  31  51  78 112 150 197 249 298 353
#     4   9  16  28  48  76 106 137 180 235 294 353
#     4   9  16  28  45  75 120 159 199 246 291 353
#
# _framework density 20.251629000000001
#
# number of rings (size 3 to 8) (size 9 to 14) (size 15 to 20)
#    0.000    2.385    1.538    0.923    2.154    4.308 
#    0.000    3.462    0.000    2.308    0.000    2.154 
#    0.000    7.385    0.000    0.000    0.000    0.000 
#
# Total GULP energy -289580.816494 kJ/mol
# GULP energy per Si atom -5568.861856 kJ/mol
# Density = 2.020554 g / cm^3
# Si number density = 20.251629 Si / 1000 Ang^3
#
#
#
# Elastic Constant Matrix: (Units=GPa)
#
#
# Indices 1 2 3 4 5 6 
#
# 1 114.6174 57.0756 47.2895 0.0000 0.0000 0.0000
# 2 57.0756 96.7748 25.6918 0.0000 0.0000 0.0000
# 3 47.2895 25.6918 108.3172 0.0000 0.0000 0.0000
# 4 0.0000 0.0000 0.0000 7.6635 0.0000 0.0000
# 5 0.0000 0.0000 0.0000 0.0000 -45.1626 0.0000
# 6 0.0000 0.0000 0.0000 0.0000 0.0000 23.2720
#
#
#
# Elastic Compliance Matrix: (Units=1/GPa)
#
#
# Indices 1 2 3 4 5 6 
#
# 1 0.014128 -0.007145 -0.004473 0.000000 0.000000 0.000000
# 2 -0.007145 0.014641 -0.000353 0.000000 0.000000 0.000000
# 3 -0.004473 -0.000353 0.011269 0.000000 0.000000 0.000000
# 4 0.000000 0.000000 0.000000 0.130489 0.000000 0.000000
# 5 0.000000 0.000000 0.000000 0.000000 -0.022142 0.000000
# 6 0.000000 0.000000 0.000000 0.000000 0.000000 0.042970
#
#
# Mechanical properties :
#
#
# Convention : Reuss Voigt Hill
#
# Bulk Modulus (GPa) = 62.13190 64.42481 63.27836
# Shear Modulus (GPa) = 22.65891 9.79808 16.22850
#
# Velocity S-wave (km/s) = 3.34858 2.20197 2.83387
# Velocity P-wave (km/s) = 6.75997 6.19242 6.48241
#
# Compressibility (1/GPa) = 0.01609479
#
# Stress axis : x y z
#
# Youngs Moduli (GPa) = 70.77982 68.30127 88.73906
#
# Poissons Ratio (x) = 0.48801 0.39697
# Poissons Ratio (y) = 0.50572 0.03136
# Poissons Ratio (z) = 0.31663 0.02413
#
# Static dielectric constant tensor:
#      x y z
#    x 1.818110 0.000000 0.000000 
#    y 0.000000 1.729650 0.000000 
#    z 0.000000 0.000000 1.747910 
# 
# From -- ./inp_files/25092.got.cif
#   From: 2010.05.17/outbox.cif.g08.bks.cpg/sg47_13_cif.got.tgz:25092.got - 2010.06.03 20:15:42.
