data_PCOD9387896
_publ_section_title
;
Structure prediction by ZEFSAII (Michael W. Deem and Ramdas Pophale) SiO2 
 PCOD9387896
Probable space group: P M M M
;
_chemical_formula_sum "Si O2"
_cell_formula_units_Z 36
_cell_length_a 25.964198
_cell_length_b 7.507837
_cell_length_c 9.412528
_cell_angle_alpha 90.000000
_cell_angle_beta 90.000000
_cell_angle_gamma 90.000000
_cell_volume 1834.830830
_symmetry_space_group_name_H-M "P M M M"
_symmetry_group_IT_number 47
_symmetry_cell_setting 'orthorhombic'
loop_
_space_group_symop_operation_xyz
x,y,z
-x,-y,z
x,-y,-z
-x,y,-z
-x,-y,-z
x,y,-z
-x,y,z
x,-y,z
loop_
_atom_site_type_symbol
_atom_site_label
_atom_site_fract_x
_atom_site_fract_y
_atom_site_fract_z
Si Si1 0.061596 0.500000 0.332580
Si Si2 0.444065 0.286510 0.838205
Si Si3 0.657179 0.787299 0.340087
Si Si4 0.872846 0.786175 0.831389
Si Si5 0.770749 0.216433 0.665096
O O1 0.075594 0.500000 0.500000
O O2 0.085337 0.671918 0.253845
O O3 0.000000 0.500000 0.321646
O O4 0.500000 0.224124 0.780962
O O5 0.446619 0.500000 0.843671
O O6 0.393039 0.245869 0.751813
O O7 0.439359 0.220765 0.000000
O O8 0.649552 0.718196 0.500000
O O9 0.713461 0.723427 0.288903
O O10 0.661908 0.000000 0.348709
O O11 0.817463 0.730795 0.766100
O O12 0.879193 0.000000 0.810641
O O13 0.875043 0.751291 0.000000
O O14 0.778546 0.270510 0.500000
O O15 0.771019 0.000000 0.665758
#
# Coordination Sequence:
#
# PCOD9387896 Si02
#       5
#     4   8   8   8   8
#     4  11  25  43  63  89 121 159 204 247 284 335
#     4   9  19  35  50  65  92 132 176 220 267 322
#     4   9  18  32  51  77 105 132 168 216 268 322
#     4  10  21  38  62  91 122 157 196 241 295 348
#     4   8  15  31  54  78 108 145 181 219 268 330
#
# _framework density 19.620336999999999
#
# number of rings (size 3 to 8) (size 9 to 14) (size 15 to 20)
#    0.000    2.778    0.000    3.000    0.000    5.333 
#    2.000    7.778    0.000    0.000    0.000    0.000 
#    0.000    0.000    0.000    0.000    0.000    0.000 
#
# Total GULP energy -200714.100591 kJ/mol
# GULP energy per Si atom -5575.391683 kJ/mol
# Density = 1.957568 g / cm^3
# Si number density = 19.620337 Si / 1000 Ang^3
#
#
#
# Elastic Constant Matrix: (Units=GPa)
#
#
# Indices 1 2 3 4 5 6 
#
# 1 177.9527 40.1997 103.7608 0.0000 0.0000 0.0000
# 2 40.1997 67.8336 37.2305 0.0000 0.0000 0.0000
# 3 103.7608 37.2305 117.2319 0.0000 0.0000 0.0000
# 4 0.0000 0.0000 0.0000 23.9650 0.0000 0.0000
# 5 0.0000 0.0000 0.0000 0.0000 136.0237 0.0000
# 6 0.0000 0.0000 0.0000 0.0000 0.0000 33.3964
#
#
#
# Elastic Compliance Matrix: (Units=1/GPa)
#
#
# Indices 1 2 3 4 5 6 
#
# 1 0.011740 -0.001519 -0.009909 0.000000 0.000000 0.000000
# 2 -0.001519 0.018051 -0.004388 0.000000 0.000000 0.000000
# 3 -0.009909 -0.004388 0.018694 0.000000 0.000000 0.000000
# 4 0.000000 0.000000 0.000000 0.041727 0.000000 0.000000
# 5 0.000000 0.000000 0.000000 0.000000 0.007352 0.000000
# 6 0.000000 0.000000 0.000000 0.000000 0.000000 0.029943
#
#
# Mechanical properties :
#
#
# Convention : Reuss Voigt Hill
#
# Bulk Modulus (GPa) = 59.33678 80.60005 69.96841
# Shear Modulus (GPa) = 30.34787 50.79882 40.57335
#
# Velocity S-wave (km/s) = 3.93715 5.09383 4.55238
# Velocity P-wave (km/s) = 7.13977 8.70432 7.96057
#
# Compressibility (1/GPa) = 0.01685295
#
# Stress axis : x y z
#
# Youngs Moduli (GPa) = 85.17724 55.40000 53.49387
#
# Poissons Ratio (x) = 0.08416 0.53006
# Poissons Ratio (y) = 0.12939 0.23473
# Poissons Ratio (z) = 0.84400 0.24309
#
# Static dielectric constant tensor:
#      x y z
#    x 1.701390 0.000000 0.000000 
#    y 0.000000 1.734020 0.000000 
#    z 0.000000 0.000000 1.668170 
# 
# From -- ./inp_files/12071.got.cif
#   From: 2010.05.17/outbox.cif.g08.bks.cpg/sg47_7_cif.got.tgz:12071.got - 2010.06.03 20:15:42.
