data_PCOD9387234
_publ_section_title
;
Structure prediction by ZEFSAII (Michael W. Deem and Ramdas Pophale) SiO2 
 PCOD9387234
Probable space group: P M M M
;
_chemical_formula_sum "Si O2"
_cell_formula_units_Z 64
_cell_length_a 30.959512
_cell_length_b 13.532896
_cell_length_c 7.632495
_cell_angle_alpha 90.000000
_cell_angle_beta 90.000000
_cell_angle_gamma 90.000000
_cell_volume 3197.800597
_symmetry_space_group_name_H-M "P M M M"
_symmetry_group_IT_number 47
_symmetry_cell_setting 'orthorhombic'
loop_
_space_group_symop_operation_xyz
x,y,z
-x,-y,z
x,-y,-z
-x,y,-z
-x,-y,-z
x,y,-z
-x,y,z
x,-y,z
loop_
_atom_site_type_symbol
_atom_site_label
_atom_site_fract_x
_atom_site_fract_y
_atom_site_fract_z
Si Si1 0.948150 0.893794 0.298115
Si Si2 0.177565 0.109499 0.785514
Si Si3 0.048176 0.327341 0.799989
Si Si4 0.233052 0.607803 0.707032
Si Si5 0.139204 0.682883 0.787289
Si Si6 0.269169 0.814738 0.797420
Si Si7 0.360261 0.112985 0.789918
Si Si8 0.453546 0.114310 0.290000
O O1 0.933413 0.883926 0.500000
O O2 0.942891 0.791246 0.197910
O O3 0.000000 0.901534 0.305540
O O4 0.932557 0.000000 0.225410
O O5 0.148834 0.203284 0.730387
O O6 0.226673 0.131044 0.723625
O O7 0.164475 0.000000 0.728651
O O8 0.177313 0.111022 0.000000
O O9 0.093745 0.361387 0.720552
O O10 0.000000 0.343477 0.721683
O O11 0.045771 0.363251 0.000000
O O12 0.241343 0.611821 0.500000
O O13 0.245315 0.500000 0.774770
O O14 0.181956 0.624319 0.735093
O O15 0.257738 0.699451 0.790566
O O16 0.137229 0.682432 0.000000
O O17 0.316311 0.837297 0.722219
O O18 0.270443 0.847026 0.000000
O O19 0.407087 0.159985 0.752777
O O20 0.360676 0.000000 0.723074
O O21 0.357726 0.109804 0.000000
O O22 0.455173 0.110949 0.500000
O O23 0.500000 0.156315 0.229216
O O24 0.452127 0.000000 0.225678
#
# Coordination Sequence:
#
# PCOD9387234 Si02
#       8
#     8   8   8   8   8   8   8   8
#     4   8  14  24  36  51  75 109 145 174 200 233
#     4   8  13  23  40  60  84 115 147 175 203 243
#     4   9  17  28  42  62  87 111 137 172 210 248
#     4  10  21  36  53  71  89 109 136 176 224 269
#     4   9  18  31  48  69  89 114 146 174 207 255
#     4   9  17  29  46  68  92 119 150 181 220 272
#     4   9  16  25  40  65  96 128 161 196 231 266
#     4   8  14  24  36  52  81 126 176 215 241 265
#
# _framework density 20.013756000000001
#
# number of rings (size 3 to 8) (size 9 to 14) (size 15 to 20)
#    0.000    3.250    0.000    2.250    0.000    4.500 
#    0.000    3.750    0.000    9.375    0.000    2.625 
#    0.000    0.500    0.000    5.500    0.000    4.250 
#
# Total GULP energy -356343.335149 kJ/mol
# GULP energy per Si atom -5567.864612 kJ/mol
# Density = 1.996820 g / cm^3
# Si number density = 20.013756 Si / 1000 Ang^3
#
#
#
# Elastic Constant Matrix: (Units=GPa)
#
#
# Indices 1 2 3 4 5 6 
#
# 1 187.1239 14.7475 2.4971 0.0000 0.0000 0.0000
# 2 14.7475 36.2940 -7.3979 0.0000 0.0000 0.0000
# 3 2.4971 -7.3979 42.2256 0.0000 0.0000 0.0000
# 4 0.0000 0.0000 0.0000 34.1092 0.0000 0.0000
# 5 0.0000 0.0000 0.0000 0.0000 46.1488 0.0000
# 6 0.0000 0.0000 0.0000 0.0000 0.0000 -28.7646
#
#
#
# Elastic Compliance Matrix: (Units=1/GPa)
#
#
# Indices 1 2 3 4 5 6 
#
# 1 0.005544 -0.002405 -0.000749 0.000000 0.000000 0.000000
# 2 -0.002405 0.029617 0.005331 0.000000 0.000000 0.000000
# 3 -0.000749 0.005331 0.024661 0.000000 0.000000 0.000000
# 4 0.000000 0.000000 0.000000 0.029318 0.000000 0.000000
# 5 0.000000 0.000000 0.000000 0.000000 0.021669 0.000000
# 6 0.000000 0.000000 0.000000 0.000000 0.000000 -0.034765
#
#
# Mechanical properties :
#
#
# Convention : Reuss Voigt Hill
#
# Bulk Modulus (GPa) = 15.58258 31.70409 23.64333
# Shear Modulus (GPa) = 53.71662 27.35178 40.53420
#
# Velocity S-wave (km/s) = 5.18634 3.70083 4.50523
# Velocity P-wave (km/s) = 6.60810 5.84269 6.23715
#
# Compressibility (1/GPa) = 0.06417424
#
# Stress axis : x y z
#
# Youngs Moduli (GPa) = 180.38764 33.76461 40.55045
#
# Poissons Ratio (x) = 0.08121 0.03038
# Poissons Ratio (y) = 0.43388 -0.21618
# Poissons Ratio (z) = 0.13515 -0.18000
#
# Static dielectric constant tensor:
#      x y z
#    x 1.777100 0.000000 0.000000 
#    y 0.000000 1.806700 0.000000 
#    z 0.000000 0.000000 1.748650 
# 
# From -- ./inp_files/14262.got.cif
#   From: 2010.05.17/outbox.cif.g08.bks.cpg/sg47_8_cif.got.tgz:14262.got - 2010.06.03 20:15:42.
