data_PCOD9387705
_publ_section_title
;
Structure prediction by ZEFSAII (Michael W. Deem and Ramdas Pophale) SiO2 
 PCOD9387705
Probable space group: P M M M
;
_chemical_formula_sum "Si O2"
_cell_formula_units_Z 48
_cell_length_a 7.600979
_cell_length_b 36.657717
_cell_length_c 8.839773
_cell_angle_alpha 90.000000
_cell_angle_beta 90.000000
_cell_angle_gamma 90.000000
_cell_volume 2463.066058
_symmetry_space_group_name_H-M "P M M M"
_symmetry_group_IT_number 47
_symmetry_cell_setting 'orthorhombic'
loop_
_space_group_symop_operation_xyz
x,y,z
-x,-y,z
x,-y,-z
-x,y,-z
-x,-y,-z
x,y,-z
-x,y,z
x,-y,z
loop_
_atom_site_type_symbol
_atom_site_label
_atom_site_fract_x
_atom_site_fract_y
_atom_site_fract_z
Si Si1 0.213853 0.040142 0.323961
Si Si2 0.500000 0.250936 0.684440
Si Si3 0.206958 0.883934 0.180062
Si Si4 0.790040 0.381881 0.827991
Si Si5 0.288925 0.539183 0.175863
Si Si6 0.203601 0.693255 0.682042
Si Si7 0.500000 0.832923 0.681539
O O1 0.264959 0.044213 0.500000
O O2 0.267148 0.075654 0.231652
O O3 0.000000 0.039510 0.319689
O O4 0.273507 0.000000 0.270972
O O5 0.500000 0.250536 0.500000
O O6 0.670750 0.274003 0.732624
O O7 0.500000 0.209116 0.733831
O O8 0.329291 0.854205 0.258483
O O9 0.000000 0.879827 0.221256
O O10 0.221885 0.880959 0.000000
O O11 0.756779 0.421613 0.755789
O O12 0.729393 0.345795 0.742270
O O13 0.000000 0.378707 0.836425
O O14 0.718693 0.382093 0.000000
O O15 0.500000 0.538012 0.172810
O O16 0.227962 0.500000 0.240386
O O17 0.226776 0.540212 0.000000
O O18 0.206646 0.691965 0.500000
O O19 0.000000 0.698606 0.729005
O O20 0.500000 0.833676 0.500000
#
# Coordination Sequence:
#
# PCOD9387705 Si02
#       7
#     8   4   8   8   8   8   4
#     4   8  14  27  50  80 112 147 190 236 277 319
#     4   9  20  37  57  80  99 126 169 210 255 311
#     4  10  21  37  57  82 116 155 188 224 277 336
#     4   9  17  28  44  69  96 121 156 199 240 287
#     4   8  14  24  38  59  89 124 160 196 234 278
#     4   9  18  34  54  75 101 129 158 198 250 307
#     4  11  23  39  60  84 109 138 184 238 277 325
#
# _framework density 19.487905999999999
#
# number of rings (size 3 to 8) (size 9 to 14) (size 15 to 20)
#    0.000    3.000    0.000    1.750    1.167    2.333 
#    0.000    7.083    0.000    5.000    0.000    3.500 
#    0.000    0.000    0.000    0.000    0.000    0.000 
#
# Total GULP energy -267477.590970 kJ/mol
# GULP energy per Si atom -5572.449812 kJ/mol
# Density = 1.944355 g / cm^3
# Si number density = 19.487906 Si / 1000 Ang^3
#
#
#
# Elastic Constant Matrix: (Units=GPa)
#
#
# Indices 1 2 3 4 5 6 
#
# 1 79.6454 73.1137 26.2529 0.0000 0.0000 0.0000
# 2 73.1137 229.0085 45.7207 0.0000 0.0000 0.0000
# 3 26.2529 45.7207 22.3477 0.0000 0.0000 0.0000
# 4 0.0000 0.0000 0.0000 29.0888 0.0000 0.0000
# 5 0.0000 0.0000 0.0000 0.0000 14.6286 0.0000
# 6 0.0000 0.0000 0.0000 0.0000 0.0000 45.1948
#
#
#
# Elastic Compliance Matrix: (Units=1/GPa)
#
#
# Indices 1 2 3 4 5 6 
#
# 1 0.021727 -0.003112 -0.019157 0.000000 0.000000 0.000000
# 2 -0.003112 0.007827 -0.012358 0.000000 0.000000 0.000000
# 3 -0.019157 -0.012358 0.092536 0.000000 0.000000 0.000000
# 4 0.000000 0.000000 0.000000 0.034378 0.000000 0.000000
# 5 0.000000 0.000000 0.000000 0.000000 0.068359 0.000000
# 6 0.000000 0.000000 0.000000 0.000000 0.000000 0.022126
#
#
# Mechanical properties :
#
#
# Convention : Reuss Voigt Hill
#
# Bulk Modulus (GPa) = 18.92662 69.01956 43.97309
# Shear Modulus (GPa) = 14.97814 30.17673 22.57744
#
# Velocity S-wave (km/s) = 2.77535 3.93935 3.40742
# Velocity P-wave (km/s) = 4.47249 7.49565 6.17203
#
# Compressibility (1/GPa) = 0.05283563
#
# Stress axis : x y z
#
# Youngs Moduli (GPa) = 46.02572 127.75500 10.80664
#
# Poissons Ratio (x) = 0.39757 0.20702
# Poissons Ratio (y) = 0.14323 0.13355
# Poissons Ratio (z) = 0.88171 1.57884
#
# Static dielectric constant tensor:
#      x y z
#    x 1.709900 0.000000 0.000000 
#    y 0.000000 1.699180 0.000000 
#    z 0.000000 0.000000 1.668640 
# 
# From -- ./inp_files/2604.got.cif
#   From: 2010.05.17/outbox.cif.g08.bks.cpg/sg47_2_cif.got.tgz:2604.got - 2010.06.03 20:15:42.
