data_PCOD9387663
_publ_section_title
;
Structure prediction by ZEFSAII (Michael W. Deem and Ramdas Pophale) SiO2 
 PCOD9387663
Probable space group: P M M M
;
_chemical_formula_sum "Si O2"
_cell_formula_units_Z 56
_cell_length_a 20.296202
_cell_length_b 9.690098
_cell_length_c 14.052954
_cell_angle_alpha 90.000000
_cell_angle_beta 90.000000
_cell_angle_gamma 90.000000
_cell_volume 2763.825189
_symmetry_space_group_name_H-M "P M M M"
_symmetry_group_IT_number 47
_symmetry_cell_setting 'orthorhombic'
loop_
_space_group_symop_operation_xyz
x,y,z
-x,-y,z
x,-y,-z
-x,y,-z
-x,-y,-z
x,y,-z
-x,y,z
x,-y,z
loop_
_atom_site_type_symbol
_atom_site_label
_atom_site_fract_x
_atom_site_fract_y
_atom_site_fract_z
Si Si1 0.196142 0.343371 0.384093
Si Si2 0.803429 0.156267 0.884122
Si Si3 0.075122 0.156538 0.384138
Si Si4 0.925363 0.657643 0.884063
Si Si5 0.678952 0.842012 0.385512
Si Si6 0.321631 0.340491 0.888987
Si Si7 0.422345 0.660708 0.277681
O O1 0.196421 0.348711 0.500000
O O2 0.202403 0.500000 0.348972
O O3 0.128383 0.269561 0.355760
O O4 0.257588 0.248022 0.356535
O O5 0.868924 0.237276 0.854076
O O6 0.737855 0.240964 0.860388
O O7 0.801782 0.000000 0.848805
O O8 0.805054 0.152074 0.000000
O O9 0.075722 0.154453 0.500000
O O10 0.000000 0.186682 0.355546
O O11 0.092236 0.000000 0.353746
O O12 0.912187 0.500000 0.853259
O O13 0.000000 0.695603 0.856307
O O14 0.924440 0.655889 0.000000
O O15 0.678352 0.844936 0.500000
O O16 0.614637 0.763644 0.348304
O O17 0.682794 0.000000 0.351490
O O18 0.299527 0.500000 0.879905
O O19 0.384875 0.321993 0.822677
O O20 0.337188 0.316564 0.000000
O O21 0.500000 0.686095 0.270859
O O22 0.412728 0.500000 0.307085
#
# Coordination Sequence:
#
# PCOD9387663 Si02
#       7
#     8   8   8   8   8   8   8
#     4   9  16  26  43  68  98 133 175 223 270 314
#     4   9  16  25  40  65  97 133 174 219 263 307
#     4   8  13  21  34  56  91 134 176 218 264 313
#     4   8  13  21  34  55  87 128 172 217 264 312
#     4  10  21  37  57  80 108 144 183 221 264 318
#     4   9  18  34  56  80 108 143 179 215 259 314
#     4  10  22  39  59  85 113 139 172 216 265 317
#
# _framework density 20.261773999999999
#
# number of rings (size 3 to 8) (size 9 to 14) (size 15 to 20)
#    0.000    3.000    0.000    2.143    0.000    6.286 
#    0.000    5.714    0.000    0.000    0.000    4.000 
#    0.000    1.143    0.000    0.000    0.000    0.000 
#
# Total GULP energy -312802.522548 kJ/mol
# GULP energy per Si atom -5585.759331 kJ/mol
# Density = 2.021566 g / cm^3
# Si number density = 20.261774 Si / 1000 Ang^3
#
#
#
# Elastic Constant Matrix: (Units=GPa)
#
#
# Indices 1 2 3 4 5 6 
#
# 1 159.0345 127.4293 14.1219 0.0000 0.0000 0.0000
# 2 127.4293 174.4917 33.8180 0.0000 0.0000 0.0000
# 3 14.1219 33.8180 62.7584 0.0000 0.0000 0.0000
# 4 0.0000 0.0000 0.0000 9.5968 0.0000 0.0000
# 5 0.0000 0.0000 0.0000 0.0000 58.9717 0.0000
# 6 0.0000 0.0000 0.0000 0.0000 0.0000 8.9212
#
#
#
# Elastic Compliance Matrix: (Units=1/GPa)
#
#
# Indices 1 2 3 4 5 6 
#
# 1 0.015629 -0.011983 0.002941 0.000000 0.000000 0.000000
# 2 -0.011983 0.015588 -0.005703 0.000000 0.000000 0.000000
# 3 0.002941 -0.005703 0.018346 0.000000 0.000000 0.000000
# 4 0.000000 0.000000 0.000000 0.104201 0.000000 0.000000
# 5 0.000000 0.000000 0.000000 0.000000 0.016957 0.000000
# 6 0.000000 0.000000 0.000000 0.000000 0.000000 0.112093
#
#
# Mechanical properties :
#
#
# Convention : Reuss Voigt Hill
#
# Bulk Modulus (GPa) = 49.82505 83.00255 66.41380
# Shear Modulus (GPa) = 15.67423 30.22563 22.94993
#
# Velocity S-wave (km/s) = 2.78436 3.86652 3.36917
# Velocity P-wave (km/s) = 5.91447 7.80944 6.92706
#
# Compressibility (1/GPa) = 0.02007023
#
# Stress axis : x y z
#
# Youngs Moduli (GPa) = 63.98465 64.15369 54.50913
#
# Poissons Ratio (x) = 0.76878 -0.16029
# Poissons Ratio (y) = 0.76675 0.31087
# Poissons Ratio (z) = -0.18815 0.36587
#
# Static dielectric constant tensor:
#      x y z
#    x 1.668910 0.000000 0.000000 
#    y 0.000000 1.697330 0.000000 
#    z 0.000000 0.000000 1.793700 
# 
# From -- ./inp_files/25120.got.cif
#   From: 2010.05.17/outbox.cif.g08.bks.cpg/sg47_13_cif.got.tgz:25120.got - 2010.06.03 20:15:42.
