data_PCOD9387974
_publ_section_title
;
Structure prediction by ZEFSAII (Michael W. Deem and Ramdas Pophale) SiO2 
 PCOD9387974
Probable space group: P M M M
;
_chemical_formula_sum "Si O2"
_cell_formula_units_Z 58
_cell_length_a 19.898537
_cell_length_b 8.987326
_cell_length_c 17.765189
_cell_angle_alpha 90.000000
_cell_angle_beta 90.000000
_cell_angle_gamma 90.000000
_cell_volume 3177.031161
_symmetry_space_group_name_H-M "P M M M"
_symmetry_group_IT_number 47
_symmetry_cell_setting 'orthorhombic'
loop_
_space_group_symop_operation_xyz
x,y,z
-x,-y,z
x,-y,-z
-x,y,-z
-x,-y,-z
x,y,-z
-x,y,z
x,-y,z
loop_
_atom_site_type_symbol
_atom_site_label
_atom_site_fract_x
_atom_site_fract_y
_atom_site_fract_z
Si Si1 0.202453 0.323923 0.833064
Si Si2 0.074541 0.819146 0.412371
Si Si3 0.076461 0.824338 0.909788
Si Si4 0.209502 0.178565 0.329100
Si Si5 0.341916 0.335252 0.643543
Si Si6 0.420797 0.177097 0.777655
Si Si7 0.386854 0.500000 0.500000
Si Si8 0.658580 0.321900 0.913913
O O1 0.200521 0.500000 0.818511
O O2 0.132980 0.269597 0.868914
O O3 0.214753 0.235489 0.756111
O O4 0.264378 0.293752 0.889359
O O5 0.082630 0.776478 0.500000
O O6 0.138321 0.770803 0.364014
O O7 0.000000 0.770046 0.386825
O O8 0.074242 0.000000 0.410353
O O9 0.000000 0.784417 0.888067
O O10 0.085805 0.000000 0.892965
O O11 0.081890 0.806849 0.000000
O O12 0.272871 0.248836 0.372050
O O13 0.212645 0.000000 0.331806
O O14 0.323862 0.500000 0.675173
O O15 0.384353 0.249721 0.705915
O O16 0.381481 0.372636 0.567167
O O17 0.500000 0.209747 0.775325
O O18 0.388345 0.242258 0.853389
O O19 0.411012 0.000000 0.775666
O O20 0.647897 0.500000 0.909433
O O21 0.647102 0.274674 0.000000
#
# Coordination Sequence:
#
# PCOD9387974 Si02
#       8
#     8   8   8   8   8   8   2   8
#     4  11  22  36  55  84 117 159 201 251 308 366
#     4   8  16  31  50  76 111 149 190 240 300 359
#     4   9  19  36  56  78 108 150 201 256 313 368
#     4  11  21  33  57  87 117 154 201 253 305 360
#     4  10  21  41  62  92 122 160 202 245 297 367
#     4  11  24  42  66  95 128 165 202 248 306 362
#     4   8  24  40  67  94 123 160 206 246 300 362
#     4  10  22  40  62  90 125 166 213 255 298 363
#
# _framework density 18.256036999999999
#
# number of rings (size 3 to 8) (size 9 to 14) (size 15 to 20)
#    0.414    1.655    1.379    2.897    0.966    3.862 
#    0.000    5.172    0.000    2.069    0.000    4.345 
#    0.000    0.000    0.000    0.000    0.000    0.000 
#
# Total GULP energy -323021.308379 kJ/mol
# GULP energy per Si atom -5569.332903 kJ/mol
# Density = 1.821449 g / cm^3
# Si number density = 18.256037 Si / 1000 Ang^3
#
#
#
# Elastic Constant Matrix: (Units=GPa)
#
#
# Indices 1 2 3 4 5 6 
#
# 1 86.7752 43.9897 42.4376 0.0000 0.0000 0.0000
# 2 43.9897 42.0094 25.3244 0.0000 0.0000 0.0000
# 3 42.4376 25.3244 98.0852 0.0000 0.0000 0.0000
# 4 0.0000 0.0000 0.0000 23.4005 0.0000 0.0000
# 5 0.0000 0.0000 0.0000 0.0000 -2.9141 0.0000
# 6 0.0000 0.0000 0.0000 0.0000 0.0000 5.2934
#
#
#
# Elastic Compliance Matrix: (Units=1/GPa)
#
#
# Indices 1 2 3 4 5 6 
#
# 1 0.026559 -0.024734 -0.005105 0.000000 0.000000 0.000000
# 2 -0.024734 0.051226 -0.002525 0.000000 0.000000 0.000000
# 3 -0.005105 -0.002525 0.013056 0.000000 0.000000 0.000000
# 4 0.000000 0.000000 0.000000 0.042734 0.000000 0.000000
# 5 0.000000 0.000000 0.000000 0.000000 -0.343158 0.000000
# 6 0.000000 0.000000 0.000000 0.000000 0.000000 0.188914
#
#
# Mechanical properties :
#
#
# Convention : Reuss Voigt Hill
#
# Bulk Modulus (GPa) = 38.29380 50.04146 44.16763
# Shear Modulus (GPa) = 94.76620 12.83050 53.79835
#
# Velocity S-wave (km/s) = 7.21264 2.65393 5.43441
# Velocity P-wave (km/s) = 9.50707 6.07137 7.97640
#
# Compressibility (1/GPa) = 0.02611389
#
# Stress axis : x y z
#
# Youngs Moduli (GPa) = 37.65186 19.52152 76.59406
#
# Poissons Ratio (x) = 0.48284 0.39103
# Poissons Ratio (y) = 0.93126 0.19337
# Poissons Ratio (z) = 0.19222 0.04928
#
# Static dielectric constant tensor:
#      x y z
#    x 1.633450 0.000000 0.000000 
#    y 0.000000 1.620500 0.000000 
#    z 0.000000 0.000000 1.609160 
# 
# From -- ./inp_files/28596.got.cif
#   From: 2010.05.17/outbox.cif.g08.bks.cpg/sg47_15_cif.got.tgz:28596.got - 2010.06.03 20:15:42.
