data_PCOD9387630
_publ_section_title
;
Structure prediction by ZEFSAII (Michael W. Deem and Ramdas Pophale) SiO2 
 PCOD9387630
Probable space group: P M M M
;
_chemical_formula_sum "Si O2"
_cell_formula_units_Z 64
_cell_length_a 7.721736
_cell_length_b 16.034741
_cell_length_c 24.624026
_cell_angle_alpha 90.000000
_cell_angle_beta 90.000000
_cell_angle_gamma 90.000000
_cell_volume 3048.849310
_symmetry_space_group_name_H-M "P M M M"
_symmetry_group_IT_number 47
_symmetry_cell_setting 'orthorhombic'
loop_
_space_group_symop_operation_xyz
x,y,z
-x,-y,z
x,-y,-z
-x,y,-z
-x,-y,-z
x,y,-z
-x,y,z
x,-y,z
loop_
_atom_site_type_symbol
_atom_site_label
_atom_site_fract_x
_atom_site_fract_y
_atom_site_fract_z
Si Si1 0.204470 0.247396 0.364616
Si Si2 0.205492 0.408641 0.169496
Si Si3 0.709259 0.594431 0.437625
Si Si4 0.700816 0.746511 0.240222
Si Si5 0.211357 0.905984 0.437375
Si Si6 0.789721 0.673870 0.940444
Si Si7 0.287564 0.909660 0.821526
Si Si8 0.704154 0.868701 0.059079
O O1 0.232088 0.332480 0.398052
O O2 0.280973 0.251628 0.304683
O O3 0.272914 0.168481 0.399025
O O4 0.000000 0.235339 0.357845
O O5 0.274890 0.500000 0.184181
O O6 0.228286 0.337902 0.214375
O O7 0.274904 0.376706 0.111478
O O8 0.000000 0.416221 0.161957
O O9 0.765449 0.610385 0.500000
O O10 0.500000 0.594416 0.437434
O O11 0.765359 0.500000 0.422765
O O12 0.500000 0.745942 0.225673
O O13 0.775461 0.830001 0.212294
O O14 0.264298 0.892222 0.500000
O O15 0.000000 0.904666 0.437063
O O16 0.264113 0.000000 0.421269
O O17 0.724701 0.768783 0.937052
O O18 0.000000 0.677095 0.938647
O O19 0.740683 0.640256 0.000000
O O20 0.500000 0.907550 0.821916
O O21 0.227652 0.903292 0.884139
O O22 0.236664 0.000000 0.798947
O O23 0.500000 0.889179 0.057894
O O24 0.777421 0.894043 0.000000
#
# Coordination Sequence:
#
# PCOD9387630 Si02
#       8
#     8   8   8   8   8   8   8   8
#     4  11  22  35  56  84 112 145 186 229 268 312
#     4  10  21  37  57  79 104 136 176 223 271 321
#     4   9  19  37  60  86 117 150 181 216 263 319
#     4  11  23  39  56  75 104 144 185 228 275 319
#     4   8  15  30  53  82 115 146 175 211 258 312
#     4   9  17  30  51  78 107 136 165 206 265 328
#     4   9  18  33  53  77 104 136 177 224 273 323
#     4   9  16  28  50  78 105 134 171 215 263 319
#
# _framework density 20.991527000000001
#
# number of rings (size 3 to 8) (size 9 to 14) (size 15 to 20)
#    0.000    2.500    1.250    1.875    0.000    2.750 
#    0.000    3.125    0.000    4.125    0.000    8.750 
#    0.000    0.000    0.000    0.000    0.000    0.000 
#
# Total GULP energy -357160.982301 kJ/mol
# GULP energy per Si atom -5580.640348 kJ/mol
# Density = 2.094375 g / cm^3
# Si number density = 20.991527 Si / 1000 Ang^3
#
#
#
# Elastic Constant Matrix: (Units=GPa)
#
#
# Indices 1 2 3 4 5 6 
#
# 1 30.0367 -3.9106 -10.1617 0.0000 0.0000 0.0000
# 2 -3.9106 169.3877 88.5256 0.0000 0.0000 0.0000
# 3 -10.1617 88.5256 112.2939 0.0000 0.0000 0.0000
# 4 0.0000 0.0000 0.0000 -12.2957 0.0000 0.0000
# 5 0.0000 0.0000 0.0000 0.0000 -7.9642 0.0000
# 6 0.0000 0.0000 0.0000 0.0000 0.0000 8.0164
#
#
#
# Elastic Compliance Matrix: (Units=1/GPa)
#
#
# Indices 1 2 3 4 5 6 
#
# 1 0.034544 -0.001422 0.004247 0.000000 0.000000 0.000000
# 2 -0.001422 0.010099 -0.008090 0.000000 0.000000 0.000000
# 3 0.004247 -0.008090 0.015667 0.000000 0.000000 0.000000
# 4 0.000000 0.000000 0.000000 -0.081329 0.000000 0.000000
# 5 0.000000 0.000000 0.000000 0.000000 -0.125563 0.000000
# 6 0.000000 0.000000 0.000000 0.000000 0.000000 0.124744
#
#
# Mechanical properties :
#
#
# Convention : Reuss Voigt Hill
#
# Bulk Modulus (GPa) = 20.08828 51.18055 35.63442
# Shear Modulus (GPa) = 945.96497 13.36898 479.66698
#
# Velocity S-wave (km/s) = 21.25134 2.52638 15.13278
# Velocity P-wave (km/s) = 24.73358 5.73974 17.95403
#
# Compressibility (1/GPa) = 0.04978026
#
# Stress axis : x y z
#
# Youngs Moduli (GPa) = 28.94836 99.02225 63.82794
#
# Poissons Ratio (x) = 0.14082 -0.27108
# Poissons Ratio (y) = 0.04117 0.51636
# Poissons Ratio (z) = -0.12295 0.80108
#
# Static dielectric constant tensor:
#      x y z
#    x 1.799560 0.000000 0.000000 
#    y 0.000000 1.771170 0.000000 
#    z 0.000000 0.000000 1.728210 
# 
# From -- ./inp_files/32090.got.cif
#   From: 2010.05.17/outbox.cif.g08.bks.cpg/sg47_17_cif.got.tgz:32090.got - 2010.06.03 20:15:42.
