data_PCOD9387563
_publ_section_title
;
Structure prediction by ZEFSAII (Michael W. Deem and Ramdas Pophale) SiO2 
 PCOD9387563
Probable space group: P M M M
;
_chemical_formula_sum "Si O2"
_cell_formula_units_Z 44
_cell_length_a 29.145361
_cell_length_b 7.679687
_cell_length_c 10.035870
_cell_angle_alpha 90.000000
_cell_angle_beta 90.000000
_cell_angle_gamma 90.000000
_cell_volume 2246.301183
_symmetry_space_group_name_H-M "P M M M"
_symmetry_group_IT_number 47
_symmetry_cell_setting 'orthorhombic'
loop_
_space_group_symop_operation_xyz
x,y,z
-x,-y,z
x,-y,-z
-x,y,-z
-x,-y,-z
x,y,-z
-x,y,z
x,-y,z
loop_
_atom_site_type_symbol
_atom_site_label
_atom_site_fract_x
_atom_site_fract_y
_atom_site_fract_z
Si Si1 0.917818 0.706691 0.650888
Si Si2 0.735321 0.787152 0.153184
Si Si3 0.000000 0.205503 0.150693
Si Si4 0.551598 0.787372 0.653501
Si Si5 0.632160 0.787437 0.846470
Si Si6 0.814006 0.208180 0.349677
O O1 0.927060 0.777545 0.500000
O O2 0.918043 0.500000 0.639715
O O3 0.866533 0.760910 0.691646
O O4 0.955687 0.751198 0.760026
O O5 0.683743 0.734508 0.193836
O O6 0.775537 0.724101 0.249331
O O7 0.735891 0.000000 0.154093
O O8 0.742605 0.733944 0.000000
O O9 0.000000 0.000000 0.135950
O O10 0.000000 0.281705 0.000000
O O11 0.559124 0.735442 0.500000
O O12 0.500000 0.733787 0.693162
O O13 0.591845 0.726320 0.750115
O O14 0.552043 0.000000 0.655684
O O15 0.631594 0.000000 0.844485
O O16 0.624845 0.735153 0.000000
O O17 0.808857 0.278089 0.500000
O O18 0.807874 0.000000 0.355944
#
# Coordination Sequence:
#
# PCOD9387563 Si02
#       6
#     8   8   4   8   8   8
#     4  10  21  37  56  77 102 132 163 195 234 279
#     4   8  14  24  37  54  77 104 135 175 222 267
#     4  11  24  39  56  80 106 131 162 199 236 274
#     4   8  13  19  25  35  54  82 118 161 208 256
#     4   8  13  20  29  42  61  87 122 164 209 256
#     4   9  17  29  46  68  91 116 150 189 226 268
#
# _framework density 19.587755999999999
#
# number of rings (size 3 to 8) (size 9 to 14) (size 15 to 20)
#    0.000    3.182    0.000    2.727    0.000    4.727 
#    0.000    7.273    0.000    0.000    0.000    0.000 
#    0.000    0.000    0.000    0.000    0.000    0.909 
#
# Total GULP energy -245288.204010 kJ/mol
# GULP energy per Si atom -5574.731909 kJ/mol
# Density = 1.954317 g / cm^3
# Si number density = 19.587756 Si / 1000 Ang^3
#
#
#
# Elastic Constant Matrix: (Units=GPa)
#
#
# Indices 1 2 3 4 5 6 
#
# 1 221.7781 3.0768 148.1830 0.0000 0.0000 0.0000
# 2 3.0768 34.2693 4.4769 0.0000 0.0000 0.0000
# 3 148.1830 4.4769 127.9126 0.0000 0.0000 0.0000
# 4 0.0000 0.0000 0.0000 1.0745 0.0000 0.0000
# 5 0.0000 0.0000 0.0000 0.0000 67.8581 0.0000
# 6 0.0000 0.0000 0.0000 0.0000 0.0000 -45.0187
#
#
#
# Elastic Compliance Matrix: (Units=1/GPa)
#
#
# Indices 1 2 3 4 5 6 
#
# 1 0.020007 0.001237 -0.023221 0.000000 0.000000 0.000000
# 2 0.001237 0.029391 -0.002462 0.000000 0.000000 0.000000
# 3 -0.023221 -0.002462 0.034805 0.000000 0.000000 0.000000
# 4 0.000000 0.000000 0.000000 0.930656 0.000000 0.000000
# 5 0.000000 0.000000 0.000000 0.000000 0.014737 0.000000
# 6 0.000000 0.000000 0.000000 0.000000 0.000000 -0.022213
#
#
# Mechanical properties :
#
#
# Convention : Reuss Voigt Hill
#
# Bulk Modulus (GPa) = 28.31924 77.27039 52.79482
# Shear Modulus (GPa) = 4.68145 19.99766 12.33955
#
# Velocity S-wave (km/s) = 1.54764 3.19866 2.51263
# Velocity P-wave (km/s) = 4.20507 7.29218 5.95224
#
# Compressibility (1/GPa) = 0.03531168
#
# Stress axis : x y z
#
# Youngs Moduli (GPa) = 49.98185 34.02380 28.73148
#
# Poissons Ratio (x) = -0.04210 0.66718
# Poissons Ratio (y) = -0.06184 0.07074
# Poissons Ratio (z) = 1.16064 0.08377
#
# Static dielectric constant tensor:
#      x y z
#    x 1.615200 0.000000 0.000000 
#    y 0.000000 1.718030 0.000000 
#    z 0.000000 0.000000 1.660620 
# 
# From -- ./inp_files/13562.got.cif
#   From: 2010.05.17/outbox.cif.g08.bks.cpg/sg47_7_cif.got.tgz:13562.got - 2010.06.03 20:15:42.
