data_PCOD9387149
_publ_section_title
;
Structure prediction by ZEFSAII (Michael W. Deem and Ramdas Pophale) SiO2 
 PCOD9387149
Probable space group: P M M M
;
_chemical_formula_sum "Si O2"
_cell_formula_units_Z 40
_cell_length_a 8.580213
_cell_length_b 15.350785
_cell_length_c 15.542015
_cell_angle_alpha 90.000000
_cell_angle_beta 90.000000
_cell_angle_gamma 90.000000
_cell_volume 2047.085500
_symmetry_space_group_name_H-M "P M M M"
_symmetry_group_IT_number 47
_symmetry_cell_setting 'orthorhombic'
loop_
_space_group_symop_operation_xyz
x,y,z
-x,-y,z
x,-y,-z
-x,y,-z
-x,-y,-z
x,y,-z
-x,y,z
x,-y,z
loop_
_atom_site_type_symbol
_atom_site_label
_atom_site_fract_x
_atom_site_fract_y
_atom_site_fract_z
Si Si1 0.185468 0.285758 0.906166
Si Si2 0.000000 0.903821 0.601659
Si Si3 0.319121 0.096024 0.133051
Si Si4 0.309149 0.500000 0.600196
Si Si5 0.671523 0.154240 0.327277
Si Si6 0.676893 0.353580 0.732401
O O1 0.235733 0.184183 0.896861
O O2 0.242482 0.341556 0.824696
O O3 0.000000 0.288143 0.905181
O O4 0.242621 0.316509 0.000000
O O5 0.834324 0.862464 0.626114
O O6 0.000000 0.909699 0.500000
O O7 0.000000 0.000000 0.641878
O O8 0.500000 0.100935 0.105503
O O9 0.319925 0.103620 0.236676
O O10 0.257626 0.000000 0.108134
O O11 0.500000 0.500000 0.595771
O O12 0.256482 0.500000 0.500000
O O13 0.259102 0.582591 0.658518
O O14 0.500000 0.132989 0.367099
O O15 0.670649 0.256465 0.305645
O O16 0.500000 0.382706 0.749525
#
# Coordination Sequence:
#
# PCOD9387149 Si02
#       6
#     8   4   8   4   8   8
#     4  10  21  35  52  77 113 157 197 234 281 337
#     4  11  24  36  50  77 108 146 195 243 296 348
#     4   9  18  32  52  78 105 141 191 243 294 339
#     4   9  18  36  64  95 120 138 171 231 298 362
#     4   9  19  36  56  78 108 149 194 237 287 351
#     4   9  19  36  61  88 112 146 185 227 290 354
#
# _framework density 19.539975999999999
#
# number of rings (size 3 to 8) (size 9 to 14) (size 15 to 20)
#    0.000    2.600    0.000    2.400    5.600    4.800 
#    0.000    6.000    0.000    3.600    0.000    0.000 
#    0.000    0.000    0.000    0.000    0.000    0.000 
#
# Total GULP energy -222708.621174 kJ/mol
# GULP energy per Si atom -5567.715529 kJ/mol
# Density = 1.949550 g / cm^3
# Si number density = 19.539976 Si / 1000 Ang^3
#
#
#
# Elastic Constant Matrix: (Units=GPa)
#
#
# Indices 1 2 3 4 5 6 
#
# 1 99.0478 14.2493 57.3227 0.0000 0.0000 0.0000
# 2 14.2493 83.5488 60.3255 0.0000 0.0000 0.0000
# 3 57.3227 60.3255 141.3667 0.0000 0.0000 0.0000
# 4 0.0000 0.0000 0.0000 28.7310 0.0000 0.0000
# 5 0.0000 0.0000 0.0000 0.0000 42.0230 0.0000
# 6 0.0000 0.0000 0.0000 0.0000 0.0000 -46.6782
#
#
#
# Elastic Compliance Matrix: (Units=1/GPa)
#
#
# Indices 1 2 3 4 5 6 
#
# 1 0.013514 0.002387 -0.006498 0.000000 0.000000 0.000000
# 2 0.002387 0.017721 -0.008530 0.000000 0.000000 0.000000
# 3 -0.006498 -0.008530 0.013349 0.000000 0.000000 0.000000
# 4 0.000000 0.000000 0.000000 0.034806 0.000000 0.000000
# 5 0.000000 0.000000 0.000000 0.000000 0.023797 0.000000
# 6 0.000000 0.000000 0.000000 0.000000 0.000000 -0.021423
#
#
# Mechanical properties :
#
#
# Convention : Reuss Voigt Hill
#
# Bulk Modulus (GPa) = 51.81050 65.30645 58.55848
# Shear Modulus (GPa) = 44.06135 17.61954 30.84045
#
# Velocity S-wave (km/s) = 4.75377 3.00612 3.97712
# Velocity P-wave (km/s) = 7.53019 6.74859 7.15008
#
# Compressibility (1/GPa) = 0.01930111
#
# Stress axis : x y z
#
# Youngs Moduli (GPa) = 73.99996 56.43035 74.91281
#
# Poissons Ratio (x) = -0.13472 0.48681
# Poissons Ratio (y) = -0.17666 0.63901
# Poissons Ratio (z) = 0.48088 0.48136
#
# Static dielectric constant tensor:
#      x y z
#    x 1.754210 0.000000 0.000000 
#    y 0.000000 1.696790 0.000000 
#    z 0.000000 0.000000 1.706640 
# 
# From -- ./inp_files/20703.got.cif
#   From: 2010.05.17/outbox.cif.g08.bks.cpg/sg47_11_cif.got.tgz:20703.got - 2010.06.03 20:15:42.
