data_PCOD9387484
_publ_section_title
;
Structure prediction by ZEFSAII (Michael W. Deem and Ramdas Pophale) SiO2 
 PCOD9387484
Probable space group: P M M M
;
_chemical_formula_sum "Si O2"
_cell_formula_units_Z 64
_cell_length_a 15.042472
_cell_length_b 8.981330
_cell_length_c 25.296623
_cell_angle_alpha 90.000000
_cell_angle_beta 90.000000
_cell_angle_gamma 90.000000
_cell_volume 3417.609310
_symmetry_space_group_name_H-M "P M M M"
_symmetry_group_IT_number 47
_symmetry_cell_setting 'orthorhombic'
loop_
_space_group_symop_operation_xyz
x,y,z
-x,-y,z
x,-y,-z
-x,y,-z
-x,-y,-z
x,y,-z
-x,y,z
x,-y,z
loop_
_atom_site_type_symbol
_atom_site_label
_atom_site_fract_x
_atom_site_fract_y
_atom_site_fract_z
Si Si1 0.902820 0.678451 0.583983
Si Si2 0.722416 0.177729 0.241766
Si Si3 0.745448 0.674113 0.870101
Si Si4 0.098031 0.174262 0.302738
Si Si5 0.396681 0.168582 0.063265
Si Si6 0.895920 0.820904 0.060598
Si Si7 0.705375 0.680104 0.441756
Si Si8 0.604169 0.179612 0.342183
O O1 0.904284 0.500000 0.578367
O O2 0.897482 0.725403 0.645241
O O3 0.809223 0.728550 0.559969
O O4 0.000000 0.733554 0.564507
O O5 0.717126 0.257949 0.186036
O O6 0.820931 0.206572 0.264544
O O7 0.653563 0.224397 0.287753
O O8 0.712031 0.000000 0.234194
O O9 0.760360 0.500000 0.864991
O O10 0.665721 0.712688 0.909851
O O11 0.832329 0.749447 0.896029
O O12 0.000000 0.193023 0.278421
O O13 0.106174 0.000000 0.318990
O O14 0.500000 0.186214 0.077738
O O15 0.368523 0.000000 0.078764
O O16 0.390520 0.176874 0.000000
O O17 0.000000 0.783337 0.068099
O O18 0.888144 0.000000 0.063464
O O19 0.870975 0.777599 0.000000
O O20 0.668980 0.718852 0.500000
O O21 0.703303 0.500000 0.436739
O O22 0.653062 0.750237 0.392815
O O23 0.500000 0.218870 0.341283
O O24 0.611705 0.000000 0.345866
#
# Coordination Sequence:
#
# PCOD9387484 Si02
#       8
#     8   8   8   8   8   8   8   8
#     4   9  17  30  51  79 111 146 180 215 260 317
#     4  10  21  38  57  78 107 146 191 234 279 336
#     4  12  25  36  53  86 124 155 186 232 290 349
#     4   9  17  31  54  80 103 132 175 225 272 318
#     4   9  19  38  63  86 109 144 190 235 279 333
#     4   9  19  38  63  87 114 156 208 252 288 333
#     4  10  21  36  56  84 117 150 184 224 274 338
#     4  10  22  41  63  84 106 138 186 241 291 337
#
# _framework density 18.72654
#
# number of rings (size 3 to 8) (size 9 to 14) (size 15 to 20)
#    0.000    2.250    1.250    2.250    0.000    5.500 
#    0.000    6.250    0.000    0.000    0.000    2.625 
#    0.000    0.000    0.000    0.000    0.000    0.000 
#
# Total GULP energy -357029.279132 kJ/mol
# GULP energy per Si atom -5578.582486 kJ/mol
# Density = 1.868392 g / cm^3
# Si number density = 18.726540 Si / 1000 Ang^3
#
#
#
# Elastic Constant Matrix: (Units=GPa)
#
#
# Indices 1 2 3 4 5 6 
#
# 1 110.7212 34.2131 60.6666 0.0000 0.0000 0.0000
# 2 34.2131 25.8209 36.9326 0.0000 0.0000 0.0000
# 3 60.6666 36.9326 100.1153 0.0000 0.0000 0.0000
# 4 0.0000 0.0000 0.0000 28.2693 0.0000 0.0000
# 5 0.0000 0.0000 0.0000 0.0000 48.6403 0.0000
# 6 0.0000 0.0000 0.0000 0.0000 0.0000 -0.5627
#
#
#
# Elastic Compliance Matrix: (Units=1/GPa)
#
#
# Indices 1 2 3 4 5 6 
#
# 1 0.016005 -0.015529 -0.003970 0.000000 0.000000 0.000000
# 2 -0.015529 0.097057 -0.026395 0.000000 0.000000 0.000000
# 3 -0.003970 -0.026395 0.022131 0.000000 0.000000 0.000000
# 4 0.000000 0.000000 0.000000 0.035374 0.000000 0.000000
# 5 0.000000 0.000000 0.000000 0.000000 0.020559 0.000000
# 6 0.000000 0.000000 0.000000 0.000000 0.000000 -1.777219
#
#
# Mechanical properties :
#
#
# Convention : Reuss Voigt Hill
#
# Bulk Modulus (GPa) = 23.03779 55.58688 39.31234
# Shear Modulus (GPa) = -3.37876 22.25906 9.44015
#
# Velocity S-wave (km/s) = -1.34468 3.45140 2.24767
# Velocity P-wave (km/s) = 3.14929 6.75506 5.27014
#
# Compressibility (1/GPa) = 0.04340694
#
# Stress axis : x y z
#
# Youngs Moduli (GPa) = 62.47860 10.30318 45.18476
#
# Poissons Ratio (x) = 0.16000 0.17939
# Poissons Ratio (y) = 0.97021 1.19264
# Poissons Ratio (z) = 0.24805 0.27195
#
# Static dielectric constant tensor:
#      x y z
#    x 1.666630 0.000000 0.000000 
#    y 0.000000 1.637110 0.000000 
#    z 0.000000 0.000000 1.633680 
# 
# From -- ./inp_files/32780.got.cif
#   From: 2010.05.17/outbox.cif.g08.bks.cpg/sg47_17_cif.got.tgz:32780.got - 2010.06.03 20:15:42.
