data_PCOD9387710
_publ_section_title
;
Structure prediction by ZEFSAII (Michael W. Deem and Ramdas Pophale) SiO2 
 PCOD9387710
Probable space group: P M M M
;
_chemical_formula_sum "Si O2"
_cell_formula_units_Z 37
_cell_length_a 7.643308
_cell_length_b 10.275397
_cell_length_c 24.727746
_cell_angle_alpha 90.000000
_cell_angle_beta 90.000000
_cell_angle_gamma 90.000000
_cell_volume 1942.068311
_symmetry_space_group_name_H-M "P M M M"
_symmetry_group_IT_number 47
_symmetry_cell_setting 'orthorhombic'
loop_
_space_group_symop_operation_xyz
x,y,z
-x,-y,z
x,-y,-z
-x,y,-z
-x,-y,-z
x,y,-z
-x,y,z
x,-y,z
loop_
_atom_site_type_symbol
_atom_site_label
_atom_site_fract_x
_atom_site_fract_y
_atom_site_fract_z
Si Si1 0.500000 0.842715 0.438829
Si Si2 0.293779 0.265497 0.138155
Si Si3 0.285786 0.500000 0.937772
Si Si4 0.791531 0.845969 0.352850
Si Si5 0.809031 0.000000 0.909881
Si Si6 0.210943 0.646709 0.258971
Si Si7 0.500000 0.000000 0.000000
O O1 0.500000 0.791317 0.500000
O O2 0.672213 0.809148 0.404090
O O3 0.500000 0.000000 0.442254
O O4 0.500000 0.249699 0.128374
O O5 0.228914 0.373179 0.095395
O O6 0.207322 0.127931 0.126894
O O7 0.268328 0.316058 0.198726
O O8 0.500000 0.500000 0.937646
O O9 0.229708 0.500000 0.000000
O O10 0.737247 0.754963 0.302733
O O11 0.000000 0.829124 0.362753
O O12 0.763095 0.000000 0.341133
O O13 0.000000 0.000000 0.935876
O O14 0.653618 0.000000 0.953011
O O15 0.271849 0.500000 0.272032
O O16 0.000000 0.645214 0.258841
#
# Coordination Sequence:
#
# PCOD9387710 Si02
#       7
#     4   8   4   8   4   8   1
#     4   9  18  34  56  87 121 154 197 249 296 350
#     4  11  22  40  62  91 122 158 202 250 303 365
#     4   9  20  36  61  85 119 159 200 249 302 357
#     4   9  19  35  56  85 118 157 200 247 299 353
#     4  12  27  45  69  92 121 157 196 247 305 368
#     4  10  21  37  57  83 122 160 199 249 300 363
#     4  12  26  52  64  92 120 152 198 246 306 370
#
# _framework density 19.051853000000001
#
# number of rings (size 3 to 8) (size 9 to 14) (size 15 to 20)
#    0.000    1.946    2.162    0.811    4.541    0.432 
#    0.000    2.162    0.000    3.892    0.000    3.027 
#    0.000    0.000    0.000    0.000    0.000    0.000 
#
# Total GULP energy -206304.642560 kJ/mol
# GULP energy per Si atom -5575.801150 kJ/mol
# Density = 1.900849 g / cm^3
# Si number density = 19.051853 Si / 1000 Ang^3
#
#
#
# Elastic Constant Matrix: (Units=GPa)
#
#
# Indices 1 2 3 4 5 6 
#
# 1 86.5948 35.0097 41.2929 0.0000 0.0000 0.0000
# 2 35.0097 136.5714 78.2239 0.0000 0.0000 0.0000
# 3 41.2929 78.2239 163.9089 0.0000 0.0000 0.0000
# 4 0.0000 0.0000 0.0000 18.0696 0.0000 0.0000
# 5 0.0000 0.0000 0.0000 0.0000 86.1818 0.0000
# 6 0.0000 0.0000 0.0000 0.0000 0.0000 0.7336
#
#
#
# Elastic Compliance Matrix: (Units=1/GPa)
#
#
# Indices 1 2 3 4 5 6 
#
# 1 0.013544 -0.002089 -0.002415 0.000000 0.000000 0.000000
# 2 -0.002089 0.010399 -0.004436 0.000000 0.000000 0.000000
# 3 -0.002415 -0.004436 0.008827 0.000000 0.000000 0.000000
# 4 0.000000 0.000000 0.000000 0.055342 0.000000 0.000000
# 5 0.000000 0.000000 0.000000 0.000000 0.011603 0.000000
# 6 0.000000 0.000000 0.000000 0.000000 0.000000 1.363145
#
#
# Mechanical properties :
#
#
# Convention : Reuss Voigt Hill
#
# Bulk Modulus (GPa) = 67.16502 77.34755 72.25629
# Shear Modulus (GPa) = 3.36541 36.50025 19.93283
#
# Velocity S-wave (km/s) = 1.33052 4.38178 3.23807
# Velocity P-wave (km/s) = 6.13928 8.14165 7.21031
#
# Compressibility (1/GPa) = 0.01488870
#
# Stress axis : x y z
#
# Youngs Moduli (GPa) = 73.83230 96.16627 113.29230
#
# Poissons Ratio (x) = 0.20085 0.27365
# Poissons Ratio (y) = 0.15420 0.50262
# Poissons Ratio (z) = 0.17833 0.42664
#
# Static dielectric constant tensor:
#      x y z
#    x 1.689800 0.000000 0.000000 
#    y 0.000000 1.660700 0.000000 
#    z 0.000000 0.000000 1.619190 
# 
# From -- ./inp_files/31719.got.cif
#   From: 2010.05.17/outbox.cif.g08.bks.cpg/sg47_16_cif.got.tgz:31719.got - 2010.06.03 20:15:42.
