data_PCOD9387600
_publ_section_title
;
Structure prediction by ZEFSAII (Michael W. Deem and Ramdas Pophale) SiO2 
 PCOD9387600
Probable space group: P M M M
;
_chemical_formula_sum "Si O2"
_cell_formula_units_Z 52
_cell_length_a 13.015005
_cell_length_b 8.762341
_cell_length_c 26.888353
_cell_angle_alpha 90.000000
_cell_angle_beta 90.000000
_cell_angle_gamma 90.000000
_cell_volume 3066.399185
_symmetry_space_group_name_H-M "P M M M"
_symmetry_group_IT_number 47
_symmetry_cell_setting 'orthorhombic'
loop_
_space_group_symop_operation_xyz
x,y,z
-x,-y,z
x,-y,-z
-x,y,-z
-x,-y,-z
x,y,-z
-x,y,z
x,-y,z
loop_
_atom_site_type_symbol
_atom_site_label
_atom_site_fract_x
_atom_site_fract_y
_atom_site_fract_z
Si Si1 0.500000 0.682947 0.214550
Si Si2 0.618737 0.814476 0.500000
Si Si3 0.307583 0.183493 0.608136
Si Si4 0.117912 0.816586 0.774552
Si Si5 0.119082 0.317567 0.666089
Si Si6 0.379304 0.683658 0.056363
Si Si7 0.305265 0.182645 0.156301
Si Si8 0.500000 0.683289 0.331402
O O1 0.500000 0.500000 0.209878
O O2 0.600310 0.748252 0.187473
O O3 0.500000 0.723149 0.272937
O O4 0.500000 0.763456 0.500000
O O5 0.672593 0.767353 0.551150
O O6 0.617265 0.000000 0.500000
O O7 0.199665 0.241456 0.629121
O O8 0.399486 0.250152 0.641702
O O9 0.311963 0.000000 0.610445
O O10 0.142754 0.738055 0.722072
O O11 0.199674 0.772952 0.816398
O O12 0.000000 0.778325 0.787542
O O13 0.123833 0.000000 0.767608
O O14 0.128419 0.500000 0.663706
O O15 0.000000 0.275901 0.655898
O O16 0.500000 0.723365 0.063575
O O17 0.372387 0.500000 0.059761
O O18 0.314940 0.758384 0.100149
O O19 0.350705 0.728186 0.000000
O O20 0.313440 0.000000 0.156796
O O21 0.500000 0.500000 0.335558
#
# Coordination Sequence:
#
# PCOD9387600 Si02
#       8
#     4   4   8   8   8   8   8   4
#     4  11  23  35  47  69 107 146 168 200 257 316
#     4   9  18  36  57  80 107 137 178 221 261 312
#     4  11  21  36  59  81 105 140 179 221 265 315
#     4   9  19  36  56  78 106 141 179 217 261 315
#     4  10  21  37  56  80 110 141 177 222 269 318
#     4   9  18  33  52  73 101 140 178 211 257 314
#     4  11  21  32  51  79 106 132 171 220 262 305
#     4  11  23  36  52  78 111 142 176 215 263 320
#
# _framework density 16.957999999999998
#
# number of rings (size 3 to 8) (size 9 to 14) (size 15 to 20)
#    0.000    1.923    1.538    3.231    0.000    6.154 
#    0.000    3.077    0.000    2.769    0.000    3.231 
#    0.000    0.000    0.000    0.000    0.000    0.000 
#
# Total GULP energy -290342.801507 kJ/mol
# GULP energy per Si atom -5583.515414 kJ/mol
# Density = 1.691940 g / cm^3
# Si number density = 16.958000 Si / 1000 Ang^3
#
#
#
# Elastic Constant Matrix: (Units=GPa)
#
#
# Indices 1 2 3 4 5 6 
#
# 1 109.4129 38.6741 97.7600 0.0000 0.0000 0.0000
# 2 38.6741 36.5549 50.6294 0.0000 0.0000 0.0000
# 3 97.7600 50.6294 171.5663 0.0000 0.0000 0.0000
# 4 0.0000 0.0000 0.0000 74.7015 0.0000 0.0000
# 5 0.0000 0.0000 0.0000 0.0000 18.4601 0.0000
# 6 0.0000 0.0000 0.0000 0.0000 0.0000 12.9753
#
#
#
# Elastic Compliance Matrix: (Units=1/GPa)
#
#
# Indices 1 2 3 4 5 6 
#
# 1 0.020308 -0.009231 -0.008847 0.000000 0.000000 0.000000
# 2 -0.009231 0.050462 -0.009631 0.000000 0.000000 0.000000
# 3 -0.008847 -0.009631 0.013712 0.000000 0.000000 0.000000
# 4 0.000000 0.000000 0.000000 0.013387 0.000000 0.000000
# 5 0.000000 0.000000 0.000000 0.000000 0.054171 0.000000
# 6 0.000000 0.000000 0.000000 0.000000 0.000000 0.077069
#
#
# Mechanical properties :
#
#
# Convention : Reuss Voigt Hill
#
# Bulk Modulus (GPa) = 34.40903 76.85124 55.63013
# Shear Modulus (GPa) = 16.99427 29.92542 23.45985
#
# Velocity S-wave (km/s) = 3.16909 4.20536 3.72346
# Velocity P-wave (km/s) = 5.80738 8.30645 7.16668
#
# Compressibility (1/GPa) = 0.02906214
#
# Stress axis : x y z
#
# Youngs Moduli (GPa) = 49.24224 19.81678 72.92772
#
# Poissons Ratio (x) = 0.18293 0.64522
# Poissons Ratio (y) = 0.45457 0.70240
# Poissons Ratio (z) = 0.43567 0.19086
#
# Static dielectric constant tensor:
#      x y z
#    x 1.555590 0.000000 0.000000 
#    y 0.000000 1.570510 0.000000 
#    z 0.000000 0.000000 1.560400 
# 
# From -- ./inp_files/33613.got.cif
#   From: 2010.05.17/outbox.cif.g08.bks.cpg/sg47_17_cif.got.tgz:33613.got - 2010.06.03 20:15:42.
