data_PCOD9387672
_publ_section_title
;
Structure prediction by ZEFSAII (Michael W. Deem and Ramdas Pophale) SiO2 
 PCOD9387672
Probable space group: P M M M
;
_chemical_formula_sum "Si O2"
_cell_formula_units_Z 56
_cell_length_a 22.253572
_cell_length_b 14.757200
_cell_length_c 9.355366
_cell_angle_alpha 90.000000
_cell_angle_beta 90.000000
_cell_angle_gamma 90.000000
_cell_volume 3072.306056
_symmetry_space_group_name_H-M "P M M M"
_symmetry_group_IT_number 47
_symmetry_cell_setting 'orthorhombic'
loop_
_space_group_symop_operation_xyz
x,y,z
-x,-y,z
x,-y,-z
-x,y,-z
-x,-y,-z
x,y,-z
-x,y,z
x,-y,z
loop_
_atom_site_type_symbol
_atom_site_label
_atom_site_fract_x
_atom_site_fract_y
_atom_site_fract_z
Si Si1 0.649019 0.750394 0.670617
Si Si2 0.210526 0.764265 0.670304
Si Si3 0.000000 0.889671 0.336178
Si Si4 0.000000 0.389503 0.162718
Si Si5 0.430915 0.392334 0.830703
Si Si6 0.569656 0.107891 0.167517
Si Si7 0.880951 0.394519 0.669188
Si Si8 0.879363 0.890999 0.832256
O O1 0.643301 0.747075 0.500000
O O2 0.719527 0.755179 0.706315
O O3 0.616253 0.664551 0.740997
O O4 0.614465 0.836699 0.734516
O O5 0.205430 0.783628 0.500000
O O6 0.174923 0.670744 0.697982
O O7 0.176524 0.841105 0.759540
O O8 0.000000 0.856841 0.500000
O O9 0.060092 0.863362 0.251849
O O10 0.000000 0.000000 0.340203
O O11 0.060493 0.363255 0.244555
O O12 0.000000 0.500000 0.162173
O O13 0.000000 0.357375 0.000000
O O14 0.500000 0.368212 0.792985
O O15 0.424109 0.500000 0.809568
O O16 0.423670 0.374042 0.000000
O O17 0.500000 0.130274 0.199857
O O18 0.576726 0.000000 0.184039
O O19 0.579723 0.129774 0.000000
O O20 0.894427 0.390196 0.500000
O O21 0.868417 0.500000 0.704238
O O22 0.873475 0.000000 0.820008
O O23 0.884274 0.868829 0.000000
#
# Coordination Sequence:
#
# PCOD9387672 Si02
#       8
#     8   8   4   4   8   8   8   8
#     4  11  23  36  53  81 115 147 180 223 274 325
#     4  10  23  39  53  75 108 147 185 217 261 322
#     4   9  17  32  57  84 108 138 174 216 273 333
#     4   9  17  30  51  80 108 130 160 212 273 317
#     4   9  19  37  60  84 110 143 183 224 268 322
#     4   9  19  37  60  83 107 140 182 224 268 321
#     4   9  18  35  57  76  98 134 178 217 254 306
#     4  10  21  37  57  81 108 138 178 229 275 316
#
# _framework density 18.227352
#
# number of rings (size 3 to 8) (size 9 to 14) (size 15 to 20)
#    0.000    2.429    0.000    2.571    0.000    8.857 
#    0.000    6.429    0.000    1.714    0.000    0.000 
#    0.000    0.000    0.000    0.000    0.000    0.000 
#
# Total GULP energy -312731.424831 kJ/mol
# GULP energy per Si atom -5584.489729 kJ/mol
# Density = 1.818587 g / cm^3
# Si number density = 18.227352 Si / 1000 Ang^3
#
#
#
# Elastic Constant Matrix: (Units=GPa)
#
#
# Indices 1 2 3 4 5 6 
#
# 1 187.1923 71.7118 106.9422 0.0000 0.0000 0.0000
# 2 71.7118 74.3865 58.7584 0.0000 0.0000 0.0000
# 3 106.9422 58.7584 96.2049 0.0000 0.0000 0.0000
# 4 0.0000 0.0000 0.0000 82.1387 0.0000 0.0000
# 5 0.0000 0.0000 0.0000 0.0000 -13.9405 0.0000
# 6 0.0000 0.0000 0.0000 0.0000 0.0000 59.2341
#
#
#
# Elastic Compliance Matrix: (Units=1/GPa)
#
#
# Indices 1 2 3 4 5 6 
#
# 1 0.014869 -0.002470 -0.015020 0.000000 0.000000 0.000000
# 2 -0.002470 0.026385 -0.013369 0.000000 0.000000 0.000000
# 3 -0.015020 -0.013369 0.035257 0.000000 0.000000 0.000000
# 4 0.000000 0.000000 0.000000 0.012175 0.000000 0.000000
# 5 0.000000 0.000000 0.000000 0.000000 -0.071733 0.000000
# 6 0.000000 0.000000 0.000000 0.000000 0.000000 0.016882
#
#
# Mechanical properties :
#
#
# Convention : Reuss Voigt Hill
#
# Bulk Modulus (GPa) = 67.60509 92.51206 80.05858
# Shear Modulus (GPa) = 49.75898 33.51120 41.63509
#
# Velocity S-wave (km/s) = 5.23052 4.29244 4.78453
# Velocity P-wave (km/s) = 8.58185 8.68513 8.63364
#
# Compressibility (1/GPa) = 0.01479179
#
# Stress axis : x y z
#
# Youngs Moduli (GPa) = 67.25203 37.90023 28.36345
#
# Poissons Ratio (x) = 0.09362 0.42603
# Poissons Ratio (y) = 0.16612 0.37920
# Poissons Ratio (z) = 1.01015 0.50670
#
# Static dielectric constant tensor:
#      x y z
#    x 1.587680 0.000000 0.000000 
#    y 0.000000 1.642700 0.000000 
#    z 0.000000 0.000000 1.605730 
# 
# From -- ./inp_files/11382.got.cif
#   From: 2010.05.17/outbox.cif.g08.bks.cpg/sg47_6_cif.got.tgz:11382.got - 2010.06.03 20:15:42.
