data_PCOD9387508
_publ_section_title
;
Structure prediction by ZEFSAII (Michael W. Deem and Ramdas Pophale) SiO2 
 PCOD9387508
Probable space group: P M M M
;
_chemical_formula_sum "Si O2"
_cell_formula_units_Z 38
_cell_length_a 22.617222
_cell_length_b 7.310072
_cell_length_c 10.525320
_cell_angle_alpha 90.000000
_cell_angle_beta 90.000000
_cell_angle_gamma 90.000000
_cell_volume 1740.188218
_symmetry_space_group_name_H-M "P M M M"
_symmetry_group_IT_number 47
_symmetry_cell_setting 'orthorhombic'
loop_
_space_group_symop_operation_xyz
x,y,z
-x,-y,z
x,-y,-z
-x,y,-z
-x,-y,-z
x,y,-z
-x,y,z
x,-y,z
loop_
_atom_site_type_symbol
_atom_site_label
_atom_site_fract_x
_atom_site_fract_y
_atom_site_fract_z
Si Si1 0.844489 0.280790 0.723179
Si Si2 0.500000 0.219699 0.736635
Si Si3 0.000000 0.000000 0.000000
Si Si4 0.068288 0.276743 0.500000
Si Si5 0.288764 0.214151 0.359928
Si Si6 0.889426 0.722197 0.000000
Si Si7 0.374386 0.778198 0.858488
Si Si8 0.500000 0.500000 0.500000
O O1 0.846236 0.500000 0.718585
O O2 0.895470 0.217459 0.625349
O O3 0.780248 0.226012 0.673792
O O4 0.855665 0.229646 0.869221
O O5 0.558997 0.261871 0.816144
O O6 0.500000 0.340048 0.610965
O O7 0.500000 0.000000 0.709810
O O8 0.051290 0.839217 0.000000
O O9 0.067742 0.500000 0.500000
O O10 0.000000 0.217819 0.500000
O O11 0.299324 0.293438 0.500000
O O12 0.328943 0.290767 0.247752
O O13 0.303779 0.000000 0.367759
O O14 0.899353 0.500000 0.000000
O O15 0.369487 0.000000 0.862063
O O16 0.361363 0.712107 0.000000
#
# Coordination Sequence:
#
# PCOD9387508 Si02
#       8
#     8   4   1   4   8   4   8   1
#     4  10  21  40  60  85 121 165 206 258 319 383
#     4  10  22  43  69  95 138 181 226 278 340 400
#     4  12  26  44  68 100 120 172 206 256 336 390
#     4   9  18  34  60  85 109 153 203 245 310 380
#     4  10  21  36  58  91 131 166 213 270 323 388
#     4  10  25  43  65  92 129 160 211 266 314 388
#     4   9  19  38  66  96 125 173 226 276 337 403
#     4  12  26  40  62 106 136 180 224 280 326 406
#
# _framework density 21.836717
#
# number of rings (size 3 to 8) (size 9 to 14) (size 15 to 20)
#    0.000    2.211    1.053    0.632    5.895    1.263 
#    1.895    1.053    0.000    1.263    0.000    0.000 
#    0.000    0.000    0.000    0.000    0.000    0.000 
#
# Total GULP energy -211812.167146 kJ/mol
# GULP energy per Si atom -5574.004399 kJ/mol
# Density = 2.178702 g / cm^3
# Si number density = 21.836717 Si / 1000 Ang^3
#
#
#
# Elastic Constant Matrix: (Units=GPa)
#
#
# Indices 1 2 3 4 5 6 
#
# 1 154.3354 6.9646 111.2822 0.0000 0.0000 0.0000
# 2 6.9646 95.9732 28.9323 0.0000 0.0000 0.0000
# 3 111.2822 28.9323 257.6046 0.0000 0.0000 0.0000
# 4 0.0000 0.0000 0.0000 -17.3539 0.0000 0.0000
# 5 0.0000 0.0000 0.0000 0.0000 -37.3956 0.0000
# 6 0.0000 0.0000 0.0000 0.0000 0.0000 18.7510
#
#
#
# Elastic Compliance Matrix: (Units=1/GPa)
#
#
# Indices 1 2 3 4 5 6 
#
# 1 0.009440 0.000563 -0.004141 0.000000 0.000000 0.000000
# 2 0.000563 0.010818 -0.001458 0.000000 0.000000 0.000000
# 3 -0.004141 -0.001458 0.005835 0.000000 0.000000 0.000000
# 4 0.000000 0.000000 0.000000 -0.057624 0.000000 0.000000
# 5 0.000000 0.000000 0.000000 0.000000 -0.026741 0.000000
# 6 0.000000 0.000000 0.000000 0.000000 0.000000 0.053330
#
#
# Mechanical properties :
#
#
# Convention : Reuss Voigt Hill
#
# Bulk Modulus (GPa) = 62.42011 89.14127 75.78069
# Shear Modulus (GPa) = 477.51496 16.84926 247.18211
#
# Velocity S-wave (km/s) = 14.80372 2.78079 10.65089
# Velocity P-wave (km/s) = 17.91220 7.15687 13.63942
#
# Compressibility (1/GPa) = 0.01602048
#
# Stress axis : x y z
#
# Youngs Moduli (GPa) = 105.93244 92.43553 171.38883
#
# Poissons Ratio (x) = -0.05208 0.70976
# Poissons Ratio (y) = -0.05968 0.24996
# Poissons Ratio (z) = 0.43869 0.13481
#
# Static dielectric constant tensor:
#      x y z
#    x 1.732560 0.000000 0.000000 
#    y 0.000000 1.854040 0.000000 
#    z 0.000000 0.000000 1.788240 
# 
# From -- ./inp_files/12206.got.cif
#   From: 2010.05.17/outbox.cif.g08.bks.cpg/sg47_7_cif.got.tgz:12206.got - 2010.06.03 20:15:42.
