data_PCOD9387017
_publ_section_title
;
Structure prediction by ZEFSAII (Michael W. Deem and Ramdas Pophale) SiO2 
 PCOD9387017
Probable space group: P M M M
;
_chemical_formula_sum "Si O2"
_cell_formula_units_Z 44
_cell_length_a 28.979258
_cell_length_b 10.088427
_cell_length_c 7.634688
_cell_angle_alpha 90.000000
_cell_angle_beta 90.000000
_cell_angle_gamma 90.000000
_cell_volume 2232.040194
_symmetry_space_group_name_H-M "P M M M"
_symmetry_group_IT_number 47
_symmetry_cell_setting 'orthorhombic'
loop_
_space_group_symop_operation_xyz
x,y,z
-x,-y,z
x,-y,-z
-x,y,-z
-x,-y,-z
x,y,-z
-x,y,z
x,-y,z
loop_
_atom_site_type_symbol
_atom_site_label
_atom_site_fract_x
_atom_site_fract_y
_atom_site_fract_z
Si Si1 0.551983 0.847451 0.213852
Si Si2 0.000000 0.652710 0.215100
Si Si3 0.735616 0.349949 0.210374
Si Si4 0.632259 0.652937 0.786139
Si Si5 0.182978 0.851272 0.292280
Si Si6 0.921043 0.150064 0.206217
O O1 0.500000 0.809032 0.267750
O O2 0.592098 0.750112 0.275422
O O3 0.559942 0.000000 0.266200
O O4 0.552385 0.845393 0.000000
O O5 0.044357 0.738233 0.274201
O O6 0.000000 0.500000 0.273545
O O7 0.000000 0.648169 0.000000
O O8 0.744727 0.500000 0.274107
O O9 0.684185 0.309409 0.270571
O O10 0.776083 0.249420 0.253976
O O11 0.733327 0.356224 0.000000
O O12 0.624323 0.500000 0.735623
O O13 0.631729 0.656409 0.000000
O O14 0.178405 0.858912 0.500000
O O15 0.132530 0.811574 0.224124
O O16 0.193072 0.000000 0.224053
O O17 0.926800 0.000000 0.280004
O O18 0.931229 0.139761 0.000000
#
# Coordination Sequence:
#
# PCOD9387017 Si02
#       6
#     8   4   8   8   8   8
#     4   8  13  20  30  48  77 111 144 178 219 268
#     4   9  17  29  48  75 100 120 150 193 232 267
#     4   9  18  32  49  69  93 122 158 199 240 282
#     4   8  14  24  37  55  80 110 146 186 225 268
#     4  10  21  35  50  71  98 126 159 198 238 282
#     4   9  17  31  51  72  95 125 158 190 228 274
#
# _framework density 19.712906
#
# number of rings (size 3 to 8) (size 9 to 14) (size 15 to 20)
#    0.000    3.182    0.000    2.455    0.000    4.364 
#    0.000    5.909    0.000    2.727    0.000    0.000 
#    0.000    0.727    0.000    8.000    0.000   13.091 
#
# Total GULP energy -245298.266634 kJ/mol
# GULP energy per Si atom -5574.960605 kJ/mol
# Density = 1.966804 g / cm^3
# Si number density = 19.712906 Si / 1000 Ang^3
#
#
#
# Elastic Constant Matrix: (Units=GPa)
#
#
# Indices 1 2 3 4 5 6 
#
# 1 196.7529 148.2707 -0.1334 0.0000 0.0000 0.0000
# 2 148.2707 143.2622 4.2719 0.0000 0.0000 0.0000
# 3 -0.1334 4.2719 36.0668 0.0000 0.0000 0.0000
# 4 0.0000 0.0000 0.0000 1.5171 0.0000 0.0000
# 5 0.0000 0.0000 0.0000 0.0000 -47.1724 0.0000
# 6 0.0000 0.0000 0.0000 0.0000 0.0000 32.2486
#
#
#
# Elastic Compliance Matrix: (Units=1/GPa)
#
#
# Indices 1 2 3 4 5 6 
#
# 1 0.023407 -0.024314 0.002966 0.000000 0.000000 0.000000
# 2 -0.024314 0.032261 -0.003911 0.000000 0.000000 0.000000
# 3 0.002966 -0.003911 0.028201 0.000000 0.000000 0.000000
# 4 0.000000 0.000000 0.000000 0.659136 0.000000 0.000000
# 5 0.000000 0.000000 0.000000 0.000000 -0.021199 0.000000
# 6 0.000000 0.000000 0.000000 0.000000 0.000000 0.031009
#
#
# Mechanical properties :
#
#
# Convention : Reuss Voigt Hill
#
# Bulk Modulus (GPa) = 29.98375 75.65557 52.81966
# Shear Modulus (GPa) = 6.13911 12.23018 9.18464
#
# Velocity S-wave (km/s) = 1.76664 2.49351 2.16086
# Velocity P-wave (km/s) = 4.40506 6.83756 5.75138
#
# Compressibility (1/GPa) = 0.03335140
#
# Stress axis : x y z
#
# Youngs Moduli (GPa) = 42.72147 30.99710 35.46030
#
# Poissons Ratio (x) = 0.75367 -0.10519
# Poissons Ratio (y) = 1.03874 0.13869
# Poissons Ratio (z) = -0.12673 0.12123
#
# Static dielectric constant tensor:
#      x y z
#    x 1.679020 0.000000 0.000000 
#    y 0.000000 1.704730 0.000000 
#    z 0.000000 0.000000 1.726890 
# 
# From -- ./inp_files/13673.got.cif
#   From: 2010.05.17/outbox.cif.g08.bks.cpg/sg47_7_cif.got.tgz:13673.got - 2010.06.03 20:15:42.
