data_PCOD9387467
_publ_section_title
;
Structure prediction by ZEFSAII (Michael W. Deem and Ramdas Pophale) SiO2 
 PCOD9387467
Probable space group: P M M M
;
_chemical_formula_sum "Si O2"
_cell_formula_units_Z 53
_cell_length_a 8.197315
_cell_length_b 21.818990
_cell_length_c 14.658975
_cell_angle_alpha 90.000000
_cell_angle_beta 90.000000
_cell_angle_gamma 90.000000
_cell_volume 2621.862256
_symmetry_space_group_name_H-M "P M M M"
_symmetry_group_IT_number 47
_symmetry_cell_setting 'orthorhombic'
loop_
_space_group_symop_operation_xyz
x,y,z
-x,-y,z
x,-y,-z
-x,y,-z
-x,-y,-z
x,y,-z
-x,y,z
x,-y,z
loop_
_atom_site_type_symbol
_atom_site_label
_atom_site_fract_x
_atom_site_fract_y
_atom_site_fract_z
Si Si1 0.690440 0.000000 0.364287
Si Si2 0.000000 0.000000 0.500000
Si Si3 0.195368 0.687296 0.102789
Si Si4 0.316643 0.867703 0.728714
Si Si5 0.302015 0.430073 0.208970
Si Si6 0.306603 0.370826 0.397901
Si Si7 0.192860 0.930255 0.892941
Si Si8 0.810792 0.257991 0.292802
O O1 0.703415 0.935498 0.311640
O O2 0.500000 0.000000 0.399579
O O3 0.852575 0.000000 0.424058
O O4 0.234638 0.618366 0.136122
O O5 0.253364 0.727677 0.189832
O O6 0.000000 0.695569 0.098628
O O7 0.259049 0.699260 0.000000
O O8 0.500000 0.846986 0.712249
O O9 0.282142 0.879558 0.834675
O O10 0.205311 0.814084 0.690196
O O11 0.500000 0.425758 0.207622
O O12 0.255802 0.500000 0.190371
O O13 0.245430 0.410219 0.311120
O O14 0.239139 0.381719 0.500000
O O15 0.500000 0.382440 0.402716
O O16 0.278694 0.300929 0.365425
O O17 0.000000 0.928258 0.870419
O O18 0.250890 0.000000 0.874470
O O19 0.209573 0.920046 0.000000
O O20 0.000000 0.276029 0.295528
#
# Coordination Sequence:
#
# PCOD9387467 Si02
#       8
#     4   1   8   8   8   8   8   8
#     4  10  25  45  64  93 122 150 194 248 303 367
#     4  12  26  44  76  86 114 160 190 244 310 378
#     4   9  19  36  55  76 107 148 190 233 277 323
#     4  11  22  38  59  83 116 150 184 235 291 346
#     4   9  18  32  52  81 114 145 181 225 271 327
#     4   9  18  35  56  78 107 143 180 223 280 334
#     4   9  18  32  53  81 112 145 183 222 262 325
#     4  10  21  36  56  80 107 141 187 235 281 341
#
# _framework density 20.214638000000001
#
# number of rings (size 3 to 8) (size 9 to 14) (size 15 to 20)
#    0.000    2.415    0.755    1.472    2.113    3.019 
#    1.358    5.283    0.000    0.000    0.000    4.226 
#    0.000    0.000    0.000    0.000    0.000    0.000 
#
# Total GULP energy -295049.083303 kJ/mol
# GULP energy per Si atom -5566.963836 kJ/mol
# Density = 2.016863 g / cm^3
# Si number density = 20.214638 Si / 1000 Ang^3
#
#
#
# Elastic Constant Matrix: (Units=GPa)
#
#
# Indices 1 2 3 4 5 6 
#
# 1 31.8891 -3.9044 13.3191 0.0000 0.0000 0.0000
# 2 -3.9044 53.9442 -14.8083 0.0000 0.0000 0.0000
# 3 13.3191 -14.8083 54.8443 0.0000 0.0000 0.0000
# 4 0.0000 0.0000 0.0000 7.7843 0.0000 0.0000
# 5 0.0000 0.0000 0.0000 0.0000 27.6586 0.0000
# 6 0.0000 0.0000 0.0000 0.0000 0.0000 22.4939
#
#
#
# Elastic Compliance Matrix: (Units=1/GPa)
#
#
# Indices 1 2 3 4 5 6 
#
# 1 0.034901 0.000215 -0.008418 0.000000 0.000000 0.000000
# 2 0.000215 0.020023 0.005354 0.000000 0.000000 0.000000
# 3 -0.008418 0.005354 0.021723 0.000000 0.000000 0.000000
# 4 0.000000 0.000000 0.000000 0.128464 0.000000 0.000000
# 5 0.000000 0.000000 0.000000 0.000000 0.036155 0.000000
# 6 0.000000 0.000000 0.000000 0.000000 0.000000 0.044457
#
#
# Mechanical properties :
#
#
# Convention : Reuss Voigt Hill
#
# Bulk Modulus (GPa) = 14.09431 14.43227 14.26329
# Shear Modulus (GPa) = 15.86954 21.32544 18.59749
#
# Velocity S-wave (km/s) = 2.80492 3.25152 3.03644
# Velocity P-wave (km/s) = 4.18062 4.60994 4.40052
#
# Compressibility (1/GPa) = 0.07095062
#
# Stress axis : x y z
#
# Youngs Moduli (GPa) = 28.65264 49.94256 46.03350
#
# Poissons Ratio (x) = -0.01075 0.38749
# Poissons Ratio (y) = -0.00617 -0.24647
# Poissons Ratio (z) = 0.24119 -0.26739
#
# Static dielectric constant tensor:
#      x y z
#    x 1.742270 0.000000 0.000000 
#    y 0.000000 1.700460 0.000000 
#    z 0.000000 0.000000 1.746860 
# 
# From -- ./inp_files/21541.got.cif
#   From: 2010.05.17/outbox.cif.g08.bks.cpg/sg47_11_cif.got.tgz:21541.got - 2010.06.03 20:15:42.
