data_PCOD9387110
_publ_section_title
;
Structure prediction by ZEFSAII (Michael W. Deem and Ramdas Pophale) SiO2 
 PCOD9387110
Probable space group: P M M M
;
_chemical_formula_sum "Si O2"
_cell_formula_units_Z 40
_cell_length_a 9.609123
_cell_length_b 7.853678
_cell_length_c 28.318262
_cell_angle_alpha 90.000000
_cell_angle_beta 90.000000
_cell_angle_gamma 90.000000
_cell_volume 2137.093086
_symmetry_space_group_name_H-M "P M M M"
_symmetry_group_IT_number 47
_symmetry_cell_setting 'orthorhombic'
loop_
_space_group_symop_operation_xyz
x,y,z
-x,-y,z
x,-y,-z
-x,y,-z
-x,-y,-z
x,y,-z
-x,y,z
x,-y,z
loop_
_atom_site_type_symbol
_atom_site_label
_atom_site_fract_x
_atom_site_fract_y
_atom_site_fract_z
Si Si1 0.333430 0.701605 0.875147
Si Si2 0.331271 0.000000 0.946302
Si Si3 0.842621 0.703723 0.216320
Si Si4 0.658852 0.794726 0.694490
Si Si5 0.657664 0.795179 0.411407
Si Si6 0.155218 0.298094 0.500000
O O1 0.500000 0.717585 0.867108
O O2 0.306330 0.500000 0.884789
O O3 0.250391 0.757427 0.828357
O O4 0.293364 0.829612 0.917293
O O5 0.500000 0.000000 0.948281
O O6 0.278951 0.000000 0.000000
O O7 0.851101 0.500000 0.212719
O O8 0.764149 0.742712 0.264915
O O9 0.000000 0.772780 0.215265
O O10 0.500000 0.736568 0.704380
O O11 0.697050 0.736071 0.641437
O O12 0.655973 0.000000 0.693756
O O13 0.500000 0.734381 0.421366
O O14 0.760756 0.749647 0.453110
O O15 0.652193 0.000000 0.409615
O O16 0.144230 0.500000 0.500000
O O17 0.000000 0.222982 0.500000
#
# Coordination Sequence:
#
# PCOD9387110 Si02
#       6
#     8   4   8   8   8   4
#     4   9  18  33  53  77 107 144 183 224 273 326
#     4   9  18  32  53  83 111 137 179 232 279 322
#     4  10  21  35  51  75 108 143 177 216 263 314
#     4   9  19  35  55  79 105 133 169 215 264 314
#     4   9  19  37  58  78 100 130 171 216 261 312
#     4  11  24  37  50  74 106 137 170 211 260 312
#
# _framework density 18.717012
#
# number of rings (size 3 to 8) (size 9 to 14) (size 15 to 20)
#    0.000    2.600    0.000    2.400    1.400    6.000 
#    0.000    8.000    0.000    1.200    0.000    2.800 
#    0.000    0.000    0.000    0.000    0.000    0.000 
#
# Total GULP energy -223064.257081 kJ/mol
# GULP energy per Si atom -5576.606427 kJ/mol
# Density = 1.867441 g / cm^3
# Si number density = 18.717012 Si / 1000 Ang^3
#
#
#
# Elastic Constant Matrix: (Units=GPa)
#
#
# Indices 1 2 3 4 5 6 
#
# 1 102.1952 33.5105 106.9520 0.0000 0.0000 0.0000
# 2 33.5105 46.6658 45.4394 0.0000 0.0000 0.0000
# 3 106.9520 45.4394 192.6641 0.0000 0.0000 0.0000
# 4 0.0000 0.0000 0.0000 59.0118 0.0000 0.0000
# 5 0.0000 0.0000 0.0000 0.0000 -6.2000 0.0000
# 6 0.0000 0.0000 0.0000 0.0000 0.0000 19.0451
#
#
#
# Elastic Compliance Matrix: (Units=1/GPa)
#
#
# Indices 1 2 3 4 5 6 
#
# 1 0.024442 -0.005634 -0.012239 0.000000 0.000000 0.000000
# 2 -0.005634 0.029116 -0.003740 0.000000 0.000000 0.000000
# 3 -0.012239 -0.003740 0.012867 0.000000 0.000000 0.000000
# 4 0.000000 0.000000 0.000000 0.016946 0.000000 0.000000
# 5 0.000000 0.000000 0.000000 0.000000 -0.161291 0.000000
# 6 0.000000 0.000000 0.000000 0.000000 0.000000 0.052507
#
#
# Mechanical properties :
#
#
# Convention : Reuss Voigt Hill
#
# Bulk Modulus (GPa) = 43.10556 79.25879 61.18217
# Shear Modulus (GPa) = 195.74392 24.74626 110.24509
#
# Velocity S-wave (km/s) = 10.23757 3.64005 7.68303
# Velocity P-wave (km/s) = 12.76025 7.75270 10.55766
#
# Compressibility (1/GPa) = 0.02319886
#
# Stress axis : x y z
#
# Youngs Moduli (GPa) = 40.91396 34.34570 77.72033
#
# Poissons Ratio (x) = 0.19349 0.95124
# Poissons Ratio (y) = 0.23050 0.29064
# Poissons Ratio (z) = 0.50076 0.12844
#
# Static dielectric constant tensor:
#      x y z
#    x 1.649430 0.000000 0.000000 
#    y 0.000000 1.676180 0.000000 
#    z 0.000000 0.000000 1.636570 
# 
# From -- ./inp_files/1690.got.cif
#   From: 2010.05.17/outbox.cif.g08.bks.cpg/sg47_1_cif.got.tgz:1690.got - 2010.06.03 20:15:42.
