data_PCOD9387096
_publ_section_title
;
Structure prediction by ZEFSAII (Michael W. Deem and Ramdas Pophale) SiO2 
 PCOD9387096
Probable space group: P M M M
;
_chemical_formula_sum "Si O2"
_cell_formula_units_Z 40
_cell_length_a 30.145706
_cell_length_b 9.407292
_cell_length_c 7.651453
_cell_angle_alpha 90.000000
_cell_angle_beta 90.000000
_cell_angle_gamma 90.000000
_cell_volume 2169.871416
_symmetry_space_group_name_H-M "P M M M"
_symmetry_group_IT_number 47
_symmetry_cell_setting 'orthorhombic'
loop_
_space_group_symop_operation_xyz
x,y,z
-x,-y,z
x,-y,-z
-x,y,-z
-x,-y,-z
x,y,-z
-x,y,z
x,-y,z
loop_
_atom_site_type_symbol
_atom_site_label
_atom_site_fract_x
_atom_site_fract_y
_atom_site_fract_z
Si Si1 0.863972 0.159747 0.791439
Si Si2 0.393916 0.671323 0.500000
Si Si3 0.291498 0.327798 0.500000
Si Si4 0.552463 0.832386 0.794230
Si Si5 0.049399 0.662135 0.289606
Si Si6 0.222778 0.670247 0.793875
O O1 0.910524 0.236551 0.759245
O O2 0.822049 0.252441 0.731504
O O3 0.863526 0.000000 0.719538
O O4 0.858991 0.151198 0.000000
O O5 0.396199 0.500000 0.500000
O O6 0.342411 0.717718 0.500000
O O7 0.418489 0.735483 0.331295
O O8 0.292296 0.500000 0.500000
O O9 0.263621 0.285182 0.328537
O O10 0.500000 0.807628 0.762854
O O11 0.560736 0.000000 0.759510
O O12 0.560922 0.806851 0.000000
O O13 0.048115 0.658036 0.500000
O O14 0.057397 0.500000 0.228337
O O15 0.000000 0.706006 0.229329
O O16 0.216736 0.500000 0.777279
O O17 0.230483 0.700145 0.000000
#
# Coordination Sequence:
#
# PCOD9387096 Si02
#       6
#     8   4   4   8   8   8
#     4  10  21  35  51  75 105 132 161 205 262 315
#     4  11  22  34  53  86 122 149 181 234 295 344
#     4   9  20  36  54  79 107 141 182 220 271 333
#     4   9  19  37  59  81 110 154 202 239 274 325
#     4   9  19  35  53  74 100 131 168 207 246 297
#     4   9  18  35  57  76  98 134 180 224 262 310
#
# _framework density 18.434272
#
# number of rings (size 3 to 8) (size 9 to 14) (size 15 to 20)
#    0.000    2.600    0.000    2.400    1.400    5.200 
#    0.000    8.000    0.000    2.400    0.000    0.000 
#    0.000    0.000    0.000    0.000    0.000    0.000 
#
# Total GULP energy -223135.372094 kJ/mol
# GULP energy per Si atom -5578.384302 kJ/mol
# Density = 1.839232 g / cm^3
# Si number density = 18.434272 Si / 1000 Ang^3
#
#
#
# Elastic Constant Matrix: (Units=GPa)
#
#
# Indices 1 2 3 4 5 6 
#
# 1 167.7719 87.2863 73.4845 0.0000 0.0000 0.0000
# 2 87.2863 80.1564 52.6448 0.0000 0.0000 0.0000
# 3 73.4845 52.6448 76.3830 0.0000 0.0000 0.0000
# 4 0.0000 0.0000 0.0000 19.9344 0.0000 0.0000
# 5 0.0000 0.0000 0.0000 0.0000 -39.3680 0.0000
# 6 0.0000 0.0000 0.0000 0.0000 0.0000 -20.0079
#
#
#
# Elastic Compliance Matrix: (Units=1/GPa)
#
#
# Indices 1 2 3 4 5 6 
#
# 1 0.015043 -0.012563 -0.005813 0.000000 0.000000 0.000000
# 2 -0.012563 0.033285 -0.010855 0.000000 0.000000 0.000000
# 3 -0.005813 -0.010855 0.026166 0.000000 0.000000 0.000000
# 4 0.000000 0.000000 0.000000 0.050164 0.000000 0.000000
# 5 0.000000 0.000000 0.000000 0.000000 -0.025401 0.000000
# 6 0.000000 0.000000 0.000000 0.000000 0.000000 -0.049980
#
#
# Mechanical properties :
#
#
# Convention : Reuss Voigt Hill
#
# Bulk Modulus (GPa) = 62.37515 83.46030 72.91773
# Shear Modulus (GPa) = 44.21575 -0.49524 21.86026
#
# Velocity S-wave (km/s) = 4.90283 -0.51888 3.44735
# Velocity P-wave (km/s) = 8.12159 6.70924 7.44896
#
# Compressibility (1/GPa) = 0.01603203
#
# Stress axis : x y z
#
# Youngs Moduli (GPa) = 66.47735 30.04377 38.21742
#
# Poissons Ratio (x) = 0.37743 0.22218
# Poissons Ratio (y) = 0.83513 0.41484
# Poissons Ratio (z) = 0.38646 0.32612
#
# Static dielectric constant tensor:
#      x y z
#    x 1.613570 0.000000 0.000000 
#    y 0.000000 1.627440 0.000000 
#    z 0.000000 0.000000 1.656690 
# 
# From -- ./inp_files/13010.got.cif
#   From: 2010.05.17/outbox.cif.g08.bks.cpg/sg47_7_cif.got.tgz:13010.got - 2010.06.03 20:15:42.
