data_PCOD9387706
_publ_section_title
;
Structure prediction by ZEFSAII (Michael W. Deem and Ramdas Pophale) SiO2 
 PCOD9387706
Probable space group: P M M M
;
_chemical_formula_sum "Si O2"
_cell_formula_units_Z 37
_cell_length_a 9.658085
_cell_length_b 23.180533
_cell_length_c 8.825837
_cell_angle_alpha 90.000000
_cell_angle_beta 90.000000
_cell_angle_gamma 90.000000
_cell_volume 1975.924487
_symmetry_space_group_name_H-M "P M M M"
_symmetry_group_IT_number 47
_symmetry_cell_setting 'orthorhombic'
loop_
_space_group_symop_operation_xyz
x,y,z
-x,-y,z
x,-y,-z
-x,y,-z
-x,-y,-z
x,y,-z
-x,y,z
x,-y,z
loop_
_atom_site_type_symbol
_atom_site_label
_atom_site_fract_x
_atom_site_fract_y
_atom_site_fract_z
Si Si1 0.344138 0.121924 0.319064
Si Si2 0.000000 0.000000 0.000000
Si Si3 0.714470 0.000000 0.168286
Si Si4 0.840739 0.566766 0.682575
Si Si5 0.839803 0.778638 0.183113
Si Si6 0.340091 0.332126 0.182990
O O1 0.331292 0.122152 0.500000
O O2 0.500000 0.142029 0.278790
O O3 0.231754 0.164223 0.246760
O O4 0.325468 0.057513 0.256738
O O5 0.877532 0.000000 0.869839
O O6 0.649951 0.000000 0.000000
O O7 0.833210 0.570506 0.500000
O O8 0.813957 0.500000 0.724326
O O9 0.734291 0.610934 0.755237
O O10 0.000000 0.580559 0.726755
O O11 0.749628 0.723363 0.231531
O O12 0.000000 0.773433 0.230197
O O13 0.837028 0.781340 0.000000
O O14 0.500000 0.327914 0.232129
O O15 0.338228 0.333597 0.000000
#
# Coordination Sequence:
#
# PCOD9387706 Si02
#       6
#     8   1   4   8   8   8
#     4  11  24  40  59  87 120 151 188 232 281 336
#     4   8  24  40  60  92 120 144 192 240 274 336
#     4  10  22  40  64  84 118 150 188 232 279 331
#     4   9  19  36  57  81 111 148 189 231 278 335
#     4  10  22  39  61  84 111 147 191 235 280 336
#     4  10  21  37  57  83 114 147 187 233 282 334
#
# _framework density 18.725411999999999
#
# number of rings (size 3 to 8) (size 9 to 14) (size 15 to 20)
#    0.324    1.730    0.000    3.243    1.514    7.784 
#    0.000    3.784    0.000    0.000    0.000    0.000 
#    0.000    0.000    0.000    0.000    0.000    0.000 
#
# Total GULP energy -206306.791780 kJ/mol
# GULP energy per Si atom -5575.859237 kJ/mol
# Density = 1.868279 g / cm^3
# Si number density = 18.725412 Si / 1000 Ang^3
#
#
#
# Elastic Constant Matrix: (Units=GPa)
#
#
# Indices 1 2 3 4 5 6 
#
# 1 188.1959 96.6682 38.4620 0.0000 0.0000 0.0000
# 2 96.6682 137.8409 25.2638 0.0000 0.0000 0.0000
# 3 38.4620 25.2638 14.4540 0.0000 0.0000 0.0000
# 4 0.0000 0.0000 0.0000 46.3386 0.0000 0.0000
# 5 0.0000 0.0000 0.0000 0.0000 30.8348 0.0000
# 6 0.0000 0.0000 0.0000 0.0000 0.0000 -6.0382
#
#
#
# Elastic Compliance Matrix: (Units=1/GPa)
#
#
# Indices 1 2 3 4 5 6 
#
# 1 0.013055 -0.004103 -0.027569 0.000000 0.000000 0.000000
# 2 -0.004103 0.011964 -0.009993 0.000000 0.000000 0.000000
# 3 -0.027569 -0.009993 0.160013 0.000000 0.000000 0.000000
# 4 0.000000 0.000000 0.000000 0.021580 0.000000 0.000000
# 5 0.000000 0.000000 0.000000 0.000000 0.032431 0.000000
# 6 0.000000 0.000000 0.000000 0.000000 0.000000 -0.165613
#
#
# Mechanical properties :
#
#
# Convention : Reuss Voigt Hill
#
# Bulk Modulus (GPa) = 9.83268 73.47542 41.65405
# Shear Modulus (GPa) = 26.22455 26.23350 26.22903
#
# Velocity S-wave (km/s) = 3.74636 3.74700 3.74668
# Velocity P-wave (km/s) = 4.89653 7.61863 6.40388
#
# Compressibility (1/GPa) = 0.10170167
#
# Stress axis : x y z
#
# Youngs Moduli (GPa) = 76.59623 83.58625 6.24949
#
# Poissons Ratio (x) = 0.34295 0.17229
# Poissons Ratio (y) = 0.31427 0.06245
# Poissons Ratio (z) = 2.11169 0.83529
#
# Static dielectric constant tensor:
#      x y z
#    x 1.642030 0.000000 0.000000 
#    y 0.000000 1.618070 0.000000 
#    z 0.000000 0.000000 1.630080 
# 
# From -- ./inp_files/1467.got.cif
#   From: 2010.05.17/outbox.cif.g08.bks.cpg/sg47_1_cif.got.tgz:1467.got - 2010.06.03 20:15:42.
