data_PCOD9387697
_publ_section_title
;
Structure prediction by ZEFSAII (Michael W. Deem and Ramdas Pophale) SiO2 
 PCOD9387697
Probable space group: P M M M
;
_chemical_formula_sum "Si O2"
_cell_formula_units_Z 64
_cell_length_a 15.886359
_cell_length_b 24.542111
_cell_length_c 7.859709
_cell_angle_alpha 90.000000
_cell_angle_beta 90.000000
_cell_angle_gamma 90.000000
_cell_volume 3064.380961
_symmetry_space_group_name_H-M "P M M M"
_symmetry_group_IT_number 47
_symmetry_cell_setting 'orthorhombic'
loop_
_space_group_symop_operation_xyz
x,y,z
-x,-y,z
x,-y,-z
-x,y,-z
-x,-y,-z
x,y,-z
-x,y,z
x,-y,z
loop_
_atom_site_type_symbol
_atom_site_label
_atom_site_fract_x
_atom_site_fract_y
_atom_site_fract_z
Si Si1 0.407693 0.121277 0.698163
Si Si2 0.760336 0.938796 0.798576
Si Si3 0.593403 0.639289 0.791971
Si Si4 0.094897 0.630903 0.294680
Si Si5 0.093901 0.859170 0.793764
Si Si6 0.360836 0.240487 0.197210
Si Si7 0.170639 0.746058 0.701288
Si Si8 0.744265 0.561677 0.204590
O O1 0.407723 0.106778 0.500000
O O2 0.500000 0.108413 0.770837
O O3 0.329606 0.089925 0.778376
O O4 0.392338 0.186044 0.713536
O O5 0.833492 0.899588 0.728902
O O6 0.760621 0.000000 0.727263
O O7 0.776506 0.942927 0.000000
O O8 0.500000 0.619937 0.744311
O O9 0.605817 0.701766 0.735422
O O10 0.669709 0.601284 0.731808
O O11 0.597237 0.640385 0.000000
O O12 0.091913 0.632331 0.500000
O O13 0.127292 0.690440 0.237363
O O14 0.165174 0.587357 0.244320
O O15 0.000000 0.620003 0.233023
O O16 0.112897 0.798373 0.731078
O O17 0.000000 0.876436 0.744277
O O18 0.097697 0.857680 0.000000
O O19 0.259820 0.243678 0.209724
O O20 0.385990 0.235704 0.000000
O O21 0.187432 0.740542 0.500000
O O22 0.736672 0.500000 0.269343
O O23 0.736128 0.559975 0.000000
#
# Coordination Sequence:
#
# PCOD9387697 Si02
#       8
#     8   8   8   8   8   8   8   8
#     4  11  24  40  59  86 119 154 191 235 290 345
#     4  10  22  40  61  85 115 154 198 241 283 332
#     4   9  18  33  55  84 115 146 181 224 278 338
#     4  10  22  39  58  81 112 151 190 229 280 342
#     4  10  21  37  59  88 119 152 189 230 282 342
#     4  11  20  34  59  87 117 151 187 231 285 343
#     4  11  21  35  58  86 117 151 187 231 286 344
#     4  10  21  37  57  82 112 146 189 240 286 329
#
# _framework density 20.885131000000001
#
# number of rings (size 3 to 8) (size 9 to 14) (size 15 to 20)
#    0.000    1.750    2.500    1.875    0.000    4.500 
#    0.000    5.000    0.000    1.125    0.000    2.625 
#    0.000    0.000    0.000    0.000    0.000    0.000 
#
# Total GULP energy -357617.949561 kJ/mol
# GULP energy per Si atom -5587.780462 kJ/mol
# Density = 2.083760 g / cm^3
# Si number density = 20.885131 Si / 1000 Ang^3
#
#
#
# Elastic Constant Matrix: (Units=GPa)
#
#
# Indices 1 2 3 4 5 6 
#
# 1 118.8870 28.3691 -10.1701 0.0000 0.0000 0.0000
# 2 28.3691 107.6686 -5.5469 0.0000 0.0000 0.0000
# 3 -10.1701 -5.5469 23.8806 0.0000 0.0000 0.0000
# 4 0.0000 0.0000 0.0000 -15.5002 0.0000 0.0000
# 5 0.0000 0.0000 0.0000 0.0000 20.4542 0.0000
# 6 0.0000 0.0000 0.0000 0.0000 0.0000 -1.7850
#
#
#
# Elastic Compliance Matrix: (Units=1/GPa)
#
#
# Indices 1 2 3 4 5 6 
#
# 1 0.009242 -0.002259 0.003411 0.000000 0.000000 0.000000
# 2 -0.002259 0.009953 0.001350 0.000000 0.000000 0.000000
# 3 0.003411 0.001350 0.043641 0.000000 0.000000 0.000000
# 4 0.000000 0.000000 0.000000 -0.064515 0.000000 0.000000
# 5 0.000000 0.000000 0.000000 0.000000 0.048890 0.000000
# 6 0.000000 0.000000 0.000000 0.000000 0.000000 -0.560228
#
#
# Mechanical properties :
#
#
# Convention : Reuss Voigt Hill
#
# Bulk Modulus (GPa) = 14.74086 30.63782 22.68934
# Shear Modulus (GPa) = -10.09270 16.48608 3.19669
#
# Velocity S-wave (km/s) = -2.20068 2.81262 1.23852
# Velocity P-wave (km/s) = 0.78491 5.02487 3.59621
#
# Compressibility (1/GPa) = 0.06783863
#
# Stress axis : x y z
#
# Youngs Moduli (GPa) = 108.19795 100.47608 22.91415
#
# Poissons Ratio (x) = 0.22702 -0.07817
# Poissons Ratio (y) = 0.24447 -0.03092
# Poissons Ratio (z) = -0.36909 -0.13559
#
# Static dielectric constant tensor:
#      x y z
#    x 1.744030 0.000000 0.000000 
#    y 0.000000 1.724280 0.000000 
#    z 0.000000 0.000000 1.769820 
# 
# From -- ./inp_files/7841.got.cif
#   From: 2010.05.17/outbox.cif.g08.bks.cpg/sg47_4_cif.got.tgz:7841.got - 2010.06.03 20:15:42.
