data_PCOD9387471
_publ_section_title
;
Structure prediction by ZEFSAII (Michael W. Deem and Ramdas Pophale) SiO2 
 PCOD9387471
Probable space group: P M M M
;
_chemical_formula_sum "Si O2"
_cell_formula_units_Z 64
_cell_length_a 8.958098
_cell_length_b 26.979775
_cell_length_c 14.196739
_cell_angle_alpha 90.000000
_cell_angle_beta 90.000000
_cell_angle_gamma 90.000000
_cell_volume 3431.173909
_symmetry_space_group_name_H-M "P M M M"
_symmetry_group_IT_number 47
_symmetry_cell_setting 'orthorhombic'
loop_
_space_group_symop_operation_xyz
x,y,z
-x,-y,z
x,-y,-z
-x,y,-z
-x,-y,-z
x,y,-z
-x,y,z
x,-y,z
loop_
_atom_site_type_symbol
_atom_site_label
_atom_site_fract_x
_atom_site_fract_y
_atom_site_fract_z
Si Si1 0.326396 0.850363 0.113659
Si Si2 0.179558 0.303109 0.609287
Si Si3 0.169209 0.191470 0.385856
Si Si4 0.173883 0.747179 0.886142
Si Si5 0.679027 0.653616 0.215409
Si Si6 0.822234 0.945366 0.208633
Si Si7 0.676103 0.090290 0.389680
Si Si8 0.681601 0.444921 0.890766
O O1 0.500000 0.847450 0.140464
O O2 0.242577 0.800050 0.143827
O O3 0.254311 0.899867 0.155312
O O4 0.317101 0.852567 0.000000
O O5 0.222293 0.308861 0.500000
O O6 0.215343 0.246745 0.641909
O O7 0.260142 0.340011 0.679328
O O8 0.000000 0.307563 0.614991
O O9 0.160748 0.193654 0.500000
O O10 0.280468 0.147038 0.364369
O O11 0.000000 0.180631 0.351959
O O12 0.258270 0.700180 0.843320
O O13 0.000000 0.745075 0.859253
O O14 0.184292 0.744948 0.000000
O O15 0.500000 0.655158 0.213890
O O16 0.731096 0.601887 0.169813
O O17 0.769086 0.941956 0.316852
O O18 0.000000 0.940068 0.203224
O O19 0.781025 0.000000 0.171170
O O20 0.713279 0.082314 0.500000
O O21 0.500000 0.082152 0.377933
O O22 0.500000 0.444876 0.889024
O O23 0.730046 0.500000 0.859573
O O24 0.725534 0.438484 0.000000
#
# Coordination Sequence:
#
# PCOD9387471 Si02
#       8
#     8   8   8   8   8   8   8   8
#     4  10  22  41  64  87 111 140 177 226 280 328
#     4   9  19  35  52  72 105 150 193 230 272 326
#     4   8  15  30  51  72  96 132 177 219 261 317
#     4  10  21  37  57  82 115 152 184 216 263 330
#     4  11  21  31  52  85 116 147 185 234 286 332
#     4  11  25  42  60  82 108 143 185 225 268 328
#     4  10  21  36  56  82 111 142 177 224 278 326
#     4   8  15  30  52  78 110 148 189 233 281 333
#
# _framework density 18.652508000000001
#
# number of rings (size 3 to 8) (size 9 to 14) (size 15 to 20)
#    0.000    2.375    0.000    3.375    1.750    5.000 
#    0.000    3.750    0.000    1.875    0.000    7.000 
#    0.000    0.000    0.000    0.000    0.000    0.000 
#
# Total GULP energy -357370.362617 kJ/mol
# GULP energy per Si atom -5583.911916 kJ/mol
# Density = 1.861005 g / cm^3
# Si number density = 18.652508 Si / 1000 Ang^3
#
#
#
# Elastic Constant Matrix: (Units=GPa)
#
#
# Indices 1 2 3 4 5 6 
#
# 1 54.1723 47.5164 30.3706 0.0000 0.0000 0.0000
# 2 47.5164 154.4676 57.8025 0.0000 0.0000 0.0000
# 3 30.3706 57.8025 60.2774 0.0000 0.0000 0.0000
# 4 0.0000 0.0000 0.0000 28.1978 0.0000 0.0000
# 5 0.0000 0.0000 0.0000 0.0000 29.0677 0.0000
# 6 0.0000 0.0000 0.0000 0.0000 0.0000 29.5272
#
#
#
# Elastic Compliance Matrix: (Units=1/GPa)
#
#
# Indices 1 2 3 4 5 6 
#
# 1 0.028205 -0.005238 -0.009188 0.000000 0.000000 0.000000
# 2 -0.005238 0.011070 -0.007976 0.000000 0.000000 0.000000
# 3 -0.009188 -0.007976 0.028868 0.000000 0.000000 0.000000
# 4 0.000000 0.000000 0.000000 0.035464 0.000000 0.000000
# 5 0.000000 0.000000 0.000000 0.000000 0.034402 0.000000
# 6 0.000000 0.000000 0.000000 0.000000 0.000000 0.033867
#
#
# Mechanical properties :
#
#
# Convention : Reuss Voigt Hill
#
# Bulk Modulus (GPa) = 42.84779 60.03293 51.44036
# Shear Modulus (GPa) = 22.27562 26.24041 24.25802
#
# Velocity S-wave (km/s) = 3.45953 3.75481 3.61019
# Velocity P-wave (km/s) = 6.24334 7.14513 6.70940
#
# Compressibility (1/GPa) = 0.02333843
#
# Stress axis : x y z
#
# Youngs Moduli (GPa) = 35.45439 90.33518 34.64034
#
# Poissons Ratio (x) = 0.47318 0.31828
# Poissons Ratio (y) = 0.18571 0.27630
# Poissons Ratio (z) = 0.32576 0.72053
#
# Static dielectric constant tensor:
#      x y z
#    x 1.623790 0.000000 0.000000 
#    y 0.000000 1.639570 0.000000 
#    z 0.000000 0.000000 1.678860 
# 
# From -- ./inp_files/21891.got.cif
#   From: 2010.05.17/outbox.cif.g08.bks.cpg/sg47_11_cif.got.tgz:21891.got - 2010.06.03 20:15:42.
