data_PCOD9387303
_publ_section_title
;
Structure prediction by ZEFSAII (Michael W. Deem and Ramdas Pophale) SiO2 
 PCOD9387303
Probable space group: P M M M
;
_chemical_formula_sum "Si O2"
_cell_formula_units_Z 48
_cell_length_a 19.312362
_cell_length_b 13.074653
_cell_length_c 7.467451
_cell_angle_alpha 90.000000
_cell_angle_beta 90.000000
_cell_angle_gamma 90.000000
_cell_volume 1885.549537
_symmetry_space_group_name_H-M "P M M M"
_symmetry_group_IT_number 47
_symmetry_cell_setting 'orthorhombic'
loop_
_space_group_symop_operation_xyz
x,y,z
-x,-y,z
x,-y,-z
-x,y,-z
-x,-y,-z
x,y,-z
-x,y,z
x,-y,z
loop_
_atom_site_type_symbol
_atom_site_label
_atom_site_fract_x
_atom_site_fract_y
_atom_site_fract_z
Si Si1 0.077556 0.159141 0.796045
Si Si2 0.425479 0.667058 0.794112
Si Si3 0.917144 0.390321 0.294317
Si Si4 0.724623 0.610809 0.219054
Si Si5 0.224491 0.169459 0.217522
Si Si6 0.619684 0.889523 0.290264
O O1 0.090959 0.281926 0.801103
O O2 0.151246 0.123923 0.716672
O O3 0.000000 0.141770 0.716920
O O4 0.073862 0.121858 0.000000
O O5 0.500000 0.642726 0.712431
O O6 0.354565 0.623431 0.717239
O O7 0.413716 0.789422 0.794643
O O8 0.427306 0.632047 0.000000
O O9 0.892727 0.382782 0.500000
O O10 0.893990 0.500000 0.215199
O O11 0.000000 0.397655 0.303195
O O12 0.749650 0.500000 0.277475
O O13 0.765627 0.711708 0.274690
O O14 0.724646 0.613040 0.000000
O O15 0.296813 0.118565 0.271921
O O16 0.222494 0.165776 0.000000
O O17 0.602620 0.884894 0.500000
O O18 0.597633 0.000000 0.219151
#
# Coordination Sequence:
#
# PCOD9387303 Si02
#       6
#     8   8   8   8   8   8
#     4   9  17  28  43  65  92 121 155 200 254 304
#     4   9  18  32  51  77 106 135 168 202 237 282
#     4   8  14  24  36  52  79 116 155 191 229 279
#     4   8  14  26  45  69  98 133 171 205 233 267
#     4   9  18  32  50  72  97 127 165 206 246 294
#     4  10  21  36  54  75  98 126 160 199 247 300
#
# _framework density 25.456769999999999
#
# number of rings (size 3 to 8) (size 9 to 14) (size 15 to 20)
#    0.000    3.167    0.000    2.000    0.000    4.000 
#    0.000    6.667    0.000    8.500    0.000    8.167 
#    0.000    0.000    0.000    0.000    0.000    0.000 
#
# Total GULP energy -267800.343281 kJ/mol
# GULP energy per Si atom -5579.173818 kJ/mol
# Density = 2.539883 g / cm^3
# Si number density = 25.456770 Si / 1000 Ang^3
#
#
#
# Elastic Constant Matrix: (Units=GPa)
#
#
# Indices 1 2 3 4 5 6 
#
# 1 178.7934 -6.7386 -2.4797 0.0000 0.0000 0.0000
# 2 -6.7386 112.3233 1.1473 0.0000 0.0000 0.0000
# 3 -2.4797 1.1473 84.1808 0.0000 0.0000 0.0000
# 4 0.0000 0.0000 0.0000 1.9016 0.0000 0.0000
# 5 0.0000 0.0000 0.0000 0.0000 -14.8713 0.0000
# 6 0.0000 0.0000 0.0000 0.0000 0.0000 -20.8002
#
#
#
# Elastic Compliance Matrix: (Units=1/GPa)
#
#
# Indices 1 2 3 4 5 6 
#
# 1 0.005608 0.000335 0.000161 0.000000 0.000000 0.000000
# 2 0.000335 0.008924 -0.000112 0.000000 0.000000 0.000000
# 3 0.000161 -0.000112 0.011885 0.000000 0.000000 0.000000
# 4 0.000000 0.000000 0.000000 0.525864 0.000000 0.000000
# 5 0.000000 0.000000 0.000000 0.000000 -0.067243 0.000000
# 6 0.000000 0.000000 0.000000 0.000000 0.000000 -0.048077
#
#
# Mechanical properties :
#
#
# Convention : Reuss Voigt Hill
#
# Bulk Modulus (GPa) = 36.78532 39.90616 38.34574
# Shear Modulus (GPa) = 11.22950 18.80393 15.01672
#
# Velocity S-wave (km/s) = 2.10257 2.72078 2.43140
# Velocity P-wave (km/s) = 4.51396 5.05769 4.79354
#
# Compressibility (1/GPa) = 0.02718476
#
# Stress axis : x y z
#
# Youngs Moduli (GPa) = 178.32007 112.05615 84.13652
#
# Poissons Ratio (x) = -0.03752 -0.01351
# Poissons Ratio (y) = -0.05970 0.00940
# Poissons Ratio (z) = -0.02864 0.01252
#
# Static dielectric constant tensor:
#      x y z
#    x 2.037060 0.000000 0.000000 
#    y 0.000000 1.907730 0.000000 
#    z 0.000000 0.000000 1.967950 
# 
# From -- ./inp_files/6741.got.cif
#   From: 2010.05.17/outbox.cif.g08.bks.cpg/sg47_4_cif.got.tgz:6741.got - 2010.06.03 20:15:42.
