data_PCOD9387268
_publ_section_title
;
Structure prediction by ZEFSAII (Michael W. Deem and Ramdas Pophale) SiO2 
 PCOD9387268
Probable space group: P M M M
;
_chemical_formula_sum "Si O2"
_cell_formula_units_Z 48
_cell_length_a 7.769601
_cell_length_b 9.715595
_cell_length_c 31.618902
_cell_angle_alpha 90.000000
_cell_angle_beta 90.000000
_cell_angle_gamma 90.000000
_cell_volume 2386.793815
_symmetry_space_group_name_H-M "P M M M"
_symmetry_group_IT_number 47
_symmetry_cell_setting 'orthorhombic'
loop_
_space_group_symop_operation_xyz
x,y,z
-x,-y,z
x,-y,-z
-x,y,-z
-x,-y,-z
x,y,-z
-x,y,z
x,-y,z
loop_
_atom_site_type_symbol
_atom_site_label
_atom_site_fract_x
_atom_site_fract_y
_atom_site_fract_z
Si Si1 0.794543 0.844299 0.373885
Si Si2 0.704473 0.842615 0.780470
Si Si3 0.795352 0.344347 0.298028
Si Si4 0.210182 0.340713 0.046978
Si Si5 0.292187 0.344344 0.548270
Si Si6 0.792337 0.156952 0.875380
O O1 0.723445 0.748234 0.336320
O O2 0.765720 0.767486 0.418097
O O3 0.000000 0.854261 0.367560
O O4 0.725108 0.000000 0.373189
O O5 0.500000 0.848922 0.775838
O O6 0.771408 0.738526 0.745368
O O7 0.745089 0.796263 0.828230
O O8 0.772903 0.000000 0.775208
O O9 0.725036 0.500000 0.296751
O O10 0.000000 0.355992 0.305079
O O11 0.260978 0.500000 0.051686
O O12 0.271340 0.250318 0.086187
O O13 0.000000 0.337860 0.047409
O O14 0.263335 0.292875 0.000000
O O15 0.235597 0.317027 0.500000
O O16 0.500000 0.345136 0.548148
O O17 0.235165 0.500000 0.559915
O O18 0.000000 0.155114 0.877566
O O19 0.729979 0.000000 0.879841
#
# Coordination Sequence:
#
# PCOD9387268 Si02
#       6
#     8   8   8   8   8   8
#     4  10  21  36  55  80 108 137 170 210 256 305
#     4  10  21  36  53  74 102 135 169 206 251 303
#     4  10  21  37  57  79 102 131 169 211 255 304
#     4   8  14  25  42  66  95 124 156 198 246 293
#     4   9  19  36  56  78 106 141 179 216 254 298
#     4   9  17  29  47  71  97 126 161 202 247 294
#
# _framework density 20.110659999999999
#
# number of rings (size 3 to 8) (size 9 to 14) (size 15 to 20)
#    0.000    2.667    0.000    2.500    0.000    5.667 
#    0.000    5.833    0.000    0.500    0.000    3.500 
#    0.000    0.000    0.000    0.000    0.000    0.000 
#
# Total GULP energy -267852.286849 kJ/mol
# GULP energy per Si atom -5580.255976 kJ/mol
# Density = 2.006489 g / cm^3
# Si number density = 20.110660 Si / 1000 Ang^3
#
#
#
# Elastic Constant Matrix: (Units=GPa)
#
#
# Indices 1 2 3 4 5 6 
#
# 1 26.7337 8.1916 -2.5355 0.0000 0.0000 0.0000
# 2 8.1916 157.4178 127.6839 0.0000 0.0000 0.0000
# 3 -2.5355 127.6839 166.8792 0.0000 0.0000 0.0000
# 4 0.0000 0.0000 0.0000 37.1717 0.0000 0.0000
# 5 0.0000 0.0000 0.0000 0.0000 62.1273 0.0000
# 6 0.0000 0.0000 0.0000 0.0000 0.0000 12.8369
#
#
#
# Elastic Compliance Matrix: (Units=1/GPa)
#
#
# Indices 1 2 3 4 5 6 
#
# 1 0.040038 -0.006792 0.005805 0.000000 0.000000 0.000000
# 2 -0.006792 0.017896 -0.013796 0.000000 0.000000 0.000000
# 3 0.005805 -0.013796 0.016636 0.000000 0.000000 0.000000
# 4 0.000000 0.000000 0.000000 0.026902 0.000000 0.000000
# 5 0.000000 0.000000 0.000000 0.000000 0.016096 0.000000
# 6 0.000000 0.000000 0.000000 0.000000 0.000000 0.077901
#
#
# Mechanical properties :
#
#
# Convention : Reuss Voigt Hill
#
# Bulk Modulus (GPa) = 22.22017 68.63451 45.42734
# Shear Modulus (GPa) = 20.83019 36.93988 28.88504
#
# Velocity S-wave (km/s) = 3.22184 4.29048 3.79397
# Velocity P-wave (km/s) = 4.99132 7.66464 6.46761
#
# Compressibility (1/GPa) = 0.04500416
#
# Stress axis : x y z
#
# Youngs Moduli (GPa) = 24.97647 55.87810 60.10968
#
# Poissons Ratio (x) = 0.37953 -0.34895
# Poissons Ratio (y) = 0.16964 0.82927
# Poissons Ratio (z) = -0.14499 0.77089
#
# Static dielectric constant tensor:
#      x y z
#    x 1.742710 0.000000 0.000000 
#    y 0.000000 1.708830 0.000000 
#    z 0.000000 0.000000 1.686100 
# 
# From -- ./inp_files/2467.got.cif
#   From: 2010.05.17/outbox.cif.g08.bks.cpg/sg47_2_cif.got.tgz:2467.got - 2010.06.03 20:15:42.
