data_PCOD9387825
_publ_section_title
;
Structure prediction by ZEFSAII (Michael W. Deem and Ramdas Pophale) SiO2 
 PCOD9387825
Probable space group: P M M M
;
_chemical_formula_sum "Si O2"
_cell_formula_units_Z 64
_cell_length_a 15.164078
_cell_length_b 8.533132
_cell_length_c 25.484779
_cell_angle_alpha 90.000000
_cell_angle_beta 90.000000
_cell_angle_gamma 90.000000
_cell_volume 3297.655967
_symmetry_space_group_name_H-M "P M M M"
_symmetry_group_IT_number 47
_symmetry_cell_setting 'orthorhombic'
loop_
_space_group_symop_operation_xyz
x,y,z
-x,-y,z
x,-y,-z
-x,y,-z
-x,-y,-z
x,y,-z
-x,y,z
x,-y,z
loop_
_atom_site_type_symbol
_atom_site_label
_atom_site_fract_x
_atom_site_fract_y
_atom_site_fract_z
Si Si1 0.903945 0.686839 0.580931
Si Si2 0.723366 0.186491 0.247289
Si Si3 0.746856 0.680658 0.866665
Si Si4 0.096556 0.187447 0.302210
Si Si5 0.397537 0.181823 0.062433
Si Si6 0.897724 0.810987 0.059671
Si Si7 0.708397 0.691412 0.442811
Si Si8 0.601727 0.310715 0.339506
O O1 0.905036 0.500000 0.571640
O O2 0.899913 0.722439 0.642840
O O3 0.810506 0.745508 0.559528
O O4 0.000000 0.748502 0.562590
O O5 0.719244 0.235719 0.187070
O O6 0.820686 0.233622 0.267536
O O7 0.652337 0.258878 0.287049
O O8 0.715755 0.000000 0.251153
O O9 0.761815 0.500000 0.855088
O O10 0.666905 0.706121 0.906884
O O11 0.832629 0.748562 0.896051
O O12 0.000000 0.216139 0.277961
O O13 0.102554 0.000000 0.312754
O O14 0.500000 0.205423 0.075980
O O15 0.374433 0.000000 0.074542
O O16 0.388686 0.200828 0.000000
O O17 0.000000 0.765164 0.067786
O O18 0.894092 0.000000 0.060517
O O19 0.871999 0.761774 0.000000
O O20 0.671083 0.735401 0.500000
O O21 0.709513 0.500000 0.440723
O O22 0.654594 0.744447 0.391606
O O23 0.500000 0.257895 0.340187
O O24 0.601825 0.500000 0.340910
#
# Coordination Sequence:
#
# PCOD9387825 Si02
#       8
#     8   8   8   8   8   8   8   8
#     4   9  16  27  48  77 108 142 176 213 260 315
#     4  11  23  39  59  80 106 145 189 232 281 340
#     4  12  25  37  55  86 122 154 188 236 291 345
#     4   9  18  33  54  78 102 132 173 219 266 317
#     4   9  19  38  63  87 112 146 188 232 279 336
#     4   9  19  38  63  88 118 161 208 247 284 332
#     4   9  17  30  51  81 115 146 179 222 273 336
#     4  10  21  38  59  81 108 142 183 235 291 342
#
# _framework density 19.407726
#
# number of rings (size 3 to 8) (size 9 to 14) (size 15 to 20)
#    0.000    2.250    1.250    2.625    0.000    4.750 
#    0.000    5.000    0.000    1.500    0.000    2.625 
#    0.000    0.000    0.000    0.000    0.000    0.000 
#
# Total GULP energy -357033.977583 kJ/mol
# GULP energy per Si atom -5578.655900 kJ/mol
# Density = 1.936355 g / cm^3
# Si number density = 19.407726 Si / 1000 Ang^3
#
#
#
# Elastic Constant Matrix: (Units=GPa)
#
#
# Indices 1 2 3 4 5 6 
#
# 1 118.2500 23.1145 59.6044 0.0000 0.0000 0.0000
# 2 23.1145 7.9439 13.1501 0.0000 0.0000 0.0000
# 3 59.6044 13.1501 87.8083 0.0000 0.0000 0.0000
# 4 0.0000 0.0000 0.0000 26.0598 0.0000 0.0000
# 5 0.0000 0.0000 0.0000 0.0000 -51.7855 0.0000
# 6 0.0000 0.0000 0.0000 0.0000 0.0000 -15.4166
#
#
#
# Elastic Compliance Matrix: (Units=1/GPa)
#
#
# Indices 1 2 3 4 5 6 
#
# 1 0.022678 -0.053854 -0.007328 0.000000 0.000000 0.000000
# 2 -0.053854 0.295271 -0.007663 0.000000 0.000000 0.000000
# 3 -0.007328 -0.007663 0.017511 0.000000 0.000000 0.000000
# 4 0.000000 0.000000 0.000000 0.038373 0.000000 0.000000
# 5 0.000000 0.000000 0.000000 0.000000 -0.019310 0.000000
# 6 0.000000 0.000000 0.000000 0.000000 0.000000 -0.064865
#
#
# Mechanical properties :
#
#
# Convention : Reuss Voigt Hill
#
# Bulk Modulus (GPa) = 5.05645 45.08224 25.06935
# Shear Modulus (GPa) = 10.13643 -0.35291 4.89176
#
# Velocity S-wave (km/s) = 2.28784 -0.42689 1.58934
# Velocity P-wave (km/s) = 3.09677 4.79963 4.03896
#
# Compressibility (1/GPa) = 0.19776706
#
# Stress axis : x y z
#
# Youngs Moduli (GPa) = 44.09649 3.38672 57.10841
#
# Poissons Ratio (x) = 0.18239 0.41851
# Poissons Ratio (y) = 2.37479 0.43763
# Poissons Ratio (z) = 0.32315 0.02595
#
# Static dielectric constant tensor:
#      x y z
#    x 1.692440 0.000000 0.000000 
#    y 0.000000 1.677840 0.000000 
#    z 0.000000 0.000000 1.667240 
# 
# From -- ./inp_files/32781.got.cif
#   From: 2010.05.17/outbox.cif.g08.bks.cpg/sg47_17_cif.got.tgz:32781.got - 2010.06.03 20:15:42.
