data_PCOD9387458
_publ_section_title
;
Structure prediction by ZEFSAII (Michael W. Deem and Ramdas Pophale) SiO2 
 PCOD9387458
Probable space group: P M M M
;
_chemical_formula_sum "Si O2"
_cell_formula_units_Z 24
_cell_length_a 7.971237
_cell_length_b 12.639240
_cell_length_c 10.451684
_cell_angle_alpha 90.000000
_cell_angle_beta 90.000000
_cell_angle_gamma 90.000000
_cell_volume 1053.011109
_symmetry_space_group_name_H-M "P M M M"
_symmetry_group_IT_number 47
_symmetry_cell_setting 'orthorhombic'
loop_
_space_group_symop_operation_xyz
x,y,z
-x,-y,z
x,-y,-z
-x,y,-z
-x,-y,-z
x,y,-z
-x,y,z
x,-y,z
loop_
_atom_site_type_symbol
_atom_site_label
_atom_site_fract_x
_atom_site_fract_y
_atom_site_fract_z
Si Si1 0.197140 0.841667 0.862608
Si Si2 0.695733 0.620294 0.781037
Si Si3 0.205454 0.000000 0.352735
Si Si4 0.812019 0.373263 0.500000
O O1 0.216401 0.715784 0.852177
O O2 0.000000 0.866818 0.865981
O O3 0.260704 0.900500 0.735340
O O4 0.270712 0.875274 0.000000
O O5 0.500000 0.620280 0.814203
O O6 0.760198 0.500000 0.801312
O O7 0.718095 0.648666 0.631177
O O8 0.264661 0.000000 0.500000
O O9 0.000000 0.000000 0.360386
O O10 0.829705 0.500000 0.500000
O O11 0.000000 0.325409 0.500000
#
# Coordination Sequence:
#
# PCOD9387458 Si02
#       4
#     8   8   4   4
#     4  10  21  37  59  87 119 155 196 245 298 351
#     4  10  21  36  55  83 121 161 198 239 292 350
#     4   9  19  37  62  89 114 146 194 249 303 356
#     4   9  17  31  53  80 111 150 195 241 287 337
#
# _framework density 22.791779999999999
#
# number of rings (size 3 to 8) (size 9 to 14) (size 15 to 20)
#    0.000    2.333    0.000    2.000    2.333    7.333 
#    0.000    4.167    0.000    3.000    0.000    0.000 
#    0.000    0.000    0.000    0.000    0.000    0.000 
#
# Total GULP energy -133883.017429 kJ/mol
# GULP energy per Si atom -5578.459060 kJ/mol
# Density = 2.273991 g / cm^3
# Si number density = 22.791780 Si / 1000 Ang^3
#
#
#
# Elastic Constant Matrix: (Units=GPa)
#
#
# Indices 1 2 3 4 5 6 
#
# 1 25.7140 3.6172 -0.1354 0.0000 0.0000 0.0000
# 2 3.6172 142.1561 73.0385 0.0000 0.0000 0.0000
# 3 -0.1354 73.0385 191.8810 0.0000 0.0000 0.0000
# 4 0.0000 0.0000 0.0000 -11.8001 0.0000 0.0000
# 5 0.0000 0.0000 0.0000 0.0000 -4.9047 0.0000
# 6 0.0000 0.0000 0.0000 0.0000 0.0000 -19.4032
#
#
#
# Elastic Compliance Matrix: (Units=1/GPa)
#
#
# Indices 1 2 3 4 5 6 
#
# 1 0.039068 -0.001253 0.000505 0.000000 0.000000 0.000000
# 2 -0.001253 0.008785 -0.003345 0.000000 0.000000 0.000000
# 3 0.000505 -0.003345 0.006485 0.000000 0.000000 0.000000
# 4 0.000000 0.000000 0.000000 -0.084745 0.000000 0.000000
# 5 0.000000 0.000000 0.000000 0.000000 -0.203887 0.000000
# 6 0.000000 0.000000 0.000000 0.000000 0.000000 -0.051538
#
#
# Mechanical properties :
#
#
# Convention : Reuss Voigt Hill
#
# Bulk Modulus (GPa) = 21.66785 56.97685 39.32235
# Shear Modulus (GPa) = -19.06504 11.66044 -3.70230
#
# Velocity S-wave (km/s) = -2.89535 2.26433 -1.27590
# Velocity P-wave (km/s) = 1.28447 5.64707 3.88841
#
# Compressibility (1/GPa) = 0.04615132
#
# Stress axis : x y z
#
# Youngs Moduli (GPa) = 25.59616 113.83094 154.19926
#
# Poissons Ratio (x) = 0.14267 -0.07782
# Poissons Ratio (y) = 0.03208 0.51577
# Poissons Ratio (z) = -0.01292 0.38075
#
# Static dielectric constant tensor:
#      x y z
#    x 1.820820 0.000000 0.000000 
#    y 0.000000 1.862970 0.000000 
#    z 0.000000 0.000000 1.898690 
# 
# From -- ./inp_files/14491.got.cif
#   From: 2010.05.17/outbox.cif.g08.bks.cpg/sg47_8_cif.got.tgz:14491.got - 2010.06.03 20:15:42.
