data_PCOD9387352
_publ_section_title
;
Structure prediction by ZEFSAII (Michael W. Deem and Ramdas Pophale) SiO2 
 PCOD9387352
Probable space group: P M M M
;
_chemical_formula_sum "Si O2"
_cell_formula_units_Z 52
_cell_length_a 10.751788
_cell_length_b 7.727514
_cell_length_c 30.736111
_cell_angle_alpha 90.000000
_cell_angle_beta 90.000000
_cell_angle_gamma 90.000000
_cell_volume 2553.697251
_symmetry_space_group_name_H-M "P M M M"
_symmetry_group_IT_number 47
_symmetry_cell_setting 'orthorhombic'
loop_
_space_group_symop_operation_xyz
x,y,z
-x,-y,z
x,-y,-z
-x,y,-z
-x,-y,-z
x,y,-z
-x,y,z
x,-y,z
loop_
_atom_site_type_symbol
_atom_site_label
_atom_site_fract_x
_atom_site_fract_y
_atom_site_fract_z
Si Si1 0.639341 0.202139 0.307743
Si Si2 0.644210 0.287685 0.883950
Si Si3 0.132887 0.797889 0.360602
Si Si4 0.650344 0.302323 0.211797
Si Si5 0.859566 0.711061 0.949701
Si Si6 0.224572 0.700803 0.549410
Si Si7 0.500000 0.805337 0.552412
O O1 0.500000 0.278267 0.312137
O O2 0.746595 0.281280 0.337515
O O3 0.679530 0.212284 0.257214
O O4 0.628376 0.000000 0.319426
O O5 0.500000 0.235376 0.892302
O O6 0.642895 0.500000 0.882984
O O7 0.685431 0.230119 0.835453
O O8 0.746022 0.231816 0.919204
O O9 0.149645 0.789896 0.412455
O O10 0.000000 0.719301 0.348584
O O11 0.129870 0.000000 0.348012
O O12 0.500000 0.305891 0.209767
O O13 0.695221 0.500000 0.214978
O O14 0.858654 0.500000 0.948887
O O15 0.000000 0.764312 0.936325
O O16 0.841439 0.763009 0.000000
O O17 0.210688 0.769884 0.500000
O O18 0.189897 0.500000 0.548537
O O19 0.370061 0.716429 0.562631
O O20 0.500000 0.815356 0.500000
O O21 0.500000 0.000000 0.570563
#
# Coordination Sequence:
#
# PCOD9387352 Si02
#       7
#     8   8   8   8   8   8   4
#     4   9  18  33  53  74  94 120 157 199 239 284
#     4   8  13  21  34  52  75 105 141 179 218 265
#     4  10  22  38  54  74 101 132 165 202 245 292
#     4   8  14  26  44  66  91 117 146 184 232 283
#     4   8  13  20  29  44  72 110 146 179 218 263
#     4  10  21  36  54  78 107 135 165 203 246 288
#     4   9  17  31  53  79 105 133 165 201 239 279
#
# _framework density 20.362632999999999
#
# number of rings (size 3 to 8) (size 9 to 14) (size 15 to 20)
#    0.000    3.154    0.000    2.077    1.077    3.385 
#    0.000    3.846    0.000    0.923    0.000    0.000 
#    0.000    0.615    0.000    7.692    0.000    8.923 
#
# Total GULP energy -289674.513045 kJ/mol
# GULP energy per Si atom -5570.663712 kJ/mol
# Density = 2.031629 g / cm^3
# Si number density = 20.362633 Si / 1000 Ang^3
#
#
#
# Elastic Constant Matrix: (Units=GPa)
#
#
# Indices 1 2 3 4 5 6 
#
# 1 137.6659 5.0136 87.6933 0.0000 0.0000 0.0000
# 2 5.0136 31.4045 -1.3836 0.0000 0.0000 0.0000
# 3 87.6933 -1.3836 115.0288 0.0000 0.0000 0.0000
# 4 0.0000 0.0000 0.0000 17.3349 0.0000 0.0000
# 5 0.0000 0.0000 0.0000 0.0000 -0.8774 0.0000
# 6 0.0000 0.0000 0.0000 0.0000 0.0000 -0.1156
#
#
#
# Elastic Compliance Matrix: (Units=1/GPa)
#
#
# Indices 1 2 3 4 5 6 
#
# 1 0.014360 -0.002776 -0.010981 0.000000 0.000000 0.000000
# 2 -0.002776 0.032396 0.002506 0.000000 0.000000 0.000000
# 3 -0.010981 0.002506 0.017095 0.000000 0.000000 0.000000
# 4 0.000000 0.000000 0.000000 0.057687 0.000000 0.000000
# 5 0.000000 0.000000 0.000000 0.000000 -1.139782 0.000000
# 6 0.000000 0.000000 0.000000 0.000000 0.000000 -8.653513
#
#
# Mechanical properties :
#
#
# Convention : Reuss Voigt Hill
#
# Bulk Modulus (GPa) = 24.18423 51.86064 38.02244
# Shear Modulus (GPa) = -0.51892 16.12012 7.80060
#
# Velocity S-wave (km/s) = -0.50536 2.81668 1.95938
# Velocity P-wave (km/s) = 3.40030 6.00850 4.88181
#
# Compressibility (1/GPa) = 0.04134926
#
# Stress axis : x y z
#
# Youngs Moduli (GPa) = 69.63882 30.86782 58.49701
#
# Poissons Ratio (x) = 0.08570 0.64234
# Poissons Ratio (y) = 0.19334 -0.14660
# Poissons Ratio (z) = 0.76469 -0.07736
#
# Static dielectric constant tensor:
#      x y z
#    x 1.748090 0.000000 0.000000 
#    y 0.000000 1.751040 0.000000 
#    z 0.000000 0.000000 1.733200 
# 
# From -- ./inp_files/33582.got.cif
#   From: 2010.05.17/outbox.cif.g08.bks.cpg/sg47_17_cif.got.tgz:33582.got - 2010.06.03 20:15:42.
