data_PCOD9387976
_publ_section_title
;
Structure prediction by ZEFSAII (Michael W. Deem and Ramdas Pophale) SiO2 
 PCOD9387976
Probable space group: P M M M
;
_chemical_formula_sum "Si O2"
_cell_formula_units_Z 29
_cell_length_a 23.285444
_cell_length_b 7.167262
_cell_length_c 7.889284
_cell_angle_alpha 90.000000
_cell_angle_beta 90.000000
_cell_angle_gamma 90.000000
_cell_volume 1316.665312
_symmetry_space_group_name_H-M "P M M M"
_symmetry_group_IT_number 47
_symmetry_cell_setting 'orthorhombic'
loop_
_space_group_symop_operation_xyz
x,y,z
-x,-y,z
x,-y,-z
-x,y,-z
-x,-y,-z
x,y,-z
-x,y,z
x,-y,z
loop_
_atom_site_type_symbol
_atom_site_label
_atom_site_fract_x
_atom_site_fract_y
_atom_site_fract_z
Si Si1 0.313882 0.273572 0.300585
Si Si2 0.109355 0.273724 0.500000
Si Si3 0.810340 0.273913 0.814675
Si Si4 0.561830 0.275591 0.296350
Si Si5 0.000000 0.000000 0.500000
O O1 0.310284 0.226015 0.500000
O O2 0.314549 0.500000 0.291636
O O3 0.255254 0.211663 0.214344
O O4 0.376050 0.210827 0.232199
O O5 0.101360 0.500000 0.500000
O O6 0.147568 0.222042 0.336325
O O7 0.050539 0.162484 0.500000
O O8 0.808439 0.500000 0.811602
O O9 0.830728 0.215993 0.000000
O O10 0.562291 0.240753 0.500000
O O11 0.500000 0.208321 0.230372
O O12 0.561364 0.500000 0.275711
#
# Coordination Sequence:
#
# PCOD9387976 Si02
#       5
#     8   4   8   8   1
#     4   8  11  17  32  56  86 123 174 229 272 318
#     4  10  21  41  63  88 120 147 180 224 263 317
#     4   9  16  28  50  77 105 141 182 226 275 320
#     4   7   9  12  20  39  72 117 167 217 270 322
#     4  12  26  44  70  94 116 154 184 208 266 322
#
# _framework density 22.025338999999999
#
# number of rings (size 3 to 8) (size 9 to 14) (size 15 to 20)
#    0.000    3.586    1.379    2.690    0.000    0.000 
#    0.000    2.069    0.000    4.138    0.000    5.793 
#    0.000    0.000    0.000    2.483    0.000    9.517 
#
# Total GULP energy -161474.929414 kJ/mol
# GULP energy per Si atom -5568.101014 kJ/mol
# Density = 2.197521 g / cm^3
# Si number density = 22.025339 Si / 1000 Ang^3
#
#
#
# Elastic Constant Matrix: (Units=GPa)
#
#
# Indices 1 2 3 4 5 6 
#
# 1 249.3637 35.0505 93.0673 0.0000 0.0000 0.0000
# 2 35.0505 125.5494 13.3357 0.0000 0.0000 0.0000
# 3 93.0673 13.3357 114.5707 0.0000 0.0000 0.0000
# 4 0.0000 0.0000 0.0000 -4.8356 0.0000 0.0000
# 5 0.0000 0.0000 0.0000 0.0000 -0.4389 0.0000
# 6 0.0000 0.0000 0.0000 0.0000 0.0000 -140.6554
#
#
#
# Elastic Compliance Matrix: (Units=1/GPa)
#
#
# Indices 1 2 3 4 5 6 
#
# 1 0.005916 -0.001155 -0.004671 0.000000 0.000000 0.000000
# 2 -0.001155 0.008290 -0.000026 0.000000 0.000000 0.000000
# 3 -0.004671 -0.000026 0.012526 0.000000 0.000000 0.000000
# 4 0.000000 0.000000 0.000000 -0.206798 0.000000 0.000000
# 5 0.000000 0.000000 0.000000 0.000000 -2.278678 0.000000
# 6 0.000000 0.000000 0.000000 0.000000 0.000000 -0.007110
#
#
# Mechanical properties :
#
#
# Convention : Reuss Voigt Hill
#
# Bulk Modulus (GPa) = 66.55070 85.82119 76.18595
# Shear Modulus (GPa) = -2.04153 -5.98396 -4.01275
#
# Velocity S-wave (km/s) = -0.96380 -1.65008 -1.35123
# Velocity P-wave (km/s) = 5.38911 5.95139 5.67722
#
# Compressibility (1/GPa) = 0.01502614
#
# Stress axis : x y z
#
# Youngs Moduli (GPa) = 169.03400 120.62194 79.83567
#
# Poissons Ratio (x) = 0.13937 0.37292
# Poissons Ratio (y) = 0.19531 0.00211
# Poissons Ratio (z) = 0.78958 0.00318
#
# Static dielectric constant tensor:
#      x y z
#    x 1.780340 0.000000 0.000000 
#    y 0.000000 1.857720 0.000000 
#    z 0.000000 0.000000 1.791070 
# 
# From -- ./inp_files/1002.got.cif
#   From: 2010.05.17/outbox.cif.g08.bks.cpg/sg47_1_cif.got.tgz:1002.got - 2010.06.03 20:15:42.
