data_PCOD9387026
_publ_section_title
;
Structure prediction by ZEFSAII (Michael W. Deem and Ramdas Pophale) SiO2 
 PCOD9387026
Probable space group: P M M M
;
_chemical_formula_sum "Si O2"
_cell_formula_units_Z 44
_cell_length_a 8.564785
_cell_length_b 29.004707
_cell_length_c 9.924020
_cell_angle_alpha 90.000000
_cell_angle_beta 90.000000
_cell_angle_gamma 90.000000
_cell_volume 2465.315913
_symmetry_space_group_name_H-M "P M M M"
_symmetry_group_IT_number 47
_symmetry_cell_setting 'orthorhombic'
loop_
_space_group_symop_operation_xyz
x,y,z
-x,-y,z
x,-y,-z
-x,y,-z
-x,-y,-z
x,y,-z
-x,y,z
x,-y,z
loop_
_atom_site_type_symbol
_atom_site_label
_atom_site_fract_x
_atom_site_fract_y
_atom_site_fract_z
Si Si1 0.188731 0.080494 0.155989
Si Si2 0.811611 0.447710 0.843895
Si Si3 0.811332 0.268104 0.655736
Si Si4 0.686840 0.000000 0.344482
Si Si5 0.313419 0.632697 0.344285
Si Si6 0.190235 0.814357 0.153864
O O1 0.237039 0.133211 0.187168
O O2 0.000000 0.078366 0.160452
O O3 0.255226 0.044334 0.261356
O O4 0.233927 0.070305 0.000000
O O5 0.763577 0.500000 0.806887
O O6 0.744406 0.408997 0.747206
O O7 0.000000 0.446082 0.838141
O O8 0.766294 0.439909 0.000000
O O9 0.762713 0.262244 0.500000
O O10 0.751138 0.317817 0.702953
O O11 0.755929 0.225389 0.745712
O O12 0.000000 0.268847 0.659489
O O13 0.500000 0.000000 0.346043
O O14 0.742547 0.000000 0.500000
O O15 0.261006 0.626493 0.500000
O O16 0.500000 0.634231 0.342736
O O17 0.000000 0.814232 0.156371
O O18 0.237597 0.804685 0.000000
#
# Coordination Sequence:
#
# PCOD9387026 Si02
#       6
#     8   8   8   4   8   8
#     4   9  18  34  56  79 101 128 165 207 251 300
#     4   9  19  36  56  77 100 127 163 208 256 303
#     4   9  17  30  49  72  98 130 167 204 243 289
#     4  11  24  37  48  70 104 137 170 207 248 296
#     4  10  21  35  50  72 104 139 172 205 244 293
#     4   8  15  29  50  76 101 123 155 203 252 295
#
# _framework density 17.847611000000001
#
# number of rings (size 3 to 8) (size 9 to 14) (size 15 to 20)
#    0.000    2.818    0.000    2.727    0.000    5.818 
#    0.000    7.273    0.000    3.273    0.000    0.000 
#    0.000    0.000    0.000    0.000    0.000    0.000 
#
# Total GULP energy -245353.314018 kJ/mol
# GULP energy per Si atom -5576.211682 kJ/mol
# Density = 1.780699 g / cm^3
# Si number density = 17.847611 Si / 1000 Ang^3
#
#
#
# Elastic Constant Matrix: (Units=GPa)
#
#
# Indices 1 2 3 4 5 6 
#
# 1 11.5668 28.5460 24.8393 0.0000 0.0000 0.0000
# 2 28.5460 188.3537 123.7858 0.0000 0.0000 0.0000
# 3 24.8393 123.7858 113.1519 0.0000 0.0000 0.0000
# 4 0.0000 0.0000 0.0000 54.2470 0.0000 0.0000
# 5 0.0000 0.0000 0.0000 0.0000 19.5490 0.0000
# 6 0.0000 0.0000 0.0000 0.0000 0.0000 -25.6107
#
#
#
# Elastic Compliance Matrix: (Units=1/GPa)
#
#
# Indices 1 2 3 4 5 6 
#
# 1 0.164516 -0.004265 -0.031449 0.000000 0.000000 0.000000
# 2 -0.004265 0.019002 -0.019851 0.000000 0.000000 0.000000
# 3 -0.031449 -0.019851 0.037458 0.000000 0.000000 0.000000
# 4 0.000000 0.000000 0.000000 0.018434 0.000000 0.000000
# 5 0.000000 0.000000 0.000000 0.000000 0.051153 0.000000
# 6 0.000000 0.000000 0.000000 0.000000 0.000000 -0.039046
#
#
# Mechanical properties :
#
#
# Convention : Reuss Voigt Hill
#
# Bulk Modulus (GPa) = 9.10370 74.15719 41.63044
# Shear Modulus (GPa) = 12.52305 18.69714 15.61010
#
# Velocity S-wave (km/s) = 2.65177 3.24017 2.96063
# Velocity P-wave (km/s) = 3.80627 7.45914 5.92142
#
# Compressibility (1/GPa) = 0.10984544
#
# Stress axis : x y z
#
# Youngs Moduli (GPa) = 6.07844 52.62646 26.69628
#
# Poissons Ratio (x) = 0.22445 0.83957
# Poissons Ratio (y) = 0.02592 0.52996
# Poissons Ratio (z) = 0.19116 1.04471
#
# Static dielectric constant tensor:
#      x y z
#    x 1.603150 0.000000 0.000000 
#    y 0.000000 1.594460 0.000000 
#    z 0.000000 0.000000 1.601270 
# 
# From -- ./inp_files/2047.got.cif
#   From: 2010.05.17/outbox.cif.g08.bks.cpg/sg47_2_cif.got.tgz:2047.got - 2010.06.03 20:15:42.
