data_PCOD9387481
_publ_section_title
;
Structure prediction by ZEFSAII (Michael W. Deem and Ramdas Pophale) SiO2 
 PCOD9387481
Probable space group: P M M M
;
_chemical_formula_sum "Si O2"
_cell_formula_units_Z 64
_cell_length_a 25.509030
_cell_length_b 15.290726
_cell_length_c 7.827381
_cell_angle_alpha 90.000000
_cell_angle_beta 90.000000
_cell_angle_gamma 90.000000
_cell_volume 3053.082391
_symmetry_space_group_name_H-M "P M M M"
_symmetry_group_IT_number 47
_symmetry_cell_setting 'orthorhombic'
loop_
_space_group_symop_operation_xyz
x,y,z
-x,-y,z
x,-y,-z
-x,y,-z
-x,-y,-z
x,y,-z
-x,y,z
x,-y,z
loop_
_atom_site_type_symbol
_atom_site_label
_atom_site_fract_x
_atom_site_fract_y
_atom_site_fract_z
Si Si1 0.418403 0.904480 0.295520
Si Si2 0.656161 0.599086 0.203511
Si Si3 0.443392 0.708902 0.797031
Si Si4 0.059437 0.898741 0.208532
Si Si5 0.747541 0.724266 0.698972
Si Si6 0.706159 0.093745 0.706518
Si Si7 0.939031 0.599158 0.705971
Si Si8 0.136678 0.249641 0.196384
O O1 0.426516 0.903399 0.500000
O O2 0.439707 0.813460 0.226871
O O3 0.355985 0.902491 0.263095
O O4 0.437477 0.000000 0.232839
O O5 0.655647 0.500000 0.272604
O O6 0.608190 0.659300 0.272104
O O7 0.711647 0.647426 0.228319
O O8 0.648683 0.593193 0.000000
O O9 0.500000 0.679357 0.726552
O O10 0.444056 0.693102 0.000000
O O11 0.105030 0.833901 0.269702
O O12 0.000000 0.873126 0.262325
O O13 0.067737 0.000000 0.256940
O O14 0.059561 0.894982 0.000000
O O15 0.733700 0.725826 0.500000
O O16 0.731395 0.818334 0.775859
O O17 0.809806 0.720050 0.716611
O O18 0.713303 0.092919 0.500000
O O19 0.726241 0.000000 0.771562
O O20 0.934352 0.607460 0.500000
O O21 0.924063 0.500000 0.751627
O O22 0.903794 0.670958 0.793059
O O23 0.000000 0.611348 0.749550
O O24 0.149807 0.230034 0.000000
#
# Coordination Sequence:
#
# PCOD9387481 Si02
#       8
#     8   8   8   8   8   8   8   8
#     4   9  17  32  55  81 110 146 185 220 258 311
#     4  10  22  41  62  81 105 139 181 229 279 333
#     4  10  21  36  56  84 116 145 176 221 276 333
#     4   8  15  30  52  78 111 151 190 226 267 316
#     4  11  22  37  58  81 108 144 183 226 277 328
#     4   8  15  30  53  78 103 135 176 219 262 310
#     4   9  19  37  59  81 107 140 178 223 276 330
#     4  11  22  34  53  83 116 147 184 228 272 324
#
# _framework density 20.962420999999999
#
# number of rings (size 3 to 8) (size 9 to 14) (size 15 to 20)
#    0.000    2.500    1.250    2.625    0.000    3.250 
#    0.000    3.125    0.000    2.250    0.000    6.125 
#    0.000    0.000    0.000    0.000    0.000    0.000 
#
# Total GULP energy -357006.020503 kJ/mol
# GULP energy per Si atom -5578.219070 kJ/mol
# Density = 2.091471 g / cm^3
# Si number density = 20.962421 Si / 1000 Ang^3
#
#
#
# Elastic Constant Matrix: (Units=GPa)
#
#
# Indices 1 2 3 4 5 6 
#
# 1 94.3799 74.5183 6.3970 0.0000 0.0000 0.0000
# 2 74.5183 140.0906 7.3002 0.0000 0.0000 0.0000
# 3 6.3970 7.3002 23.3784 0.0000 0.0000 0.0000
# 4 0.0000 0.0000 0.0000 12.5992 0.0000 0.0000
# 5 0.0000 0.0000 0.0000 0.0000 -0.2123 0.0000
# 6 0.0000 0.0000 0.0000 0.0000 0.0000 -23.8914
#
#
#
# Elastic Compliance Matrix: (Units=1/GPa)
#
#
# Indices 1 2 3 4 5 6 
#
# 1 0.018360 -0.009662 -0.002007 0.000000 0.000000 0.000000
# 2 -0.009662 0.012341 -0.001210 0.000000 0.000000 0.000000
# 3 -0.002007 -0.001210 0.043701 0.000000 0.000000 0.000000
# 4 0.000000 0.000000 0.000000 0.079370 0.000000 0.000000
# 5 0.000000 0.000000 0.000000 0.000000 -4.709415 0.000000
# 6 0.000000 0.000000 0.000000 0.000000 0.000000 -0.041856
#
#
# Mechanical properties :
#
#
# Convention : Reuss Voigt Hill
#
# Bulk Modulus (GPa) = 20.55692 48.25334 34.40513
# Shear Modulus (GPa) = -1.09757 9.00799 3.95521
#
# Velocity S-wave (km/s) = -0.72438 2.07522 1.37510
# Velocity P-wave (km/s) = 3.02129 5.36759 4.35541
#
# Compressibility (1/GPa) = 0.04864542
#
# Stress axis : x y z
#
# Youngs Moduli (GPa) = 54.46663 81.03362 22.88255
#
# Poissons Ratio (x) = 0.78291 0.04592
# Poissons Ratio (y) = 0.52623 0.02768
# Poissons Ratio (z) = 0.10930 0.09804
#
# Static dielectric constant tensor:
#      x y z
#    x 1.743300 0.000000 0.000000 
#    y 0.000000 1.761060 0.000000 
#    z 0.000000 0.000000 1.778400 
# 
# From -- ./inp_files/7899.got.cif
#   From: 2010.05.17/outbox.cif.g08.bks.cpg/sg47_4_cif.got.tgz:7899.got - 2010.06.03 20:15:42.
