data_PCOD9387254
_publ_section_title
;
Structure prediction by ZEFSAII (Michael W. Deem and Ramdas Pophale) SiO2 
 PCOD9387254
Probable space group: P M M M
;
_chemical_formula_sum "Si O2"
_cell_formula_units_Z 56
_cell_length_a 19.931345
_cell_length_b 15.010069
_cell_length_c 7.612951
_cell_angle_alpha 90.000000
_cell_angle_beta 90.000000
_cell_angle_gamma 90.000000
_cell_volume 2277.573126
_symmetry_space_group_name_H-M "P M M M"
_symmetry_group_IT_number 47
_symmetry_cell_setting 'orthorhombic'
loop_
_space_group_symop_operation_xyz
x,y,z
-x,-y,z
x,-y,-z
-x,y,-z
-x,-y,-z
x,y,-z
-x,y,z
x,-y,z
loop_
_atom_site_type_symbol
_atom_site_label
_atom_site_fract_x
_atom_site_fract_y
_atom_site_fract_z
Si Si1 0.783994 0.394850 0.700178
Si Si2 0.573013 0.108656 0.292686
Si Si3 0.139278 0.182075 0.804164
Si Si4 0.920453 0.000000 0.299349
Si Si5 0.357265 0.394126 0.714264
Si Si6 0.073889 0.648704 0.300275
Si Si7 0.500000 0.393244 0.286942
Si Si8 0.279836 0.896303 0.711459
O O1 0.789477 0.357938 0.500000
O O2 0.772873 0.500000 0.685263
O O3 0.714505 0.359368 0.779883
O O4 0.857077 0.385792 0.783832
O O5 0.572089 0.133137 0.500000
O O6 0.500000 0.136963 0.219643
O O7 0.646607 0.135086 0.223145
O O8 0.574039 0.000000 0.284415
O O9 0.106691 0.086254 0.793557
O O10 0.092004 0.246862 0.693088
O O11 0.216737 0.166119 0.754171
O O12 0.136714 0.217449 0.000000
O O13 0.894205 0.000000 0.500000
O O14 0.000000 0.000000 0.302671
O O15 0.354654 0.387189 0.500000
O O16 0.361173 0.500000 0.755178
O O17 0.428571 0.354941 0.773539
O O18 0.071476 0.612764 0.500000
O O19 0.000000 0.633623 0.222642
O O20 0.500000 0.500000 0.248308
O O21 0.500000 0.386894 0.500000
O O22 0.284198 0.899520 0.500000
O O23 0.268020 0.000000 0.769995
#
# Coordination Sequence:
#
# PCOD9387254 Si02
#       8
#     8   8   8   4   8   8   4   8
#     4   8  14  26  46  72  98 123 158 206 255 300
#     4   7  10  18  36  66  99 127 159 200 244 288
#     4  12  24  36  52  75 103 134 169 209 250 299
#     4  11  23  39  59  79 100 127 160 201 253 312
#     4   7   9  14  27  52  87 122 153 186 229 282
#     4  10  21  36  53  73  98 130 168 208 255 311
#     4   7   8  10  20  44  82 124 155 178 217 278
#     4   9  16  28  49  74 102 135 168 204 248 297
#
# _framework density 24.587575999999999
#
# number of rings (size 3 to 8) (size 9 to 14) (size 15 to 20)
#    0.000    3.143    0.714    4.929    0.000    2.857 
#    0.000    1.429    0.000    0.857    1.857    3.000 
#    0.000    0.000    0.000    0.000    0.000    8.286 
#
# Total GULP energy -312106.847907 kJ/mol
# GULP energy per Si atom -5573.336570 kJ/mol
# Density = 2.453161 g / cm^3
# Si number density = 24.587576 Si / 1000 Ang^3
#
#
#
# Elastic Constant Matrix: (Units=GPa)
#
#
# Indices 1 2 3 4 5 6 
#
# 1 286.5886 13.1405 16.9946 0.0000 0.0000 0.0000
# 2 13.1405 36.2920 1.9365 0.0000 0.0000 0.0000
# 3 16.9946 1.9365 66.3725 0.0000 0.0000 0.0000
# 4 0.0000 0.0000 0.0000 -182.8109 0.0000 0.0000
# 5 0.0000 0.0000 0.0000 0.0000 -106.3564 0.0000
# 6 0.0000 0.0000 0.0000 0.0000 0.0000 26.5705
#
#
#
# Elastic Compliance Matrix: (Units=1/GPa)
#
#
# Indices 1 2 3 4 5 6 
#
# 1 0.003599 -0.001256 -0.000885 0.000000 0.000000 0.000000
# 2 -0.001256 0.028036 -0.000496 0.000000 0.000000 0.000000
# 3 -0.000885 -0.000496 0.015308 0.000000 0.000000 0.000000
# 4 0.000000 0.000000 0.000000 -0.005470 0.000000 0.000000
# 5 0.000000 0.000000 0.000000 0.000000 -0.009402 0.000000
# 6 0.000000 0.000000 0.000000 0.000000 0.000000 0.037636
#
#
# Mechanical properties :
#
#
# Convention : Reuss Voigt Hill
#
# Bulk Modulus (GPa) = 23.99938 50.37737 37.18837
# Shear Modulus (GPa) = 56.26211 -28.70726 13.77742
#
# Velocity S-wave (km/s) = 4.78874 -3.42065 2.36972
# Velocity P-wave (km/s) = 6.35279 2.22087 4.75869
#
# Compressibility (1/GPa) = 0.04166775
#
# Stress axis : x y z
#
# Youngs Moduli (GPa) = 277.82464 35.66899 65.32723
#
# Poissons Ratio (x) = 0.04480 0.05781
# Poissons Ratio (y) = 0.34896 0.03243
# Poissons Ratio (z) = 0.24587 0.01770
#
# Static dielectric constant tensor:
#      x y z
#    x 2.028590 0.000000 0.000000 
#    y 0.000000 1.912320 0.000000 
#    z 0.000000 0.000000 1.961640 
# 
# From -- ./inp_files/11378.got.cif
#   From: 2010.05.17/outbox.cif.g08.bks.cpg/sg47_6_cif.got.tgz:11378.got - 2010.06.03 20:15:42.
