data_PCOD9387969
_publ_section_title
;
Structure prediction by ZEFSAII (Michael W. Deem and Ramdas Pophale) SiO2 
 PCOD9387969
Probable space group: P M M M
;
_chemical_formula_sum "Si O2"
_cell_formula_units_Z 25
_cell_length_a 16.720471
_cell_length_b 7.601004
_cell_length_c 9.608586
_cell_angle_alpha 90.000000
_cell_angle_beta 90.000000
_cell_angle_gamma 90.000000
_cell_volume 1221.177938
_symmetry_space_group_name_H-M "P M M M"
_symmetry_group_IT_number 47
_symmetry_cell_setting 'orthorhombic'
loop_
_space_group_symop_operation_xyz
x,y,z
-x,-y,z
x,-y,-z
-x,y,-z
-x,-y,-z
x,y,-z
-x,y,z
x,-y,z
loop_
_atom_site_type_symbol
_atom_site_label
_atom_site_fract_x
_atom_site_fract_y
_atom_site_fract_z
Si Si1 0.318141 0.200702 0.662279
Si Si2 0.595715 0.500000 0.837241
Si Si3 0.175918 0.710406 0.847161
Si Si4 0.000000 0.000000 0.500000
Si Si5 0.000000 0.291675 0.256112
O O1 0.318812 0.253434 0.500000
O O2 0.369312 0.331444 0.757021
O O3 0.228513 0.209149 0.724372
O O4 0.346934 0.000000 0.671846
O O5 0.500000 0.500000 0.830353
O O6 0.619614 0.500000 0.000000
O O7 0.189343 0.500000 0.841514
O O8 0.081812 0.738366 0.827891
O O9 0.201646 0.773732 0.000000
O O10 0.000000 0.844944 0.619484
O O11 0.000000 0.500000 0.297688
#
# Coordination Sequence:
#
# PCOD9387969 Si02
#       5
#     8   4   8   1   4
#     4  11  25  42  66 100 136 174 216 267 327 392
#     4  11  25  47  73 100 131 170 215 265 326 392
#     4  10  21  40  65  92 128 172 222 273 327 385
#     4  12  26  40  58  90 128 168 226 284 324 402
#     4  10  24  41  61  87 126 175 220 276 329 378
#
# _framework density 20.472038000000001
#
# number of rings (size 3 to 8) (size 9 to 14) (size 15 to 20)
#    0.000    1.440    1.600    2.160    4.480    6.400 
#    0.000    4.000    0.000    0.000    0.000    0.000 
#    0.000    0.000    0.000    0.000    0.000    0.000 
#
# Total GULP energy -139478.863906 kJ/mol
# GULP energy per Si atom -5579.154556 kJ/mol
# Density = 2.042544 g / cm^3
# Si number density = 20.472038 Si / 1000 Ang^3
#
#
#
# Elastic Constant Matrix: (Units=GPa)
#
#
# Indices 1 2 3 4 5 6 
#
# 1 101.6789 35.9629 55.4042 0.0000 0.0000 0.0000
# 2 35.9629 99.2901 78.3327 0.0000 0.0000 0.0000
# 3 55.4042 78.3327 194.4274 0.0000 0.0000 0.0000
# 4 0.0000 0.0000 0.0000 48.7757 0.0000 0.0000
# 5 0.0000 0.0000 0.0000 0.0000 60.7710 0.0000
# 6 0.0000 0.0000 0.0000 0.0000 0.0000 -4.0453
#
#
#
# Elastic Compliance Matrix: (Units=1/GPa)
#
#
# Indices 1 2 3 4 5 6 
#
# 1 0.012027 -0.002422 -0.002451 0.000000 0.000000 0.000000
# 2 -0.002422 0.015252 -0.005455 0.000000 0.000000 0.000000
# 3 -0.002451 -0.005455 0.008039 0.000000 0.000000 0.000000
# 4 0.000000 0.000000 0.000000 0.020502 0.000000 0.000000
# 5 0.000000 0.000000 0.000000 0.000000 0.016455 0.000000
# 6 0.000000 0.000000 0.000000 0.000000 0.000000 -0.247202
#
#
# Mechanical properties :
#
#
# Convention : Reuss Voigt Hill
#
# Bulk Modulus (GPa) = 68.20235 81.64400 74.92317
# Shear Modulus (GPa) = -33.47130 36.14672 1.33771
#
# Velocity S-wave (km/s) = -4.04787 4.20654 0.80923
# Velocity P-wave (km/s) = 3.39709 7.97249 6.12784
#
# Compressibility (1/GPa) = 0.01466225
#
# Stress axis : x y z
#
# Youngs Moduli (GPa) = 83.14349 65.56430 124.38595
#
# Poissons Ratio (x) = 0.15882 0.30492
# Poissons Ratio (y) = 0.20140 0.67848
# Poissons Ratio (z) = 0.20382 0.35763
#
# Static dielectric constant tensor:
#      x y z
#    x 1.732270 0.000000 0.000000 
#    y 0.000000 1.736940 0.000000 
#    z 0.000000 0.000000 1.696730 
# 
# From -- ./inp_files/8404.got.cif
#   From: 2010.05.17/outbox.cif.g08.bks.cpg/sg47_5_cif.got.tgz:8404.got - 2010.06.03 20:15:42.
