data_PCOD9387876
_publ_section_title
;
Structure prediction by ZEFSAII (Michael W. Deem and Ramdas Pophale) SiO2 
 PCOD9387876
Probable space group: P M M M
;
_chemical_formula_sum "Si O2"
_cell_formula_units_Z 40
_cell_length_a 7.249378
_cell_length_b 28.527853
_cell_length_c 9.196261
_cell_angle_alpha 90.000000
_cell_angle_beta 90.000000
_cell_angle_gamma 90.000000
_cell_volume 1901.871288
_symmetry_space_group_name_H-M "P M M M"
_symmetry_group_IT_number 47
_symmetry_cell_setting 'orthorhombic'
loop_
_space_group_symop_operation_xyz
x,y,z
-x,-y,z
x,-y,-z
-x,y,-z
-x,-y,-z
x,y,-z
-x,y,z
x,-y,z
loop_
_atom_site_type_symbol
_atom_site_label
_atom_site_fract_x
_atom_site_fract_y
_atom_site_fract_z
Si Si1 0.275227 0.405849 0.832343
Si Si2 0.724247 0.217657 0.832543
Si Si3 0.724788 0.500000 0.332352
Si Si4 0.000000 0.055530 0.173085
Si Si5 0.275138 0.688353 0.667754
Si Si6 0.279186 0.122018 0.328859
O O1 0.500000 0.405858 0.831849
O O2 0.216962 0.453008 0.750457
O O3 0.217115 0.359036 0.748498
O O4 0.217486 0.405495 0.000000
O O5 0.500000 0.218438 0.833237
O O6 0.783843 0.265161 0.753118
O O7 0.777070 0.171261 0.744384
O O8 0.783962 0.215769 0.000000
O O9 0.500000 0.500000 0.331798
O O10 0.782484 0.500000 0.500000
O O11 0.825106 0.080584 0.246640
O O12 0.000000 0.000000 0.198716
O O13 0.000000 0.063832 0.000000
O O14 0.217653 0.689109 0.500000
O O15 0.500000 0.688430 0.668269
O O16 0.235015 0.122197 0.500000
O O17 0.500000 0.117405 0.314040
#
# Coordination Sequence:
#
# PCOD9387876 Si02
#       6
#     8   8   4   4   8   8
#     4   9  15  21  28  39  58  88 130 182 240 301
#     4   9  16  27  45  69  97 129 166 210 262 321
#     4   9  15  21  27  35  51  81 125 178 237 300
#     4  11  25  43  63  89 121 157 197 240 285 336
#     4   9  15  22  33  51  76 106 144 193 248 306
#     4  10  21  38  61  88 118 153 193 238 288 341
#
# _framework density 21.031917
#
# number of rings (size 3 to 8) (size 9 to 14) (size 15 to 20)
#    0.000    2.600    0.000    3.000    0.000   10.800 
#    0.000    2.000    0.000    0.000    0.000    0.000 
#    0.000    0.000    0.000    0.000    0.000    1.000 
#
# Total GULP energy -223680.490451 kJ/mol
# GULP energy per Si atom -5592.012261 kJ/mol
# Density = 2.098405 g / cm^3
# Si number density = 21.031917 Si / 1000 Ang^3
#
#
#
# Elastic Constant Matrix: (Units=GPa)
#
#
# Indices 1 2 3 4 5 6 
#
# 1 98.8777 38.0610 35.8902 0.0000 0.0000 0.0000
# 2 38.0610 233.4847 160.2969 0.0000 0.0000 0.0000
# 3 35.8902 160.2969 245.1051 0.0000 0.0000 0.0000
# 4 0.0000 0.0000 0.0000 147.0975 0.0000 0.0000
# 5 0.0000 0.0000 0.0000 0.0000 -2.9346 0.0000
# 6 0.0000 0.0000 0.0000 0.0000 0.0000 150.1982
#
#
#
# Elastic Compliance Matrix: (Units=1/GPa)
#
#
# Indices 1 2 3 4 5 6 
#
# 1 0.010873 -0.001233 -0.000786 0.000000 0.000000 0.000000
# 2 -0.001233 0.007913 -0.004994 0.000000 0.000000 0.000000
# 3 -0.000786 -0.004994 0.007461 0.000000 0.000000 0.000000
# 4 0.000000 0.000000 0.000000 0.006798 0.000000 0.000000
# 5 0.000000 0.000000 0.000000 0.000000 -0.340764 0.000000
# 6 0.000000 0.000000 0.000000 0.000000 0.000000 0.006658
#
#
# Mechanical properties :
#
#
# Convention : Reuss Voigt Hill
#
# Bulk Modulus (GPa) = 81.82613 116.21821 99.02217
# Shear Modulus (GPa) = -17.67029 81.75351 32.04161
#
# Velocity S-wave (km/s) = -2.90171 6.24144 3.90741
# Velocity P-wave (km/s) = 5.26912 10.35947 8.21834
#
# Compressibility (1/GPa) = 0.01222103
#
# Stress axis : x y z
#
# Youngs Moduli (GPa) = 91.96796 126.37826 134.02676
#
# Poissons Ratio (x) = 0.15583 0.10531
# Poissons Ratio (y) = 0.11340 0.66937
# Poissons Ratio (z) = 0.07227 0.63117
#
# Static dielectric constant tensor:
#      x y z
#    x 3.356300 0.000000 0.000000 
#    y 0.000000 1.685330 0.000000 
#    z 0.000000 0.000000 1.696130 
# 
# From -- ./inp_files/1877.got.cif
#   From: 2010.05.17/outbox.cif.g08.bks.cpg/sg47_1_cif.got.tgz:1877.got - 2010.06.03 20:15:42.
