data_PCOD9387695
_publ_section_title
;
Structure prediction by ZEFSAII (Michael W. Deem and Ramdas Pophale) SiO2 
 PCOD9387695
Probable space group: P M M M
;
_chemical_formula_sum "Si O2"
_cell_formula_units_Z 48
_cell_length_a 8.718032
_cell_length_b 9.420190
_cell_length_c 31.903691
_cell_angle_alpha 90.000000
_cell_angle_beta 90.000000
_cell_angle_gamma 90.000000
_cell_volume 2620.107145
_symmetry_space_group_name_H-M "P M M M"
_symmetry_group_IT_number 47
_symmetry_cell_setting 'orthorhombic'
loop_
_space_group_symop_operation_xyz
x,y,z
-x,-y,z
x,-y,-z
-x,y,-z
-x,-y,-z
x,y,-z
-x,y,z
x,-y,z
loop_
_atom_site_type_symbol
_atom_site_label
_atom_site_fract_x
_atom_site_fract_y
_atom_site_fract_z
Si Si1 0.816166 0.334544 0.920892
Si Si2 0.815456 0.665990 0.329449
Si Si3 0.182787 0.168042 0.753126
Si Si4 0.684958 0.665122 0.418085
Si Si5 0.312561 0.163202 0.500000
Si Si6 0.316948 0.166637 0.157109
Si Si7 0.684165 0.834535 0.000000
O O1 0.769439 0.500000 0.923021
O O2 0.761530 0.262815 0.877851
O O3 0.000000 0.328581 0.923606
O O4 0.745700 0.246056 0.959159
O O5 0.774385 0.500000 0.325192
O O6 0.764098 0.749724 0.288225
O O7 0.747221 0.717679 0.373470
O O8 0.000000 0.676638 0.331698
O O9 0.265679 0.209130 0.796148
O O10 0.000000 0.192733 0.758246
O O11 0.206055 0.000000 0.746947
O O12 0.500000 0.668689 0.416927
O O13 0.731744 0.500000 0.423116
O O14 0.737010 0.755615 0.457976
O O15 0.500000 0.165606 0.500000
O O16 0.263819 0.000000 0.500000
O O17 0.500000 0.176316 0.153099
O O18 0.273273 0.000000 0.151342
O O19 0.500000 0.830732 0.000000
O O20 0.732119 0.000000 0.000000
#
# Coordination Sequence:
#
# PCOD9387695 Si02
#       7
#     8   8   8   8   4   8   4
#     4  11  24  40  59  85 115 147 185 226 268 317
#     4   9  18  32  49  70  97 128 163 204 249 298
#     4   9  18  33  52  73 100 136 173 209 254 307
#     4   9  17  30  48  68  91 122 159 197 240 293
#     4   9  17  29  46  69  94 120 154 197 242 288
#     4  10  21  37  57  82 111 143 181 223 267 317
#     4  11  24  41  62  88 116 147 184 225 270 320
#
# _framework density 18.319862000000001
#
# number of rings (size 3 to 8) (size 9 to 14) (size 15 to 20)
#    0.000    2.333    0.000    2.250    0.000    9.000 
#    0.000    2.083    0.000    2.500    0.000    0.000 
#    0.000    0.000    0.000    0.000    0.000    0.000 
#
# Total GULP energy -267944.672982 kJ/mol
# GULP energy per Si atom -5582.180687 kJ/mol
# Density = 1.827817 g / cm^3
# Si number density = 18.319862 Si / 1000 Ang^3
#
#
#
# Elastic Constant Matrix: (Units=GPa)
#
#
# Indices 1 2 3 4 5 6 
#
# 1 22.8234 37.7312 41.3876 0.0000 0.0000 0.0000
# 2 37.7312 108.8164 102.0946 0.0000 0.0000 0.0000
# 3 41.3876 102.0946 187.8407 0.0000 0.0000 0.0000
# 4 0.0000 0.0000 0.0000 40.2313 0.0000 0.0000
# 5 0.0000 0.0000 0.0000 0.0000 36.3069 0.0000
# 6 0.0000 0.0000 0.0000 0.0000 0.0000 19.7006
#
#
#
# Elastic Compliance Matrix: (Units=1/GPa)
#
#
# Indices 1 2 3 4 5 6 
#
# 1 0.106940 -0.030555 -0.006955 0.000000 0.000000 0.000000
# 2 -0.030555 0.027483 -0.008205 0.000000 0.000000 0.000000
# 3 -0.006955 -0.008205 0.011316 0.000000 0.000000 0.000000
# 4 0.000000 0.000000 0.000000 0.024856 0.000000 0.000000
# 5 0.000000 0.000000 0.000000 0.000000 0.027543 0.000000
# 6 0.000000 0.000000 0.000000 0.000000 0.000000 0.050760
#
#
# Mechanical properties :
#
#
# Convention : Reuss Voigt Hill
#
# Bulk Modulus (GPa) = 18.41352 75.76747 47.09050
# Shear Modulus (GPa) = 13.94968 28.46556 21.20762
#
# Velocity S-wave (km/s) = 2.76243 3.94611 3.40609
# Velocity P-wave (km/s) = 4.49974 7.88735 6.42098
#
# Compressibility (1/GPa) = 0.05430792
#
# Stress axis : x y z
#
# Youngs Moduli (GPa) = 9.35102 36.38653 88.37264
#
# Poissons Ratio (x) = 1.11179 0.61466
# Poissons Ratio (y) = 0.28572 0.72510
# Poissons Ratio (z) = 0.06504 0.29855
#
# Static dielectric constant tensor:
#      x y z
#    x 1.620660 0.000000 0.000000 
#    y 0.000000 1.620790 0.000000 
#    z 0.000000 0.000000 1.605060 
# 
# From -- ./inp_files/34094.got.cif
#   From: 2010.05.17/outbox.cif.g08.bks.cpg/sg47_18_cif.got.tgz:34094.got - 2010.06.03 20:15:42.
