data_PCOD9387935
_publ_section_title
;
Structure prediction by ZEFSAII (Michael W. Deem and Ramdas Pophale) SiO2 
 PCOD9387935
Probable space group: P M M M
;
_chemical_formula_sum "Si O2"
_cell_formula_units_Z 56
_cell_length_a 20.513178
_cell_length_b 8.077911
_cell_length_c 16.219947
_cell_angle_alpha 90.000000
_cell_angle_beta 90.000000
_cell_angle_gamma 90.000000
_cell_volume 2687.704035
_symmetry_space_group_name_H-M "P M M M"
_symmetry_group_IT_number 47
_symmetry_cell_setting 'orthorhombic'
loop_
_space_group_symop_operation_xyz
x,y,z
-x,-y,z
x,-y,-z
-x,y,-z
-x,-y,-z
x,y,-z
-x,y,z
x,-y,z
loop_
_atom_site_type_symbol
_atom_site_label
_atom_site_fract_x
_atom_site_fract_y
_atom_site_fract_z
Si Si1 0.824728 0.191015 0.634779
Si Si2 0.392322 0.199588 0.092405
Si Si3 0.873942 0.311061 0.195911
Si Si4 0.428358 0.300723 0.275455
Si Si5 0.000000 0.297589 0.905381
Si Si6 0.241115 0.810994 0.904021
Si Si7 0.319985 0.302564 0.594468
Si Si8 0.074289 0.797019 0.500000
O O1 0.853536 0.207338 0.725383
O O2 0.754609 0.274436 0.622674
O O3 0.881977 0.257617 0.576699
O O4 0.813817 0.000000 0.612893
O O5 0.422868 0.256170 0.178455
O O6 0.315913 0.243445 0.101370
O O7 0.397221 0.000000 0.090041
O O8 0.414244 0.257350 0.000000
O O9 0.887868 0.500000 0.221123
O O10 0.810044 0.304591 0.139625
O O11 0.935466 0.246864 0.144192
O O12 0.500000 0.245440 0.304828
O O13 0.426103 0.500000 0.278923
O O14 0.370534 0.237719 0.335713
O O15 0.000000 0.500000 0.907981
O O16 0.000000 0.239936 0.000000
O O17 0.236878 0.000000 0.871008
O O18 0.224678 0.817601 0.000000
O O19 0.328540 0.238341 0.500000
O O20 0.330139 0.500000 0.590332
O O21 0.000000 0.738224 0.500000
O O22 0.071299 0.000000 0.500000
#
# Coordination Sequence:
#
# PCOD9387935 Si02
#       8
#     8   8   8   8   4   8   8   4
#     4  11  22  38  61  87 115 148 187 232 283 338
#     4   9  19  36  57  81 111 148 188 231 285 346
#     4  11  22  35  54  80 110 146 189 232 281 337
#     4  10  22  38  56  83 117 152 192 237 286 341
#     4   9  20  38  55  74 109 154 194 234 282 337
#     4   9  18  34  55  80 109 141 182 233 283 331
#     4  10  21  39  63  88 117 152 192 240 291 349
#     4   9  20  38  59  83 112 147 182 224 279 339
#
# _framework density 20.835626999999999
#
# number of rings (size 3 to 8) (size 9 to 14) (size 15 to 20)
#    0.000    2.143    0.714    3.000    1.000    5.429 
#    0.000    5.357    0.000    4.286    0.000    2.000 
#    0.000    0.000    0.000    0.000    0.000    0.000 
#
# Total GULP energy -312363.305439 kJ/mol
# GULP energy per Si atom -5577.916169 kJ/mol
# Density = 2.078820 g / cm^3
# Si number density = 20.835627 Si / 1000 Ang^3
#
#
#
# Elastic Constant Matrix: (Units=GPa)
#
#
# Indices 1 2 3 4 5 6 
#
# 1 141.8077 14.1654 93.6311 0.0000 0.0000 0.0000
# 2 14.1654 11.2132 5.1288 0.0000 0.0000 0.0000
# 3 93.6311 5.1288 139.7814 0.0000 0.0000 0.0000
# 4 0.0000 0.0000 0.0000 47.0660 0.0000 0.0000
# 5 0.0000 0.0000 0.0000 0.0000 40.2463 0.0000
# 6 0.0000 0.0000 0.0000 0.0000 0.0000 -1.6178
#
#
#
# Elastic Compliance Matrix: (Units=1/GPa)
#
#
# Indices 1 2 3 4 5 6 
#
# 1 0.014567 -0.014177 -0.009237 0.000000 0.000000 0.000000
# 2 -0.014177 0.104500 0.005662 0.000000 0.000000 0.000000
# 3 -0.009237 0.005662 0.013134 0.000000 0.000000 0.000000
# 4 0.000000 0.000000 0.000000 0.021247 0.000000 0.000000
# 5 0.000000 0.000000 0.000000 0.000000 0.024847 0.000000
# 6 0.000000 0.000000 0.000000 0.000000 0.000000 -0.618108
#
#
# Mechanical properties :
#
#
# Convention : Reuss Voigt Hill
#
# Bulk Modulus (GPa) = 10.34167 57.62809 33.98488
# Shear Modulus (GPa) = -13.43813 29.13068 7.84628
#
# Velocity S-wave (km/s) = -2.54236 3.74320 1.94267
# Velocity P-wave (km/s) = 1.90890 6.81179 4.62367
#
# Compressibility (1/GPa) = 0.09669618
#
# Stress axis : x y z
#
# Youngs Moduli (GPa) = 68.64738 9.56936 76.13877
#
# Poissons Ratio (x) = 0.13567 0.70333
# Poissons Ratio (y) = 0.97323 -0.43111
# Poissons Ratio (z) = 0.63413 -0.05418
#
# Static dielectric constant tensor:
#      x y z
#    x 1.735430 0.000000 0.000000 
#    y 0.000000 1.762110 0.000000 
#    z 0.000000 0.000000 1.248970 
# 
# From -- ./inp_files/25238.got.cif
#   From: 2010.05.17/outbox.cif.g08.bks.cpg/sg47_13_cif.got.tgz:25238.got - 2010.06.03 20:15:42.
