data_PCOD9387678
_publ_section_title
;
Structure prediction by ZEFSAII (Michael W. Deem and Ramdas Pophale) SiO2 
 PCOD9387678
Probable space group: P M M M
;
_chemical_formula_sum "Si O2"
_cell_formula_units_Z 48
_cell_length_a 14.360156
_cell_length_b 9.330265
_cell_length_c 18.092687
_cell_angle_alpha 90.000000
_cell_angle_beta 90.000000
_cell_angle_gamma 90.000000
_cell_volume 2424.131677
_symmetry_space_group_name_H-M "P M M M"
_symmetry_group_IT_number 47
_symmetry_cell_setting 'orthorhombic'
loop_
_space_group_symop_operation_xyz
x,y,z
-x,-y,z
x,-y,-z
-x,y,-z
-x,-y,-z
x,y,-z
-x,y,z
x,-y,z
loop_
_atom_site_type_symbol
_atom_site_label
_atom_site_fract_x
_atom_site_fract_y
_atom_site_fract_z
Si Si1 0.106983 0.829036 0.692209
Si Si2 0.274117 0.171638 0.413711
Si Si3 0.387837 0.335002 0.706604
Si Si4 0.613288 0.663140 0.000000
Si Si5 0.613555 0.164071 0.853467
Si Si6 0.108473 0.325257 0.000000
Si Si7 0.886158 0.665069 0.839681
O O1 0.175172 0.795266 0.624763
O O2 0.139196 0.755191 0.767989
O O3 0.000000 0.785794 0.677653
O O4 0.108563 0.000000 0.702880
O O5 0.275736 0.208273 0.500000
O O6 0.348715 0.256833 0.365404
O O7 0.289661 0.000000 0.406907
O O8 0.500000 0.334217 0.704973
O O9 0.356735 0.500000 0.710561
O O10 0.358510 0.247953 0.779660
O O11 0.639883 0.748602 0.073443
O O12 0.649134 0.500000 0.000000
O O13 0.500000 0.655502 0.000000
O O14 0.500000 0.159456 0.853349
O O15 0.646733 0.000000 0.853993
O O16 0.146730 0.280014 0.920128
O O17 0.110199 0.500000 0.000000
O O18 0.000000 0.281894 0.000000
O O19 0.856689 0.500000 0.831064
O O20 0.000000 0.665314 0.842685
#
# Coordination Sequence:
#
# PCOD9387678 Si02
#       7
#     8   8   8   4   8   4   8
#     4   9  18  33  53  78 108 139 172 214 263 312
#     4  10  22  39  58  80 105 136 175 217 264 323
#     4  10  21  37  57  81 109 140 174 217 272 328
#     4   9  15  23  39  68 107 146 184 225 265 308
#     4   9  16  27  46  73 105 142 183 223 264 313
#     4   7  10  18  35  62  95 130 170 211 245 286
#     4   8  13  23  42  68  98 134 174 212 252 300
#
# _framework density 19.800905
#
# number of rings (size 3 to 8) (size 9 to 14) (size 15 to 20)
#    0.000    3.000    0.000    2.250    0.000    5.667 
#    0.000    3.750    0.000    3.500    0.000    5.833 
#    0.000    0.000    0.000    0.000    0.000    0.000 
#
# Total GULP energy -267902.927584 kJ/mol
# GULP energy per Si atom -5581.310991 kJ/mol
# Density = 1.975584 g / cm^3
# Si number density = 19.800905 Si / 1000 Ang^3
#
#
#
# Elastic Constant Matrix: (Units=GPa)
#
#
# Indices 1 2 3 4 5 6 
#
# 1 61.4562 29.8568 32.2752 0.0000 0.0000 0.0000
# 2 29.8568 96.0734 98.7814 0.0000 0.0000 0.0000
# 3 32.2752 98.7814 215.2360 0.0000 0.0000 0.0000
# 4 0.0000 0.0000 0.0000 37.7147 0.0000 0.0000
# 5 0.0000 0.0000 0.0000 0.0000 48.8488 0.0000
# 6 0.0000 0.0000 0.0000 0.0000 0.0000 8.7466
#
#
#
# Elastic Compliance Matrix: (Units=1/GPa)
#
#
# Indices 1 2 3 4 5 6 
#
# 1 0.019173 -0.005685 -0.000266 0.000000 0.000000 0.000000
# 2 -0.005685 0.021395 -0.008966 0.000000 0.000000 0.000000
# 3 -0.000266 -0.008966 0.008801 0.000000 0.000000 0.000000
# 4 0.000000 0.000000 0.000000 0.026515 0.000000 0.000000
# 5 0.000000 0.000000 0.000000 0.000000 0.020471 0.000000
# 6 0.000000 0.000000 0.000000 0.000000 0.000000 0.114331
#
#
# Mechanical properties :
#
#
# Convention : Reuss Voigt Hill
#
# Bulk Modulus (GPa) = 51.19253 77.17693 64.18473
# Shear Modulus (GPa) = 20.24026 33.18550 26.71288
#
# Velocity S-wave (km/s) = 3.20064 4.09829 3.67696
# Velocity P-wave (km/s) = 6.29035 7.83937 7.10719
#
# Compressibility (1/GPa) = 0.01953410
#
# Stress axis : x y z
#
# Youngs Moduli (GPa) = 52.15568 46.74065 113.62265
#
# Poissons Ratio (x) = 0.26572 0.03022
# Poissons Ratio (y) = 0.29651 1.01879
# Poissons Ratio (z) = 0.01387 0.41910
#
# Static dielectric constant tensor:
#      x y z
#    x 1.767810 0.000000 0.000000 
#    y 0.000000 1.664500 0.000000 
#    z 0.000000 0.000000 1.663560 
# 
# From -- ./inp_files/28008.got.cif
#   From: 2010.05.17/outbox.cif.g08.bks.cpg/sg47_15_cif.got.tgz:28008.got - 2010.06.03 20:15:42.
