data_PCOD9387204
_publ_section_title
;
Structure prediction by ZEFSAII (Michael W. Deem and Ramdas Pophale) SiO2 
 PCOD9387204
Probable space group: P M M M
;
_chemical_formula_sum "Si O2"
_cell_formula_units_Z 37
_cell_length_a 19.994233
_cell_length_b 11.029450
_cell_length_c 7.430722
_cell_angle_alpha 90.000000
_cell_angle_beta 90.000000
_cell_angle_gamma 90.000000
_cell_volume 1638.662891
_symmetry_space_group_name_H-M "P M M M"
_symmetry_group_IT_number 47
_symmetry_cell_setting 'orthorhombic'
loop_
_space_group_symop_operation_xyz
x,y,z
-x,-y,z
x,-y,-z
-x,y,-z
-x,-y,-z
x,y,-z
-x,y,z
x,-y,z
loop_
_atom_site_type_symbol
_atom_site_label
_atom_site_fract_x
_atom_site_fract_y
_atom_site_fract_z
Si Si1 0.161160 0.136776 0.292669
Si Si2 0.295303 0.739329 0.199576
Si Si3 0.371486 0.500000 0.776469
Si Si4 0.500000 0.500000 0.500000
Si Si5 0.078396 0.365810 0.280804
Si Si6 0.428621 0.855385 0.708661
O O1 0.139376 0.126085 0.500000
O O2 0.237210 0.185531 0.293268
O O3 0.117709 0.247540 0.214191
O O4 0.157265 0.000000 0.214953
O O5 0.325077 0.614662 0.272612
O O6 0.362470 0.817962 0.193330
O O7 0.269350 0.714631 0.000000
O O8 0.439760 0.500000 0.660152
O O9 0.382323 0.500000 0.000000
O O10 0.083251 0.366351 0.500000
O O11 0.102842 0.500000 0.222015
O O12 0.000000 0.356856 0.235640
O O13 0.423897 0.815366 0.500000
O O14 0.500000 0.807943 0.778967
O O15 0.431843 0.000000 0.708960
#
# Coordination Sequence:
#
# PCOD9387204 Si02
#       6
#     8   8   4   1   8   8
#     4  10  21  35  56  88 122 157 205 260 307 372
#     4  11  24  40  56  78 117 155 195 253 310 367
#     4  10  27  45  61  96 126 156 215 274 321 393
#     4  12  26  44  76  90 118 180 208 264 354 394
#     4   8  15  30  54  86 121 157 199 251 311 374
#     4   9  19  35  56  81 107 138 186 244 295 360
#
# _framework density 22.579386
#
# number of rings (size 3 to 8) (size 9 to 14) (size 15 to 20)
#    0.000    2.378    0.000    2.757    6.054    4.324 
#    0.000    3.243    0.000    0.649    0.000    3.027 
#    0.000    0.000    0.000    0.000    0.000    0.000 
#
# Total GULP energy -206039.524450 kJ/mol
# GULP energy per Si atom -5568.635796 kJ/mol
# Density = 2.252799 g / cm^3
# Si number density = 22.579386 Si / 1000 Ang^3
#
#
#
# Elastic Constant Matrix: (Units=GPa)
#
#
# Indices 1 2 3 4 5 6 
#
# 1 105.8008 90.8374 9.4508 0.0000 0.0000 0.0000
# 2 90.8374 198.4720 23.5120 0.0000 0.0000 0.0000
# 3 9.4508 23.5120 79.8774 0.0000 0.0000 0.0000
# 4 0.0000 0.0000 0.0000 6.7025 0.0000 0.0000
# 5 0.0000 0.0000 0.0000 0.0000 90.4199 0.0000
# 6 0.0000 0.0000 0.0000 0.0000 0.0000 30.0146
#
#
#
# Elastic Compliance Matrix: (Units=1/GPa)
#
#
# Indices 1 2 3 4 5 6 
#
# 1 0.015575 -0.007160 0.000265 0.000000 0.000000 0.000000
# 2 -0.007160 0.008512 -0.001658 0.000000 0.000000 0.000000
# 3 0.000265 -0.001658 0.012976 0.000000 0.000000 0.000000
# 4 0.000000 0.000000 0.000000 0.149199 0.000000 0.000000
# 5 0.000000 0.000000 0.000000 0.000000 0.011060 0.000000
# 6 0.000000 0.000000 0.000000 0.000000 0.000000 0.033317
#
#
# Mechanical properties :
#
#
# Convention : Reuss Voigt Hill
#
# Bulk Modulus (GPa) = 50.10989 70.19454 60.15221
# Shear Modulus (GPa) = 19.65425 42.78406 31.21916
#
# Velocity S-wave (km/s) = 2.95354 4.35769 3.72242
# Velocity P-wave (km/s) = 5.81998 7.51496 6.72111
#
# Compressibility (1/GPa) = 0.01995614
#
# Stress axis : x y z
#
# Youngs Moduli (GPa) = 64.20373 117.48182 77.06533
#
# Poissons Ratio (x) = 0.84117 -0.02040
# Poissons Ratio (y) = 0.45970 0.12780
# Poissons Ratio (z) = -0.01700 0.19483
#
# Static dielectric constant tensor:
#      x y z
#    x 1.791430 0.000000 0.000000 
#    y 0.000000 6.083860 0.000000 
#    z 0.000000 0.000000 1.950820 
# 
# From -- ./inp_files/8685.got.cif
#   From: 2010.05.17/outbox.cif.g08.bks.cpg/sg47_5_cif.got.tgz:8685.got - 2010.06.03 20:15:42.
