data_PCOD9387342
_publ_section_title
;
Structure prediction by ZEFSAII (Michael W. Deem and Ramdas Pophale) SiO2 
 PCOD9387342
Probable space group: P M M M
;
_chemical_formula_sum "Si O2"
_cell_formula_units_Z 44
_cell_length_a 9.158843
_cell_length_b 31.006909
_cell_length_c 8.030091
_cell_angle_alpha 90.000000
_cell_angle_beta 90.000000
_cell_angle_gamma 90.000000
_cell_volume 2280.444757
_symmetry_space_group_name_H-M "P M M M"
_symmetry_group_IT_number 47
_symmetry_cell_setting 'orthorhombic'
loop_
_space_group_symop_operation_xyz
x,y,z
-x,-y,z
x,-y,-z
-x,y,-z
-x,-y,-z
x,y,-z
-x,y,z
x,-y,z
loop_
_atom_site_type_symbol
_atom_site_label
_atom_site_fract_x
_atom_site_fract_y
_atom_site_fract_z
Si Si1 0.168881 0.452964 0.299308
Si Si2 0.171988 0.948341 0.500000
Si Si3 0.664867 0.632724 0.197852
Si Si4 0.835367 0.810562 0.800922
Si Si5 0.675247 0.898824 0.198329
Si Si6 0.333377 0.725413 0.697530
O O1 0.171067 0.453239 0.500000
O O2 0.227104 0.500000 0.242999
O O3 0.252172 0.410699 0.242859
O O4 0.000000 0.450303 0.246159
O O5 0.248871 0.930111 0.667459
O O6 0.000000 0.936223 0.500000
O O7 0.182372 0.000000 0.500000
O O8 0.500000 0.630221 0.267597
O O9 0.728748 0.678243 0.258497
O O10 0.657740 0.635328 0.000000
O O11 0.734682 0.851179 0.755101
O O12 0.762270 0.765299 0.756416
O O13 0.000000 0.814481 0.732094
O O14 0.845308 0.812069 0.000000
O O15 0.500000 0.900685 0.213982
O O16 0.710058 0.906937 0.000000
O O17 0.342730 0.728090 0.500000
O O18 0.500000 0.728037 0.766914
#
# Coordination Sequence:
#
# PCOD9387342 Si02
#       6
#     8   4   8   8   8   8
#     4   9  19  36  56  77 102 134 173 218 270 330
#     4  11  25  43  65  95 131 171 213 261 316 373
#     4  10  21  36  54  77 106 140 179 225 275 330
#     4  10  21  37  58  85 117 153 193 238 291 351
#     4  10  22  41  66  94 126 167 213 262 314 369
#     4  10  21  36  55  79 108 145 187 230 279 337
#
# _framework density 19.294481000000001
#
# number of rings (size 3 to 8) (size 9 to 14) (size 15 to 20)
#    0.000    2.091    0.000    3.000    1.273    7.273 
#    0.000    4.545    0.000    0.000    0.000    0.000 
#    0.000    0.000    0.000    0.000    0.000    0.000 
#
# Total GULP energy -245491.753321 kJ/mol
# GULP energy per Si atom -5579.358030 kJ/mol
# Density = 1.925057 g / cm^3
# Si number density = 19.294481 Si / 1000 Ang^3
#
#
#
# Elastic Constant Matrix: (Units=GPa)
#
#
# Indices 1 2 3 4 5 6 
#
# 1 96.2113 72.9965 42.1107 0.0000 0.0000 0.0000
# 2 72.9965 155.2797 45.1325 0.0000 0.0000 0.0000
# 3 42.1107 45.1325 51.9341 0.0000 0.0000 0.0000
# 4 0.0000 0.0000 0.0000 46.5625 0.0000 0.0000
# 5 0.0000 0.0000 0.0000 0.0000 25.8236 0.0000
# 6 0.0000 0.0000 0.0000 0.0000 0.0000 11.8524
#
#
#
# Elastic Compliance Matrix: (Units=1/GPa)
#
#
# Indices 1 2 3 4 5 6 
#
# 1 0.019744 -0.006192 -0.010628 0.000000 0.000000 0.000000
# 2 -0.006192 0.010559 -0.004155 0.000000 0.000000 0.000000
# 3 -0.010628 -0.004155 0.031483 0.000000 0.000000 0.000000
# 4 0.000000 0.000000 0.000000 0.021477 0.000000 0.000000
# 5 0.000000 0.000000 0.000000 0.000000 0.038724 0.000000
# 6 0.000000 0.000000 0.000000 0.000000 0.000000 0.084371
#
#
# Mechanical properties :
#
#
# Convention : Reuss Voigt Hill
#
# Bulk Modulus (GPa) = 50.41370 69.32270 59.86820
# Shear Modulus (GPa) = 19.61408 26.39339 23.00373
#
# Velocity S-wave (km/s) = 3.19182 3.70256 3.45663
# Velocity P-wave (km/s) = 6.30626 7.36786 6.85763
#
# Compressibility (1/GPa) = 0.01983588
#
# Stress axis : x y z
#
# Youngs Moduli (GPa) = 50.64904 94.70944 31.76305
#
# Poissons Ratio (x) = 0.58649 0.33757
# Poissons Ratio (y) = 0.31364 0.13196
# Poissons Ratio (z) = 0.53828 0.39348
#
# Static dielectric constant tensor:
#      x y z
#    x 1.749820 0.000000 0.000000 
#    y 0.000000 1.675290 0.000000 
#    z 0.000000 0.000000 1.679630 
# 
# From -- ./inp_files/2009.got.cif
#   From: 2010.05.17/outbox.cif.g08.bks.cpg/sg47_2_cif.got.tgz:2009.got - 2010.06.03 20:15:42.
