data_PCOD9387030
_publ_section_title
;
Structure prediction by ZEFSAII (Michael W. Deem and Ramdas Pophale) SiO2 
 PCOD9387030
Probable space group: P M M M
;
_chemical_formula_sum "Si O2"
_cell_formula_units_Z 52
_cell_length_a 29.018080
_cell_length_b 8.537658
_cell_length_c 12.096733
_cell_angle_alpha 90.000000
_cell_angle_beta 90.000000
_cell_angle_gamma 90.000000
_cell_volume 2996.922571
_symmetry_space_group_name_H-M "P M M M"
_symmetry_group_IT_number 47
_symmetry_cell_setting 'orthorhombic'
loop_
_space_group_symop_operation_xyz
x,y,z
-x,-y,z
x,-y,-z
-x,y,-z
-x,-y,-z
x,y,-z
-x,y,z
x,-y,z
loop_
_atom_site_type_symbol
_atom_site_label
_atom_site_fract_x
_atom_site_fract_y
_atom_site_fract_z
Si Si1 0.718431 0.687925 0.500000
Si Si2 0.500000 0.319444 0.134153
Si Si3 0.053007 0.188976 0.873756
Si Si4 0.776514 0.810711 0.127421
Si Si5 0.136966 0.312630 0.736165
Si Si6 0.600971 0.309885 0.128500
Si Si7 0.174120 0.690892 0.500000
Si Si8 0.686709 0.187882 0.733421
O O1 0.718191 0.500000 0.500000
O O2 0.772236 0.740602 0.500000
O O3 0.694027 0.749006 0.389736
O O4 0.500000 0.500000 0.172924
O O5 0.549883 0.251460 0.164081
O O6 0.500000 0.323610 0.000000
O O7 0.089168 0.253281 0.786442
O O8 0.000000 0.236182 0.852709
O O9 0.054648 0.000000 0.871641
O O10 0.065015 0.237626 0.000000
O O11 0.821800 0.745101 0.185545
O O12 0.731234 0.761337 0.194832
O O13 0.778743 0.000000 0.129899
O O14 0.773587 0.761094 0.000000
O O15 0.136618 0.500000 0.735154
O O16 0.148869 0.257175 0.611955
O O17 0.599994 0.500000 0.130378
O O18 0.641078 0.249530 0.206764
O O19 0.609015 0.263558 0.000000
O O20 0.174349 0.500000 0.500000
O O21 0.685766 0.000000 0.731571
#
# Coordination Sequence:
#
# PCOD9387030 Si02
#       8
#     4   4   8   8   8   8   4   8
#     4  11  21  39  59  73  99 141 186 225 262 315
#     4   7  12  26  49  76 105 138 179 221 259 311
#     4   9  19  37  58  79 107 141 172 206 256 316
#     4  10  21  35  50  72 106 142 170 203 255 316
#     4  11  21  35  55  79 104 134 174 220 261 302
#     4   9  17  31  53  80 109 143 181 220 265 317
#     4   9  20  37  54  74 104 137 172 215 264 308
#     4  11  22  35  52  77 108 140 178 221 268 320
#
# _framework density 17.351132
#
# number of rings (size 3 to 8) (size 9 to 14) (size 15 to 20)
#    0.000    2.231    1.538    3.462    0.000    4.308 
#    0.000    3.077    0.000    4.154    0.000    3.231 
#    0.000    0.000    0.000    0.000    0.000    0.000 
#
# Total GULP energy -290119.767832 kJ/mol
# GULP energy per Si atom -5579.226304 kJ/mol
# Density = 1.731164 g / cm^3
# Si number density = 17.351132 Si / 1000 Ang^3
#
#
#
# Elastic Constant Matrix: (Units=GPa)
#
#
# Indices 1 2 3 4 5 6 
#
# 1 154.4984 27.9848 97.8672 0.0000 0.0000 0.0000
# 2 27.9848 18.8226 30.2479 0.0000 0.0000 0.0000
# 3 97.8672 30.2479 159.2126 0.0000 0.0000 0.0000
# 4 0.0000 0.0000 0.0000 17.4788 0.0000 0.0000
# 5 0.0000 0.0000 0.0000 0.0000 3.9569 0.0000
# 6 0.0000 0.0000 0.0000 0.0000 0.0000 25.9783
#
#
#
# Elastic Compliance Matrix: (Units=1/GPa)
#
#
# Indices 1 2 3 4 5 6 
#
# 1 0.011416 -0.008199 -0.005460 0.000000 0.000000 0.000000
# 2 -0.008199 0.082365 -0.010608 0.000000 0.000000 0.000000
# 3 -0.005460 -0.010608 0.011652 0.000000 0.000000 0.000000
# 4 0.000000 0.000000 0.000000 0.057212 0.000000 0.000000
# 5 0.000000 0.000000 0.000000 0.000000 0.252723 0.000000
# 6 0.000000 0.000000 0.000000 0.000000 0.000000 0.038494
#
#
# Mechanical properties :
#
#
# Convention : Reuss Voigt Hill
#
# Bulk Modulus (GPa) = 17.57487 71.63707 44.60597
# Shear Modulus (GPa) = 9.59024 21.24503 15.41764
#
# Velocity S-wave (km/s) = 2.35354 3.50296 2.98412
# Velocity P-wave (km/s) = 4.18766 7.59851 6.13489
#
# Compressibility (1/GPa) = 0.05689944
#
# Stress axis : x y z
#
# Youngs Moduli (GPa) = 87.59465 12.14106 85.81979
#
# Poissons Ratio (x) = 0.09955 0.46855
# Poissons Ratio (y) = 0.71823 0.91037
# Poissons Ratio (z) = 0.47824 0.12879
#
# Static dielectric constant tensor:
#      x y z
#    x 1.586270 0.000000 0.000000 
#    y 0.000000 1.593580 0.000000 
#    z 0.000000 0.000000 1.568640 
# 
# From -- ./inp_files/19918.got.cif
#   From: 2010.05.17/outbox.cif.g08.bks.cpg/sg47_10_cif.got.tgz:19918.got - 2010.06.03 20:15:42.
