data_PCOD9387155
_publ_section_title
;
Structure prediction by ZEFSAII (Michael W. Deem and Ramdas Pophale) SiO2 
 PCOD9387155
Probable space group: P M M M
;
_chemical_formula_sum "Si O2"
_cell_formula_units_Z 56
_cell_length_a 7.629597
_cell_length_b 22.535158
_cell_length_c 15.764638
_cell_angle_alpha 90.000000
_cell_angle_beta 90.000000
_cell_angle_gamma 90.000000
_cell_volume 2710.480011
_symmetry_space_group_name_H-M "P M M M"
_symmetry_group_IT_number 47
_symmetry_cell_setting 'orthorhombic'
loop_
_space_group_symop_operation_xyz
x,y,z
-x,-y,z
x,-y,-z
-x,y,-z
-x,-y,-z
x,y,-z
-x,y,z
x,-y,z
loop_
_atom_site_type_symbol
_atom_site_label
_atom_site_fract_x
_atom_site_fract_y
_atom_site_fract_z
Si Si1 0.212441 0.065966 0.652390
Si Si2 0.000000 0.428737 0.900552
Si Si3 0.201034 0.750670 0.232512
Si Si4 0.706495 0.195293 0.592191
Si Si5 0.700788 0.381850 0.776052
Si Si6 0.709067 0.933503 0.000000
Si Si7 0.287415 0.569797 0.593545
Si Si8 0.792540 0.874822 0.176384
O O1 0.270922 0.124138 0.601675
O O2 0.269889 0.081419 0.748981
O O3 0.000000 0.064904 0.648498
O O4 0.273055 0.000000 0.627167
O O5 0.830495 0.406459 0.847849
O O6 0.000000 0.500000 0.899437
O O7 0.000000 0.409614 0.000000
O O8 0.203578 0.771580 0.330328
O O9 0.297974 0.689329 0.220004
O O10 0.279815 0.808435 0.186134
O O11 0.000000 0.740863 0.205197
O O12 0.771918 0.213553 0.500000
O O13 0.500000 0.208395 0.597941
O O14 0.500000 0.403831 0.785488
O O15 0.767333 0.399215 0.681101
O O16 0.764962 0.900759 0.084695
O O17 0.500000 0.936230 0.000000
O O18 0.781158 0.000000 0.000000
O O19 0.227013 0.591591 0.500000
O O20 0.500000 0.574090 0.592344
O O21 0.242336 0.500000 0.599079
O O22 0.000000 0.868613 0.192139
#
# Coordination Sequence:
#
# PCOD9387155 Si02
#       8
#     8   4   8   8   8   4   8   8
#     4   9  18  33  53  75 101 139 190 246 304 366
#     4  11  26  48  71  99 135 171 216 275 319 367
#     4  10  21  40  61  84 117 153 200 253 303 363
#     4  10  21  35  52  78 113 154 199 247 301 362
#     4  11  22  40  68  99 131 173 219 264 320 385
#     4  11  23  35  51  81 115 141 177 232 293 366
#     4   8  15  30  55  90 130 167 204 250 305 370
#     4   9  19  36  56  76 102 142 186 236 294 356
#
# _framework density 20.660547000000001
#
# number of rings (size 3 to 8) (size 9 to 14) (size 15 to 20)
#    0.000    2.286    0.714    3.214    0.000    7.429 
#    1.286    3.929    0.000    1.286    0.000    0.000 
#    0.000    0.000    0.000    0.000    0.000    0.000 
#
# Total GULP energy -312526.732979 kJ/mol
# GULP energy per Si atom -5580.834517 kJ/mol
# Density = 2.061352 g / cm^3
# Si number density = 20.660547 Si / 1000 Ang^3
#
#
#
# Elastic Constant Matrix: (Units=GPa)
#
#
# Indices 1 2 3 4 5 6 
#
# 1 69.4796 11.9435 21.1376 0.0000 0.0000 0.0000
# 2 11.9435 82.5846 40.1093 0.0000 0.0000 0.0000
# 3 21.1376 40.1093 138.7448 0.0000 0.0000 0.0000
# 4 0.0000 0.0000 0.0000 -3.2549 0.0000 0.0000
# 5 0.0000 0.0000 0.0000 0.0000 22.6974 0.0000
# 6 0.0000 0.0000 0.0000 0.0000 0.0000 147.0457
#
#
#
# Elastic Compliance Matrix: (Units=1/GPa)
#
#
# Indices 1 2 3 4 5 6 
#
# 1 0.015202 -0.001249 -0.001955 0.000000 0.000000 0.000000
# 2 -0.001249 0.014189 -0.003912 0.000000 0.000000 0.000000
# 3 -0.001955 -0.003912 0.008636 0.000000 0.000000 0.000000
# 4 0.000000 0.000000 0.000000 -0.307231 0.000000 0.000000
# 5 0.000000 0.000000 0.000000 0.000000 0.044058 0.000000
# 6 0.000000 0.000000 0.000000 0.000000 0.000000 0.006801
#
#
# Mechanical properties :
#
#
# Convention : Reuss Voigt Hill
#
# Bulk Modulus (GPa) = 42.02352 48.57664 45.30008
# Shear Modulus (GPa) = -25.48654 47.80557 11.15952
#
# Velocity S-wave (km/s) = -3.51605 4.81548 2.32660
# Velocity P-wave (km/s) = 1.97500 7.38114 5.40286
#
# Compressibility (1/GPa) = 0.02379620
#
# Stress axis : x y z
#
# Youngs Moduli (GPa) = 65.78009 70.47609 115.79293
#
# Poissons Ratio (x) = 0.08803 0.22637
# Poissons Ratio (y) = 0.08217 0.45294
# Poissons Ratio (z) = 0.12860 0.27568
#
# Static dielectric constant tensor:
#      x y z
#    x 1.780770 0.000000 0.000000 
#    y 0.000000 1.731180 0.000000 
#    z 0.000000 0.000000 1.720530 
# 
# From -- ./inp_files/21609.got.cif
#   From: 2010.05.17/outbox.cif.g08.bks.cpg/sg47_11_cif.got.tgz:21609.got - 2010.06.03 20:15:42.
