data_PCOD9387358
_publ_section_title
;
Structure prediction by ZEFSAII (Michael W. Deem and Ramdas Pophale) SiO2 
 PCOD9387358
Probable space group: P M M M
;
_chemical_formula_sum "Si O2"
_cell_formula_units_Z 44
_cell_length_a 31.951435
_cell_length_b 7.788973
_cell_length_c 8.976472
_cell_angle_alpha 90.000000
_cell_angle_beta 90.000000
_cell_angle_gamma 90.000000
_cell_volume 2233.964394
_symmetry_space_group_name_H-M "P M M M"
_symmetry_group_IT_number 47
_symmetry_cell_setting 'orthorhombic'
loop_
_space_group_symop_operation_xyz
x,y,z
-x,-y,z
x,-y,-z
-x,y,-z
-x,-y,-z
x,y,-z
-x,y,z
x,-y,z
loop_
_atom_site_type_symbol
_atom_site_label
_atom_site_fract_x
_atom_site_fract_y
_atom_site_fract_z
Si Si1 0.544991 0.794114 0.173100
Si Si2 0.950535 0.500000 0.322404
Si Si3 0.725263 0.293200 0.171928
Si Si4 0.634477 0.705786 0.827412
Si Si5 0.189194 0.794801 0.333109
Si Si6 0.896353 0.202909 0.177807
O O1 0.500000 0.734785 0.236692
O O2 0.589758 0.749900 0.243595
O O3 0.543696 0.000000 0.168737
O O4 0.546042 0.732177 0.000000
O O5 0.944069 0.500000 0.500000
O O6 0.929138 0.330625 0.253482
O O7 0.000000 0.500000 0.291828
O O8 0.724286 0.500000 0.168621
O O9 0.679651 0.234673 0.232431
O O10 0.765778 0.243546 0.263903
O O11 0.729302 0.234059 0.000000
O O12 0.635804 0.500000 0.831486
O O13 0.633307 0.768175 0.000000
O O14 0.185596 0.723269 0.500000
O O15 0.149896 0.741184 0.232860
O O16 0.186163 0.000000 0.341659
O O17 0.902645 0.000000 0.216261
O O18 0.898730 0.217493 0.000000
#
# Coordination Sequence:
#
# PCOD9387358 Si02
#       6
#     8   4   8   8   8   8
#     4   8  13  20  30  47  73 106 146 192 242 297
#     4  11  25  43  65  95 129 167 207 245 294 353
#     4   9  18  31  47  69  98 132 170 213 260 314
#     4   8  14  24  36  53  80 114 153 196 244 300
#     4  10  21  36  54  78 108 141 179 223 273 331
#     4  10  22  41  65  92 123 160 203 252 300 347
#
# _framework density 19.695926
#
# number of rings (size 3 to 8) (size 9 to 14) (size 15 to 20)
#    0.000    2.818    0.000    3.000    1.273    4.727 
#    0.000    5.455    0.000    0.000    0.000    0.000 
#    0.000    0.727    0.000    8.000    0.000   13.091 
#
# Total GULP energy -245078.779596 kJ/mol
# GULP energy per Si atom -5569.972264 kJ/mol
# Density = 1.965110 g / cm^3
# Si number density = 19.695926 Si / 1000 Ang^3
#
#
#
# Elastic Constant Matrix: (Units=GPa)
#
#
# Indices 1 2 3 4 5 6 
#
# 1 216.0376 56.8617 68.9063 0.0000 0.0000 0.0000
# 2 56.8617 52.0258 30.6410 0.0000 0.0000 0.0000
# 3 68.9063 30.6410 54.1071 0.0000 0.0000 0.0000
# 4 0.0000 0.0000 0.0000 16.7383 0.0000 0.0000
# 5 0.0000 0.0000 0.0000 0.0000 -119.7751 0.0000
# 6 0.0000 0.0000 0.0000 0.0000 0.0000 35.8287
#
#
#
# Elastic Compliance Matrix: (Units=1/GPa)
#
#
# Indices 1 2 3 4 5 6 
#
# 1 0.008396 -0.004320 -0.008246 0.000000 0.000000 0.000000
# 2 -0.004320 0.031063 -0.012090 0.000000 0.000000 0.000000
# 3 -0.008246 -0.012090 0.035830 0.000000 0.000000 0.000000
# 4 0.000000 0.000000 0.000000 0.059743 0.000000 0.000000
# 5 0.000000 0.000000 0.000000 0.000000 -0.008349 0.000000
# 6 0.000000 0.000000 0.000000 0.000000 0.000000 0.027911
#
#
# Mechanical properties :
#
#
# Convention : Reuss Voigt Hill
#
# Bulk Modulus (GPa) = 38.49478 70.55430 54.52454
# Shear Modulus (GPa) = 23.52240 -2.39085 10.56577
#
# Velocity S-wave (km/s) = 3.45958 -1.10296 2.31864
# Velocity P-wave (km/s) = 5.96198 5.85470 5.90858
#
# Compressibility (1/GPa) = 0.02597755
#
# Stress axis : x y z
#
# Youngs Moduli (GPa) = 119.10544 32.19283 27.90980
#
# Poissons Ratio (x) = 0.13907 0.23015
# Poissons Ratio (y) = 0.51451 0.33742
# Poissons Ratio (z) = 0.98215 0.38920
#
# Static dielectric constant tensor:
#      x y z
#    x 1.737570 0.000000 0.000000 
#    y 0.000000 1.708650 0.000000 
#    z 0.000000 0.000000 1.673510 
# 
# From -- ./inp_files/13686.got.cif
#   From: 2010.05.17/outbox.cif.g08.bks.cpg/sg47_7_cif.got.tgz:13686.got - 2010.06.03 20:15:42.
