data_PCOD9387359
_publ_section_title
;
Structure prediction by ZEFSAII (Michael W. Deem and Ramdas Pophale) SiO2 
 PCOD9387359
Probable space group: P M M M
;
_chemical_formula_sum "Si O2"
_cell_formula_units_Z 56
_cell_length_a 9.297270
_cell_length_b 22.273180
_cell_length_c 14.207770
_cell_angle_alpha 90.000000
_cell_angle_beta 90.000000
_cell_angle_gamma 90.000000
_cell_volume 2942.141719
_symmetry_space_group_name_H-M "P M M M"
_symmetry_group_IT_number 47
_symmetry_cell_setting 'orthorhombic'
loop_
_space_group_symop_operation_xyz
x,y,z
-x,-y,z
x,-y,-z
-x,y,-z
-x,-y,-z
x,y,-z
-x,y,z
x,-y,z
loop_
_atom_site_type_symbol
_atom_site_label
_atom_site_fract_x
_atom_site_fract_y
_atom_site_fract_z
Si Si1 0.165635 0.069062 0.638588
Si Si2 0.674240 0.569013 0.000000
Si Si3 0.166057 0.746874 0.238710
Si Si4 0.662138 0.187704 0.605850
Si Si5 0.674008 0.373253 0.796184
Si Si6 0.667725 0.933950 0.000000
Si Si7 0.170904 0.572425 0.608891
Si Si8 0.843479 0.878463 0.155544
O O1 0.272287 0.120529 0.603542
O O2 0.162887 0.082398 0.749852
O O3 0.000000 0.078679 0.606543
O O4 0.204731 0.000000 0.618557
O O5 0.715852 0.597120 0.897774
O O6 0.721749 0.500000 0.000000
O O7 0.500000 0.570991 0.000000
O O8 0.232757 0.769730 0.336401
O O9 0.264931 0.694233 0.200072
O O10 0.167501 0.808244 0.178997
O O11 0.000000 0.727507 0.247745
O O12 0.654508 0.209872 0.500000
O O13 0.500000 0.186572 0.646253
O O14 0.500000 0.375556 0.788304
O O15 0.743412 0.401111 0.699559
O O16 0.717719 0.898411 0.089981
O O17 0.500000 0.939749 0.000000
O O18 0.736056 0.000000 0.000000
O O19 0.212901 0.590622 0.500000
O O20 0.186102 0.500000 0.612383
O O21 0.000000 0.586338 0.618852
O O22 0.000000 0.889236 0.111917
#
# Coordination Sequence:
#
# PCOD9387359 Si02
#       8
#     8   4   8   8   8   4   8   8
#     4   9  18  33  53  76 102 136 179 223 271 331
#     4   9  20  39  61  88 124 161 192 229 282 339
#     4  10  22  40  59  79 106 142 185 230 278 333
#     4  10  21  36  54  78 108 141 180 228 281 336
#     4  11  22  37  61  91 121 155 198 243 288 343
#     4  11  23  34  49  78 108 133 166 211 268 333
#     4   9  19  37  60  87 122 162 201 243 292 342
#     4   9  19  36  55  73  97 134 177 220 267 319
#
# _framework density 19.033753999999998
#
# number of rings (size 3 to 8) (size 9 to 14) (size 15 to 20)
#    0.000    2.286    0.000    3.643    0.000    8.000 
#    0.000    5.000    0.000    2.571    0.000    0.000 
#    0.000    0.000    0.000    0.000    0.000    0.000 
#
# Total GULP energy -312000.077265 kJ/mol
# GULP energy per Si atom -5571.429951 kJ/mol
# Density = 1.899043 g / cm^3
# Si number density = 19.033754 Si / 1000 Ang^3
#
#
#
# Elastic Constant Matrix: (Units=GPa)
#
#
# Indices 1 2 3 4 5 6 
#
# 1 82.0519 25.7471 51.3991 0.0000 0.0000 0.0000
# 2 25.7471 79.1760 43.7491 0.0000 0.0000 0.0000
# 3 51.3991 43.7491 131.2250 0.0000 0.0000 0.0000
# 4 0.0000 0.0000 0.0000 20.9265 0.0000 0.0000
# 5 0.0000 0.0000 0.0000 0.0000 40.4179 0.0000
# 6 0.0000 0.0000 0.0000 0.0000 0.0000 30.9519
#
#
#
# Elastic Compliance Matrix: (Units=1/GPa)
#
#
# Indices 1 2 3 4 5 6 
#
# 1 0.016455 -0.002194 -0.005714 0.000000 0.000000 0.000000
# 2 -0.002194 0.015775 -0.004400 0.000000 0.000000 0.000000
# 3 -0.005714 -0.004400 0.011325 0.000000 0.000000 0.000000
# 4 0.000000 0.000000 0.000000 0.047786 0.000000 0.000000
# 5 0.000000 0.000000 0.000000 0.000000 0.024742 0.000000
# 6 0.000000 0.000000 0.000000 0.000000 0.000000 0.032308
#
#
# Mechanical properties :
#
#
# Convention : Reuss Voigt Hill
#
# Bulk Modulus (GPa) = 52.79777 59.36037 56.07907
# Shear Modulus (GPa) = 27.88319 29.89642 28.88981
#
# Velocity S-wave (km/s) = 3.83160 3.96751 3.90015
# Velocity P-wave (km/s) = 6.88288 7.22792 7.05751
#
# Compressibility (1/GPa) = 0.01894019
#
# Stress axis : x y z
#
# Youngs Moduli (GPa) = 60.77154 63.39289 88.29707
#
# Poissons Ratio (x) = 0.13907 0.50452
# Poissons Ratio (y) = 0.13332 0.38849
# Poissons Ratio (z) = 0.34724 0.27892
#
# Static dielectric constant tensor:
#      x y z
#    x 1.670150 0.000000 0.000000 
#    y 0.000000 1.649610 0.000000 
#    z 0.000000 0.000000 1.666440 
# 
# From -- ./inp_files/21608.got.cif
#   From: 2010.05.17/outbox.cif.g08.bks.cpg/sg47_11_cif.got.tgz:21608.got - 2010.06.03 20:15:42.
