data_PCOD9387741
_publ_section_title
;
Structure prediction by ZEFSAII (Michael W. Deem and Ramdas Pophale) SiO2 
 PCOD9387741
Probable space group: P M M M
;
_chemical_formula_sum "Si O2"
_cell_formula_units_Z 56
_cell_length_a 15.818064
_cell_length_b 20.634619
_cell_length_c 9.393668
_cell_angle_alpha 90.000000
_cell_angle_beta 90.000000
_cell_angle_gamma 90.000000
_cell_volume 3066.090642
_symmetry_space_group_name_H-M "P M M M"
_symmetry_group_IT_number 47
_symmetry_cell_setting 'orthorhombic'
loop_
_space_group_symop_operation_xyz
x,y,z
-x,-y,z
x,-y,-z
-x,y,-z
-x,-y,-z
x,y,-z
-x,y,z
x,-y,z
loop_
_atom_site_type_symbol
_atom_site_label
_atom_site_fract_x
_atom_site_fract_y
_atom_site_fract_z
Si Si1 0.331800 0.888290 0.336601
Si Si2 0.169088 0.576830 0.331557
Si Si3 0.903662 0.219065 0.672782
Si Si4 0.598207 0.000000 0.151462
Si Si5 0.865574 0.073912 0.666756
Si Si6 0.000000 0.421636 0.838107
Si Si7 0.599283 0.228957 0.837315
Si Si8 0.764685 0.690518 0.166076
O O1 0.356046 0.892965 0.500000
O O2 0.234157 0.909867 0.325848
O O3 0.358859 0.819867 0.274303
O O4 0.380081 0.938129 0.240517
O O5 0.164248 0.589475 0.500000
O O6 0.184031 0.500000 0.312152
O O7 0.081694 0.594932 0.253527
O O8 0.233213 0.623508 0.251959
O O9 0.887281 0.220902 0.500000
O O10 0.903181 0.142668 0.719410
O O11 0.830612 0.259669 0.754726
O O12 0.000000 0.243700 0.696120
O O13 0.500000 0.000000 0.131602
O O14 0.643991 0.000000 0.000000
O O15 0.889785 0.070403 0.500000
O O16 0.881586 0.000000 0.724394
O O17 0.000000 0.500000 0.848571
O O18 0.000000 0.396087 0.000000
O O19 0.500000 0.242563 0.807425
O O20 0.667537 0.286213 0.834904
O O21 0.602007 0.201801 0.000000
O O22 0.791038 0.684011 0.000000
#
# Coordination Sequence:
#
# PCOD9387741 Si02
#       8
#     8   8   8   4   8   4   8   8
#     4  11  20  33  54  79 105 137 180 233 288 343
#     4  10  21  37  58  85 119 158 195 234 285 343
#     4  10  21  37  58  83 113 151 194 240 290 345
#     4  11  23  35  47  69 104 141 176 220 280 350
#     4   9  17  32  54  79 107 140 183 238 290 336
#     4   9  17  31  53  83 119 155 192 231 270 323
#     4  10  22  40  59  81 111 147 188 235 293 354
#     4  11  23  38  60  86 115 153 193 240 290 343
#
# _framework density 18.264299000000001
#
# number of rings (size 3 to 8) (size 9 to 14) (size 15 to 20)
#    0.000    1.857    2.143    2.143    1.000    5.429 
#    0.000    1.429    0.000    0.429    0.000    4.000 
#    0.000    0.000    0.000    0.000    0.000    0.000 
#
# Total GULP energy -311913.882490 kJ/mol
# GULP energy per Si atom -5569.890759 kJ/mol
# Density = 1.822273 g / cm^3
# Si number density = 18.264299 Si / 1000 Ang^3
#
#
#
# Elastic Constant Matrix: (Units=GPa)
#
#
# Indices 1 2 3 4 5 6 
#
# 1 64.0933 27.6207 35.6329 0.0000 0.0000 0.0000
# 2 27.6207 81.0379 52.5966 0.0000 0.0000 0.0000
# 3 35.6329 52.5966 109.5290 0.0000 0.0000 0.0000
# 4 0.0000 0.0000 0.0000 33.9517 0.0000 0.0000
# 5 0.0000 0.0000 0.0000 0.0000 17.1401 0.0000
# 6 0.0000 0.0000 0.0000 0.0000 0.0000 29.3347
#
#
#
# Elastic Compliance Matrix: (Units=1/GPa)
#
#
# Indices 1 2 3 4 5 6 
#
# 1 0.019794 -0.003729 -0.004649 0.000000 0.000000 0.000000
# 2 -0.003729 0.018630 -0.007733 0.000000 0.000000 0.000000
# 3 -0.004649 -0.007733 0.014356 0.000000 0.000000 0.000000
# 4 0.000000 0.000000 0.000000 0.029454 0.000000 0.000000
# 5 0.000000 0.000000 0.000000 0.000000 0.058343 0.000000
# 6 0.000000 0.000000 0.000000 0.000000 0.000000 0.034089
#
#
# Mechanical properties :
#
#
# Convention : Reuss Voigt Hill
#
# Bulk Modulus (GPa) = 48.64364 54.04006 51.34185
# Shear Modulus (GPa) = 23.39293 25.33930 24.36612
#
# Velocity S-wave (km/s) = 3.58271 3.72878 3.65647
# Velocity P-wave (km/s) = 6.61857 6.94193 6.78218
#
# Compressibility (1/GPa) = 0.02055767
#
# Stress axis : x y z
#
# Youngs Moduli (GPa) = 50.52083 53.67684 69.65834
#
# Poissons Ratio (x) = 0.20018 0.32382
# Poissons Ratio (y) = 0.18841 0.53867
# Poissons Ratio (z) = 0.23485 0.41508
#
# Static dielectric constant tensor:
#      x y z
#    x 1.680790 0.000000 0.000000 
#    y 0.000000 1.630830 0.000000 
#    z 0.000000 0.000000 1.656830 
# 
# From -- ./inp_files/7400.got.cif
#   From: 2010.05.17/outbox.cif.g08.bks.cpg/sg47_4_cif.got.tgz:7400.got - 2010.06.03 20:15:42.
