data_PCOD9387262
_publ_section_title
;
Structure prediction by ZEFSAII (Michael W. Deem and Ramdas Pophale) SiO2 
 PCOD9387262
Probable space group: P M M M
;
_chemical_formula_sum "Si O2"
_cell_formula_units_Z 36
_cell_length_a 24.382543
_cell_length_b 7.715897
_cell_length_c 9.346033
_cell_angle_alpha 90.000000
_cell_angle_beta 90.000000
_cell_angle_gamma 90.000000
_cell_volume 1758.299006
_symmetry_space_group_name_H-M "P M M M"
_symmetry_group_IT_number 47
_symmetry_cell_setting 'orthorhombic'
loop_
_space_group_symop_operation_xyz
x,y,z
-x,-y,z
x,-y,-z
-x,y,-z
-x,-y,-z
x,y,-z
-x,y,z
x,-y,z
loop_
_atom_site_type_symbol
_atom_site_label
_atom_site_fract_x
_atom_site_fract_y
_atom_site_fract_z
Si Si1 0.441033 0.293684 0.173252
Si Si2 0.000000 0.293287 0.662361
Si Si3 0.786757 0.207799 0.661867
Si Si4 0.321892 0.290598 0.835371
Si Si5 0.891106 0.792286 0.838059
O O1 0.500000 0.221445 0.223072
O O2 0.441995 0.500000 0.204542
O O3 0.381485 0.226164 0.219624
O O4 0.440265 0.277964 0.000000
O O5 0.945763 0.240548 0.747978
O O6 0.000000 0.500000 0.654190
O O7 0.000000 0.223238 0.500000
O O8 0.787846 0.276085 0.500000
O O9 0.729229 0.242277 0.738602
O O10 0.837527 0.275982 0.755676
O O11 0.793139 0.000000 0.653972
O O12 0.325056 0.500000 0.839689
O O13 0.313692 0.231303 0.000000
O O14 0.885075 0.000000 0.848113
O O15 0.895352 0.724126 0.000000
#
# Coordination Sequence:
#
# PCOD9387262 Si02
#       5
#     8   4   8   8   8
#     4   7  10  19  38  65  95 124 156 198 247 297
#     4  11  24  39  56  82 114 143 168 197 240 292
#     4  10  21  36  53  73  99 134 173 209 248 296
#     4   9  17  29  48  75 102 128 162 206 256 305
#     4  10  21  38  60  82 102 130 171 213 251 293
#
# _framework density 20.474332
#
# number of rings (size 3 to 8) (size 9 to 14) (size 15 to 20)
#    0.000    2.778    0.000    4.000    0.000    6.222 
#    0.000    0.000    0.000    1.333    0.000    7.778 
#    0.000    0.000    0.000    0.000    0.000    0.000 
#
# Total GULP energy -200752.900270 kJ/mol
# GULP energy per Si atom -5576.469452 kJ/mol
# Density = 2.042773 g / cm^3
# Si number density = 20.474332 Si / 1000 Ang^3
#
#
#
# Elastic Constant Matrix: (Units=GPa)
#
#
# Indices 1 2 3 4 5 6 
#
# 1 242.5103 0.5954 116.8401 0.0000 0.0000 0.0000
# 2 0.5954 32.2932 8.8781 0.0000 0.0000 0.0000
# 3 116.8401 8.8781 152.2748 0.0000 0.0000 0.0000
# 4 0.0000 0.0000 0.0000 15.1637 0.0000 0.0000
# 5 0.0000 0.0000 0.0000 0.0000 -16.1282 0.0000
# 6 0.0000 0.0000 0.0000 0.0000 0.0000 25.9124
#
#
#
# Elastic Compliance Matrix: (Units=1/GPa)
#
#
# Indices 1 2 3 4 5 6 
#
# 1 0.006594 0.001290 -0.005135 0.000000 0.000000 0.000000
# 2 0.001290 0.031723 -0.002839 0.000000 0.000000 0.000000
# 3 -0.005135 -0.002839 0.010673 0.000000 0.000000 0.000000
# 4 0.000000 0.000000 0.000000 0.065947 0.000000 0.000000
# 5 0.000000 0.000000 0.000000 0.000000 -0.062003 0.000000
# 6 0.000000 0.000000 0.000000 0.000000 0.000000 0.038592
#
#
# Mechanical properties :
#
#
# Convention : Reuss Voigt Hill
#
# Bulk Modulus (GPa) = 28.07295 75.52284 51.79790
# Shear Modulus (GPa) = 42.81977 25.04055 33.93016
#
# Velocity S-wave (km/s) = 4.57813 3.50097 4.07529
# Velocity P-wave (km/s) = 6.45653 7.30130 6.89187
#
# Compressibility (1/GPa) = 0.03562148
#
# Stress axis : x y z
#
# Youngs Moduli (GPa) = 151.64286 31.52272 93.69617
#
# Poissons Ratio (x) = -0.04067 0.48114
# Poissons Ratio (y) = -0.19564 0.26605
# Poissons Ratio (z) = 0.77870 0.08951
#
# Static dielectric constant tensor:
#      x y z
#    x 1.742400 0.000000 0.000000 
#    y 0.000000 1.772110 0.000000 
#    z 0.000000 0.000000 1.707850 
# 
# From -- ./inp_files/1429.got.cif
#   From: 2010.05.17/outbox.cif.g08.bks.cpg/sg47_1_cif.got.tgz:1429.got - 2010.06.03 20:15:42.
