data_PCOD9387482
_publ_section_title
;
Structure prediction by ZEFSAII (Michael W. Deem and Ramdas Pophale) SiO2 
 PCOD9387482
Probable space group: P M M M
;
_chemical_formula_sum "Si O2"
_cell_formula_units_Z 64
_cell_length_a 15.407495
_cell_length_b 7.675745
_cell_length_c 25.702338
_cell_angle_alpha 90.000000
_cell_angle_beta 90.000000
_cell_angle_gamma 90.000000
_cell_volume 3039.661371
_symmetry_space_group_name_H-M "P M M M"
_symmetry_group_IT_number 47
_symmetry_cell_setting 'orthorhombic'
loop_
_space_group_symop_operation_xyz
x,y,z
-x,-y,z
x,-y,-z
-x,y,-z
-x,-y,-z
x,y,-z
-x,y,z
x,-y,z
loop_
_atom_site_type_symbol
_atom_site_label
_atom_site_fract_x
_atom_site_fract_y
_atom_site_fract_z
Si Si1 0.754210 0.793519 0.634287
Si Si2 0.788226 0.789514 0.943266
Si Si3 0.229815 0.706740 0.245968
Si Si4 0.405443 0.795311 0.923569
Si Si5 0.098687 0.291586 0.158858
Si Si6 0.400345 0.290277 0.441617
Si Si7 0.096892 0.787216 0.559351
Si Si8 0.593237 0.711579 0.802385
O O1 0.770932 0.729576 0.692425
O O2 0.663343 0.758631 0.605202
O O3 0.828796 0.721107 0.596708
O O4 0.763614 0.000000 0.636837
O O5 0.688172 0.724069 0.940531
O O6 0.844989 0.738122 0.893426
O O7 0.784201 0.000000 0.941962
O O8 0.824365 0.737275 0.000000
O O9 0.230966 0.500000 0.236079
O O10 0.152400 0.776018 0.209209
O O11 0.322214 0.777873 0.226555
O O12 0.500000 0.722398 0.940320
O O13 0.404003 0.776643 0.861338
O O14 0.406212 0.000000 0.937517
O O15 0.091675 0.500000 0.164486
O O16 0.000000 0.222520 0.155131
O O17 0.371732 0.230343 0.500000
O O18 0.500000 0.231210 0.433972
O O19 0.401754 0.500000 0.443190
O O20 0.111185 0.732009 0.500000
O O21 0.000000 0.735527 0.575486
O O22 0.098921 0.000000 0.559334
O O23 0.500000 0.762828 0.779164
O O24 0.595311 0.500000 0.803705
#
# Coordination Sequence:
#
# PCOD9387482 Si02
#       8
#     8   8   8   8   8   8   8   8
#     4  11  22  33  52  84 115 142 180 230 278 325
#     4  10  21  36  56  84 116 146 178 221 275 336
#     4  10  21  37  54  75 106 144 182 221 272 331
#     4   9  17  30  51  79 110 142 173 208 255 312
#     4  10  22  41  62  81 104 140 188 237 282 330
#     4   9  19  37  59  81 110 153 198 234 276 332
#     4   8  15  30  51  74 103 138 172 209 260 321
#     4   9  17  31  53  76  97 129 174 218 260 309
#
# _framework density 21.054977000000001
#
# number of rings (size 3 to 8) (size 9 to 14) (size 15 to 20)
#    0.000    2.500    1.250    1.500    0.000    4.000 
#    0.000    4.375    0.000    1.125    0.000    7.000 
#    0.000    0.000    0.000    0.000    0.000    0.000 
#
# Total GULP energy -356927.350209 kJ/mol
# GULP energy per Si atom -5576.989847 kJ/mol
# Density = 2.100706 g / cm^3
# Si number density = 21.054977 Si / 1000 Ang^3
#
#
#
# Elastic Constant Matrix: (Units=GPa)
#
#
# Indices 1 2 3 4 5 6 
#
# 1 177.6271 8.1527 105.1307 0.0000 0.0000 0.0000
# 2 8.1527 33.8854 -7.1285 0.0000 0.0000 0.0000
# 3 105.1307 -7.1285 135.9832 0.0000 0.0000 0.0000
# 4 0.0000 0.0000 0.0000 23.3797 0.0000 0.0000
# 5 0.0000 0.0000 0.0000 0.0000 -20.0274 0.0000
# 6 0.0000 0.0000 0.0000 0.0000 0.0000 -9.0689
#
#
#
# Elastic Compliance Matrix: (Units=1/GPa)
#
#
# Indices 1 2 3 4 5 6 
#
# 1 0.011016 -0.004492 -0.008752 0.000000 0.000000 0.000000
# 2 -0.004492 0.031672 0.005133 0.000000 0.000000 0.000000
# 3 -0.008752 0.005133 0.014389 0.000000 0.000000 0.000000
# 4 0.000000 0.000000 0.000000 0.042772 0.000000 0.000000
# 5 0.000000 0.000000 0.000000 0.000000 -0.049932 0.000000
# 6 0.000000 0.000000 0.000000 0.000000 0.000000 -0.110267
#
#
# Mechanical properties :
#
#
# Convention : Reuss Voigt Hill
#
# Bulk Modulus (GPa) = 24.47669 62.20063 43.33866
# Shear Modulus (GPa) = -163.88369 14.94606 -74.46882
#
# Velocity S-wave (km/s) = -8.83205 2.66721 -5.95361
# Velocity P-wave (km/s) = 9.61022 6.25232 5.16066
#
# Compressibility (1/GPa) = 0.04085520
#
# Stress axis : x y z
#
# Youngs Moduli (GPa) = 90.77767 31.57397 69.49630
#
# Poissons Ratio (x) = 0.14182 0.60823
# Poissons Ratio (y) = 0.40773 -0.35671
# Poissons Ratio (z) = 0.79449 -0.16206
#
# Static dielectric constant tensor:
#      x y z
#    x 1.785010 0.000000 0.000000 
#    y 0.000000 1.803670 0.000000 
#    z 0.000000 0.000000 1.750820 
# 
# From -- ./inp_files/12656.got.cif
#   From: 2010.05.17/outbox.cif.g08.bks.cpg/sg47_7_cif.got.tgz:12656.got - 2010.06.03 20:15:42.
