data_PCOD9387899
_publ_section_title
;
Structure prediction by ZEFSAII (Michael W. Deem and Ramdas Pophale) SiO2 
 PCOD9387899
Probable space group: P M M M
;
_chemical_formula_sum "Si O2"
_cell_formula_units_Z 44
_cell_length_a 13.382376
_cell_length_b 8.960818
_cell_length_c 18.671927
_cell_angle_alpha 90.000000
_cell_angle_beta 90.000000
_cell_angle_gamma 90.000000
_cell_volume 2239.082137
_symmetry_space_group_name_H-M "P M M M"
_symmetry_group_IT_number 47
_symmetry_cell_setting 'orthorhombic'
loop_
_space_group_symop_operation_xyz
x,y,z
-x,-y,z
x,-y,-z
-x,y,-z
-x,-y,-z
x,y,-z
-x,y,z
x,-y,z
loop_
_atom_site_type_symbol
_atom_site_label
_atom_site_fract_x
_atom_site_fract_y
_atom_site_fract_z
Si Si1 0.241080 0.829314 0.683370
Si Si2 0.117791 0.180937 0.176015
Si Si3 0.113193 0.662684 0.414802
Si Si4 0.385864 0.679027 0.579602
Si Si5 0.500000 0.173730 0.912702
Si Si6 0.709419 0.326015 0.913756
O O1 0.177718 0.774609 0.751581
O O2 0.165438 0.804688 0.617819
O O3 0.333433 0.739256 0.650861
O O4 0.268508 0.000000 0.695842
O O5 0.190593 0.246628 0.115193
O O6 0.000000 0.227098 0.174528
O O7 0.117799 0.000000 0.172524
O O8 0.113078 0.665977 0.500000
O O9 0.158505 0.500000 0.393678
O O10 0.000000 0.661556 0.389466
O O11 0.343342 0.722241 0.500000
O O12 0.500000 0.730000 0.579940
O O13 0.384925 0.500000 0.580629
O O14 0.604409 0.250455 0.889170
O O15 0.500000 0.000000 0.891942
O O16 0.500000 0.180951 0.000000
O O17 0.709577 0.500000 0.892718
O O18 0.709812 0.317961 0.000000
#
# Coordination Sequence:
#
# PCOD9387899 Si02
#       6
#     8   8   8   8   4   8
#     4  11  22  35  53  79 110 144 184 233 287 340
#     4  10  23  42  59  79 114 161 206 244 292 359
#     4   9  18  32  50  73 101 136 179 223 269 327
#     4   9  19  37  59  81 108 146 192 240 291 351
#     4   9  17  33  61  93 123 155 188 223 274 343
#     4  10  21  38  62  93 124 152 191 246 301 350
#
# _framework density 19.65091
#
# number of rings (size 3 to 8) (size 9 to 14) (size 15 to 20)
#    0.000    2.273    0.000    3.545    0.000    8.727 
#    1.636    3.636    0.000    0.000    0.000    0.000 
#    0.000    0.000    0.000    0.000    0.000    0.000 
#
# Total GULP energy -244986.656501 kJ/mol
# GULP energy per Si atom -5567.878557 kJ/mol
# Density = 1.960618 g / cm^3
# Si number density = 19.650910 Si / 1000 Ang^3
#
#
#
# Elastic Constant Matrix: (Units=GPa)
#
#
# Indices 1 2 3 4 5 6 
#
# 1 150.5873 39.4632 34.6967 0.0000 0.0000 0.0000
# 2 39.4632 43.3339 24.7246 0.0000 0.0000 0.0000
# 3 34.6967 24.7246 37.1278 0.0000 0.0000 0.0000
# 4 0.0000 0.0000 0.0000 24.2376 0.0000 0.0000
# 5 0.0000 0.0000 0.0000 0.0000 34.6991 0.0000
# 6 0.0000 0.0000 0.0000 0.0000 0.0000 32.2572
#
#
#
# Elastic Compliance Matrix: (Units=1/GPa)
#
#
# Indices 1 2 3 4 5 6 
#
# 1 0.009242 -0.005626 -0.004890 0.000000 0.000000 0.000000
# 2 -0.005626 0.040643 -0.021808 0.000000 0.000000 0.000000
# 3 -0.004890 -0.021808 0.046026 0.000000 0.000000 0.000000
# 4 0.000000 0.000000 0.000000 0.041258 0.000000 0.000000
# 5 0.000000 0.000000 0.000000 0.000000 0.028819 0.000000
# 6 0.000000 0.000000 0.000000 0.000000 0.000000 0.031001
#
#
# Mechanical properties :
#
#
# Convention : Reuss Voigt Hill
#
# Bulk Modulus (GPa) = 31.98641 47.64644 39.81643
# Shear Modulus (GPa) = 18.37843 27.04972 22.71408
#
# Velocity S-wave (km/s) = 3.06150 3.71416 3.40351
# Velocity P-wave (km/s) = 5.36746 6.53394 5.97922
#
# Compressibility (1/GPa) = 0.03126327
#
# Stress axis : x y z
#
# Youngs Moduli (GPa) = 108.20421 24.60449 21.72679
#
# Poissons Ratio (x) = 0.13843 0.10624
# Poissons Ratio (y) = 0.60879 0.47381
# Poissons Ratio (z) = 0.52911 0.53657
#
# Static dielectric constant tensor:
#      x y z
#    x 1.738940 0.000000 0.000000 
#    y 0.000000 1.721670 0.000000 
#    z 0.000000 0.000000 1.702450 
# 
# From -- ./inp_files/27879.got.cif
#   From: 2010.05.17/outbox.cif.g08.bks.cpg/sg47_14_cif.got.tgz:27879.got - 2010.06.03 20:15:42.
