data_PCOD9387968
_publ_section_title
;
Structure prediction by ZEFSAII (Michael W. Deem and Ramdas Pophale) SiO2 
 PCOD9387968
Probable space group: P M M M
;
_chemical_formula_sum "Si O2"
_cell_formula_units_Z 37
_cell_length_a 7.557286
_cell_length_b 19.442296
_cell_length_c 12.434802
_cell_angle_alpha 90.000000
_cell_angle_beta 90.000000
_cell_angle_gamma 90.000000
_cell_volume 1827.057785
_symmetry_space_group_name_H-M "P M M M"
_symmetry_group_IT_number 47
_symmetry_cell_setting 'orthorhombic'
loop_
_space_group_symop_operation_xyz
x,y,z
-x,-y,z
x,-y,-z
-x,y,-z
-x,-y,-z
x,y,-z
-x,y,z
x,-y,z
loop_
_atom_site_type_symbol
_atom_site_label
_atom_site_fract_x
_atom_site_fract_y
_atom_site_fract_z
Si Si1 0.790204 0.421461 0.289701
Si Si2 0.797282 0.119895 0.000000
Si Si3 0.000000 0.082626 0.372191
Si Si4 0.212921 0.720368 0.616554
Si Si5 0.500000 0.000000 0.000000
Si Si6 0.500000 0.417280 0.882166
Si Si7 0.701280 0.159649 0.234989
O O1 0.745707 0.500000 0.322886
O O2 0.751090 0.360653 0.372499
O O3 0.674681 0.402393 0.186095
O O4 0.000000 0.420030 0.267360
O O5 0.766237 0.160130 0.111924
O O6 0.655121 0.059394 0.000000
O O7 0.000000 0.095097 0.000000
O O8 0.169007 0.113670 0.309149
O O9 0.000000 0.100979 0.500000
O O10 0.000000 0.000000 0.364482
O O11 0.273793 0.745592 0.500000
O O12 0.291902 0.765149 0.711734
O O13 0.000000 0.728796 0.621953
O O14 0.500000 0.500000 0.892212
O O15 0.500000 0.385773 0.000000
O O16 0.500000 0.133217 0.237668
#
# Coordination Sequence:
#
# PCOD9387968 Si02
#       7
#     8   4   4   8   1   4   8
#     4   9  19  36  58  88 123 160 212 274 330 389
#     4  12  25  45  73 104 138 176 217 273 336 399
#     4  11  26  45  69  99 132 173 217 266 327 388
#     4  10  21  40  65  91 127 176 220 267 332 396
#     4  12  26  44  72 114 138 172 220 260 344 404
#     4   9  18  34  54  79 115 158 203 255 319 387
#     4  12  25  44  68  98 135 173 221 272 327 398
#
# _framework density 20.251138999999998
#
# number of rings (size 3 to 8) (size 9 to 14) (size 15 to 20)
#    0.000    1.514    3.243    0.811    3.027    3.027 
#    1.946    5.405    0.000    1.946    0.000    0.000 
#    0.000    0.000    0.000    0.000    0.000    0.000 
#
# Total GULP energy -206248.832977 kJ/mol
# GULP energy per Si atom -5574.292783 kJ/mol
# Density = 2.020505 g / cm^3
# Si number density = 20.251139 Si / 1000 Ang^3
#
#
#
# Elastic Constant Matrix: (Units=GPa)
#
#
# Indices 1 2 3 4 5 6 
#
# 1 124.5788 30.4919 48.2836 0.0000 0.0000 0.0000
# 2 30.4919 98.8720 57.5891 0.0000 0.0000 0.0000
# 3 48.2836 57.5891 165.1803 0.0000 0.0000 0.0000
# 4 0.0000 0.0000 0.0000 1089.2559 0.0000 0.0000
# 5 0.0000 0.0000 0.0000 0.0000 7.7943 0.0000
# 6 0.0000 0.0000 0.0000 0.0000 0.0000 14.9326
#
#
#
# Elastic Compliance Matrix: (Units=1/GPa)
#
#
# Indices 1 2 3 4 5 6 
#
# 1 0.009251 -0.001604 -0.002145 0.000000 0.000000 0.000000
# 2 -0.001604 0.012969 -0.004053 0.000000 0.000000 0.000000
# 3 -0.002145 -0.004053 0.008094 0.000000 0.000000 0.000000
# 4 0.000000 0.000000 0.000000 0.000918 0.000000 0.000000
# 5 0.000000 0.000000 0.000000 0.000000 0.128299 0.000000
# 6 0.000000 0.000000 0.000000 0.000000 0.000000 0.066967
#
#
# Mechanical properties :
#
#
# Convention : Reuss Voigt Hill
#
# Bulk Modulus (GPa) = 67.97558 73.48447 70.73002
# Shear Modulus (GPa) = 20.24250 239.21434 129.72842
#
# Velocity S-wave (km/s) = 3.16503 10.88027 8.01242
# Velocity P-wave (km/s) = 6.85534 13.93577 10.98184
#
# Compressibility (1/GPa) = 0.01471117
#
# Stress axis : x y z
#
# Youngs Moduli (GPa) = 108.09764 77.10525 123.54783
#
# Poissons Ratio (x) = 0.12364 0.26502
# Poissons Ratio (y) = 0.17334 0.50073
# Poissons Ratio (z) = 0.23187 0.31250
#
# Static dielectric constant tensor:
#      x y z
#    x 1.733620 0.000000 0.000000 
#    y 0.000000 1.722290 0.000000 
#    z 0.000000 0.000000 1.723170 
# 
# From -- ./inp_files/14950.got.cif
#   From: 2010.05.17/outbox.cif.g08.bks.cpg/sg47_8_cif.got.tgz:14950.got - 2010.06.03 20:15:42.
