data_PCOD9387649
_publ_section_title
;
Structure prediction by ZEFSAII (Michael W. Deem and Ramdas Pophale) SiO2 
 PCOD9387649
Probable space group: P M M M
;
_chemical_formula_sum "Si O2"
_cell_formula_units_Z 48
_cell_length_a 33.859292
_cell_length_b 9.637697
_cell_length_c 7.956035
_cell_angle_alpha 90.000000
_cell_angle_beta 90.000000
_cell_angle_gamma 90.000000
_cell_volume 2596.257871
_symmetry_space_group_name_H-M "P M M M"
_symmetry_group_IT_number 47
_symmetry_cell_setting 'orthorhombic'
loop_
_space_group_symop_operation_xyz
x,y,z
-x,-y,z
x,-y,-z
-x,y,-z
-x,-y,-z
x,y,-z
-x,y,z
x,-y,z
loop_
_atom_site_type_symbol
_atom_site_label
_atom_site_fract_x
_atom_site_fract_y
_atom_site_fract_z
Si Si1 0.179563 0.159015 0.298086
Si Si2 0.045052 0.668466 0.000000
Si Si3 0.897370 0.666617 0.302234
Si Si4 0.733699 0.158022 0.797916
Si Si5 0.500000 0.156701 0.800187
Si Si6 0.425658 0.658322 0.299816
Si Si7 0.661338 0.342030 0.202229
O O1 0.179805 0.154042 0.500000
O O2 0.142841 0.255187 0.250999
O O3 0.222534 0.211947 0.242847
O O4 0.175019 0.000000 0.235025
O O5 0.068799 0.707578 0.830746
O O6 0.043821 0.500000 0.000000
O O7 0.000000 0.719103 0.000000
O O8 0.906103 0.698478 0.500000
O O9 0.892027 0.500000 0.291571
O O10 0.697434 0.249571 0.733599
O O11 0.731375 0.000000 0.733183
O O12 0.730493 0.152803 0.000000
O O13 0.461221 0.242601 0.750696
O O14 0.500000 0.000000 0.729508
O O15 0.500000 0.146719 0.000000
O O16 0.425507 0.650008 0.500000
O O17 0.430962 0.500000 0.232877
O O18 0.382535 0.710004 0.243845
O O19 0.664102 0.500000 0.266473
O O20 0.664380 0.346651 0.000000
#
# Coordination Sequence:
#
# PCOD9387649 Si02
#       7
#     8   4   8   8   4   8   8
#     4   9  18  32  49  70  98 133 170 208 254 305
#     4   9  18  32  51  77 105 133 169 213 261 312
#     4   9  18  32  50  74 102 132 169 213 259 307
#     4   9  18  31  47  69  97 130 168 208 249 296
#     4  11  24  39  56  80 106 133 168 209 254 304
#     4  10  21  37  57  80 105 134 169 209 254 305
#     4   9  18  33  51  72 100 134 170 207 250 299
#
# _framework density 18.488147999999999
#
# number of rings (size 3 to 8) (size 9 to 14) (size 15 to 20)
#    0.000    2.667    0.000    1.000    1.167    5.000 
#    0.000    3.333    0.000    1.000    0.000    2.333 
#    0.000    0.000    0.000    0.000    0.000    0.000 
#
# Total GULP energy -267605.691985 kJ/mol
# GULP energy per Si atom -5575.118583 kJ/mol
# Density = 1.844607 g / cm^3
# Si number density = 18.488148 Si / 1000 Ang^3
#
#
#
# Elastic Constant Matrix: (Units=GPa)
#
#
# Indices 1 2 3 4 5 6 
#
# 1 210.3457 80.4492 46.3777 0.0000 0.0000 0.0000
# 2 80.4492 53.5538 23.3925 0.0000 0.0000 0.0000
# 3 46.3777 23.3925 43.9679 0.0000 0.0000 0.0000
# 4 0.0000 0.0000 0.0000 12.6306 0.0000 0.0000
# 5 0.0000 0.0000 0.0000 0.0000 66.2013 0.0000
# 6 0.0000 0.0000 0.0000 0.0000 0.0000 -43.9545
#
#
#
# Elastic Compliance Matrix: (Units=1/GPa)
#
#
# Indices 1 2 3 4 5 6 
#
# 1 0.011661 -0.015822 -0.003883 0.000000 0.000000 0.000000
# 2 -0.015822 0.045793 -0.007674 0.000000 0.000000 0.000000
# 3 -0.003883 -0.007674 0.030922 0.000000 0.000000 0.000000
# 4 0.000000 0.000000 0.000000 0.079173 0.000000 0.000000
# 5 0.000000 0.000000 0.000000 0.000000 0.015105 0.000000
# 6 0.000000 0.000000 0.000000 0.000000 0.000000 -0.022751
#
#
# Mechanical properties :
#
#
# Convention : Reuss Voigt Hill
#
# Bulk Modulus (GPa) = 29.74532 67.58960 48.66746
# Shear Modulus (GPa) = 22.13670 17.48533 19.81101
#
# Velocity S-wave (km/s) = 3.46402 3.07866 3.27701
# Velocity P-wave (km/s) = 5.66772 7.01963 6.37959
#
# Compressibility (1/GPa) = 0.03361873
#
# Stress axis : x y z
#
# Youngs Moduli (GPa) = 85.75241 21.83736 32.33893
#
# Poissons Ratio (x) = 0.34551 0.12556
# Poissons Ratio (y) = 1.35678 0.24818
# Poissons Ratio (z) = 0.33295 0.16759
#
# Static dielectric constant tensor:
#      x y z
#    x 1.630370 0.000000 0.000000 
#    y 0.000000 1.651480 0.000000 
#    z 0.000000 0.000000 1.655500 
# 
# From -- ./inp_files/2754.got.cif
#   From: 2010.05.17/outbox.cif.g08.bks.cpg/sg47_2_cif.got.tgz:2754.got - 2010.06.03 20:15:42.
