data_PCOD9387939
_publ_section_title
;
Structure prediction by ZEFSAII (Michael W. Deem and Ramdas Pophale) SiO2 
 PCOD9387939
Probable space group: P M M M
;
_chemical_formula_sum "Si O2"
_cell_formula_units_Z 48
_cell_length_a 8.742238
_cell_length_b 15.434903
_cell_length_c 19.430044
_cell_angle_alpha 90.000000
_cell_angle_beta 90.000000
_cell_angle_gamma 90.000000
_cell_volume 2621.804558
_symmetry_space_group_name_H-M "P M M M"
_symmetry_group_IT_number 47
_symmetry_cell_setting 'orthorhombic'
loop_
_space_group_symop_operation_xyz
x,y,z
-x,-y,z
x,-y,-z
-x,y,-z
-x,-y,-z
x,y,-z
-x,y,z
x,-y,z
loop_
_atom_site_type_symbol
_atom_site_label
_atom_site_fract_x
_atom_site_fract_y
_atom_site_fract_z
Si Si1 0.316568 0.846834 0.171670
Si Si2 0.183455 0.000000 0.080290
Si Si3 0.317080 0.600776 0.323633
Si Si4 0.186199 0.500000 0.078608
Si Si5 0.315727 0.099732 0.328397
Si Si6 0.816026 0.657582 0.823592
Si Si7 0.816850 0.252641 0.580114
O O1 0.500000 0.846661 0.166794
O O2 0.276109 0.875212 0.249793
O O3 0.251428 0.751338 0.159590
O O4 0.248725 0.916129 0.119033
O O5 0.000000 0.000000 0.085171
O O6 0.226482 0.000000 0.000000
O O7 0.500000 0.610419 0.318232
O O8 0.281620 0.500000 0.337260
O O9 0.243285 0.628648 0.251229
O O10 0.255069 0.664488 0.382042
O O11 0.232283 0.585106 0.121111
O O12 0.000000 0.500000 0.077350
O O13 0.240149 0.500000 0.000000
O O14 0.500000 0.106296 0.334461
O O15 0.240001 0.167472 0.379892
O O16 0.271917 0.000000 0.341330
O O17 0.000000 0.661776 0.822326
O O18 0.773071 0.249428 0.500000
O O19 0.000000 0.257866 0.584948
#
# Coordination Sequence:
#
# PCOD9387939 Si02
#       7
#     8   4   8   4   8   8   8
#     4  11  22  39  63  92 125 161 204 253 309 370
#     4  11  25  43  63  91 126 165 210 259 311 366
#     4  11  23  39  62  90 121 159 205 254 304 365
#     4   9  20  38  59  87 124 161 198 247 303 356
#     4  10  21  39  63  90 120 158 202 247 297 362
#     4  11  21  36  62  93 122 159 207 254 302 363
#     4  11  25  42  61  90 126 160 199 251 308 365
#
# _framework density 18.308001000000001
#
# number of rings (size 3 to 8) (size 9 to 14) (size 15 to 20)
#    0.000    1.333    3.333    2.250    0.000    5.333 
#    0.000    5.000    0.000    3.500    0.000    0.000 
#    0.000    0.000    0.000    0.000    0.000    0.000 
#
# Total GULP energy -268343.204777 kJ/mol
# GULP energy per Si atom -5590.483433 kJ/mol
# Density = 1.826633 g / cm^3
# Si number density = 18.308001 Si / 1000 Ang^3
#
#
#
# Elastic Constant Matrix: (Units=GPa)
#
#
# Indices 1 2 3 4 5 6 
#
# 1 52.7030 64.7357 63.1319 0.0000 0.0000 0.0000
# 2 64.7357 209.6048 116.7405 0.0000 0.0000 0.0000
# 3 63.1319 116.7405 184.5357 0.0000 0.0000 0.0000
# 4 0.0000 0.0000 0.0000 33.5124 0.0000 0.0000
# 5 0.0000 0.0000 0.0000 0.0000 -2.7067 0.0000
# 6 0.0000 0.0000 0.0000 0.0000 0.0000 32.3336
#
#
#
# Elastic Compliance Matrix: (Units=1/GPa)
#
#
# Indices 1 2 3 4 5 6 
#
# 1 0.037629 -0.006874 -0.008525 0.000000 0.000000 0.000000
# 2 -0.006874 0.008622 -0.003103 0.000000 0.000000 0.000000
# 3 -0.008525 -0.003103 0.010298 0.000000 0.000000 0.000000
# 4 0.000000 0.000000 0.000000 0.029840 0.000000 0.000000
# 5 0.000000 0.000000 0.000000 0.000000 -0.369456 0.000000
# 6 0.000000 0.000000 0.000000 0.000000 0.000000 0.030928
#
#
# Mechanical properties :
#
#
# Convention : Reuss Voigt Hill
#
# Bulk Modulus (GPa) = 51.15987 104.00661 77.58324
# Shear Modulus (GPa) = -23.96686 26.11022 1.07168
#
# Velocity S-wave (km/s) = -3.62206 3.78056 0.76592
# Velocity P-wave (km/s) = 3.24225 8.71720 6.57654
#
# Compressibility (1/GPa) = 0.01954657
#
# Stress axis : x y z
#
# Youngs Moduli (GPa) = 26.57520 115.98379 97.10220
#
# Poissons Ratio (x) = 0.79722 0.82780
# Poissons Ratio (y) = 0.18267 0.30129
# Poissons Ratio (z) = 0.22655 0.35988
#
# Static dielectric constant tensor:
#      x y z
#    x 1.616360 0.000000 0.000000 
#    y 0.000000 1.606250 0.000000 
#    z 0.000000 0.000000 1.599660 
# 
# From -- ./inp_files/21149.got.cif
#   From: 2010.05.17/outbox.cif.g08.bks.cpg/sg47_11_cif.got.tgz:21149.got - 2010.06.03 20:15:42.
