data_PCOD9387475
_publ_section_title
;
Structure prediction by ZEFSAII (Michael W. Deem and Ramdas Pophale) SiO2 
 PCOD9387475
Probable space group: P M M M
;
_chemical_formula_sum "Si O2"
_cell_formula_units_Z 44
_cell_length_a 9.534099
_cell_length_b 30.121033
_cell_length_c 7.880399
_cell_angle_alpha 90.000000
_cell_angle_beta 90.000000
_cell_angle_gamma 90.000000
_cell_volume 2263.068639
_symmetry_space_group_name_H-M "P M M M"
_symmetry_group_IT_number 47
_symmetry_cell_setting 'orthorhombic'
loop_
_space_group_symop_operation_xyz
x,y,z
-x,-y,z
x,-y,-z
-x,y,-z
-x,-y,-z
x,y,-z
-x,y,z
x,-y,z
loop_
_atom_site_type_symbol
_atom_site_label
_atom_site_fract_x
_atom_site_fract_y
_atom_site_fract_z
Si Si1 0.338034 0.198228 0.294544
Si Si2 0.842201 0.281376 0.297091
Si Si3 0.835717 0.946821 0.500000
Si Si4 0.333067 0.097518 0.194532
Si Si5 0.160239 0.550213 0.295036
Si Si6 0.341887 0.634327 0.201198
O O1 0.326855 0.193922 0.500000
O O2 0.500000 0.209662 0.256258
O O3 0.237923 0.237595 0.233642
O O4 0.307101 0.150213 0.216856
O O5 0.851407 0.276111 0.500000
O O6 0.752256 0.325330 0.266503
O O7 0.000000 0.285574 0.229039
O O8 0.757757 0.927803 0.334085
O O9 0.000000 0.933941 0.500000
O O10 0.826959 0.000000 0.500000
O O11 0.500000 0.090704 0.226411
O O12 0.303295 0.084446 0.000000
O O13 0.159353 0.550171 0.500000
O O14 0.195463 0.500000 0.239113
O O15 0.266657 0.587755 0.238109
O O16 0.000000 0.560047 0.239529
O O17 0.500000 0.635640 0.272009
O O18 0.350092 0.639450 0.000000
#
# Coordination Sequence:
#
# PCOD9387475 Si02
#       6
#     8   8   4   8   8   8
#     4   9  17  33  57  85 119 155 192 237 292 352
#     4  10  21  36  56  83 113 147 189 234 280 335
#     4  11  25  43  63  89 127 171 211 259 314 369
#     4  10  21  39  65  95 125 161 208 260 312 369
#     4   9  19  37  60  83 105 132 171 220 274 335
#     4  11  24  38  52  75 109 146 184 228 276 328
#
# _framework density 19.442626000000001
#
# number of rings (size 3 to 8) (size 9 to 14) (size 15 to 20)
#    0.000    2.091    0.909    2.455    0.000    8.727 
#    0.000    6.364    0.000    0.000    0.000    0.000 
#    0.000    0.000    0.000    0.000    0.000    0.000 
#
# Total GULP energy -245745.725302 kJ/mol
# GULP energy per Si atom -5585.130120 kJ/mol
# Density = 1.939837 g / cm^3
# Si number density = 19.442626 Si / 1000 Ang^3
#
#
#
# Elastic Constant Matrix: (Units=GPa)
#
#
# Indices 1 2 3 4 5 6 
#
# 1 153.0277 97.1413 55.0755 0.0000 0.0000 0.0000
# 2 97.1413 105.3811 40.1090 0.0000 0.0000 0.0000
# 3 55.0755 40.1090 66.2107 0.0000 0.0000 0.0000
# 4 0.0000 0.0000 0.0000 -46.9518 0.0000 0.0000
# 5 0.0000 0.0000 0.0000 0.0000 64.3150 0.0000
# 6 0.0000 0.0000 0.0000 0.0000 0.0000 39.2291
#
#
#
# Elastic Compliance Matrix: (Units=1/GPa)
#
#
# Indices 1 2 3 4 5 6 
#
# 1 0.017529 -0.013787 -0.006229 0.000000 0.000000 0.000000
# 2 -0.013787 0.023178 -0.002572 0.000000 0.000000 0.000000
# 3 -0.006229 -0.002572 0.021842 0.000000 0.000000 0.000000
# 4 0.000000 0.000000 0.000000 -0.021298 0.000000 0.000000
# 5 0.000000 0.000000 0.000000 0.000000 0.015548 0.000000
# 6 0.000000 0.000000 0.000000 0.000000 0.000000 0.025491
#
#
# Mechanical properties :
#
#
# Convention : Reuss Voigt Hill
#
# Bulk Modulus (GPa) = 57.56085 78.80791 68.18438
# Shear Modulus (GPa) = 37.52160 20.13806 28.82983
#
# Velocity S-wave (km/s) = 4.39779 3.22183 3.85491
# Velocity P-wave (km/s) = 7.44695 7.37982 7.41346
#
# Compressibility (1/GPa) = 0.01737292
#
# Stress axis : x y z
#
# Youngs Moduli (GPa) = 57.04931 43.14505 45.78270
#
# Poissons Ratio (x) = 0.59486 0.28516
# Poissons Ratio (y) = 0.78657 0.11774
# Poissons Ratio (z) = 0.35534 0.11096
#
# Static dielectric constant tensor:
#      x y z
#    x 1.681800 0.000000 0.000000 
#    y 0.000000 1.646620 0.000000 
#    z 0.000000 0.000000 1.698880 
# 
# From -- ./inp_files/2128.got.cif
#   From: 2010.05.17/outbox.cif.g08.bks.cpg/sg47_2_cif.got.tgz:2128.got - 2010.06.03 20:15:42.
