data_PCOD9387019
_publ_section_title
;
Structure prediction by ZEFSAII (Michael W. Deem and Ramdas Pophale) SiO2 
 PCOD9387019
Probable space group: P M M M
;
_chemical_formula_sum "Si O2"
_cell_formula_units_Z 40
_cell_length_a 9.764431
_cell_length_b 7.615745
_cell_length_c 26.522880
_cell_angle_alpha 90.000000
_cell_angle_beta 90.000000
_cell_angle_gamma 90.000000
_cell_volume 1972.331974
_symmetry_space_group_name_H-M "P M M M"
_symmetry_group_IT_number 47
_symmetry_cell_setting 'orthorhombic'
loop_
_space_group_symop_operation_xyz
x,y,z
-x,-y,z
x,-y,-z
-x,y,-z
-x,-y,-z
x,y,-z
-x,y,z
x,-y,z
loop_
_atom_site_type_symbol
_atom_site_label
_atom_site_fract_x
_atom_site_fract_y
_atom_site_fract_z
Si Si1 0.656431 0.208878 0.889932
Si Si2 0.343423 0.285847 0.407524
Si Si3 0.656312 0.290991 0.000000
Si Si4 0.154504 0.790872 0.800279
Si Si5 0.344692 0.711750 0.293221
Si Si6 0.842869 0.715158 0.500000
O O1 0.500000 0.280383 0.887937
O O2 0.715401 0.236433 0.946140
O O3 0.753201 0.281106 0.846106
O O4 0.645669 0.000000 0.882456
O O5 0.500000 0.234013 0.419213
O O6 0.341452 0.500000 0.407617
O O7 0.311818 0.229632 0.350284
O O8 0.238667 0.227244 0.450183
O O9 0.650613 0.500000 0.000000
O O10 0.500000 0.218808 0.000000
O O11 0.235955 0.765332 0.748390
O O12 0.000000 0.719786 0.798673
O O13 0.143946 0.000000 0.808276
O O14 0.500000 0.771590 0.280697
O O15 0.347717 0.500000 0.294026
O O16 0.841932 0.500000 0.500000
O O17 0.000000 0.771382 0.500000
#
# Coordination Sequence:
#
# PCOD9387019 Si02
#       6
#     8   8   4   8   8   4
#     4   9  17  31  51  71  92 122 159 196 234 278
#     4   8  14  25  40  59  86 119 153 191 236 283
#     4   9  17  29  48  75 100 120 150 195 240 279
#     4  10  21  35  50  71  99 130 164 200 240 288
#     4   9  18  32  50  72  96 124 161 203 246 291
#     4   9  15  21  33  57  88 121 156 191 228 276
#
# _framework density 20.280562
#
# number of rings (size 3 to 8) (size 9 to 14) (size 15 to 20)
#    0.000    3.000    0.000    2.400    0.000    5.600 
#    0.000    4.500    0.000    3.000    0.000    0.700 
#    0.000    5.600    0.000    0.000    0.000    0.000 
#
# Total GULP energy -223092.402326 kJ/mol
# GULP energy per Si atom -5577.310058 kJ/mol
# Density = 2.023440 g / cm^3
# Si number density = 20.280562 Si / 1000 Ang^3
#
#
#
# Elastic Constant Matrix: (Units=GPa)
#
#
# Indices 1 2 3 4 5 6 
#
# 1 155.4341 6.4913 136.5536 0.0000 0.0000 0.0000
# 2 6.4913 40.6900 -1.2016 0.0000 0.0000 0.0000
# 3 136.5536 -1.2016 186.3730 0.0000 0.0000 0.0000
# 4 0.0000 0.0000 0.0000 19.4500 0.0000 0.0000
# 5 0.0000 0.0000 0.0000 0.0000 1057.3926 0.0000
# 6 0.0000 0.0000 0.0000 0.0000 0.0000 9.2601
#
#
#
# Elastic Compliance Matrix: (Units=1/GPa)
#
#
# Indices 1 2 3 4 5 6 
#
# 1 0.018502 -0.003353 -0.013578 0.000000 0.000000 0.000000
# 2 -0.003353 0.025188 0.002619 0.000000 0.000000 0.000000
# 3 -0.013578 0.002619 0.015331 0.000000 0.000000 0.000000
# 4 0.000000 0.000000 0.000000 0.051414 0.000000 0.000000
# 5 0.000000 0.000000 0.000000 0.000000 0.000946 0.000000
# 6 0.000000 0.000000 0.000000 0.000000 0.000000 0.107990
#
#
# Mechanical properties :
#
#
# Convention : Reuss Voigt Hill
#
# Bulk Modulus (GPa) = 32.89712 74.02041 53.45876
# Shear Modulus (GPa) = 19.37021 233.26411 126.31716
#
# Velocity S-wave (km/s) = 3.09384 10.73631 7.90064
# Velocity P-wave (km/s) = 5.38690 13.79378 10.47108
#
# Compressibility (1/GPa) = 0.03039780
#
# Stress axis : x y z
#
# Youngs Moduli (GPa) = 54.04690 39.70103 65.22708
#
# Poissons Ratio (x) = 0.13310 0.88566
# Poissons Ratio (y) = 0.18120 -0.17082
# Poissons Ratio (z) = 0.73386 -0.10397
#
# Static dielectric constant tensor:
#      x y z
#    x 1.703560 0.000000 0.000000 
#    y 0.000000 1.765880 0.000000 
#    z 0.000000 0.000000 1.713090 
# 
# From -- ./inp_files/13068.got.cif
#   From: 2010.05.17/outbox.cif.g08.bks.cpg/sg47_7_cif.got.tgz:13068.got - 2010.06.03 20:15:42.
