data_PCOD9387597
_publ_section_title
;
Structure prediction by ZEFSAII (Michael W. Deem and Ramdas Pophale) SiO2 
 PCOD9387597
Probable space group: P M M M
;
_chemical_formula_sum "Si O2"
_cell_formula_units_Z 48
_cell_length_a 10.320288
_cell_length_b 30.006111
_cell_length_c 7.736201
_cell_angle_alpha 90.000000
_cell_angle_beta 90.000000
_cell_angle_gamma 90.000000
_cell_volume 2395.682572
_symmetry_space_group_name_H-M "P M M M"
_symmetry_group_IT_number 47
_symmetry_cell_setting 'orthorhombic'
loop_
_space_group_symop_operation_xyz
x,y,z
-x,-y,z
x,-y,-z
-x,y,-z
-x,-y,-z
x,y,-z
-x,y,z
x,-y,z
loop_
_atom_site_type_symbol
_atom_site_label
_atom_site_fract_x
_atom_site_fract_y
_atom_site_fract_z
Si Si1 0.352881 0.774233 0.292636
Si Si2 0.244466 0.393347 0.794771
Si Si3 0.000000 0.449379 0.788240
Si Si4 0.851644 0.297206 0.295659
Si Si5 0.500000 0.448721 0.705924
Si Si6 0.148097 0.949325 0.211129
Si Si7 0.646709 0.123421 0.208743
O O1 0.358058 0.768271 0.500000
O O2 0.500000 0.765507 0.226586
O O3 0.241727 0.741450 0.223121
O O4 0.321514 0.825802 0.257167
O O5 0.223519 0.343915 0.723815
O O6 0.375380 0.419932 0.758217
O O7 0.126423 0.423444 0.728919
O O8 0.231740 0.389076 0.000000
O O9 0.000000 0.500000 0.730185
O O10 0.000000 0.449698 0.000000
O O11 0.864546 0.288738 0.500000
O O12 0.000000 0.299832 0.225596
O O13 0.500000 0.500000 0.774776
O O14 0.500000 0.451984 0.500000
O O15 0.249684 0.912552 0.272100
O O16 0.000000 0.939864 0.264115
O O17 0.180705 0.000000 0.263405
O O18 0.149360 0.948806 0.000000
O O19 0.500000 0.114175 0.269783
O O20 0.645521 0.121115 0.000000
#
# Coordination Sequence:
#
# PCOD9387597 Si02
#       7
#     8   8   4   8   4   8   8
#     4   9  19  35  53  72  98 138 178 213 261 319
#     4  11  22  38  60  87 116 146 182 225 273 322
#     4   9  18  34  57  83 113 145 175 213 264 319
#     4  10  21  37  56  79 109 142 178 221 268 322
#     4  11  25  43  61  85 117 151 187 225 266 317
#     4   8  14  25  42  66  97 131 165 202 250 308
#     4   9  17  29  46  71  99 125 161 213 262 303
#
# _framework density 20.036045000000001
#
# number of rings (size 3 to 8) (size 9 to 14) (size 15 to 20)
#    0.000    2.500    0.833    1.750    1.167    3.000 
#    0.000    1.667    0.000    2.500    0.000    3.500 
#    0.000    0.000    0.000    0.000    0.000    0.000 
#
# Total GULP energy -267817.664478 kJ/mol
# GULP energy per Si atom -5579.534677 kJ/mol
# Density = 1.999044 g / cm^3
# Si number density = 20.036045 Si / 1000 Ang^3
#
#
#
# Elastic Constant Matrix: (Units=GPa)
#
#
# Indices 1 2 3 4 5 6 
#
# 1 177.9703 132.4681 0.0131 0.0000 0.0000 0.0000
# 2 132.4681 178.7933 -3.8231 0.0000 0.0000 0.0000
# 3 0.0131 -3.8231 29.9300 0.0000 0.0000 0.0000
# 4 0.0000 0.0000 0.0000 18.1815 0.0000 0.0000
# 5 0.0000 0.0000 0.0000 0.0000 -1.5901 0.0000
# 6 0.0000 0.0000 0.0000 0.0000 0.0000 43.0108
#
#
#
# Elastic Compliance Matrix: (Units=1/GPa)
#
#
# Indices 1 2 3 4 5 6 
#
# 1 0.012570 -0.009339 -0.001198 0.000000 0.000000 0.000000
# 2 -0.009339 0.012547 0.001607 0.000000 0.000000 0.000000
# 3 -0.001198 0.001607 0.033617 0.000000 0.000000 0.000000
# 4 0.000000 0.000000 0.000000 0.055001 0.000000 0.000000
# 5 0.000000 0.000000 0.000000 0.000000 -0.628894 0.000000
# 6 0.000000 0.000000 0.000000 0.000000 0.000000 0.023250
#
#
# Mechanical properties :
#
#
# Convention : Reuss Voigt Hill
#
# Bulk Modulus (GPa) = 24.46621 71.55665 48.01143
# Shear Modulus (GPa) = -10.85956 29.12281 9.13163
#
# Velocity S-wave (km/s) = -2.33062 3.81664 2.13717
# Velocity P-wave (km/s) = 2.23500 7.43060 5.48676
#
# Compressibility (1/GPa) = 0.04087269
#
# Stress axis : x y z
#
# Youngs Moduli (GPa) = 79.55326 79.70288 29.74682
#
# Poissons Ratio (x) = 0.74434 0.03565
# Poissons Ratio (y) = 0.74294 -0.04779
# Poissons Ratio (z) = 0.09534 -0.12806
#
# Static dielectric constant tensor:
#      x y z
#    x 1.714330 0.000000 0.000000 
#    y 0.000000 1.679000 0.000000 
#    z 0.000000 0.000000 1.734240 
# 
# From -- ./inp_files/2812.got.cif
#   From: 2010.05.17/outbox.cif.g08.bks.cpg/sg47_2_cif.got.tgz:2812.got - 2010.06.03 20:15:42.
