data_PCOD9387838
_publ_section_title
;
Structure prediction by ZEFSAII (Michael W. Deem and Ramdas Pophale) SiO2 
 PCOD9387838
Probable space group: P M M M
;
_chemical_formula_sum "Si O2"
_cell_formula_units_Z 40
_cell_length_a 7.685725
_cell_length_b 30.861053
_cell_length_c 8.756011
_cell_angle_alpha 90.000000
_cell_angle_beta 90.000000
_cell_angle_gamma 90.000000
_cell_volume 2076.834454
_symmetry_space_group_name_H-M "P M M M"
_symmetry_group_IT_number 47
_symmetry_cell_setting 'orthorhombic'
loop_
_space_group_symop_operation_xyz
x,y,z
-x,-y,z
x,-y,-z
-x,y,-z
-x,-y,-z
x,y,-z
-x,y,z
x,-y,z
loop_
_atom_site_type_symbol
_atom_site_label
_atom_site_fract_x
_atom_site_fract_y
_atom_site_fract_z
Si Si1 0.500000 0.751963 0.186275
Si Si2 0.500000 0.652104 0.183613
Si Si3 0.705768 0.000000 0.673955
Si Si4 0.211339 0.500000 0.175056
Si Si5 0.792079 0.093182 0.326092
Si Si6 0.200929 0.183259 0.816155
Si Si7 0.204453 0.591732 0.682702
O O1 0.500000 0.702166 0.234705
O O2 0.329868 0.778843 0.235603
O O3 0.500000 0.751911 0.000000
O O4 0.669908 0.627286 0.244788
O O5 0.500000 0.650691 0.000000
O O6 0.754672 0.953884 0.745415
O O7 0.500000 0.000000 0.661792
O O8 0.782775 0.000000 0.500000
O O9 0.261893 0.455729 0.258441
O O10 0.000000 0.500000 0.174726
O O11 0.271364 0.500000 0.000000
O O12 0.722201 0.092992 0.500000
O O13 0.733612 0.136390 0.240851
O O14 0.000000 0.096346 0.333409
O O15 0.000000 0.189756 0.766274
O O16 0.201062 0.182598 0.000000
O O17 0.217324 0.592929 0.500000
O O18 0.000000 0.597872 0.724220
#
# Coordination Sequence:
#
# PCOD9387838 Si02
#       7
#     4   4   4   4   8   8   8
#     4   9  20  37  56  77 102 133 172 219 268 321
#     4  11  23  38  58  85 112 144 192 241 284 333
#     4   9  17  27  42  67  98 130 163 196 240 299
#     4   9  17  32  57  88 118 151 195 240 277 320
#     4   9  17  30  48  70  96 127 163 203 247 298
#     4   9  18  34  55  76  99 130 167 209 260 315
#     4  10  21  38  59  84 119 158 191 229 282 340
#
# _framework density 19.260082000000001
#
# number of rings (size 3 to 8) (size 9 to 14) (size 15 to 20)
#    0.000    2.600    0.000    1.500    1.400    4.800 
#    0.000    6.500    0.000    5.400    0.000    0.000 
#    0.000    0.000    0.000    0.000    0.000    0.000 
#
# Total GULP energy -223078.855745 kJ/mol
# GULP energy per Si atom -5576.971394 kJ/mol
# Density = 1.921625 g / cm^3
# Si number density = 19.260082 Si / 1000 Ang^3
#
#
#
# Elastic Constant Matrix: (Units=GPa)
#
#
# Indices 1 2 3 4 5 6 
#
# 1 94.9044 86.8198 30.7682 0.0000 0.0000 0.0000
# 2 86.8198 223.4704 42.5958 0.0000 0.0000 0.0000
# 3 30.7682 42.5958 34.5893 0.0000 0.0000 0.0000
# 4 0.0000 0.0000 0.0000 39.6413 0.0000 0.0000
# 5 0.0000 0.0000 0.0000 0.0000 17.7908 0.0000
# 6 0.0000 0.0000 0.0000 0.0000 0.0000 32.9180
#
#
#
# Elastic Compliance Matrix: (Units=1/GPa)
#
#
# Indices 1 2 3 4 5 6 
#
# 1 0.018679 -0.005344 -0.010034 0.000000 0.000000 0.000000
# 2 -0.005344 0.007377 -0.004330 0.000000 0.000000 0.000000
# 3 -0.010034 -0.004330 0.043169 0.000000 0.000000 0.000000
# 4 0.000000 0.000000 0.000000 0.025226 0.000000 0.000000
# 5 0.000000 0.000000 0.000000 0.000000 0.056209 0.000000
# 6 0.000000 0.000000 0.000000 0.000000 0.000000 0.030379
#
#
# Mechanical properties :
#
#
# Convention : Reuss Voigt Hill
#
# Bulk Modulus (GPa) = 33.54899 74.81465 54.18182
# Shear Modulus (GPa) = 21.70225 30.92204 26.31214
#
# Velocity S-wave (km/s) = 3.36043 4.01121 3.70016
# Velocity P-wave (km/s) = 5.70205 7.77058 6.81525
#
# Compressibility (1/GPa) = 0.02980716
#
# Stress axis : x y z
#
# Youngs Moduli (GPa) = 53.53573 135.56518 23.16491
#
# Poissons Ratio (x) = 0.72451 0.23244
# Poissons Ratio (y) = 0.28611 0.10030
# Poissons Ratio (z) = 0.53719 0.58700
#
# Static dielectric constant tensor:
#      x y z
#    x 1.686050 0.000000 0.000000 
#    y 0.000000 1.666740 0.000000 
#    z 0.000000 0.000000 1.668740 
# 
# From -- ./inp_files/1899.got.cif
#   From: 2010.05.17/outbox.cif.g08.bks.cpg/sg47_1_cif.got.tgz:1899.got - 2010.06.03 20:15:42.
