data_PCOD9387157
_publ_section_title
;
Structure prediction by ZEFSAII (Michael W. Deem and Ramdas Pophale) SiO2 
 PCOD9387157
Probable space group: P M M M
;
_chemical_formula_sum "Si O2"
_cell_formula_units_Z 48
_cell_length_a 7.801005
_cell_length_b 15.836685
_cell_length_c 18.163096
_cell_angle_alpha 90.000000
_cell_angle_beta 90.000000
_cell_angle_gamma 90.000000
_cell_volume 2243.906275
_symmetry_space_group_name_H-M "P M M M"
_symmetry_group_IT_number 47
_symmetry_cell_setting 'orthorhombic'
loop_
_space_group_symop_operation_xyz
x,y,z
-x,-y,z
x,-y,-z
-x,y,-z
-x,-y,-z
x,y,-z
-x,y,z
x,-y,z
loop_
_atom_site_type_symbol
_atom_site_label
_atom_site_fract_x
_atom_site_fract_y
_atom_site_fract_z
Si Si1 0.799025 0.000000 0.416529
Si Si2 0.302055 0.751882 0.818819
Si Si3 0.798722 0.680814 0.411728
Si Si4 0.790673 0.500000 0.414449
Si Si5 0.205101 0.907162 0.912594
Si Si6 0.290574 0.403081 0.084856
Si Si7 0.308140 0.836193 0.325789
O O1 0.759871 0.917380 0.368270
O O2 0.720689 0.000000 0.500000
O O3 0.000000 0.000000 0.426902
O O4 0.500000 0.730692 0.800011
O O5 0.295643 0.827722 0.877074
O O6 0.228683 0.667977 0.857745
O O7 0.220522 0.794416 0.746102
O O8 0.789764 0.676851 0.500000
O O9 0.738542 0.589712 0.381519
O O10 0.695377 0.759273 0.382733
O O11 0.000000 0.692542 0.393099
O O12 0.734843 0.500000 0.500000
O O13 0.000000 0.500000 0.415615
O O14 0.000000 0.899877 0.900031
O O15 0.259437 0.000000 0.884193
O O16 0.232317 0.906450 0.000000
O O17 0.500000 0.400475 0.085092
O O18 0.240670 0.500000 0.101989
O O19 0.238229 0.384527 0.000000
O O20 0.500000 0.859809 0.302738
#
# Coordination Sequence:
#
# PCOD9387157 Si02
#       7
#     4   8   8   4   8   8   8
#     4  11  25  45  67  85 100 135 194 241 277 340
#     4  10  21  35  52  79 113 146 183 224 268 325
#     4   9  17  33  57  81 105 139 186 230 267 321
#     4   7  12  26  51  79 103 131 172 223 266 303
#     4   9  19  35  54  78 107 140 179 222 270 322
#     4   8  14  28  53  81 107 142 190 234 265 301
#     4  11  24  38  53  82 118 147 175 224 290 341
#
# _framework density 21.391269000000001
#
# number of rings (size 3 to 8) (size 9 to 14) (size 15 to 20)
#    0.000    2.667    0.000    3.750    1.167    5.667 
#    1.500    1.250    0.000    2.000    0.000    2.333 
#    0.000    0.000    0.000    0.000    0.000    0.000 
#
# Total GULP energy -267507.693568 kJ/mol
# GULP energy per Si atom -5573.076949 kJ/mol
# Density = 2.134258 g / cm^3
# Si number density = 21.391269 Si / 1000 Ang^3
#
#
#
# Elastic Constant Matrix: (Units=GPa)
#
#
# Indices 1 2 3 4 5 6 
#
# 1 25.1206 16.3985 17.9053 0.0000 0.0000 0.0000
# 2 16.3985 192.4450 78.0414 0.0000 0.0000 0.0000
# 3 17.9053 78.0414 91.1281 0.0000 0.0000 0.0000
# 4 0.0000 0.0000 0.0000 163.2338 0.0000 0.0000
# 5 0.0000 0.0000 0.0000 0.0000 -3.9513 0.0000
# 6 0.0000 0.0000 0.0000 0.0000 0.0000 4.8784
#
#
#
# Elastic Compliance Matrix: (Units=1/GPa)
#
#
# Indices 1 2 3 4 5 6 
#
# 1 0.046310 -0.000392 -0.008763 0.000000 0.000000 0.000000
# 2 -0.000392 0.007964 -0.006744 0.000000 0.000000 0.000000
# 3 -0.008763 -0.006744 0.018471 0.000000 0.000000 0.000000
# 4 0.000000 0.000000 0.000000 0.006126 0.000000 0.000000
# 5 0.000000 0.000000 0.000000 0.000000 -0.253081 0.000000
# 6 0.000000 0.000000 0.000000 0.000000 0.000000 0.204986
#
#
# Mechanical properties :
#
#
# Convention : Reuss Voigt Hill
#
# Bulk Modulus (GPa) = 24.42190 59.26490 41.84340
# Shear Modulus (GPa) = 65.59692 45.92209 55.75951
#
# Velocity S-wave (km/s) = 5.54363 4.63835 5.11107
# Velocity P-wave (km/s) = 7.23998 7.51339 7.37795
#
# Compressibility (1/GPa) = 0.04094686
#
# Stress axis : x y z
#
# Youngs Moduli (GPa) = 21.59350 125.55846 54.14038
#
# Poissons Ratio (x) = 0.04928 0.47444
# Poissons Ratio (y) = 0.00848 0.36510
# Poissons Ratio (z) = 0.18923 0.84671
#
# Static dielectric constant tensor:
#      x y z
#    x 1.817250 0.000000 0.000000 
#    y 0.000000 1.783990 0.000000 
#    z 0.000000 0.000000 2.079610 
# 
# From -- ./inp_files/24455.got.cif
#   From: 2010.05.17/outbox.cif.g08.bks.cpg/sg47_13_cif.got.tgz:24455.got - 2010.06.03 20:15:42.
