data_PCOD9387887
_publ_section_title
;
Structure prediction by ZEFSAII (Michael W. Deem and Ramdas Pophale) SiO2 
 PCOD9387887
Probable space group: P M M M
;
_chemical_formula_sum "Si O2"
_cell_formula_units_Z 48
_cell_length_a 8.851393
_cell_length_b 17.288563
_cell_length_c 16.350228
_cell_angle_alpha 90.000000
_cell_angle_beta 90.000000
_cell_angle_gamma 90.000000
_cell_volume 2502.040492
_symmetry_space_group_name_H-M "P M M M"
_symmetry_group_IT_number 47
_symmetry_cell_setting 'orthorhombic'
loop_
_space_group_symop_operation_xyz
x,y,z
-x,-y,z
x,-y,-z
-x,y,-z
-x,-y,-z
x,y,-z
-x,y,z
x,-y,z
loop_
_atom_site_type_symbol
_atom_site_label
_atom_site_fract_x
_atom_site_fract_y
_atom_site_fract_z
Si Si1 0.825743 0.500000 0.597953
Si Si2 0.674336 0.500000 0.097971
Si Si3 0.681656 0.178321 0.409011
Si Si4 0.319653 0.342400 0.661964
Si Si5 0.816362 0.821171 0.090041
Si Si6 0.180827 0.658086 0.839226
Si Si7 0.182367 0.090375 0.253766
O O1 0.822570 0.500000 0.500000
O O2 0.745226 0.577112 0.629506
O O3 0.000000 0.500000 0.626009
O O4 0.500000 0.500000 0.125361
O O5 0.753953 0.577206 0.129863
O O6 0.679040 0.500000 0.000000
O O7 0.732107 0.154090 0.500000
O O8 0.500000 0.169842 0.405163
O O9 0.715387 0.269274 0.395560
O O10 0.752566 0.131676 0.334010
O O11 0.500000 0.348159 0.669904
O O12 0.246169 0.326023 0.749633
O O13 0.777533 0.731173 0.104421
O O14 0.764959 0.869181 0.169297
O O15 0.000000 0.826058 0.089835
O O16 0.763933 0.846978 0.000000
O O17 0.000000 0.653619 0.835734
O O18 0.000000 0.096997 0.256262
O O19 0.222079 0.000000 0.253232
#
# Coordination Sequence:
#
# PCOD9387887 Si02
#       7
#     4   4   8   8   8   8   8
#     4  11  24  39  56  83 117 153 196 244 295 350
#     4  11  24  39  54  79 117 157 200 248 297 348
#     4  10  22  40  62  87 117 157 201 243 292 353
#     4  11  22  38  60  84 115 154 199 246 295 350
#     4   9  18  34  58  88 120 154 193 238 290 349
#     4  11  21  36  59  84 115 154 199 246 294 348
#     4  10  21  38  61  90 122 153 191 243 299 355
#
# _framework density 19.184342000000001
#
# number of rings (size 3 to 8) (size 9 to 14) (size 15 to 20)
#    0.000    1.667    1.667    3.000    0.000    4.667 
#    0.000    3.333    0.000    1.500    0.000    1.167 
#    0.000    0.000    0.000    0.000    0.000    0.000 
#
# Total GULP energy -268143.468545 kJ/mol
# GULP energy per Si atom -5586.322261 kJ/mol
# Density = 1.914068 g / cm^3
# Si number density = 19.184342 Si / 1000 Ang^3
#
#
#
# Elastic Constant Matrix: (Units=GPa)
#
#
# Indices 1 2 3 4 5 6 
#
# 1 48.9887 40.2020 33.9984 0.0000 0.0000 0.0000
# 2 40.2020 130.1317 75.1371 0.0000 0.0000 0.0000
# 3 33.9984 75.1371 163.9565 0.0000 0.0000 0.0000
# 4 0.0000 0.0000 0.0000 10.9800 0.0000 0.0000
# 5 0.0000 0.0000 0.0000 0.0000 19.8254 0.0000
# 6 0.0000 0.0000 0.0000 0.0000 0.0000 30.5189
#
#
#
# Elastic Compliance Matrix: (Units=1/GPa)
#
#
# Indices 1 2 3 4 5 6 
#
# 1 0.028087 -0.007226 -0.002513 0.000000 0.000000 0.000000
# 2 -0.007226 0.012309 -0.004142 0.000000 0.000000 0.000000
# 3 -0.002513 -0.004142 0.008519 0.000000 0.000000 0.000000
# 4 0.000000 0.000000 0.000000 0.091075 0.000000 0.000000
# 5 0.000000 0.000000 0.000000 0.000000 0.050440 0.000000
# 6 0.000000 0.000000 0.000000 0.000000 0.000000 0.032767
#
#
# Mechanical properties :
#
#
# Convention : Reuss Voigt Hill
#
# Bulk Modulus (GPa) = 47.27739 71.30576 59.29158
# Shear Modulus (GPa) = 19.37925 25.18083 22.28004
#
# Velocity S-wave (km/s) = 3.18175 3.62687 3.41158
# Velocity P-wave (km/s) = 6.18023 7.40192 6.81849
#
# Compressibility (1/GPa) = 0.02115176
#
# Stress axis : x y z
#
# Youngs Moduli (GPa) = 35.60413 81.24362 117.39155
#
# Poissons Ratio (x) = 0.58708 0.29495
# Poissons Ratio (y) = 0.25728 0.48627
# Poissons Ratio (z) = 0.08946 0.33654
#
# Static dielectric constant tensor:
#      x y z
#    x 1.649150 0.000000 0.000000 
#    y 0.000000 1.655660 0.000000 
#    z 0.000000 0.000000 1.670990 
# 
# From -- ./inp_files/21085.got.cif
#   From: 2010.05.17/outbox.cif.g08.bks.cpg/sg47_11_cif.got.tgz:21085.got - 2010.06.03 20:15:42.
