data_PCOD9387656
_publ_section_title
;
Structure prediction by ZEFSAII (Michael W. Deem and Ramdas Pophale) SiO2 
 PCOD9387656
Probable space group: P M M M
;
_chemical_formula_sum "Si O2"
_cell_formula_units_Z 36
_cell_length_a 25.658669
_cell_length_b 9.383780
_cell_length_c 7.907209
_cell_angle_alpha 90.000000
_cell_angle_beta 90.000000
_cell_angle_gamma 90.000000
_cell_volume 1903.860659
_symmetry_space_group_name_H-M "P M M M"
_symmetry_group_IT_number 47
_symmetry_cell_setting 'orthorhombic'
loop_
_space_group_symop_operation_xyz
x,y,z
-x,-y,z
x,-y,-z
-x,y,-z
-x,-y,-z
x,y,-z
-x,y,z
x,-y,z
loop_
_atom_site_type_symbol
_atom_site_label
_atom_site_fract_x
_atom_site_fract_y
_atom_site_fract_z
Si Si1 0.941424 0.663292 0.704161
Si Si2 0.840779 0.160193 0.799348
Si Si3 0.440574 0.826917 0.000000
Si Si4 0.260051 0.660798 0.297822
Si Si5 0.363616 0.828813 0.699368
O O1 0.941716 0.662032 0.500000
O O2 0.931238 0.500000 0.759964
O O3 0.895913 0.767237 0.759771
O O4 0.000000 0.703046 0.760482
O O5 0.793319 0.257476 0.738563
O O6 0.837701 0.000000 0.727652
O O7 0.835952 0.151192 0.000000
O O8 0.409027 0.786789 0.830184
O O9 0.500000 0.774878 0.000000
O O10 0.442202 0.000000 0.000000
O O11 0.264159 0.651016 0.500000
O O12 0.259651 0.500000 0.228101
O O13 0.310549 0.750838 0.244507
O O14 0.374371 0.796527 0.500000
O O15 0.356398 0.000000 0.710439
#
# Coordination Sequence:
#
# PCOD9387656 Si02
#       5
#     8   8   4   8   8
#     4   9  19  37  59  80 103 135 177 223 269 320
#     4  11  24  37  51  77 111 143 176 219 270 324
#     4   9  18  32  53  83 115 147 186 231 274 323
#     4  10  21  37  57  80 106 138 179 227 276 327
#     4   9  18  33  54  80 111 147 185 229 280 329
#
# _framework density 18.908946
#
# number of rings (size 3 to 8) (size 9 to 14) (size 15 to 20)
#    0.000    2.333    0.000    2.667    1.556    7.556 
#    0.000    5.556    0.000    1.333    0.000    3.111 
#    0.000    0.000    0.000    0.000    0.000    0.000 
#
# Total GULP energy -200857.579171 kJ/mol
# GULP energy per Si atom -5579.377199 kJ/mol
# Density = 1.886591 g / cm^3
# Si number density = 18.908946 Si / 1000 Ang^3
#
#
#
# Elastic Constant Matrix: (Units=GPa)
#
#
# Indices 1 2 3 4 5 6 
#
# 1 166.7510 80.4648 38.1486 0.0000 0.0000 0.0000
# 2 80.4648 93.6269 29.3363 0.0000 0.0000 0.0000
# 3 38.1486 29.3363 45.2654 0.0000 0.0000 0.0000
# 4 0.0000 0.0000 0.0000 32.3562 0.0000 0.0000
# 5 0.0000 0.0000 0.0000 0.0000 40.2052 0.0000
# 6 0.0000 0.0000 0.0000 0.0000 0.0000 15.6283
#
#
#
# Elastic Compliance Matrix: (Units=1/GPa)
#
#
# Indices 1 2 3 4 5 6 
#
# 1 0.010757 -0.008036 -0.003858 0.000000 0.000000 0.000000
# 2 -0.008036 0.019406 -0.005804 0.000000 0.000000 0.000000
# 3 -0.003858 -0.005804 0.029105 0.000000 0.000000 0.000000
# 4 0.000000 0.000000 0.000000 0.030906 0.000000 0.000000
# 5 0.000000 0.000000 0.000000 0.000000 0.024872 0.000000
# 6 0.000000 0.000000 0.000000 0.000000 0.000000 0.063986
#
#
# Mechanical properties :
#
#
# Convention : Reuss Voigt Hill
#
# Bulk Modulus (GPa) = 41.89057 66.83808 54.36433
# Shear Modulus (GPa) = 22.48340 28.15084 25.31712
#
# Velocity S-wave (km/s) = 3.45198 3.86263 3.66306
# Velocity P-wave (km/s) = 6.17172 7.43756 6.83401
#
# Compressibility (1/GPa) = 0.02387172
#
# Stress axis : x y z
#
# Youngs Moduli (GPa) = 92.95881 51.53069 34.35876
#
# Poissons Ratio (x) = 0.41412 0.13255
# Poissons Ratio (y) = 0.74705 0.19942
# Poissons Ratio (z) = 0.35861 0.29908
#
# Static dielectric constant tensor:
#      x y z
#    x 1.631440 0.000000 0.000000 
#    y 0.000000 1.671340 0.000000 
#    z 0.000000 0.000000 1.672040 
# 
# From -- ./inp_files/12057.got.cif
#   From: 2010.05.17/outbox.cif.g08.bks.cpg/sg47_7_cif.got.tgz:12057.got - 2010.06.03 20:15:42.
