data_PCOD9387712
_publ_section_title
;
Structure prediction by ZEFSAII (Michael W. Deem and Ramdas Pophale) SiO2 
 PCOD9387712
Probable space group: P M M M
;
_chemical_formula_sum "Si O2"
_cell_formula_units_Z 48
_cell_length_a 29.443474
_cell_length_b 8.756417
_cell_length_c 10.254811
_cell_angle_alpha 90.000000
_cell_angle_beta 90.000000
_cell_angle_gamma 90.000000
_cell_volume 2643.888566
_symmetry_space_group_name_H-M "P M M M"
_symmetry_group_IT_number 47
_symmetry_cell_setting 'orthorhombic'
loop_
_space_group_symop_operation_xyz
x,y,z
-x,-y,z
x,-y,-z
-x,y,-z
-x,-y,-z
x,y,-z
-x,y,z
x,-y,z
loop_
_atom_site_type_symbol
_atom_site_label
_atom_site_fract_x
_atom_site_fract_y
_atom_site_fract_z
Si Si1 0.375157 0.818079 0.650122
Si Si2 0.447492 0.316030 0.150900
Si Si3 0.947445 0.314000 0.500000
Si Si4 0.054085 0.823583 0.000000
Si Si5 0.798501 0.183265 0.847074
Si Si6 0.894432 0.316890 0.240552
Si Si7 0.724710 0.683044 0.650442
O O1 0.388339 0.783456 0.500000
O O2 0.412756 0.759739 0.750085
O O3 0.326657 0.738823 0.673935
O O4 0.369572 0.000000 0.661880
O O5 0.500000 0.274302 0.178204
O O6 0.444135 0.500000 0.160838
O O7 0.437766 0.275019 0.000000
O O8 0.949119 0.500000 0.500000
O O9 0.918989 0.267197 0.373446
O O10 0.000000 0.261255 0.500000
O O11 0.073328 0.737515 0.875366
O O12 0.000000 0.822752 0.000000
O O13 0.070139 0.000000 0.000000
O O14 0.845402 0.245167 0.786848
O O15 0.758041 0.245679 0.757112
O O16 0.798478 0.000000 0.844008
O O17 0.795095 0.230602 0.000000
O O18 0.889991 0.500000 0.241661
O O19 0.736668 0.727075 0.500000
O O20 0.726848 0.500000 0.658355
#
# Coordination Sequence:
#
# PCOD9387712 Si02
#       7
#     8   8   4   4   8   8   8
#     4  10  21  37  57  84 118 153 192 238 292 350
#     4   9  19  36  57  82 114 154 200 246 291 342
#     4   9  20  38  59  87 119 147 185 237 284 331
#     4  11  23  39  59  85 119 155 191 235 286 339
#     4  11  24  41  60  85 119 153 188 233 289 347
#     4  11  22  38  62  88 115 150 193 237 284 340
#     4  10  22  40  63  88 114 148 194 242 288 342
#
# _framework density 18.155076999999999
#
# number of rings (size 3 to 8) (size 9 to 14) (size 15 to 20)
#    0.000    1.833    0.833    3.250    1.167    6.000 
#    0.000    3.750    0.000    3.000    0.000    0.000 
#    0.000    0.000    0.000    0.000    0.000    0.000 
#
# Total GULP energy -268095.731898 kJ/mol
# GULP energy per Si atom -5585.327748 kJ/mol
# Density = 1.811376 g / cm^3
# Si number density = 18.155077 Si / 1000 Ang^3
#
#
#
# Elastic Constant Matrix: (Units=GPa)
#
#
# Indices 1 2 3 4 5 6 
#
# 1 135.9319 50.6369 115.2376 0.0000 0.0000 0.0000
# 2 50.6369 55.7457 55.9743 0.0000 0.0000 0.0000
# 3 115.2376 55.9743 181.2205 0.0000 0.0000 0.0000
# 4 0.0000 0.0000 0.0000 32.1074 0.0000 0.0000
# 5 0.0000 0.0000 0.0000 0.0000 61.9385 0.0000
# 6 0.0000 0.0000 0.0000 0.0000 0.0000 41.7679
#
#
#
# Elastic Compliance Matrix: (Units=1/GPa)
#
#
# Indices 1 2 3 4 5 6 
#
# 1 0.017615 -0.006891 -0.009073 0.000000 0.000000 0.000000
# 2 -0.006891 0.028699 -0.004483 0.000000 0.000000 0.000000
# 3 -0.009073 -0.004483 0.012672 0.000000 0.000000 0.000000
# 4 0.000000 0.000000 0.000000 0.031145 0.000000 0.000000
# 5 0.000000 0.000000 0.000000 0.000000 0.016145 0.000000
# 6 0.000000 0.000000 0.000000 0.000000 0.000000 0.023942
#
#
# Mechanical properties :
#
#
# Convention : Reuss Voigt Hill
#
# Bulk Modulus (GPa) = 55.26823 90.73285 73.00054
# Shear Modulus (GPa) = 28.22582 37.23274 32.72928
#
# Velocity S-wave (km/s) = 3.94725 4.53351 4.25050
# Velocity P-wave (km/s) = 7.16120 8.80276 8.02407
#
# Compressibility (1/GPa) = 0.01809358
#
# Stress axis : x y z
#
# Youngs Moduli (GPa) = 56.76839 34.84489 78.91188
#
# Poissons Ratio (x) = 0.24010 0.71599
# Poissons Ratio (y) = 0.39117 0.35373
# Poissons Ratio (z) = 0.51508 0.15619
#
# Static dielectric constant tensor:
#      x y z
#    x 1.591120 0.000000 0.000000 
#    y 0.000000 1.613000 0.000000 
#    z 0.000000 0.000000 1.604690 
# 
# From -- ./inp_files/2562.got.cif
#   From: 2010.05.17/outbox.cif.g08.bks.cpg/sg47_2_cif.got.tgz:2562.got - 2010.06.03 20:15:42.
