data_PCOD9387605
_publ_section_title
;
Structure prediction by ZEFSAII (Michael W. Deem and Ramdas Pophale) SiO2 
 PCOD9387605
Probable space group: P M M M
;
_chemical_formula_sum "Si O2"
_cell_formula_units_Z 41
_cell_length_a 7.677858
_cell_length_b 9.940299
_cell_length_c 25.821899
_cell_angle_alpha 90.000000
_cell_angle_beta 90.000000
_cell_angle_gamma 90.000000
_cell_volume 1970.732604
_symmetry_space_group_name_H-M "P M M M"
_symmetry_group_IT_number 47
_symmetry_cell_setting 'orthorhombic'
loop_
_space_group_symop_operation_xyz
x,y,z
-x,-y,z
x,-y,-z
-x,y,-z
-x,-y,-z
x,y,-z
-x,y,z
x,-y,z
loop_
_atom_site_type_symbol
_atom_site_label
_atom_site_fract_x
_atom_site_fract_y
_atom_site_fract_z
Si Si1 0.293569 0.651370 0.697517
Si Si2 0.206916 0.151482 0.789259
Si Si3 0.711771 0.150654 0.608467
Si Si4 0.286381 0.654601 0.000000
Si Si5 0.500000 0.500000 0.500000
Si Si6 0.709417 0.847952 0.908404
Si Si7 0.195905 0.727470 0.500000
O O1 0.500000 0.639303 0.688415
O O2 0.221696 0.500000 0.700845
O O3 0.272270 0.737356 0.749568
O O4 0.224246 0.739143 0.649665
O O5 0.247576 0.184017 0.848974
O O6 0.000000 0.146189 0.783594
O O7 0.277148 0.000000 0.778727
O O8 0.500000 0.155486 0.607010
O O9 0.779027 0.184689 0.551632
O O10 0.762032 0.000000 0.624637
O O11 0.228946 0.738257 0.050462
O O12 0.229182 0.500000 0.000000
O O13 0.500000 0.653044 0.000000
O O14 0.346768 0.616467 0.500000
O O15 0.500000 0.852164 0.912773
O O16 0.774116 0.000000 0.919436
O O17 0.000000 0.671343 0.500000
#
# Coordination Sequence:
#
# PCOD9387605 Si02
#       7
#     8   8   8   4   1   8   4
#     4  10  22  38  61  89 119 157 201 243 296 356
#     4  10  21  37  56  80 112 150 192 242 294 344
#     4  10  21  40  66  94 127 165 204 256 311 364
#     4   9  17  29  48  77 106 134 172 227 282 335
#     4  12  26  48  66  94 144 168 208 272 308 380
#     4   9  17  31  53  77 103 137 181 228 279 341
#     4  12  26  42  70  99 128 175 215 256 319 375
#
# _framework density 20.804447
#
# number of rings (size 3 to 8) (size 9 to 14) (size 15 to 20)
#    0.000    2.049    0.976    1.902    1.366    6.634 
#    0.000    2.439    0.000    2.927    0.000    0.000 
#    0.000    0.000    0.000    0.000    0.000    0.000 
#
# Total GULP energy -228767.562844 kJ/mol
# GULP energy per Si atom -5579.696655 kJ/mol
# Density = 2.075710 g / cm^3
# Si number density = 20.804447 Si / 1000 Ang^3
#
#
#
# Elastic Constant Matrix: (Units=GPa)
#
#
# Indices 1 2 3 4 5 6 
#
# 1 65.9107 22.4736 -3.0356 0.0000 0.0000 0.0000
# 2 22.4736 198.2013 129.9540 0.0000 0.0000 0.0000
# 3 -3.0356 129.9540 148.9447 0.0000 0.0000 0.0000
# 4 0.0000 0.0000 0.0000 54.0003 0.0000 0.0000
# 5 0.0000 0.0000 0.0000 0.0000 2357.2978 0.0000
# 6 0.0000 0.0000 0.0000 0.0000 0.0000 2.2204
#
#
#
# Elastic Compliance Matrix: (Units=1/GPa)
#
#
# Indices 1 2 3 4 5 6 
#
# 1 0.017121 -0.005071 0.004773 0.000000 0.000000 0.000000
# 2 -0.005071 0.013292 -0.011701 0.000000 0.000000 0.000000
# 3 0.004773 -0.011701 0.017020 0.000000 0.000000 0.000000
# 4 0.000000 0.000000 0.000000 0.018518 0.000000 0.000000
# 5 0.000000 0.000000 0.000000 0.000000 0.000424 0.000000
# 6 0.000000 0.000000 0.000000 0.000000 0.000000 0.450378
#
#
# Mechanical properties :
#
#
# Convention : Reuss Voigt Hill
#
# Bulk Modulus (GPa) = 42.66858 79.09342 60.88100
# Shear Modulus (GPa) = 9.11472 500.28134 254.69803
#
# Velocity S-wave (km/s) = 2.09539 15.52387 11.07658
# Velocity P-wave (km/s) = 5.13888 18.95840 13.88936
#
# Compressibility (1/GPa) = 0.02343645
#
# Stress axis : x y z
#
# Youngs Moduli (GPa) = 58.40783 75.23224 58.75418
#
# Poissons Ratio (x) = 0.38151 -0.28046
# Poissons Ratio (y) = 0.29619 0.68747
# Poissons Ratio (z) = -0.27881 0.88027
#
# Static dielectric constant tensor:
#      x y z
#    x 1.755880 0.000000 0.000000 
#    y 0.000000 1.730670 0.000000 
#    z 0.000000 0.000000 1.707850 
# 
# From -- ./inp_files/33114.got.cif
#   From: 2010.05.17/outbox.cif.g08.bks.cpg/sg47_17_cif.got.tgz:33114.got - 2010.06.03 20:15:42.
