data_PCOD9387567
_publ_section_title
;
Structure prediction by ZEFSAII (Michael W. Deem and Ramdas Pophale) SiO2 
 PCOD9387567
Probable space group: P M M M
;
_chemical_formula_sum "Si O2"
_cell_formula_units_Z 40
_cell_length_a 8.462813
_cell_length_b 26.926722
_cell_length_c 9.441135
_cell_angle_alpha 90.000000
_cell_angle_beta 90.000000
_cell_angle_gamma 90.000000
_cell_volume 2151.406314
_symmetry_space_group_name_H-M "P M M M"
_symmetry_group_IT_number 47
_symmetry_cell_setting 'orthorhombic'
loop_
_space_group_symop_operation_xyz
x,y,z
-x,-y,z
x,-y,-z
-x,y,-z
-x,-y,-z
x,y,-z
-x,y,z
x,-y,z
loop_
_atom_site_type_symbol
_atom_site_label
_atom_site_fract_x
_atom_site_fract_y
_atom_site_fract_z
Si Si1 0.309794 0.795453 0.834193
Si Si2 0.810817 0.500000 0.162972
Si Si3 0.688992 0.405636 0.663078
Si Si4 0.684878 0.000000 0.327357
Si Si5 0.188691 0.687918 0.164857
Si Si6 0.693351 0.892134 0.664748
O O1 0.500000 0.792164 0.819953
O O2 0.237838 0.743070 0.787096
O O3 0.254441 0.844081 0.750817
O O4 0.272278 0.801428 0.000000
O O5 0.754450 0.548614 0.246176
O O6 0.000000 0.500000 0.159662
O O7 0.753216 0.500000 0.000000
O O8 0.745265 0.407738 0.500000
O O9 0.500000 0.409013 0.661865
O O10 0.738781 0.354598 0.737998
O O11 0.751043 0.946380 0.282961
O O12 0.500000 0.000000 0.285861
O O13 0.688422 0.000000 0.500000
O O14 0.000000 0.683463 0.167214
O O15 0.241362 0.682175 0.000000
O O16 0.736078 0.886830 0.500000
O O17 0.500000 0.893555 0.670893
#
# Coordination Sequence:
#
# PCOD9387567 Si02
#       6
#     8   4   8   4   8   8
#     4   9  17  29  45  67  96 127 159 201 253 303
#     4  11  24  41  62  88 116 147 182 215 250 298
#     4  11  24  40  59  85 114 142 175 216 260 304
#     4   7  10  18  33  55  84 117 152 192 240 293
#     4  10  21  37  56  77 102 136 177 216 257 309
#     4   8  13  22  38  60  87 120 157 196 241 297
#
# _framework density 18.592490999999999
#
# number of rings (size 3 to 8) (size 9 to 14) (size 15 to 20)
#    0.000    2.600    0.000    3.600    0.000    8.000 
#    0.000    2.500    0.000    3.000    0.000    0.700 
#    0.000    5.600    0.000    0.000    0.000    0.000 
#
# Total GULP energy -223074.756768 kJ/mol
# GULP energy per Si atom -5576.868919 kJ/mol
# Density = 1.855017 g / cm^3
# Si number density = 18.592491 Si / 1000 Ang^3
#
#
#
# Elastic Constant Matrix: (Units=GPa)
#
#
# Indices 1 2 3 4 5 6 
#
# 1 18.0618 33.5271 25.0660 0.0000 0.0000 0.0000
# 2 33.5271 201.3204 100.1889 0.0000 0.0000 0.0000
# 3 25.0660 100.1889 100.6562 0.0000 0.0000 0.0000
# 4 0.0000 0.0000 0.0000 38.6126 0.0000 0.0000
# 5 0.0000 0.0000 0.0000 0.0000 14.9441 0.0000
# 6 0.0000 0.0000 0.0000 0.0000 0.0000 -101.0708
#
#
#
# Elastic Compliance Matrix: (Units=1/GPa)
#
#
# Indices 1 2 3 4 5 6 
#
# 1 0.090126 -0.007609 -0.014870 0.000000 0.000000 0.000000
# 2 -0.007609 0.010485 -0.008542 0.000000 0.000000 0.000000
# 3 -0.014870 -0.008542 0.022140 0.000000 0.000000 0.000000
# 4 0.000000 0.000000 0.000000 0.025898 0.000000 0.000000
# 5 0.000000 0.000000 0.000000 0.000000 0.066916 0.000000
# 6 0.000000 0.000000 0.000000 0.000000 0.000000 -0.009894
#
#
# Mechanical properties :
#
#
# Convention : Reuss Voigt Hill
#
# Bulk Modulus (GPa) = 16.47183 70.84472 43.65827
# Shear Modulus (GPa) = 17.36414 1.24761 9.30588
#
# Velocity S-wave (km/s) = 3.05935 0.82005 2.23965
# Velocity P-wave (km/s) = 4.62148 6.25166 5.49734
#
# Compressibility (1/GPa) = 0.06070970
#
# Stress axis : x y z
#
# Youngs Moduli (GPa) = 11.09556 95.37198 45.16730
#
# Poissons Ratio (x) = 0.72569 0.67164
# Poissons Ratio (y) = 0.08443 0.38581
# Poissons Ratio (z) = 0.16499 0.81464
#
# Static dielectric constant tensor:
#      x y z
#    x 1.633590 0.000000 0.000000 
#    y 0.000000 1.642890 0.000000 
#    z 0.000000 0.000000 1.631960 
# 
# From -- ./inp_files/1810.got.cif
#   From: 2010.05.17/outbox.cif.g08.bks.cpg/sg47_1_cif.got.tgz:1810.got - 2010.06.03 20:15:42.
