data_PCOD9387182
_publ_section_title
;
Structure prediction by ZEFSAII (Michael W. Deem and Ramdas Pophale) SiO2 
 PCOD9387182
Probable space group: P M M M
;
_chemical_formula_sum "Si O2"
_cell_formula_units_Z 56
_cell_length_a 9.042405
_cell_length_b 21.132356
_cell_length_c 15.045579
_cell_angle_alpha 90.000000
_cell_angle_beta 90.000000
_cell_angle_gamma 90.000000
_cell_volume 2875.019392
_symmetry_space_group_name_H-M "P M M M"
_symmetry_group_IT_number 47
_symmetry_cell_setting 'orthorhombic'
loop_
_space_group_symop_operation_xyz
x,y,z
-x,-y,z
x,-y,-z
-x,y,-z
-x,-y,-z
x,y,-z
-x,y,z
x,-y,z
loop_
_atom_site_type_symbol
_atom_site_label
_atom_site_fract_x
_atom_site_fract_y
_atom_site_fract_z
Si Si1 0.676973 0.106278 0.219596
Si Si2 0.819690 0.500000 0.102438
Si Si3 0.169307 0.093855 0.401737
Si Si4 0.673636 0.423767 0.601782
Si Si5 0.827172 0.000000 0.105777
Si Si6 0.165773 0.246369 0.599406
Si Si7 0.176644 0.379370 0.218318
Si Si8 0.327208 0.747053 0.773794
O O1 0.500000 0.103373 0.216550
O O2 0.732276 0.081248 0.315817
O O3 0.749631 0.061522 0.146886
O O4 0.720564 0.180437 0.206581
O O5 0.772547 0.562699 0.155791
O O6 0.000000 0.500000 0.102532
O O7 0.771211 0.500000 0.000000
O O8 0.220633 0.072945 0.500000
O O9 0.162425 0.170204 0.405342
O O10 0.000000 0.072096 0.388909
O O11 0.717894 0.408127 0.500000
O O12 0.500000 0.407060 0.612463
O O13 0.684775 0.500000 0.609430
O O14 0.767384 0.394255 0.681632
O O15 0.000000 0.000000 0.130584
O O16 0.814657 0.000000 0.000000
O O17 0.191023 0.269822 0.500000
O O18 0.292478 0.260992 0.668935
O O19 0.000000 0.266412 0.629195
O O20 0.239290 0.311848 0.185621
O O21 0.000000 0.377862 0.217558
O O22 0.500000 0.741613 0.792544
#
# Coordination Sequence:
#
# PCOD9387182 Si02
#       8
#     8   4   8   8   4   8   8   8
#     4  10  21  38  61  89 122 158 194 238 289 343
#     4   9  20  40  62  83 106 134 177 233 292 349
#     4   8  14  27  50  80 116 157 196 235 278 324
#     4   9  18  33  53  78 113 157 198 240 292 345
#     4  11  25  45  70  95 116 145 189 238 292 359
#     4   8  14  26  45  71 105 147 194 236 271 314
#     4  11  21  35  58  85 112 148 192 241 290 338
#     4  10  21  35  53  81 117 154 189 229 283 342
#
# _framework density 19.47813
#
# number of rings (size 3 to 8) (size 9 to 14) (size 15 to 20)
#    0.000    2.571    0.714    2.786    0.000    3.714 
#    0.000    4.643    0.000    8.143    0.000    0.000 
#    0.000    0.000    0.000    0.000    0.000    0.000 
#
# Total GULP energy -312323.680994 kJ/mol
# GULP energy per Si atom -5577.208589 kJ/mol
# Density = 1.943380 g / cm^3
# Si number density = 19.478130 Si / 1000 Ang^3
#
#
#
# Elastic Constant Matrix: (Units=GPa)
#
#
# Indices 1 2 3 4 5 6 
#
# 1 58.3101 51.6169 35.5614 0.0000 0.0000 0.0000
# 2 51.6169 147.8889 54.7732 0.0000 0.0000 0.0000
# 3 35.5614 54.7732 82.8329 0.0000 0.0000 0.0000
# 4 0.0000 0.0000 0.0000 -61.2532 0.0000 0.0000
# 5 0.0000 0.0000 0.0000 0.0000 -86.3617 0.0000
# 6 0.0000 0.0000 0.0000 0.0000 0.0000 23.9461
#
#
#
# Elastic Compliance Matrix: (Units=1/GPa)
#
#
# Indices 1 2 3 4 5 6 
#
# 1 0.027800 -0.006996 -0.007309 0.000000 0.000000 0.000000
# 2 -0.006996 0.010715 -0.004082 0.000000 0.000000 0.000000
# 3 -0.007309 -0.004082 0.017910 0.000000 0.000000 0.000000
# 4 0.000000 0.000000 0.000000 -0.016326 0.000000 0.000000
# 5 0.000000 0.000000 0.000000 0.000000 -0.011579 0.000000
# 6 0.000000 0.000000 0.000000 0.000000 0.000000 0.041760
#
#
# Mechanical properties :
#
#
# Convention : Reuss Voigt Hill
#
# Bulk Modulus (GPa) = 50.88757 63.65942 57.27349
# Shear Modulus (GPa) = 44.01212 -14.92839 14.54187
#
# Velocity S-wave (km/s) = 4.75865 -2.77143 2.73531
# Velocity P-wave (km/s) = 7.50834 4.74472 6.28043
#
# Compressibility (1/GPa) = 0.01965117
#
# Stress axis : x y z
#
# Youngs Moduli (GPa) = 35.97120 93.32306 55.83584
#
# Poissons Ratio (x) = 0.65288 0.40810
# Poissons Ratio (y) = 0.25165 0.22793
# Poissons Ratio (z) = 0.26291 0.38096
#
# Static dielectric constant tensor:
#      x y z
#    x 1.664070 0.000000 0.000000 
#    y 0.000000 1.742590 0.000000 
#    z 0.000000 0.000000 1.668700 
# 
# From -- ./inp_files/21663.got.cif
#   From: 2010.05.17/outbox.cif.g08.bks.cpg/sg47_11_cif.got.tgz:21663.got - 2010.06.03 20:15:42.
