data_PCOD9387158
_publ_section_title
;
Structure prediction by ZEFSAII (Michael W. Deem and Ramdas Pophale) SiO2 
 PCOD9387158
Probable space group: P M M M
;
_chemical_formula_sum "Si O2"
_cell_formula_units_Z 58
_cell_length_a 20.166043
_cell_length_b 7.641927
_cell_length_c 18.288172
_cell_angle_alpha 90.000000
_cell_angle_beta 90.000000
_cell_angle_gamma 90.000000
_cell_volume 2818.343159
_symmetry_space_group_name_H-M "P M M M"
_symmetry_group_IT_number 47
_symmetry_cell_setting 'orthorhombic'
loop_
_space_group_symop_operation_xyz
x,y,z
-x,-y,z
x,-y,-z
-x,y,-z
-x,-y,-z
x,y,-z
-x,y,z
x,-y,z
loop_
_atom_site_type_symbol
_atom_site_label
_atom_site_fract_x
_atom_site_fract_y
_atom_site_fract_z
Si Si1 0.577046 0.787472 0.275774
Si Si2 0.354496 0.706500 0.876967
Si Si3 0.614836 0.000000 0.000000
Si Si4 0.927299 0.210851 0.318921
Si Si5 0.197429 0.293615 0.418004
Si Si6 0.788174 0.708293 0.918885
Si Si7 0.345564 0.796251 0.582821
Si Si8 0.072067 0.209759 0.151515
O O1 0.500000 0.738530 0.275646
O O2 0.611908 0.723665 0.201873
O O3 0.612312 0.722030 0.350081
O O4 0.581307 0.000000 0.275015
O O5 0.358994 0.500000 0.900002
O O6 0.275978 0.757016 0.871684
O O7 0.383734 0.843710 0.935608
O O8 0.864429 0.262822 0.365871
O O9 0.921097 0.272589 0.235131
O O10 0.000000 0.269100 0.346738
O O11 0.928229 0.000000 0.317394
O O12 0.181076 0.230606 0.500000
O O13 0.209464 0.500000 0.420514
O O14 0.267744 0.212067 0.396764
O O15 0.786268 0.500000 0.923633
O O16 0.861267 0.750217 0.891317
O O17 0.777309 0.784020 0.000000
O O18 0.352524 0.721442 0.500000
O O19 0.364365 0.000000 0.577276
O O20 0.000000 0.272385 0.122733
O O21 0.068414 0.000000 0.153817
#
# Coordination Sequence:
#
# PCOD9387158 Si02
#       8
#     8   8   2   8   8   8   8   8
#     4  10  22  41  65  96 132 168 210 258 313 379
#     4  11  24  42  66  99 132 169 217 263 321 387
#     4  12  22  44  73  96 131 174 210 272 324 366
#     4   9  19  36  54  75 106 146 192 242 297 359
#     4  10  21  35  52  79 114 150 193 246 299 357
#     4  10  22  38  57  83 115 151 197 249 298 364
#     4   9  19  37  62  91 125 166 211 258 311 372
#     4   9  20  36  54  79 110 147 194 245 301 365
#
# _framework density 20.579467000000001
#
# number of rings (size 3 to 8) (size 9 to 14) (size 15 to 20)
#    0.000    2.207    1.379    1.448    2.897    3.862 
#    0.000    6.207    0.000    0.828    0.000    2.897 
#    0.000    0.000    0.000    0.000    0.000    0.000 
#
# Total GULP energy -322951.315464 kJ/mol
# GULP energy per Si atom -5568.126129 kJ/mol
# Density = 2.053263 g / cm^3
# Si number density = 20.579467 Si / 1000 Ang^3
#
#
#
# Elastic Constant Matrix: (Units=GPa)
#
#
# Indices 1 2 3 4 5 6 
#
# 1 140.6029 12.4679 101.0930 0.0000 0.0000 0.0000
# 2 12.4679 75.0306 23.7826 0.0000 0.0000 0.0000
# 3 101.0930 23.7826 125.4339 0.0000 0.0000 0.0000
# 4 0.0000 0.0000 0.0000 20.0533 0.0000 0.0000
# 5 0.0000 0.0000 0.0000 0.0000 -391.8813 0.0000
# 6 0.0000 0.0000 0.0000 0.0000 0.0000 36.2298
#
#
#
# Elastic Compliance Matrix: (Units=1/GPa)
#
#
# Indices 1 2 3 4 5 6 
#
# 1 0.017097 0.001624 -0.014087 0.000000 0.000000 0.000000
# 2 0.001624 0.014334 -0.004027 0.000000 0.000000 0.000000
# 3 -0.014087 -0.004027 0.020089 0.000000 0.000000 0.000000
# 4 0.000000 0.000000 0.000000 0.049867 0.000000 0.000000
# 5 0.000000 0.000000 0.000000 0.000000 -0.002552 0.000000
# 6 0.000000 0.000000 0.000000 0.000000 0.000000 0.027602
#
#
# Mechanical properties :
#
#
# Convention : Reuss Voigt Hill
#
# Bulk Modulus (GPa) = 53.93452 68.41717 61.17585
# Shear Modulus (GPa) = 30.19385 -53.53804 -11.67209
#
# Velocity S-wave (km/s) = 3.83454 -5.10605 -2.38412
# Velocity P-wave (km/s) = 6.77272 1.20200 4.71301
#
# Compressibility (1/GPa) = 0.01854100
#
# Stress axis : x y z
#
# Youngs Moduli (GPa) = 58.49088 69.76227 49.77805
#
# Poissons Ratio (x) = -0.11331 0.70122
# Poissons Ratio (y) = -0.09500 0.20045
# Poissons Ratio (z) = 0.82396 0.28092
#
# Static dielectric constant tensor:
#      x y z
#    x 1.739860 0.000000 0.000000 
#    y 0.000000 1.763150 0.000000 
#    z 0.000000 0.000000 1.733770 
# 
# From -- ./inp_files/28594.got.cif
#   From: 2010.05.17/outbox.cif.g08.bks.cpg/sg47_15_cif.got.tgz:28594.got - 2010.06.03 20:15:42.
