data_PCOD9387977
_publ_section_title
;
Structure prediction by ZEFSAII (Michael W. Deem and Ramdas Pophale) SiO2 
 PCOD9387977
Probable space group: P M M M
;
_chemical_formula_sum "Si O2"
_cell_formula_units_Z 25
_cell_length_a 19.757745
_cell_length_b 8.241432
_cell_length_c 7.161204
_cell_angle_alpha 90.000000
_cell_angle_beta 90.000000
_cell_angle_gamma 90.000000
_cell_volume 1166.073971
_symmetry_space_group_name_H-M "P M M M"
_symmetry_group_IT_number 47
_symmetry_cell_setting 'orthorhombic'
loop_
_space_group_symop_operation_xyz
x,y,z
-x,-y,z
x,-y,-z
-x,y,-z
-x,-y,-z
x,y,-z
-x,y,z
x,-y,z
loop_
_atom_site_type_symbol
_atom_site_label
_atom_site_fract_x
_atom_site_fract_y
_atom_site_fract_z
Si Si1 0.145047 0.815375 0.726676
Si Si2 0.500000 0.000000 0.000000
Si Si3 0.000000 0.312030 0.273288
Si Si4 0.714322 0.678535 0.726185
Si Si5 0.629235 0.000000 0.726776
O O1 0.143648 0.808685 0.500000
O O2 0.070227 0.766615 0.789360
O O3 0.207828 0.705176 0.785109
O O4 0.159868 0.000000 0.779087
O O5 0.559522 0.000000 0.837247
O O6 0.000000 0.500000 0.223299
O O7 0.000000 0.301270 0.500000
O O8 0.714208 0.678032 0.500000
O O9 0.689822 0.500000 0.785993
O O10 0.670781 0.836250 0.777705
O O11 0.621036 0.000000 0.500000
#
# Coordination Sequence:
#
# PCOD9387977 Si02
#       5
#     8   1   4   8   4
#     4   9  14  21  34  58  94 140 192 240 286 335
#     4  12  26  44  70  94 120 156 182 224 290 354
#     4   9  15  19  25  47  91 143 190 238 290 336
#     4   9  16  29  52  78 107 148 194 237 284 339
#     4  10  21  41  63  89 121 151 189 233 282 343
#
# _framework density 21.439463
#
# number of rings (size 3 to 8) (size 9 to 14) (size 15 to 20)
#    0.000    2.720    1.600    1.680    0.000    5.760 
#    0.000    2.400    0.000    3.840    0.000    0.000 
#    0.000    2.560    0.000    4.960    0.000   10.880 
#
# Total GULP energy -139347.086774 kJ/mol
# GULP energy per Si atom -5573.883471 kJ/mol
# Density = 2.139067 g / cm^3
# Si number density = 21.439463 Si / 1000 Ang^3
#
#
#
# Elastic Constant Matrix: (Units=GPa)
#
#
# Indices 1 2 3 4 5 6 
#
# 1 174.6981 87.7399 23.9462 0.0000 0.0000 0.0000
# 2 87.7399 178.3075 14.1058 0.0000 0.0000 0.0000
# 3 23.9462 14.1058 125.0426 0.0000 0.0000 0.0000
# 4 0.0000 0.0000 0.0000 -26.4730 0.0000 0.0000
# 5 0.0000 0.0000 0.0000 0.0000 -205.0260 0.0000
# 6 0.0000 0.0000 0.0000 0.0000 0.0000 -1.7982
#
#
#
# Elastic Compliance Matrix: (Units=1/GPa)
#
#
# Indices 1 2 3 4 5 6 
#
# 1 0.007741 -0.003725 -0.001062 0.000000 0.000000 0.000000
# 2 -0.003725 0.007451 -0.000127 0.000000 0.000000 0.000000
# 3 -0.001062 -0.000127 0.008215 0.000000 0.000000 0.000000
# 4 0.000000 0.000000 0.000000 -0.037774 0.000000 0.000000
# 5 0.000000 0.000000 0.000000 0.000000 -0.004877 0.000000
# 6 0.000000 0.000000 0.000000 0.000000 0.000000 -0.556104
#
#
# Mechanical properties :
#
#
# Convention : Reuss Voigt Hill
#
# Bulk Modulus (GPa) = 73.64681 81.07022 77.35851
# Shear Modulus (GPa) = -8.91275 -23.17569 -16.04422
#
# Velocity S-wave (km/s) = -2.04113 -3.29140 -2.73857
# Velocity P-wave (km/s) = 5.37315 4.84265 5.11478
#
# Compressibility (1/GPa) = 0.01357832
#
# Stress axis : x y z
#
# Youngs Moduli (GPa) = 129.19049 134.20584 121.72800
#
# Poissons Ratio (x) = 0.49990 0.12929
# Poissons Ratio (y) = 0.48122 0.01549
# Poissons Ratio (z) = 0.13722 0.01708
#
# Static dielectric constant tensor:
#      x y z
#    x 1.721440 0.000000 0.000000 
#    y 0.000000 1.760080 0.000000 
#    z 0.000000 0.000000 1.843610 
# 
# From -- ./inp_files/687.got.cif
#   From: 2010.05.17/outbox.cif.g08.bks.cpg/sg47_1_cif.got.tgz:687.got - 2010.06.03 20:15:42.
