data_PCOD9387372
_publ_section_title
;
Structure prediction by ZEFSAII (Michael W. Deem and Ramdas Pophale) SiO2 
 PCOD9387372
Probable space group: P M M M
;
_chemical_formula_sum "Si O2"
_cell_formula_units_Z 32
_cell_length_a 19.192917
_cell_length_b 8.022103
_cell_length_c 10.544225
_cell_angle_alpha 90.000000
_cell_angle_beta 90.000000
_cell_angle_gamma 90.000000
_cell_volume 1623.468564
_symmetry_space_group_name_H-M "P M M M"
_symmetry_group_IT_number 47
_symmetry_cell_setting 'orthorhombic'
loop_
_space_group_symop_operation_xyz
x,y,z
-x,-y,z
x,-y,-z
-x,y,-z
-x,-y,-z
x,y,-z
-x,y,z
x,-y,z
loop_
_atom_site_type_symbol
_atom_site_label
_atom_site_fract_x
_atom_site_fract_y
_atom_site_fract_z
Si Si1 0.920332 0.804903 0.721640
Si Si2 0.421166 0.500000 0.153139
Si Si3 0.776453 0.694812 0.639133
Si Si4 0.916273 0.687886 0.000000
Si Si5 0.323211 0.810349 0.851731
O O1 0.859666 0.713846 0.647293
O O2 0.000000 0.744086 0.703192
O O3 0.919179 0.000000 0.690062
O O4 0.900769 0.780767 0.869860
O O5 0.500000 0.500000 0.203279
O O6 0.378729 0.332234 0.185238
O O7 0.425208 0.500000 0.000000
O O8 0.753122 0.754312 0.500000
O O9 0.759042 0.500000 0.651478
O O10 0.740600 0.789756 0.755021
O O11 0.886418 0.500000 0.000000
O O12 0.000000 0.673529 0.000000
O O13 0.350282 0.000000 0.843501
O O14 0.303013 0.782043 0.000000
#
# Coordination Sequence:
#
# PCOD9387372 Si02
#       5
#     8   4   8   4   8
#     4  10  21  36  54  78 109 147 195 250 307 364
#     4   9  18  36  63  97 134 163 192 240 294 344
#     4  11  24  40  59  83 114 157 204 252 306 359
#     4   9  17  31  51  75 103 137 179 234 299 356
#     4  10  21  38  63  94 125 162 204 243 292 355
#
# _framework density 19.710885000000001
#
# number of rings (size 3 to 8) (size 9 to 14) (size 15 to 20)
#    0.000    2.000    1.250    1.875    1.750    6.000 
#    0.000    5.000    0.000    1.500    0.000    1.750 
#    0.000    0.000    0.000    0.000    0.000    0.000 
#
# Total GULP energy -178543.794487 kJ/mol
# GULP energy per Si atom -5579.493578 kJ/mol
# Density = 1.966602 g / cm^3
# Si number density = 19.710885 Si / 1000 Ang^3
#
#
#
# Elastic Constant Matrix: (Units=GPa)
#
#
# Indices 1 2 3 4 5 6 
#
# 1 95.5360 39.8005 39.9138 0.0000 0.0000 0.0000
# 2 39.8005 94.1772 30.3543 0.0000 0.0000 0.0000
# 3 39.9138 30.3543 82.0996 0.0000 0.0000 0.0000
# 4 0.0000 0.0000 0.0000 5.2537 0.0000 0.0000
# 5 0.0000 0.0000 0.0000 0.0000 2.1168 0.0000
# 6 0.0000 0.0000 0.0000 0.0000 0.0000 15.5404
#
#
#
# Elastic Compliance Matrix: (Units=1/GPa)
#
#
# Indices 1 2 3 4 5 6 
#
# 1 0.014583 -0.004403 -0.005462 0.000000 0.000000 0.000000
# 2 -0.004403 0.013384 -0.002808 0.000000 0.000000 0.000000
# 3 -0.005462 -0.002808 0.015874 0.000000 0.000000 0.000000
# 4 0.000000 0.000000 0.000000 0.190343 0.000000 0.000000
# 5 0.000000 0.000000 0.000000 0.000000 0.472417 0.000000
# 6 0.000000 0.000000 0.000000 0.000000 0.000000 0.064348
#
#
# Mechanical properties :
#
#
# Convention : Reuss Voigt Hill
#
# Bulk Modulus (GPa) = 54.06625 54.66109 54.36367
# Shear Modulus (GPa) = 6.23083 15.36512 10.79798
#
# Velocity S-wave (km/s) = 1.77988 2.79503 2.34309
# Velocity P-wave (km/s) = 5.63144 6.18125 5.91274
#
# Compressibility (1/GPa) = 0.01849583
#
# Stress axis : x y z
#
# Youngs Moduli (GPa) = 68.57106 74.71649 62.99614
#
# Poissons Ratio (x) = 0.32895 0.34409
# Poissons Ratio (y) = 0.30189 0.17689
# Poissons Ratio (z) = 0.37455 0.20980
#
# Static dielectric constant tensor:
#      x y z
#    x 1.691310 0.000000 0.000000 
#    y 0.000000 1.705120 0.000000 
#    z 0.000000 0.000000 1.703730 
# 
# From -- ./inp_files/18822.got.cif
#   From: 2010.05.17/outbox.cif.g08.bks.cpg/sg47_10_cif.got.tgz:18822.got - 2010.06.03 20:15:42.
