data_PCOD9387196
_publ_section_title
;
Structure prediction by ZEFSAII (Michael W. Deem and Ramdas Pophale) SiO2 
 PCOD9387196
Probable space group: P M M M
;
_chemical_formula_sum "Si O2"
_cell_formula_units_Z 44
_cell_length_a 7.576914
_cell_length_b 15.606931
_cell_length_c 17.382536
_cell_angle_alpha 90.000000
_cell_angle_beta 90.000000
_cell_angle_gamma 90.000000
_cell_volume 2055.526148
_symmetry_space_group_name_H-M "P M M M"
_symmetry_group_IT_number 47
_symmetry_cell_setting 'orthorhombic'
loop_
_space_group_symop_operation_xyz
x,y,z
-x,-y,z
x,-y,-z
-x,y,-z
-x,-y,-z
x,y,-z
-x,y,z
x,-y,z
loop_
_atom_site_type_symbol
_atom_site_label
_atom_site_fract_x
_atom_site_fract_y
_atom_site_fract_z
Si Si1 0.711051 0.666352 0.311295
Si Si2 0.285578 0.904242 0.909226
Si Si3 0.708724 0.817990 0.413178
Si Si4 0.716121 0.716765 0.856247
Si Si5 0.790476 0.500000 0.411831
Si Si6 0.715603 0.599603 0.000000
Si Si7 0.209521 0.000000 0.411827
O O1 0.500000 0.676538 0.305252
O O2 0.785629 0.744314 0.361246
O O3 0.775783 0.675393 0.224221
O O4 0.740436 0.581721 0.360846
O O5 0.500000 0.904938 0.904753
O O6 0.227229 0.816176 0.867912
O O7 0.226613 0.000000 0.882977
O O8 0.240596 0.896607 0.000000
O O9 0.783333 0.818443 0.500000
O O10 0.500000 0.802953 0.420170
O O11 0.731592 0.911217 0.376409
O O12 0.500000 0.718420 0.857786
O O13 0.770740 0.654801 0.925815
O O14 0.718177 0.500000 0.500000
O O15 0.000000 0.500000 0.418933
O O16 0.772969 0.500000 0.000000
O O17 0.500000 0.597807 0.000000
O O18 0.282160 0.000000 0.500000
O O19 0.000000 0.000000 0.415697
#
# Coordination Sequence:
#
# PCOD9387196 Si02
#       7
#     8   8   8   8   4   4   4
#     4  10  21  35  55  83 110 137 173 221 271 318
#     4   8  12  20  36  59  95 143 181 210 253 308
#     4   9  17  31  49  70 101 138 170 206 261 319
#     4   9  16  27  42  69 106 139 175 214 257 312
#     4  11  25  43  61  80 103 136 176 217 269 333
#     4   9  16  24  39  63  99 143 175 208 257 311
#     4   9  17  29  49  75  99 130 175 218 252 301
#
# _framework density 21.405711
#
# number of rings (size 3 to 8) (size 9 to 14) (size 15 to 20)
#    0.000    2.818    0.909    1.636    1.273    3.273 
#    1.636    1.818    0.000    0.000    0.000    1.273 
#    0.000    0.000    0.000    2.818    0.000    2.727 
#
# Total GULP energy -245341.668847 kJ/mol
# GULP energy per Si atom -5575.947019 kJ/mol
# Density = 2.135699 g / cm^3
# Si number density = 21.405711 Si / 1000 Ang^3
#
#
#
# Elastic Constant Matrix: (Units=GPa)
#
#
# Indices 1 2 3 4 5 6 
#
# 1 45.8175 -6.5348 6.8487 0.0000 0.0000 0.0000
# 2 -6.5348 223.3678 119.4231 0.0000 0.0000 0.0000
# 3 6.8487 119.4231 160.8859 0.0000 0.0000 0.0000
# 4 0.0000 0.0000 0.0000 -18.8348 0.0000 0.0000
# 5 0.0000 0.0000 0.0000 0.0000 151.7069 0.0000
# 6 0.0000 0.0000 0.0000 0.0000 0.0000 22.9181
#
#
#
# Elastic Compliance Matrix: (Units=1/GPa)
#
#
# Indices 1 2 3 4 5 6 
#
# 1 0.022460 0.001937 -0.002394 0.000000 0.000000 0.000000
# 2 0.001937 0.007590 -0.005716 0.000000 0.000000 0.000000
# 3 -0.002394 -0.005716 0.010561 0.000000 0.000000 0.000000
# 4 0.000000 0.000000 0.000000 -0.053093 0.000000 0.000000
# 5 0.000000 0.000000 0.000000 0.000000 0.006592 0.000000
# 6 0.000000 0.000000 0.000000 0.000000 0.000000 0.043634
#
#
# Mechanical properties :
#
#
# Convention : Reuss Voigt Hill
#
# Bulk Modulus (GPa) = 35.38082 74.39389 54.88736
# Shear Modulus (GPa) = 84.01995 51.84699 67.93347
#
# Velocity S-wave (km/s) = 6.27187 4.92683 5.63960
# Velocity P-wave (km/s) = 8.30741 8.19723 8.25251
#
# Compressibility (1/GPa) = 0.02826390
#
# Stress axis : x y z
#
# Youngs Moduli (GPa) = 44.52395 131.75689 94.69227
#
# Poissons Ratio (x) = -0.25521 0.22668
# Poissons Ratio (y) = -0.08624 0.54128
# Poissons Ratio (z) = 0.10658 0.75315
#
# Static dielectric constant tensor:
#      x y z
#    x 1.790940 0.000000 0.000000 
#    y 0.000000 1.755720 0.000000 
#    z 0.000000 0.000000 2.288500 
# 
# From -- ./inp_files/26439.got.cif
#   From: 2010.05.17/outbox.cif.g08.bks.cpg/sg47_14_cif.got.tgz:26439.got - 2010.06.03 20:15:42.
