data_PCOD9387312
_publ_section_title
;
Structure prediction by ZEFSAII (Michael W. Deem and Ramdas Pophale) SiO2 
 PCOD9387312
Probable space group: P M M M
;
_chemical_formula_sum "Si O2"
_cell_formula_units_Z 52
_cell_length_a 13.004897
_cell_length_b 27.133290
_cell_length_c 8.696777
_cell_angle_alpha 90.000000
_cell_angle_beta 90.000000
_cell_angle_gamma 90.000000
_cell_volume 3068.793797
_symmetry_space_group_name_H-M "P M M M"
_symmetry_group_IT_number 47
_symmetry_cell_setting 'orthorhombic'
loop_
_space_group_symop_operation_xyz
x,y,z
-x,-y,z
x,-y,-z
-x,y,-z
-x,-y,-z
x,y,-z
-x,y,z
x,-y,z
loop_
_atom_site_type_symbol
_atom_site_label
_atom_site_fract_x
_atom_site_fract_y
_atom_site_fract_z
Si Si1 0.878451 0.607944 0.813676
Si Si2 0.000000 0.118263 0.184157
Si Si3 0.189727 0.943310 0.685870
Si Si4 0.000000 0.766852 0.184964
Si Si5 0.196081 0.708700 0.683005
Si Si6 0.617522 0.878739 0.314820
Si Si7 0.380516 0.770694 0.183805
Si Si8 0.124776 0.500000 0.179572
O O1 0.817061 0.653070 0.743005
O O2 0.844463 0.553461 0.757285
O O3 0.000000 0.614202 0.776874
O O4 0.870943 0.609006 0.000000
O O5 0.900340 0.090226 0.247217
O O6 0.000000 0.175687 0.230520
O O7 0.000000 0.116475 0.000000
O O8 0.182350 0.942561 0.500000
O O9 0.299233 0.919585 0.728909
O O10 0.180199 0.000000 0.736112
O O11 0.101091 0.739851 0.247901
O O12 0.000000 0.763477 0.000000
O O13 0.189982 0.709896 0.500000
O O14 0.301322 0.733391 0.739519
O O15 0.621463 0.872912 0.500000
O O16 0.500000 0.891669 0.273067
O O17 0.643089 0.826220 0.239523
O O18 0.500000 0.760944 0.224385
O O19 0.370225 0.768255 0.000000
O O20 0.000000 0.500000 0.182267
O O21 0.155045 0.500000 0.000000
#
# Coordination Sequence:
#
# PCOD9387312 Si02
#       8
#     8   4   8   4   8   8   8   4
#     4   9  16  29  49  72 104 142 179 216 253 299
#     4  11  24  38  53  72  95 129 172 213 250 290
#     4  10  21  36  54  76 102 132 164 198 242 300
#     4  11  23  38  54  74 103 138 174 211 255 308
#     4  12  23  33  50  78 110 139 171 213 261 310
#     4   9  18  34  56  80 104 128 158 202 254 304
#     4  10  21  37  56  76 100 134 175 214 255 307
#     4   7  12  24  45  71  96 135 183 216 248 294
#
# _framework density 16.944769000000001
#
# number of rings (size 3 to 8) (size 9 to 14) (size 15 to 20)
#    0.000    2.077    0.769    4.385    0.000    6.769 
#    0.000    1.923    0.000    1.385    0.000    3.769 
#    0.000    4.308    0.000    0.000    0.000    0.000 
#
# Total GULP energy -290213.294414 kJ/mol
# GULP energy per Si atom -5581.024893 kJ/mol
# Density = 1.690620 g / cm^3
# Si number density = 16.944769 Si / 1000 Ang^3
#
#
#
# Elastic Constant Matrix: (Units=GPa)
#
#
# Indices 1 2 3 4 5 6 
#
# 1 68.6824 68.8135 25.4076 0.0000 0.0000 0.0000
# 2 68.8135 165.3100 39.0909 0.0000 0.0000 0.0000
# 3 25.4076 39.0909 33.4382 0.0000 0.0000 0.0000
# 4 0.0000 0.0000 0.0000 75.4538 0.0000 0.0000
# 5 0.0000 0.0000 0.0000 0.0000 13.6063 0.0000
# 6 0.0000 0.0000 0.0000 0.0000 0.0000 -7.6485
#
#
#
# Elastic Compliance Matrix: (Units=1/GPa)
#
#
# Indices 1 2 3 4 5 6 
#
# 1 0.027331 -0.008937 -0.010320 0.000000 0.000000 0.000000
# 2 -0.008937 0.011283 -0.006399 0.000000 0.000000 0.000000
# 3 -0.010320 -0.006399 0.045228 0.000000 0.000000 0.000000
# 4 0.000000 0.000000 0.000000 0.013253 0.000000 0.000000
# 5 0.000000 0.000000 0.000000 0.000000 0.073495 0.000000
# 6 0.000000 0.000000 0.000000 0.000000 0.000000 -0.130745
#
#
# Mechanical properties :
#
#
# Convention : Reuss Voigt Hill
#
# Bulk Modulus (GPa) = 30.74050 59.33941 45.03995
# Shear Modulus (GPa) = 49.01941 25.22357 37.12149
#
# Velocity S-wave (km/s) = 5.38440 3.86239 4.68561
# Velocity P-wave (km/s) = 7.53901 7.41526 7.47739
#
# Compressibility (1/GPa) = 0.03253038
#
# Stress axis : x y z
#
# Youngs Moduli (GPa) = 36.58817 88.63167 22.11003
#
# Poissons Ratio (x) = 0.79209 0.22817
# Poissons Ratio (y) = 0.32698 0.14149
# Poissons Ratio (z) = 0.37758 0.56719
#
# Static dielectric constant tensor:
#      x y z
#    x 1.550730 0.000000 0.000000 
#    y 0.000000 1.574790 0.000000 
#    z 0.000000 0.000000 1.572000 
# 
# From -- ./inp_files/4675.got.cif
#   From: 2010.05.17/outbox.cif.g08.bks.cpg/sg47_3_cif.got.tgz:4675.got - 2010.06.03 20:15:42.
