data_PCOD9387747
_publ_section_title
;
Structure prediction by ZEFSAII (Michael W. Deem and Ramdas Pophale) SiO2 
 PCOD9387747
Probable space group: P M M M
;
_chemical_formula_sum "Si O2"
_cell_formula_units_Z 37
_cell_length_a 9.250177
_cell_length_b 12.360680
_cell_length_c 18.058387
_cell_angle_alpha 90.000000
_cell_angle_beta 90.000000
_cell_angle_gamma 90.000000
_cell_volume 2064.768482
_symmetry_space_group_name_H-M "P M M M"
_symmetry_group_IT_number 47
_symmetry_cell_setting 'orthorhombic'
loop_
_space_group_symop_operation_xyz
x,y,z
-x,-y,z
x,-y,-z
-x,y,-z
-x,-y,-z
x,y,-z
-x,y,z
x,-y,z
loop_
_atom_site_type_symbol
_atom_site_label
_atom_site_fract_x
_atom_site_fract_y
_atom_site_fract_z
Si Si1 0.671328 0.782706 0.196899
Si Si2 0.672917 0.219335 0.366785
Si Si3 0.000000 0.000000 0.000000
Si Si4 0.324190 0.376158 0.500000
Si Si5 0.168564 0.000000 0.589023
Si Si6 0.831634 0.629405 0.085701
Si Si7 0.840102 0.000000 0.845156
O O1 0.500000 0.798156 0.188370
O O2 0.699401 0.748828 0.281847
O O3 0.730342 0.692819 0.141100
O O4 0.753644 0.893809 0.178618
O O5 0.500000 0.202788 0.375798
O O6 0.718908 0.308666 0.427058
O O7 0.753044 0.107059 0.381938
O O8 0.123790 0.000000 0.066904
O O9 0.272594 0.500000 0.500000
O O10 0.500000 0.379696 0.500000
O O11 0.179459 0.000000 0.500000
O O12 0.000000 0.000000 0.609270
O O13 0.818711 0.500000 0.093193
O O14 0.000000 0.658752 0.099312
O O15 0.800492 0.657219 0.000000
O O16 0.000000 0.000000 0.809044
#
# Coordination Sequence:
#
# PCOD9387747 Si02
#       7
#     8   8   1   4   4   8   4
#     4  11  23  36  56  88 121 147 184 241 296 342
#     4  10  21  37  58  84 113 151 189 227 281 341
#     4   8  24  40  62  80 106 158 210 228 268 350
#     4   9  18  35  59  82 106 145 194 231 264 325
#     4  11  22  35  57  86 114 140 181 236 282 328
#     4   9  20  39  61  82 108 150 199 237 276 339
#     4  10  22  40  59  81 111 154 193 231 277 340
#
# _framework density 17.919684
#
# number of rings (size 3 to 8) (size 9 to 14) (size 15 to 20)
#    0.324    1.730    1.081    2.595    1.514    6.486 
#    0.000    3.784    0.000    1.297    0.000    0.000 
#    0.000    0.000    0.000    0.000    0.000    0.000 
#
# Total GULP energy -206250.899786 kJ/mol
# GULP energy per Si atom -5574.348643 kJ/mol
# Density = 1.787890 g / cm^3
# Si number density = 17.919684 Si / 1000 Ang^3
#
#
#
# Elastic Constant Matrix: (Units=GPa)
#
#
# Indices 1 2 3 4 5 6 
#
# 1 75.1073 53.3758 77.1681 0.0000 0.0000 0.0000
# 2 53.3758 99.9100 71.4684 0.0000 0.0000 0.0000
# 3 77.1681 71.4684 142.0694 0.0000 0.0000 0.0000
# 4 0.0000 0.0000 0.0000 202.5788 0.0000 0.0000
# 5 0.0000 0.0000 0.0000 0.0000 24.1241 0.0000
# 6 0.0000 0.0000 0.0000 0.0000 0.0000 49.4936
#
#
#
# Elastic Compliance Matrix: (Units=1/GPa)
#
#
# Indices 1 2 3 4 5 6 
#
# 1 0.033469 -0.007617 -0.014347 0.000000 0.000000 0.000000
# 2 -0.007617 0.017369 -0.004600 0.000000 0.000000 0.000000
# 3 -0.014347 -0.004600 0.017146 0.000000 0.000000 0.000000
# 4 0.000000 0.000000 0.000000 0.004936 0.000000 0.000000
# 5 0.000000 0.000000 0.000000 0.000000 0.041452 0.000000
# 6 0.000000 0.000000 0.000000 0.000000 0.000000 0.020205
#
#
# Mechanical properties :
#
#
# Convention : Reuss Voigt Hill
#
# Bulk Modulus (GPa) = 67.32052 80.12350 73.72201
# Shear Modulus (GPa) = 25.95283 62.91092 44.43187
#
# Velocity S-wave (km/s) = 3.80976 5.93156 4.98486
# Velocity P-wave (km/s) = 7.54996 9.57710 8.62330
#
# Compressibility (1/GPa) = 0.01485431
#
# Stress axis : x y z
#
# Youngs Moduli (GPa) = 29.87883 57.57404 58.32272
#
# Poissons Ratio (x) = 0.43855 0.83678
# Poissons Ratio (y) = 0.22759 0.26829
# Poissons Ratio (z) = 0.42868 0.26485
#
# Static dielectric constant tensor:
#      x y z
#    x 1.595870 0.000000 0.000000 
#    y 0.000000 1.581040 0.000000 
#    z 0.000000 0.000000 1.612570 
# 
# From -- ./inp_files/26184.got.cif
#   From: 2010.05.17/outbox.cif.g08.bks.cpg/sg47_14_cif.got.tgz:26184.got - 2010.06.03 20:15:42.
