data_PCOD9387013
_publ_section_title
;
Structure prediction by ZEFSAII (Michael W. Deem and Ramdas Pophale) SiO2 
 PCOD9387013
Probable space group: P M M M
;
_chemical_formula_sum "Si O2"
_cell_formula_units_Z 44
_cell_length_a 28.928463
_cell_length_b 8.661539
_cell_length_c 9.923901
_cell_angle_alpha 90.000000
_cell_angle_beta 90.000000
_cell_angle_gamma 90.000000
_cell_volume 2486.582358
_symmetry_space_group_name_H-M "P M M M"
_symmetry_group_IT_number 47
_symmetry_cell_setting 'orthorhombic'
loop_
_space_group_symop_operation_xyz
x,y,z
-x,-y,z
x,-y,-z
-x,y,-z
-x,-y,-z
x,y,-z
-x,y,z
x,-y,z
loop_
_atom_site_type_symbol
_atom_site_label
_atom_site_fract_x
_atom_site_fract_y
_atom_site_fract_z
Si Si1 0.686135 0.685990 0.844868
Si Si2 0.500000 0.815115 0.655858
Si Si3 0.864449 0.313476 0.343726
Si Si4 0.948052 0.688180 0.844402
Si Si5 0.420315 0.686439 0.155491
Si Si6 0.234538 0.184436 0.343975
O O1 0.688485 0.500000 0.836502
O O2 0.632930 0.730254 0.815785
O O3 0.723317 0.757165 0.745524
O O4 0.695881 0.729626 0.000000
O O5 0.500000 0.761773 0.500000
O O6 0.544406 0.756024 0.738193
O O7 0.500000 0.000000 0.655824
O O8 0.870879 0.267336 0.500000
O O9 0.863142 0.500000 0.339031
O O10 0.907067 0.259180 0.252474
O O11 0.814806 0.251136 0.297434
O O12 0.947861 0.500000 0.841476
O O13 0.000000 0.736758 0.804208
O O14 0.940459 0.733502 0.000000
O O15 0.423319 0.500000 0.160537
O O16 0.431059 0.731523 0.000000
O O17 0.240756 0.233917 0.500000
O O18 0.232557 0.000000 0.340241
#
# Coordination Sequence:
#
# PCOD9387013 Si02
#       6
#     8   4   8   8   8   8
#     4   9  19  36  57  80 103 128 164 210 255 299
#     4  11  24  37  50  76 112 143 172 207 246 292
#     4   9  17  29  46  68  93 123 161 202 242 288
#     4   8  14  25  42  66  94 120 149 192 246 296
#     4   9  19  37  59  80 102 131 169 211 253 298
#     4  10  21  35  50  71 102 137 169 204 248 297
#
# _framework density 17.694972
#
# number of rings (size 3 to 8) (size 9 to 14) (size 15 to 20)
#    0.000    2.818    0.000    2.727    0.000    6.182 
#    0.000    9.091    0.000    0.545    0.000    3.818 
#    0.000    0.000    0.000    0.000    0.000    0.000 
#
# Total GULP energy -245356.922171 kJ/mol
# GULP energy per Si atom -5576.293686 kJ/mol
# Density = 1.765470 g / cm^3
# Si number density = 17.694972 Si / 1000 Ang^3
#
#
#
# Elastic Constant Matrix: (Units=GPa)
#
#
# Indices 1 2 3 4 5 6 
#
# 1 175.2567 33.6022 119.5208 0.0000 0.0000 0.0000
# 2 33.6022 11.4583 27.8570 0.0000 0.0000 0.0000
# 3 119.5208 27.8570 113.0561 0.0000 0.0000 0.0000
# 4 0.0000 0.0000 0.0000 19.3470 0.0000 0.0000
# 5 0.0000 0.0000 0.0000 0.0000 52.9304 0.0000
# 6 0.0000 0.0000 0.0000 0.0000 0.0000 -23.8738
#
#
#
# Elastic Compliance Matrix: (Units=1/GPa)
#
#
# Indices 1 2 3 4 5 6 
#
# 1 0.022149 -0.020018 -0.018483 0.000000 0.000000 0.000000
# 2 -0.020018 0.235752 -0.036927 0.000000 0.000000 0.000000
# 3 -0.018483 -0.036927 0.037484 0.000000 0.000000 0.000000
# 4 0.000000 0.000000 0.000000 0.051688 0.000000 0.000000
# 5 0.000000 0.000000 0.000000 0.000000 0.018893 0.000000
# 6 0.000000 0.000000 0.000000 0.000000 0.000000 -0.041887
#
#
# Mechanical properties :
#
#
# Convention : Reuss Voigt Hill
#
# Bulk Modulus (GPa) = 6.91900 73.52567 40.22233
# Shear Modulus (GPa) = 9.55821 17.60012 13.57916
#
# Velocity S-wave (km/s) = 2.32667 3.15721 2.77321
# Velocity P-wave (km/s) = 3.33714 7.41165 5.74757
#
# Compressibility (1/GPa) = 0.14452966
#
# Stress axis : x y z
#
# Youngs Moduli (GPa) = 45.14881 4.24174 26.67815
#
# Poissons Ratio (x) = 0.08491 0.49309
# Poissons Ratio (y) = 0.90379 0.98514
# Poissons Ratio (z) = 0.83449 0.15663
#
# Static dielectric constant tensor:
#      x y z
#    x 1.588000 0.000000 0.000000 
#    y 0.000000 1.596430 0.000000 
#    z 0.000000 0.000000 1.593830 
# 
# From -- ./inp_files/2071.got.cif
#   From: 2010.05.17/outbox.cif.g08.bks.cpg/sg47_2_cif.got.tgz:2071.got - 2010.06.03 20:15:42.
