data_PCOD9387490
_publ_section_title
;
Structure prediction by ZEFSAII (Michael W. Deem and Ramdas Pophale) SiO2 
 PCOD9387490
Probable space group: P M M M
;
_chemical_formula_sum "Si O2"
_cell_formula_units_Z 40
_cell_length_a 8.649338
_cell_length_b 15.194603
_cell_length_c 15.369395
_cell_angle_alpha 90.000000
_cell_angle_beta 90.000000
_cell_angle_gamma 90.000000
_cell_volume 2019.895951
_symmetry_space_group_name_H-M "P M M M"
_symmetry_group_IT_number 47
_symmetry_cell_setting 'orthorhombic'
loop_
_space_group_symop_operation_xyz
x,y,z
-x,-y,z
x,-y,-z
-x,y,-z
-x,-y,-z
x,y,-z
-x,y,z
x,-y,z
loop_
_atom_site_type_symbol
_atom_site_label
_atom_site_fract_x
_atom_site_fract_y
_atom_site_fract_z
Si Si1 0.184453 0.288501 0.903983
Si Si2 0.000000 0.903215 0.602742
Si Si3 0.320709 0.097269 0.132652
Si Si4 0.184481 0.500000 0.601047
Si Si5 0.669904 0.154366 0.329353
Si Si6 0.674555 0.356636 0.728205
O O1 0.233949 0.185583 0.896433
O O2 0.251953 0.344176 0.823765
O O3 0.000000 0.292321 0.898274
O O4 0.234035 0.319638 0.000000
O O5 0.834379 0.861744 0.625921
O O6 0.000000 0.909768 0.500000
O O7 0.000000 0.000000 0.644351
O O8 0.500000 0.103924 0.104437
O O9 0.322631 0.103898 0.237413
O O10 0.261687 0.000000 0.107052
O O11 0.242168 0.500000 0.500000
O O12 0.238668 0.583140 0.658430
O O13 0.000000 0.500000 0.596957
O O14 0.500000 0.132052 0.370029
O O15 0.667515 0.257692 0.308344
O O16 0.500000 0.389926 0.737494
#
# Coordination Sequence:
#
# PCOD9387490 Si02
#       6
#     8   4   8   4   8   8
#     4  10  21  36  56  85 122 163 206 252 303 363
#     4  11  24  36  52  81 112 152 203 253 312 372
#     4   9  18  32  52  79 110 152 206 257 306 357
#     4  11  25  43  68 101 130 155 187 240 308 375
#     4   9  20  38  58  81 113 156 204 253 306 367
#     4  10  22  41  65  91 121 159 200 247 305 366
#
# _framework density 19.803000999999998
#
# number of rings (size 3 to 8) (size 9 to 14) (size 15 to 20)
#    0.000    2.200    0.000    3.300    7.000    5.600 
#    0.000    5.500    0.000    3.000    0.000    0.000 
#    0.000    0.000    0.000    0.000    0.000    0.000 
#
# Total GULP energy -222915.708925 kJ/mol
# GULP energy per Si atom -5572.892723 kJ/mol
# Density = 1.975793 g / cm^3
# Si number density = 19.803001 Si / 1000 Ang^3
#
#
#
# Elastic Constant Matrix: (Units=GPa)
#
#
# Indices 1 2 3 4 5 6 
#
# 1 136.5920 26.2956 71.9717 0.0000 0.0000 0.0000
# 2 26.2956 82.3772 53.7332 0.0000 0.0000 0.0000
# 3 71.9717 53.7332 136.7595 0.0000 0.0000 0.0000
# 4 0.0000 0.0000 0.0000 23.5671 0.0000 0.0000
# 5 0.0000 0.0000 0.0000 0.0000 78.9355 0.0000
# 6 0.0000 0.0000 0.0000 0.0000 0.0000 27.1483
#
#
#
# Elastic Compliance Matrix: (Units=1/GPa)
#
#
# Indices 1 2 3 4 5 6 
#
# 1 0.010137 0.000328 -0.005463 0.000000 0.000000 0.000000
# 2 0.000328 0.016333 -0.006590 0.000000 0.000000 0.000000
# 3 -0.005463 -0.006590 0.012777 0.000000 0.000000 0.000000
# 4 0.000000 0.000000 0.000000 0.042432 0.000000 0.000000
# 5 0.000000 0.000000 0.000000 0.000000 0.012669 0.000000
# 6 0.000000 0.000000 0.000000 0.000000 0.000000 0.036835
#
#
# Mechanical properties :
#
#
# Convention : Reuss Voigt Hill
#
# Bulk Modulus (GPa) = 63.30912 73.30329 68.30620
# Shear Modulus (GPa) = 31.27003 39.51207 35.39105
#
# Velocity S-wave (km/s) = 3.97804 4.47168 4.23206
# Velocity P-wave (km/s) = 7.28963 7.98485 7.64514
#
# Compressibility (1/GPa) = 0.01579551
#
# Stress axis : x y z
#
# Youngs Moduli (GPa) = 98.65174 61.22551 78.26863
#
# Poissons Ratio (x) = -0.02008 0.42762
# Poissons Ratio (y) = -0.03236 0.51578
# Poissons Ratio (z) = 0.53898 0.40347
#
# Static dielectric constant tensor:
#      x y z
#    x 1.782800 0.000000 0.000000 
#    y 0.000000 1.704610 0.000000 
#    z 0.000000 0.000000 1.709660 
# 
# From -- ./inp_files/20673.got.cif
#   From: 2010.05.17/outbox.cif.g08.bks.cpg/sg47_11_cif.got.tgz:20673.got - 2010.06.03 20:15:42.
