data_PCOD9387010
_publ_section_title
;
Structure prediction by ZEFSAII (Michael W. Deem and Ramdas Pophale) SiO2 
 PCOD9387010
Probable space group: P M M M
;
_chemical_formula_sum "Si O2"
_cell_formula_units_Z 40
_cell_length_a 9.679829
_cell_length_b 7.476080
_cell_length_c 28.481224
_cell_angle_alpha 90.000000
_cell_angle_beta 90.000000
_cell_angle_gamma 90.000000
_cell_volume 2061.105750
_symmetry_space_group_name_H-M "P M M M"
_symmetry_group_IT_number 47
_symmetry_cell_setting 'orthorhombic'
loop_
_space_group_symop_operation_xyz
x,y,z
-x,-y,z
x,-y,-z
-x,y,-z
-x,-y,-z
x,y,-z
-x,y,z
x,-y,z
loop_
_atom_site_type_symbol
_atom_site_label
_atom_site_fract_x
_atom_site_fract_y
_atom_site_fract_z
Si Si1 0.158500 0.219003 0.000000
Si Si2 0.663484 0.713322 0.629682
Si Si3 0.844273 0.287519 0.718009
Si Si4 0.658764 0.218003 0.912560
Si Si5 0.667352 0.000000 0.446836
Si Si6 0.343568 0.214949 0.193126
O O1 0.239508 0.277821 0.953413
O O2 0.000000 0.275573 0.000000
O O3 0.159983 0.000000 0.000000
O O4 0.500000 0.744167 0.638787
O O5 0.681330 0.500000 0.622758
O O6 0.751945 0.776534 0.674376
O O7 0.704594 0.826313 0.583931
O O8 0.854345 0.500000 0.711292
O O9 0.763759 0.260987 0.766600
O O10 0.000000 0.214365 0.718955
O O11 0.500000 0.269995 0.922131
O O12 0.694113 0.276118 0.859538
O O13 0.661426 0.000000 0.912742
O O14 0.500000 0.000000 0.449621
O O15 0.720916 0.000000 0.500000
O O16 0.500000 0.278547 0.203941
O O17 0.349582 0.000000 0.191251
#
# Coordination Sequence:
#
# PCOD9387010 Si02
#       6
#     4   8   8   8   4   8
#     4   9  15  21  33  55  84 119 156 195 238 288
#     4   9  18  33  53  76 104 139 176 216 262 310
#     4  10  21  35  50  71 100 133 168 206 250 302
#     4   8  14  25  39  57  84 118 154 193 241 295
#     4   9  18  32  53  83 111 135 173 222 265 308
#     4   9  18  31  48  71  97 125 161 206 253 302
#
# _framework density 19.407057999999999
#
# number of rings (size 3 to 8) (size 9 to 14) (size 15 to 20)
#    0.000    3.000    0.000    2.100    1.400    4.000 
#    0.000    4.000    0.000    1.200    0.000    3.500 
#    0.000    5.600    0.000    0.000    0.000    0.000 
#
# Total GULP energy -223108.769720 kJ/mol
# GULP energy per Si atom -5577.719243 kJ/mol
# Density = 1.936289 g / cm^3
# Si number density = 19.407058 Si / 1000 Ang^3
#
#
#
# Elastic Constant Matrix: (Units=GPa)
#
#
# Indices 1 2 3 4 5 6 
#
# 1 123.8634 28.4433 125.0639 0.0000 0.0000 0.0000
# 2 28.4433 60.3714 30.5082 0.0000 0.0000 0.0000
# 3 125.0639 30.5082 202.9939 0.0000 0.0000 0.0000
# 4 0.0000 0.0000 0.0000 71.7824 0.0000 0.0000
# 5 0.0000 0.0000 0.0000 0.0000 -4.4276 0.0000
# 6 0.0000 0.0000 0.0000 0.0000 0.0000 8.7342
#
#
#
# Elastic Compliance Matrix: (Units=1/GPa)
#
#
# Indices 1 2 3 4 5 6 
#
# 1 0.022151 -0.003831 -0.013072 0.000000 0.000000 0.000000
# 2 -0.003831 0.018588 -0.000434 0.000000 0.000000 0.000000
# 3 -0.013072 -0.000434 0.013045 0.000000 0.000000 0.000000
# 4 0.000000 0.000000 0.000000 0.013931 0.000000 0.000000
# 5 0.000000 0.000000 0.000000 0.000000 -0.225856 0.000000
# 6 0.000000 0.000000 0.000000 0.000000 0.000000 0.114492
#
#
# Mechanical properties :
#
#
# Convention : Reuss Voigt Hill
#
# Bulk Modulus (GPa) = 52.32205 83.91773 68.11989
# Shear Modulus (GPa) = -1919.03523 28.76537 -945.13493
#
# Velocity S-wave (km/s) = -31.47984 3.85413 -22.09215
# Velocity P-wave (km/s) = 35.97622 7.94610 24.81076
#
# Compressibility (1/GPa) = 0.01911240
#
# Stress axis : x y z
#
# Youngs Moduli (GPa) = 45.14368 53.79812 76.65853
#
# Poissons Ratio (x) = 0.20609 1.00206
# Poissons Ratio (y) = 0.17293 0.03323
# Poissons Ratio (z) = 0.59011 0.02332
#
# Static dielectric constant tensor:
#      x y z
#    x 1.661800 0.000000 0.000000 
#    y 0.000000 1.773900 0.000000 
#    z 0.000000 0.000000 1.656870 
# 
# From -- ./inp_files/33014.got.cif
#   From: 2010.05.17/outbox.cif.g08.bks.cpg/sg47_17_cif.got.tgz:33014.got - 2010.06.03 20:15:42.
