data_PCOD9387004
_publ_section_title
;
Structure prediction by ZEFSAII (Michael W. Deem and Ramdas Pophale) SiO2 
 PCOD9387004
Probable space group: P M M M
;
_chemical_formula_sum "Si O2"
_cell_formula_units_Z 52
_cell_length_a 35.088384
_cell_length_b 9.517047
_cell_length_c 7.508699
_cell_angle_alpha 90.000000
_cell_angle_beta 90.000000
_cell_angle_gamma 90.000000
_cell_volume 2507.438423
_symmetry_space_group_name_H-M "P M M M"
_symmetry_group_IT_number 47
_symmetry_cell_setting 'orthorhombic'
loop_
_space_group_symop_operation_xyz
x,y,z
-x,-y,z
x,-y,-z
-x,y,-z
-x,-y,-z
x,y,-z
-x,y,z
x,-y,z
loop_
_atom_site_type_symbol
_atom_site_label
_atom_site_fract_x
_atom_site_fract_y
_atom_site_fract_z
Si Si1 0.074189 0.837816 0.217793
Si Si2 0.314112 0.659707 0.711508
Si Si3 0.383820 0.157277 0.288430
Si Si4 0.768904 0.662509 0.213817
Si Si5 0.000000 0.662354 0.217539
Si Si6 0.457356 0.339900 0.214516
Si Si7 0.147675 0.664157 0.782673
O O1 0.037631 0.746907 0.273263
O O2 0.112837 0.760442 0.276372
O O3 0.072004 0.000000 0.274376
O O4 0.074257 0.838274 0.000000
O O5 0.319757 0.647700 0.500000
O O6 0.314510 0.500000 0.785043
O O7 0.348622 0.751851 0.784991
O O8 0.271950 0.724524 0.736004
O O9 0.377400 0.146164 0.500000
O O10 0.423567 0.237475 0.266002
O O11 0.385322 0.000000 0.214758
O O12 0.767686 0.500000 0.276106
O O13 0.810231 0.716839 0.273594
O O14 0.769866 0.661530 0.000000
O O15 0.000000 0.500000 0.275315
O O16 0.000000 0.660588 0.000000
O O17 0.500000 0.299216 0.275093
O O18 0.449836 0.500000 0.275628
O O19 0.458235 0.343075 0.000000
O O20 0.143154 0.500000 0.730361
O O21 0.147150 0.664452 0.000000
#
# Coordination Sequence:
#
# PCOD9387004 Si02
#       7
#     8   8   8   8   4   8   8
#     4   9  15  21  29  43  65  92 123 162 206 247
#     4   9  17  30  48  68  90 118 153 192 232 271
#     4  10  21  35  50  71 100 131 161 193 231 277
#     4   8  14  25  42  63  84 108 142 182 221 263
#     4   9  15  21  29  41  59  89 130 167 198 241
#     4   9  19  36  56  77 100 126 158 196 236 277
#     4   8  13  22  35  49  67  94 128 164 203 250
#
# _framework density 20.738295999999998
#
# number of rings (size 3 to 8) (size 9 to 14) (size 15 to 20)
#    0.000    3.154    0.000    2.538    0.000    5.231 
#    0.000    4.615    0.000    0.923    0.000    0.000 
#    0.000    0.000    0.000    0.692    0.000   17.077 
#
# Total GULP energy -289949.521269 kJ/mol
# GULP energy per Si atom -5575.952332 kJ/mol
# Density = 2.069109 g / cm^3
# Si number density = 20.738296 Si / 1000 Ang^3
#
#
#
# Elastic Constant Matrix: (Units=GPa)
#
#
# Indices 1 2 3 4 5 6 
#
# 1 235.2695 128.3223 1.6218 0.0000 0.0000 0.0000
# 2 128.3223 138.4512 5.2226 0.0000 0.0000 0.0000
# 3 1.6218 5.2226 52.1178 0.0000 0.0000 0.0000
# 4 0.0000 0.0000 0.0000 -2.3200 0.0000 0.0000
# 5 0.0000 0.0000 0.0000 0.0000 18.7559 0.0000
# 6 0.0000 0.0000 0.0000 0.0000 0.0000 -9.6178
#
#
#
# Elastic Compliance Matrix: (Units=1/GPa)
#
#
# Indices 1 2 3 4 5 6 
#
# 1 0.008611 -0.008001 0.000534 0.000000 0.000000 0.000000
# 2 -0.008001 0.014684 -0.001223 0.000000 0.000000 0.000000
# 3 0.000534 -0.001223 0.019293 0.000000 0.000000 0.000000
# 4 0.000000 0.000000 0.000000 -0.431039 0.000000 0.000000
# 5 0.000000 0.000000 0.000000 0.000000 0.053317 0.000000
# 6 0.000000 0.000000 0.000000 0.000000 0.000000 -0.103974
#
#
# Mechanical properties :
#
#
# Convention : Reuss Voigt Hill
#
# Bulk Modulus (GPa) = 39.66820 77.35243 58.51031
# Shear Modulus (GPa) = -12.09697 20.74175 4.32239
#
# Velocity S-wave (km/s) = -2.41781 3.16597 1.44526
# Velocity P-wave (km/s) = 3.37270 7.12354 5.57314
#
# Compressibility (1/GPa) = 0.02520911
#
# Stress axis : x y z
#
# Youngs Moduli (GPa) = 116.13564 68.09967 51.83173
#
# Poissons Ratio (x) = 0.54485 -0.02767
# Poissons Ratio (y) = 0.92918 0.06337
# Poissons Ratio (z) = -0.06199 0.08325
#
# Static dielectric constant tensor:
#      x y z
#    x 1.746210 0.000000 0.000000 
#    y 0.000000 1.709020 0.000000 
#    z 0.000000 0.000000 1.799360 
# 
# From -- ./inp_files/20043.got.cif
#   From: 2010.05.17/outbox.cif.g08.bks.cpg/sg47_11_cif.got.tgz:20043.got - 2010.06.03 20:15:42.
