data_PCOD9387532
_publ_section_title
;
Structure prediction by ZEFSAII (Michael W. Deem and Ramdas Pophale) SiO2 
 PCOD9387532
Probable space group: P M M M
;
_chemical_formula_sum "Si O2"
_cell_formula_units_Z 40
_cell_length_a 9.692552
_cell_length_b 7.942759
_cell_length_c 28.618985
_cell_angle_alpha 90.000000
_cell_angle_beta 90.000000
_cell_angle_gamma 90.000000
_cell_volume 2203.249864
_symmetry_space_group_name_H-M "P M M M"
_symmetry_group_IT_number 47
_symmetry_cell_setting 'orthorhombic'
loop_
_space_group_symop_operation_xyz
x,y,z
-x,-y,z
x,-y,-z
-x,y,-z
-x,-y,-z
x,y,-z
-x,y,z
x,-y,z
loop_
_atom_site_type_symbol
_atom_site_label
_atom_site_fract_x
_atom_site_fract_y
_atom_site_fract_z
Si Si1 0.168228 0.806319 0.880703
Si Si2 0.842183 0.205436 0.223944
Si Si3 0.657036 0.202500 0.690574
Si Si4 0.342609 0.299519 0.587360
Si Si5 0.168380 0.500000 0.946224
Si Si6 0.844087 0.200042 0.500000
O O1 0.209592 0.752878 0.828132
O O2 0.211814 0.668018 0.918396
O O3 0.000000 0.808853 0.880120
O O4 0.212113 0.000000 0.889721
O O5 0.749887 0.265563 0.266860
O O6 0.000000 0.263403 0.228964
O O7 0.844802 0.000000 0.224969
O O8 0.500000 0.266618 0.694053
O O9 0.707768 0.244146 0.638554
O O10 0.652981 0.000000 0.694270
O O11 0.500000 0.232346 0.580766
O O12 0.351181 0.500000 0.587325
O O13 0.242236 0.249025 0.545763
O O14 0.000000 0.500000 0.946080
O O15 0.213190 0.500000 0.000000
O O16 0.000000 0.271039 0.500000
O O17 0.854529 0.000000 0.500000
#
# Coordination Sequence:
#
# PCOD9387532 Si02
#       6
#     8   8   8   8   4   4
#     4   8  14  25  39  56  83 119 156 195 240 288
#     4   8  14  26  44  64  89 123 157 190 235 289
#     4   9  17  30  49  72  97 125 159 200 240 281
#     4  10  21  37  55  75 101 132 163 197 242 295
#     4   9  16  24  36  58  87 119 157 198 239 288
#     4  11  24  39  56  78 100 125 162 207 248 288
#
# _framework density 18.154999
#
# number of rings (size 3 to 8) (size 9 to 14) (size 15 to 20)
#    0.000    3.000    0.000    2.400    0.000    4.400 
#    1.800    4.000    0.000    0.000    0.000    0.000 
#    0.000    1.600    0.000    7.800    0.000    8.000 
#
# Total GULP energy -222891.569377 kJ/mol
# GULP energy per Si atom -5572.289234 kJ/mol
# Density = 1.811368 g / cm^3
# Si number density = 18.154999 Si / 1000 Ang^3
#
#
#
# Elastic Constant Matrix: (Units=GPa)
#
#
# Indices 1 2 3 4 5 6 
#
# 1 44.0007 19.7824 70.1295 0.0000 0.0000 0.0000
# 2 19.7824 56.0206 55.8574 0.0000 0.0000 0.0000
# 3 70.1295 55.8574 208.6463 0.0000 0.0000 0.0000
# 4 0.0000 0.0000 0.0000 53.3599 0.0000 0.0000
# 5 0.0000 0.0000 0.0000 0.0000 -39.1017 0.0000
# 6 0.0000 0.0000 0.0000 0.0000 0.0000 9.6611
#
#
#
# Elastic Compliance Matrix: (Units=1/GPa)
#
#
# Indices 1 2 3 4 5 6 
#
# 1 0.049009 -0.001203 -0.016151 0.000000 0.000000 0.000000
# 2 -0.001203 0.024380 -0.006123 0.000000 0.000000 0.000000
# 3 -0.016151 -0.006123 0.011860 0.000000 0.000000 0.000000
# 4 0.000000 0.000000 0.000000 0.018741 0.000000 0.000000
# 5 0.000000 0.000000 0.000000 0.000000 -0.025574 0.000000
# 6 0.000000 0.000000 0.000000 0.000000 0.000000 0.103508
#
#
# Mechanical properties :
#
#
# Convention : Reuss Voigt Hill
#
# Bulk Modulus (GPa) = 26.11141 66.68960 46.40050
# Shear Modulus (GPa) = 20.69175 15.64375 18.16775
#
# Velocity S-wave (km/s) = 3.37965 2.93862 3.16682
# Velocity P-wave (km/s) = 5.44454 6.95178 6.24381
#
# Compressibility (1/GPa) = 0.03829744
#
# Stress axis : x y z
#
# Youngs Moduli (GPa) = 20.40428 41.01710 84.31360
#
# Poissons Ratio (x) = 0.04933 1.36174
# Poissons Ratio (y) = 0.02454 0.51622
# Poissons Ratio (z) = 0.32955 0.25113
#
# Static dielectric constant tensor:
#      x y z
#    x 1.629410 0.000000 0.000000 
#    y 0.000000 1.639930 0.000000 
#    z 0.000000 0.000000 1.634490 
# 
# From -- ./inp_files/33005.got.cif
#   From: 2010.05.17/outbox.cif.g08.bks.cpg/sg47_17_cif.got.tgz:33005.got - 2010.06.03 20:15:42.
