data_PCOD9387263
_publ_section_title
;
Structure prediction by ZEFSAII (Michael W. Deem and Ramdas Pophale) SiO2 
 PCOD9387263
Probable space group: P M M M
;
_chemical_formula_sum "Si O2"
_cell_formula_units_Z 64
_cell_length_a 41.991949
_cell_length_b 10.223635
_cell_length_c 8.190196
_cell_angle_alpha 90.000000
_cell_angle_beta 90.000000
_cell_angle_gamma 90.000000
_cell_volume 3516.135989
_symmetry_space_group_name_H-M "P M M M"
_symmetry_group_IT_number 47
_symmetry_cell_setting 'orthorhombic'
loop_
_space_group_symop_operation_xyz
x,y,z
-x,-y,z
x,-y,-z
-x,y,-z
-x,-y,-z
x,y,-z
-x,y,z
x,-y,z
loop_
_atom_site_type_symbol
_atom_site_label
_atom_site_fract_x
_atom_site_fract_y
_atom_site_fract_z
Si Si1 0.160200 0.350945 0.805266
Si Si2 0.410145 0.649985 0.699359
Si Si3 0.463930 0.150193 0.699346
Si Si4 0.337946 0.350664 0.696979
Si Si5 0.089581 0.649092 0.303303
Si Si6 0.786380 0.148961 0.694675
Si Si7 0.036186 0.850152 0.699391
Si Si8 0.715543 0.148719 0.194911
O O1 0.166321 0.500000 0.744880
O O2 0.125402 0.310328 0.741507
O O3 0.187553 0.250672 0.755897
O O4 0.158720 0.355342 0.000000
O O5 0.410430 0.652470 0.500000
O O6 0.416723 0.500000 0.747683
O O7 0.436923 0.750432 0.757000
O O8 0.374025 0.683326 0.750257
O O9 0.463594 0.152243 0.500000
O O10 0.500000 0.185474 0.749271
O O11 0.457775 0.000000 0.748288
O O12 0.338029 0.351500 0.500000
O O13 0.331193 0.500000 0.751187
O O14 0.311734 0.248438 0.753203
O O15 0.087434 0.646301 0.500000
O O16 0.084872 0.500000 0.243425
O O17 0.062714 0.748657 0.242578
O O18 0.788306 0.145053 0.500000
O O19 0.750518 0.187963 0.742870
O O20 0.791576 0.000000 0.757517
O O21 0.036596 0.848746 0.500000
O O22 0.000000 0.816441 0.748718
O O23 0.042747 0.000000 0.749072
O O24 0.709329 0.000000 0.255100
O O25 0.716734 0.145447 0.000000
#
# Coordination Sequence:
#
# PCOD9387263 Si02
#       8
#     8   8   8   8   8   8   8   8
#     4  10  21  36  53  74 102 135 168 202 243 291
#     4   8  14  24  37  55  81 113 150 191 232 275
#     4   8  13  20  30  48  77 112 149 188 230 277
#     4   9  18  32  49  70  96 126 162 202 241 284
#     4   9  17  29  46  69  96 125 160 203 246 288
#     4  10  21  37  57  79 101 127 161 200 242 288
#     4   8  14  25  42  66  95 124 156 198 246 292
#     4  10  21  36  53  74 100 128 159 196 238 286
#
# _framework density 18.201799999999999
#
# number of rings (size 3 to 8) (size 9 to 14) (size 15 to 20)
#    0.000    3.000    0.000    2.625    0.000    4.500 
#    0.000    5.000    0.000    0.375    0.000    2.625 
#    0.000    0.500    0.000    5.500    0.000    9.000 
#
# Total GULP energy -356761.874492 kJ/mol
# GULP energy per Si atom -5574.404289 kJ/mol
# Density = 1.816037 g / cm^3
# Si number density = 18.201800 Si / 1000 Ang^3
#
#
#
# Elastic Constant Matrix: (Units=GPa)
#
#
# Indices 1 2 3 4 5 6 
#
# 1 182.9838 133.0232 11.4095 0.0000 0.0000 0.0000
# 2 133.0232 119.3904 10.7157 0.0000 0.0000 0.0000
# 3 11.4095 10.7157 11.2362 0.0000 0.0000 0.0000
# 4 0.0000 0.0000 0.0000 14.4943 0.0000 0.0000
# 5 0.0000 0.0000 0.0000 0.0000 -33.8702 0.0000
# 6 0.0000 0.0000 0.0000 0.0000 0.0000 44.6443
#
#
#
# Elastic Compliance Matrix: (Units=1/GPa)
#
#
# Indices 1 2 3 4 5 6 
#
# 1 0.028782 -0.032202 0.001484 0.000000 0.000000 0.000000
# 2 -0.032202 0.045188 -0.010396 0.000000 0.000000 0.000000
# 3 0.001484 -0.010396 0.097406 0.000000 0.000000 0.000000
# 4 0.000000 0.000000 0.000000 0.068993 0.000000 0.000000
# 5 0.000000 0.000000 0.000000 0.000000 -0.029524 0.000000
# 6 0.000000 0.000000 0.000000 0.000000 0.000000 0.022399
#
#
# Mechanical properties :
#
#
# Convention : Reuss Voigt Hill
#
# Bulk Modulus (GPa) = 11.21727 69.32302 40.27015
# Shear Modulus (GPa) = 14.48488 15.61781 15.05135
#
# Velocity S-wave (km/s) = 2.82404 2.93240 2.87873
# Velocity P-wave (km/s) = 4.09997 7.04513 5.76383
#
# Compressibility (1/GPa) = 0.08914822
#
# Stress axis : x y z
#
# Youngs Moduli (GPa) = 34.74379 22.12982 10.26630
#
# Poissons Ratio (x) = 0.71262 -0.01524
# Poissons Ratio (y) = 1.11882 0.10673
# Poissons Ratio (z) = -0.05157 0.23007
#
# Static dielectric constant tensor:
#      x y z
#    x 1.601550 0.000000 0.000000 
#    y 0.000000 1.623350 0.000000 
#    z 0.000000 0.000000 1.632930 
# 
# From -- ./inp_files/14176.got.cif
#   From: 2010.05.17/outbox.cif.g08.bks.cpg/sg47_8_cif.got.tgz:14176.got - 2010.06.03 20:15:42.
