data_PCOD9387408
_publ_section_title
;
Structure prediction by ZEFSAII (Michael W. Deem and Ramdas Pophale) SiO2 
 PCOD9387408
Probable space group: P M M M
;
_chemical_formula_sum "Si O2"
_cell_formula_units_Z 56
_cell_length_a 9.692574
_cell_length_b 22.656030
_cell_length_c 13.494572
_cell_angle_alpha 90.000000
_cell_angle_beta 90.000000
_cell_angle_gamma 90.000000
_cell_volume 2963.343876
_symmetry_space_group_name_H-M "P M M M"
_symmetry_group_IT_number 47
_symmetry_cell_setting 'orthorhombic'
loop_
_space_group_symop_operation_xyz
x,y,z
-x,-y,z
x,-y,-z
-x,y,-z
-x,-y,-z
x,y,-z
-x,y,z
x,-y,z
loop_
_atom_site_type_symbol
_atom_site_label
_atom_site_fract_x
_atom_site_fract_y
_atom_site_fract_z
Si Si1 0.000000 0.429098 0.619134
Si Si2 0.662336 0.844672 0.112589
Si Si3 0.663004 0.068912 0.289489
Si Si4 0.500000 0.429213 0.118467
Si Si5 0.349297 0.270758 0.618053
Si Si6 0.747394 0.625605 0.251498
Si Si7 0.152947 0.834442 0.617626
Si Si8 0.842904 0.268724 0.884462
O O1 0.135424 0.407933 0.682601
O O2 0.000000 0.500000 0.617216
O O3 0.000000 0.409651 0.500000
O O4 0.500000 0.831203 0.116744
O O5 0.686915 0.899725 0.183858
O O6 0.743289 0.785583 0.140128
O O7 0.699907 0.859610 0.000000
O O8 0.500000 0.074500 0.313203
O O9 0.755674 0.108537 0.360393
O O10 0.697824 0.000000 0.290086
O O11 0.500000 0.500000 0.116234
O O12 0.364142 0.408533 0.181811
O O13 0.500000 0.409470 0.000000
O O14 0.340781 0.278766 0.500000
O O15 0.500000 0.244592 0.641499
O O16 0.333761 0.332974 0.671161
O O17 0.231645 0.224951 0.648631
O O18 0.819985 0.673047 0.179584
O O19 0.141198 0.829682 0.500000
O O20 0.000000 0.838758 0.661421
O O21 0.000000 0.248600 0.873823
O O22 0.818045 0.283438 0.000000
#
# Coordination Sequence:
#
# PCOD9387408 Si02
#       8
#     4   8   8   4   8   8   8   8
#     4  11  26  46  67  95 131 171 219 268 314 378
#     4   9  19  35  56  83 116 151 191 243 301 357
#     4  10  21  36  55  79 110 152 201 246 296 359
#     4  11  26  46  67  95 131 171 219 268 312 374
#     4  10  21  37  59  89 121 153 195 249 311 378
#     4  12  22  41  66  93 125 169 210 260 320 373
#     4  10  22  38  57  83 116 152 193 246 306 363
#     4  10  21  36  56  86 120 153 195 247 307 375
#
# _framework density 18.897570000000002
#
# number of rings (size 3 to 8) (size 9 to 14) (size 15 to 20)
#    0.000    1.714    1.429    2.571    2.000    4.571 
#    0.000    2.857    0.000    3.429    0.000    3.000 
#    0.000    0.000    0.000    0.000    0.000    0.000 
#
# Total GULP energy -312331.355649 kJ/mol
# GULP energy per Si atom -5577.345637 kJ/mol
# Density = 1.885456 g / cm^3
# Si number density = 18.897570 Si / 1000 Ang^3
#
#
#
# Elastic Constant Matrix: (Units=GPa)
#
#
# Indices 1 2 3 4 5 6 
#
# 1 79.9019 53.5739 50.4484 0.0000 0.0000 0.0000
# 2 53.5739 104.4409 30.7914 0.0000 0.0000 0.0000
# 3 50.4484 30.7914 92.6445 0.0000 0.0000 0.0000
# 4 0.0000 0.0000 0.0000 38.4391 0.0000 0.0000
# 5 0.0000 0.0000 0.0000 0.0000 26.6521 0.0000
# 6 0.0000 0.0000 0.0000 0.0000 0.0000 3.9154
#
#
#
# Elastic Compliance Matrix: (Units=1/GPa)
#
#
# Indices 1 2 3 4 5 6 
#
# 1 0.026281 -0.010268 -0.010898 0.000000 0.000000 0.000000
# 2 -0.010268 0.014627 0.000730 0.000000 0.000000 0.000000
# 3 -0.010898 0.000730 0.016486 0.000000 0.000000 0.000000
# 4 0.000000 0.000000 0.000000 0.026015 0.000000 0.000000
# 5 0.000000 0.000000 0.000000 0.000000 0.037520 0.000000
# 6 0.000000 0.000000 0.000000 0.000000 0.000000 0.255402
#
#
# Mechanical properties :
#
#
# Convention : Reuss Voigt Hill
#
# Bulk Modulus (GPa) = 60.52956 60.73497 60.63226
# Shear Modulus (GPa) = 11.82841 23.27956 17.55399
#
# Velocity S-wave (km/s) = 2.50456 3.51362 3.05110
# Velocity P-wave (km/s) = 6.36110 6.97636 6.67582
#
# Compressibility (1/GPa) = 0.01652085
#
# Stress axis : x y z
#
# Youngs Moduli (GPa) = 38.05037 68.36845 60.65802
#
# Poissons Ratio (x) = 0.70201 0.66107
# Poissons Ratio (y) = 0.39070 -0.04428
# Poissons Ratio (z) = 0.41468 -0.04991
#
# Static dielectric constant tensor:
#      x y z
#    x 0.871610 0.000000 0.000000 
#    y 0.000000 1.602950 0.000000 
#    z 0.000000 0.000000 1.699380 
# 
# From -- ./inp_files/21640.got.cif
#   From: 2010.05.17/outbox.cif.g08.bks.cpg/sg47_11_cif.got.tgz:21640.got - 2010.06.03 20:15:42.
