data_PCOD9387124
_publ_section_title
;
Structure prediction by ZEFSAII (Michael W. Deem and Ramdas Pophale) SiO2 
 PCOD9387124
Probable space group: P M M M
;
_chemical_formula_sum "Si O2"
_cell_formula_units_Z 48
_cell_length_a 8.008167
_cell_length_b 33.832393
_cell_length_c 9.620449
_cell_angle_alpha 90.000000
_cell_angle_beta 90.000000
_cell_angle_gamma 90.000000
_cell_volume 2606.520709
_symmetry_space_group_name_H-M "P M M M"
_symmetry_group_IT_number 47
_symmetry_cell_setting 'orthorhombic'
loop_
_space_group_symop_operation_xyz
x,y,z
-x,-y,z
x,-y,-z
-x,y,-z
-x,-y,-z
x,y,-z
-x,y,z
x,-y,z
loop_
_atom_site_type_symbol
_atom_site_label
_atom_site_fract_x
_atom_site_fract_y
_atom_site_fract_z
Si Si1 0.699917 0.574050 0.658864
Si Si2 0.801526 0.660415 0.657610
Si Si3 0.301344 0.734228 0.842138
Si Si4 0.799541 0.820861 0.159018
Si Si5 0.500000 0.954875 0.668790
Si Si6 0.803571 0.101968 0.332958
Si Si7 0.704985 0.500000 0.159828
O O1 0.765248 0.570757 0.500000
O O2 0.500000 0.569957 0.651420
O O3 0.737350 0.618166 0.711332
O O4 0.761137 0.539023 0.757353
O O5 0.734724 0.665292 0.500000
O O6 0.757710 0.697984 0.749675
O O7 0.000000 0.657576 0.650657
O O8 0.500000 0.732279 0.848877
O O9 0.254169 0.777767 0.788280
O O10 0.233128 0.731263 0.000000
O O11 0.753171 0.857568 0.255721
O O12 0.000000 0.820780 0.153510
O O13 0.735952 0.825441 0.000000
O O14 0.500000 0.955966 0.500000
O O15 0.668990 0.931390 0.708098
O O16 0.500000 0.000000 0.719159
O O17 0.794300 0.107067 0.500000
O O18 0.000000 0.093045 0.300193
O O19 0.500000 0.500000 0.159590
O O20 0.758697 0.500000 0.000000
#
# Coordination Sequence:
#
# PCOD9387124 Si02
#       7
#     8   8   8   8   4   8   4
#     4   9  17  31  51  72  96 127 162 200 246 300
#     4  10  21  36  53  74 101 134 171 210 254 303
#     4  10  21  35  52  76 103 133 171 211 253 306
#     4   9  18  33  52  74 102 136 170 207 255 307
#     4   9  18  32  51  77 107 137 173 219 269 316
#     4   9  18  32  51  76 104 135 174 217 261 312
#     4   9  17  29  48  75 100 122 156 203 250 295
#
# _framework density 18.415353
#
# number of rings (size 3 to 8) (size 9 to 14) (size 15 to 20)
#    0.000    2.667    0.000    1.250    1.167    4.667 
#    0.000    5.417    0.000    3.500    0.000    2.333 
#    0.000    0.000    0.000    0.000    0.000    0.000 
#
# Total GULP energy -267599.315227 kJ/mol
# GULP energy per Si atom -5574.985734 kJ/mol
# Density = 1.837344 g / cm^3
# Si number density = 18.415353 Si / 1000 Ang^3
#
#
#
# Elastic Constant Matrix: (Units=GPa)
#
#
# Indices 1 2 3 4 5 6 
#
# 1 43.1194 48.5251 24.2669 0.0000 0.0000 0.0000
# 2 48.5251 199.2845 77.4689 0.0000 0.0000 0.0000
# 3 24.2669 77.4689 52.4265 0.0000 0.0000 0.0000
# 4 0.0000 0.0000 0.0000 2.3869 0.0000 0.0000
# 5 0.0000 0.0000 0.0000 0.0000 13.2668 0.0000
# 6 0.0000 0.0000 0.0000 0.0000 0.0000 82.5358
#
#
#
# Elastic Compliance Matrix: (Units=1/GPa)
#
#
# Indices 1 2 3 4 5 6 
#
# 1 0.033339 -0.004979 -0.008074 0.000000 0.000000 0.000000
# 2 -0.004979 0.012535 -0.016217 0.000000 0.000000 0.000000
# 3 -0.008074 -0.016217 0.046775 0.000000 0.000000 0.000000
# 4 0.000000 0.000000 0.000000 0.418961 0.000000 0.000000
# 5 0.000000 0.000000 0.000000 0.000000 0.075376 0.000000
# 6 0.000000 0.000000 0.000000 0.000000 0.000000 0.012116
#
#
# Mechanical properties :
#
#
# Convention : Reuss Voigt Hill
#
# Bulk Modulus (GPa) = 29.31895 66.15024 47.73459
# Shear Modulus (GPa) = 7.47371 29.27587 18.37479
#
# Velocity S-wave (km/s) = 2.01674 3.99150 3.16222
# Velocity P-wave (km/s) = 4.62368 7.56584 6.26978
#
# Compressibility (1/GPa) = 0.03410764
#
# Stress axis : x y z
#
# Youngs Moduli (GPa) = 29.99503 79.77949 21.37886
#
# Poissons Ratio (x) = 0.39724 0.17262
# Poissons Ratio (y) = 0.14935 0.34670
# Poissons Ratio (z) = 0.24218 1.29380
#
# Static dielectric constant tensor:
#      x y z
#    x 1.652950 0.000000 0.000000 
#    y 0.000000 1.618080 0.000000 
#    z 0.000000 0.000000 1.621810 
# 
# From -- ./inp_files/2639.got.cif
#   From: 2010.05.17/outbox.cif.g08.bks.cpg/sg47_2_cif.got.tgz:2639.got - 2010.06.03 20:15:42.
