data_PCOD9387489
_publ_section_title
;
Structure prediction by ZEFSAII (Michael W. Deem and Ramdas Pophale) SiO2 
 PCOD9387489
Probable space group: P M M M
;
_chemical_formula_sum "Si O2"
_cell_formula_units_Z 32
_cell_length_a 17.525685
_cell_length_b 8.317404
_cell_length_c 10.974203
_cell_angle_alpha 90.000000
_cell_angle_beta 90.000000
_cell_angle_gamma 90.000000
_cell_volume 1599.689845
_symmetry_space_group_name_H-M "P M M M"
_symmetry_group_IT_number 47
_symmetry_cell_setting 'orthorhombic'
loop_
_space_group_symop_operation_xyz
x,y,z
-x,-y,z
x,-y,-z
-x,y,-z
-x,-y,-z
x,y,-z
-x,y,z
x,-y,z
loop_
_atom_site_type_symbol
_atom_site_label
_atom_site_fract_x
_atom_site_fract_y
_atom_site_fract_z
Si Si1 0.000000 0.680388 0.643069
Si Si2 0.410703 0.695932 0.864185
Si Si3 0.690398 0.307954 0.637945
Si Si4 0.845983 0.812009 0.252746
Si Si5 0.910157 0.692257 0.000000
O O1 0.075287 0.773775 0.679930
O O2 0.000000 0.500000 0.700403
O O3 0.000000 0.662599 0.500000
O O4 0.500000 0.737834 0.852562
O O5 0.406315 0.500000 0.864202
O O6 0.363192 0.755002 0.747706
O O7 0.384109 0.748231 0.000000
O O8 0.677524 0.244827 0.500000
O O9 0.678279 0.500000 0.632386
O O10 0.776652 0.276394 0.680826
O O11 0.829229 0.000000 0.252810
O O12 0.864170 0.752148 0.117116
O O13 0.911873 0.500000 0.000000
O O14 0.000000 0.747652 0.000000
#
# Coordination Sequence:
#
# PCOD9387489 Si02
#       5
#     4   8   8   8   4
#     4  11  23  40  61  82 109 151 201 247 294 349
#     4   8  15  30  54  85 117 150 194 247 299 348
#     4  10  21  36  56  85 119 157 201 246 294 351
#     4  12  25  39  58  85 118 152 193 242 295 352
#     4  11  23  41  65  87 111 148 193 242 298 353
#
# _framework density 20.003878
#
# number of rings (size 3 to 8) (size 9 to 14) (size 15 to 20)
#    0.000    1.750    1.250    4.500    1.750    5.500 
#    0.000    2.500    0.000    0.750    0.000    3.500 
#    0.000    0.000    0.000    0.000    0.000    0.000 
#
# Total GULP energy -178638.421344 kJ/mol
# GULP energy per Si atom -5582.450667 kJ/mol
# Density = 1.995835 g / cm^3
# Si number density = 20.003878 Si / 1000 Ang^3
#
#
#
# Elastic Constant Matrix: (Units=GPa)
#
#
# Indices 1 2 3 4 5 6 
#
# 1 90.9925 -15.4968 78.8189 0.0000 0.0000 0.0000
# 2 -15.4968 17.1386 6.1100 0.0000 0.0000 0.0000
# 3 78.8189 6.1100 203.6768 0.0000 0.0000 0.0000
# 4 0.0000 0.0000 0.0000 19.7282 0.0000 0.0000
# 5 0.0000 0.0000 0.0000 0.0000 81.7368 0.0000
# 6 0.0000 0.0000 0.0000 0.0000 0.0000 -3.1146
#
#
#
# Elastic Compliance Matrix: (Units=1/GPa)
#
#
# Indices 1 2 3 4 5 6 
#
# 1 0.023995 0.025277 -0.010044 0.000000 0.000000 0.000000
# 2 0.025277 0.085606 -0.012350 0.000000 0.000000 0.000000
# 3 -0.010044 -0.012350 0.009167 0.000000 0.000000 0.000000
# 4 0.000000 0.000000 0.000000 0.050689 0.000000 0.000000
# 5 0.000000 0.000000 0.000000 0.000000 0.012234 0.000000
# 6 0.000000 0.000000 0.000000 0.000000 0.000000 -0.321072
#
#
# Mechanical properties :
#
#
# Convention : Reuss Voigt Hill
#
# Bulk Modulus (GPa) = 8.02986 50.07467 29.05226
# Shear Modulus (GPa) = -48.24591 35.82847 -6.20872
#
# Velocity S-wave (km/s) = -4.91636 4.23670 -1.76366
# Velocity P-wave (km/s) = 5.31080 7.00141 3.22607
#
# Compressibility (1/GPa) = 0.12453520
#
# Stress axis : x y z
#
# Youngs Moduli (GPa) = 41.67550 11.68136 109.08723
#
# Poissons Ratio (x) = -0.29527 1.09565
# Poissons Ratio (y) = -1.05343 1.34720
# Poissons Ratio (z) = 0.41858 0.14426
#
# Static dielectric constant tensor:
#      x y z
#    x 1.676040 0.000000 0.000000 
#    y 0.000000 1.694200 0.000000 
#    z 0.000000 0.000000 1.785650 
# 
# From -- ./inp_files/14712.got.cif
#   From: 2010.05.17/outbox.cif.g08.bks.cpg/sg47_8_cif.got.tgz:14712.got - 2010.06.03 20:15:42.
