data_PCOD9387283
_publ_section_title
;
Structure prediction by ZEFSAII (Michael W. Deem and Ramdas Pophale) SiO2 
 PCOD9387283
Probable space group: P M M M
;
_chemical_formula_sum "Si O2"
_cell_formula_units_Z 64
_cell_length_a 9.035649
_cell_length_b 26.931954
_cell_length_c 14.402874
_cell_angle_alpha 90.000000
_cell_angle_beta 90.000000
_cell_angle_gamma 90.000000
_cell_volume 3504.906020
_symmetry_space_group_name_H-M "P M M M"
_symmetry_group_IT_number 47
_symmetry_cell_setting 'orthorhombic'
loop_
_space_group_symop_operation_xyz
x,y,z
-x,-y,z
x,-y,-z
-x,y,-z
-x,-y,-z
x,y,-z
-x,y,z
x,-y,z
loop_
_atom_site_type_symbol
_atom_site_label
_atom_site_fract_x
_atom_site_fract_y
_atom_site_fract_z
Si Si1 0.177457 0.396749 0.393802
Si Si2 0.825428 0.654990 0.111498
Si Si3 0.177104 0.057507 0.891118
Si Si4 0.824037 0.808835 0.390711
Si Si5 0.667983 0.294005 0.612728
Si Si6 0.322755 0.144724 0.223467
Si Si7 0.677563 0.242740 0.108575
Si Si8 0.820399 0.445909 0.207890
O O1 0.221679 0.408379 0.500000
O O2 0.251932 0.345181 0.363010
O O3 0.212994 0.437497 0.316651
O O4 0.000000 0.389801 0.393500
O O5 0.745455 0.705345 0.143019
O O6 0.768721 0.603324 0.154468
O O7 0.000000 0.659384 0.133737
O O8 0.810343 0.652043 0.000000
O O9 0.262421 0.096508 0.828395
O O10 0.000000 0.063549 0.879776
O O11 0.213031 0.000000 0.870074
O O12 0.211069 0.066086 0.000000
O O13 0.792318 0.816379 0.500000
O O14 0.758389 0.755099 0.362965
O O15 0.746897 0.848635 0.324889
O O16 0.000000 0.808966 0.378238
O O17 0.661923 0.294393 0.500000
O O18 0.500000 0.291340 0.648279
O O19 0.500000 0.143903 0.228332
O O20 0.277254 0.193941 0.165073
O O21 0.500000 0.246367 0.112707
O O22 0.720174 0.236747 0.000000
O O23 0.766433 0.500000 0.176207
O O24 0.000000 0.446280 0.198308
#
# Coordination Sequence:
#
# PCOD9387283 Si02
#       8
#     8   8   8   8   8   8   8   8
#     4   9  17  29  46  68  93 123 159 199 249 311
#     4   9  18  32  50  71  93 122 162 207 256 308
#     4   9  19  37  60  86 118 156 196 236 276 320
#     4  10  21  36  53  75 107 147 188 228 271 321
#     4   9  17  30  48  70  97 129 166 210 259 310
#     4  11  22  34  54  85 116 149 187 228 277 328
#     4   9  19  35  52  74 107 141 170 206 258 320
#     4   9  18  31  47  69  93 118 157 210 260 308
#
# _framework density 18.260117999999999
#
# number of rings (size 3 to 8) (size 9 to 14) (size 15 to 20)
#    0.000    2.625    0.000    1.875    1.750    4.750 
#    0.000    4.375    0.000    1.875    0.000    6.125 
#    0.000    0.000    0.000    0.000    0.000    0.000 
#
# Total GULP energy -357093.970741 kJ/mol
# GULP energy per Si atom -5579.593293 kJ/mol
# Density = 1.821856 g / cm^3
# Si number density = 18.260118 Si / 1000 Ang^3
#
#
#
# Elastic Constant Matrix: (Units=GPa)
#
#
# Indices 1 2 3 4 5 6 
#
# 1 34.4783 44.5332 33.3277 0.0000 0.0000 0.0000
# 2 44.5332 121.2092 53.2284 0.0000 0.0000 0.0000
# 3 33.3277 53.2284 57.4679 0.0000 0.0000 0.0000
# 4 0.0000 0.0000 0.0000 30.2418 0.0000 0.0000
# 5 0.0000 0.0000 0.0000 0.0000 16.5846 0.0000
# 6 0.0000 0.0000 0.0000 0.0000 0.0000 -70.3980
#
#
#
# Elastic Compliance Matrix: (Units=1/GPa)
#
#
# Indices 1 2 3 4 5 6 
#
# 1 0.079657 -0.015137 -0.032176 0.000000 0.000000 0.000000
# 2 -0.015137 0.016783 -0.006767 0.000000 0.000000 0.000000
# 3 -0.032176 -0.006767 0.042328 0.000000 0.000000 0.000000
# 4 0.000000 0.000000 0.000000 0.033067 0.000000 0.000000
# 5 0.000000 0.000000 0.000000 0.000000 0.060297 0.000000
# 6 0.000000 0.000000 0.000000 0.000000 0.000000 -0.014205
#
#
# Mechanical properties :
#
#
# Convention : Reuss Voigt Hill
#
# Bulk Modulus (GPa) = 32.66912 52.81488 42.74200
# Shear Modulus (GPa) = 14.86821 0.75677 7.81249
#
# Velocity S-wave (km/s) = 2.85659 0.64447 2.07068
# Velocity P-wave (km/s) = 5.36749 5.43509 5.40140
#
# Compressibility (1/GPa) = 0.03060995
#
# Stress axis : x y z
#
# Youngs Moduli (GPa) = 12.55390 59.58392 23.62489
#
# Poissons Ratio (x) = 0.90190 0.76015
# Poissons Ratio (y) = 0.19002 0.15986
# Poissons Ratio (z) = 0.40393 0.40318
#
# Static dielectric constant tensor:
#      x y z
#    x 1.612820 0.000000 0.000000 
#    y 0.000000 1.606740 0.000000 
#    z 0.000000 0.000000 1.662290 
# 
# From -- ./inp_files/21963.got.cif
#   From: 2010.05.17/outbox.cif.g08.bks.cpg/sg47_11_cif.got.tgz:21963.got - 2010.06.03 20:15:42.
