data_PCOD9387652
_publ_section_title
;
Structure prediction by ZEFSAII (Michael W. Deem and Ramdas Pophale) SiO2 
 PCOD9387652
Probable space group: P M M M
;
_chemical_formula_sum "Si O2"
_cell_formula_units_Z 36
_cell_length_a 9.600378
_cell_length_b 8.922617
_cell_length_c 23.488245
_cell_angle_alpha 90.000000
_cell_angle_beta 90.000000
_cell_angle_gamma 90.000000
_cell_volume 2012.014716
_symmetry_space_group_name_H-M "P M M M"
_symmetry_group_IT_number 47
_symmetry_cell_setting 'orthorhombic'
loop_
_space_group_symop_operation_xyz
x,y,z
-x,-y,z
x,-y,-z
-x,y,-z
-x,-y,-z
x,y,-z
-x,y,z
x,-y,z
loop_
_atom_site_type_symbol
_atom_site_label
_atom_site_fract_x
_atom_site_fract_y
_atom_site_fract_z
Si Si1 0.662272 0.820103 0.066118
Si Si2 0.663174 0.320174 0.609539
Si Si3 0.160212 0.317210 0.500000
Si Si4 0.336794 0.179086 0.268657
Si Si5 0.162460 0.320659 0.833460
O O1 0.500000 0.782955 0.077779
O O2 0.762396 0.738717 0.109892
O O3 0.675940 0.000000 0.072509
O O4 0.690950 0.783509 0.000000
O O5 0.500000 0.290540 0.597033
O O6 0.678177 0.500000 0.616454
O O7 0.757920 0.270712 0.556804
O O8 0.699152 0.241296 0.668846
O O9 0.161677 0.500000 0.500000
O O10 0.000000 0.268476 0.500000
O O11 0.500000 0.216742 0.258193
O O12 0.241873 0.251205 0.220406
O O13 0.323631 0.000000 0.267464
O O14 0.172077 0.500000 0.831032
O O15 0.000000 0.277887 0.833152
#
# Coordination Sequence:
#
# PCOD9387652 Si02
#       5
#     8   8   4   8   8
#     4   9  19  37  60  84 109 139 177 219 262 311
#     4   9  17  31  52  76 102 134 172 213 259 311
#     4   9  17  29  48  75 104 134 170 213 258 305
#     4  10  21  37  57  80 105 136 177 223 269 317
#     4  11  24  38  53  78 111 144 178 218 264 314
#
# _framework density 17.892513000000001
#
# number of rings (size 3 to 8) (size 9 to 14) (size 15 to 20)
#    0.000    2.333    0.000    3.000    0.000    9.333 
#    0.000    6.111    0.000    3.333    0.000    0.000 
#    0.000    0.000    0.000    0.000    0.000    0.000 
#
# Total GULP energy -201002.433324 kJ/mol
# GULP energy per Si atom -5583.400926 kJ/mol
# Density = 1.785179 g / cm^3
# Si number density = 17.892513 Si / 1000 Ang^3
#
#
#
# Elastic Constant Matrix: (Units=GPa)
#
#
# Indices 1 2 3 4 5 6 
#
# 1 140.7136 60.2901 134.5947 0.0000 0.0000 0.0000
# 2 60.2901 36.6049 63.1540 0.0000 0.0000 0.0000
# 3 134.5947 63.1540 172.5927 0.0000 0.0000 0.0000
# 4 0.0000 0.0000 0.0000 48.1170 0.0000 0.0000
# 5 0.0000 0.0000 0.0000 0.0000 -15.1309 0.0000
# 6 0.0000 0.0000 0.0000 0.0000 0.0000 23.5493
#
#
#
# Elastic Compliance Matrix: (Units=1/GPa)
#
#
# Indices 1 2 3 4 5 6 
#
# 1 0.037425 -0.030615 -0.017983 0.000000 0.000000 0.000000
# 2 -0.030615 0.099140 -0.012402 0.000000 0.000000 0.000000
# 3 -0.017983 -0.012402 0.024356 0.000000 0.000000 0.000000
# 4 0.000000 0.000000 0.000000 0.020783 0.000000 0.000000
# 5 0.000000 0.000000 0.000000 0.000000 -0.066090 0.000000
# 6 0.000000 0.000000 0.000000 0.000000 0.000000 0.042464
#
#
# Mechanical properties :
#
#
# Convention : Reuss Voigt Hill
#
# Bulk Modulus (GPa) = 25.69305 96.22098 60.95701
# Shear Modulus (GPa) = 17.06189 17.43191 17.24690
#
# Velocity S-wave (km/s) = 3.09135 3.12470 3.10807
# Velocity P-wave (km/s) = 5.20892 8.17999 6.85730
#
# Compressibility (1/GPa) = 0.03892104
#
# Stress axis : x y z
#
# Youngs Moduli (GPa) = 26.72016 10.08678 41.05749
#
# Poissons Ratio (x) = 0.30880 0.73834
# Poissons Ratio (y) = 0.81803 0.50920
# Poissons Ratio (z) = 0.48051 0.12510
#
# Static dielectric constant tensor:
#      x y z
#    x 1.595900 0.000000 0.000000 
#    y 0.000000 1.596620 0.000000 
#    z 0.000000 0.000000 1.584180 
# 
# From -- ./inp_files/31656.got.cif
#   From: 2010.05.17/outbox.cif.g08.bks.cpg/sg47_16_cif.got.tgz:31656.got - 2010.06.03 20:15:42.
