data_PCOD9387297
_publ_section_title
;
Structure prediction by ZEFSAII (Michael W. Deem and Ramdas Pophale) SiO2 
 PCOD9387297
Probable space group: P M M M
;
_chemical_formula_sum "Si O2"
_cell_formula_units_Z 37
_cell_length_a 20.438696
_cell_length_b 12.215451
_cell_length_c 7.596549
_cell_angle_alpha 90.000000
_cell_angle_beta 90.000000
_cell_angle_gamma 90.000000
_cell_volume 1896.614356
_symmetry_space_group_name_H-M "P M M M"
_symmetry_group_IT_number 47
_symmetry_cell_setting 'orthorhombic'
loop_
_space_group_symop_operation_xyz
x,y,z
-x,-y,z
x,-y,-z
-x,y,-z
-x,-y,-z
x,y,-z
-x,y,z
x,-y,z
loop_
_atom_site_type_symbol
_atom_site_label
_atom_site_fract_x
_atom_site_fract_y
_atom_site_fract_z
Si Si1 0.743731 0.000000 0.213523
Si Si2 0.500000 0.500000 0.500000
Si Si3 0.199999 0.627361 0.286343
Si Si4 0.675932 0.225248 0.204989
Si Si5 0.107111 0.000000 0.211464
Si Si6 0.572049 0.275447 0.500000
Si Si7 0.070864 0.754504 0.708231
O O1 0.707197 0.889835 0.265155
O O2 0.818070 0.000000 0.276386
O O3 0.746603 0.000000 0.000000
O O4 0.555635 0.403558 0.500000
O O5 0.201207 0.632066 0.500000
O O6 0.196474 0.500000 0.234974
O O7 0.266300 0.685464 0.223262
O O8 0.135998 0.694652 0.222506
O O9 0.614955 0.249682 0.329123
O O10 0.657223 0.217652 0.000000
O O11 0.076583 0.885392 0.269913
O O12 0.105699 0.000000 0.000000
O O13 0.500000 0.220080 0.500000
O O14 0.070043 0.730970 0.500000
O O15 0.000000 0.719352 0.781301
#
# Coordination Sequence:
#
# PCOD9387297 Si02
#       7
#     4   1   8   8   4   4   8
#     4   9  20  37  59  91 126 154 202 260 303 361
#     4   8  24  48  70  90 144 166 194 256 288 352
#     4  10  21  36  57  84 117 157 206 262 313 364
#     4  11  22  40  66  95 127 165 206 253 305 361
#     4  11  20  34  55  80 113 154 197 251 313 364
#     4  10  24  45  66  96 130 165 200 244 295 361
#     4  10  21  36  53  79 115 157 205 256 311 372
#
# _framework density 19.508445999999999
#
# number of rings (size 3 to 8) (size 9 to 14) (size 15 to 20)
#    0.324    1.514    3.243    0.649    1.514    3.459 
#    1.946    3.784    0.000    1.946    0.000    3.027 
#    0.000    0.000    0.000    0.000    0.000    0.000 
#
# Total GULP energy -206288.881593 kJ/mol
# GULP energy per Si atom -5575.375178 kJ/mol
# Density = 1.946404 g / cm^3
# Si number density = 19.508446 Si / 1000 Ang^3
#
#
#
# Elastic Constant Matrix: (Units=GPa)
#
#
# Indices 1 2 3 4 5 6 
#
# 1 177.0477 53.1809 45.2417 0.0000 0.0000 0.0000
# 2 53.1809 104.9106 9.2609 0.0000 0.0000 0.0000
# 3 45.2417 9.2609 75.2506 0.0000 0.0000 0.0000
# 4 0.0000 0.0000 0.0000 5.3967 0.0000 0.0000
# 5 0.0000 0.0000 0.0000 0.0000 -7.1373 0.0000
# 6 0.0000 0.0000 0.0000 0.0000 0.0000 54.3673
#
#
#
# Elastic Compliance Matrix: (Units=1/GPa)
#
#
# Indices 1 2 3 4 5 6 
#
# 1 0.007812 -0.003585 -0.004256 0.000000 0.000000 0.000000
# 2 -0.003585 0.011281 0.000767 0.000000 0.000000 0.000000
# 3 -0.004256 0.000767 0.015753 0.000000 0.000000 0.000000
# 4 0.000000 0.000000 0.000000 0.185298 0.000000 0.000000
# 5 0.000000 0.000000 0.000000 0.000000 -0.140110 0.000000
# 6 0.000000 0.000000 0.000000 0.000000 0.000000 0.018393
#
#
# Mechanical properties :
#
#
# Convention : Reuss Voigt Hill
#
# Bulk Modulus (GPa) = 48.30990 63.61953 55.96472
# Shear Modulus (GPa) = 41.84974 27.16039 34.50506
#
# Velocity S-wave (km/s) = 4.63667 3.73532 4.21018
# Velocity P-wave (km/s) = 7.31316 7.16139 7.23767
#
# Compressibility (1/GPa) = 0.02069969
#
# Stress axis : x y z
#
# Youngs Moduli (GPa) = 128.00157 88.64217 63.47916
#
# Poissons Ratio (x) = 0.31774 0.27015
# Poissons Ratio (y) = 0.45883 -0.04867
# Poissons Ratio (z) = 0.54475 -0.06796
#
# Static dielectric constant tensor:
#      x y z
#    x 1.692440 0.000000 0.000000 
#    y 0.000000 1.658310 0.000000 
#    z 0.000000 0.000000 1.711910 
# 
# From -- ./inp_files/8723.got.cif
#   From: 2010.05.17/outbox.cif.g08.bks.cpg/sg47_5_cif.got.tgz:8723.got - 2010.06.03 20:15:42.
