data_PCOD9387021
_publ_section_title
;
Structure prediction by ZEFSAII (Michael W. Deem and Ramdas Pophale) SiO2 
 PCOD9387021
Probable space group: P M M M
;
_chemical_formula_sum "Si O2"
_cell_formula_units_Z 48
_cell_length_a 32.439886
_cell_length_b 9.697314
_cell_length_c 7.929279
_cell_angle_alpha 90.000000
_cell_angle_beta 90.000000
_cell_angle_gamma 90.000000
_cell_volume 2494.390690
_symmetry_space_group_name_H-M "P M M M"
_symmetry_group_IT_number 47
_symmetry_cell_setting 'orthorhombic'
loop_
_space_group_symop_operation_xyz
x,y,z
-x,-y,z
x,-y,-z
-x,y,-z
-x,-y,-z
x,y,-z
-x,y,z
x,-y,z
loop_
_atom_site_type_symbol
_atom_site_label
_atom_site_fract_x
_atom_site_fract_y
_atom_site_fract_z
Si Si1 0.666188 0.343383 0.701108
Si Si2 0.000000 0.667637 0.694460
Si Si3 0.089852 0.341475 0.295730
Si Si4 0.410767 0.157369 0.796525
Si Si5 0.757152 0.657593 0.797772
Si Si6 0.832484 0.843067 0.203229
Si Si7 0.500000 0.168163 0.804204
O O1 0.667105 0.348732 0.500000
O O2 0.661538 0.500000 0.767625
O O3 0.627808 0.251051 0.753268
O O4 0.710987 0.292016 0.759705
O O5 0.044530 0.704806 0.768763
O O6 0.000000 0.500000 0.690403
O O7 0.000000 0.716528 0.500000
O O8 0.087498 0.344619 0.500000
O O9 0.097678 0.500000 0.240087
O O10 0.126329 0.241008 0.244922
O O11 0.455538 0.208592 0.730800
O O12 0.404390 0.000000 0.737239
O O13 0.414158 0.152457 0.000000
O O14 0.761124 0.500000 0.732156
O O15 0.793012 0.757005 0.732720
O O16 0.761329 0.650845 0.000000
O O17 0.833506 0.000000 0.266906
O O18 0.829227 0.849160 0.000000
O O19 0.500000 0.000000 0.803919
O O20 0.500000 0.213377 0.000000
#
# Coordination Sequence:
#
# PCOD9387021 Si02
#       7
#     8   4   8   8   8   8   4
#     4  10  21  35  50  72 103 133 160 196 244 295
#     4   7  12  26  48  73  98 124 160 205 244 279
#     4   9  17  31  53  77  99 127 165 206 245 286
#     4   9  17  31  53  77  99 127 165 206 245 286
#     4   9  18  34  54  71  90 124 168 207 242 285
#     4  10  21  35  50  72 103 133 160 196 244 295
#     4   7  12  26  48  73  98 124 160 205 244 279
#
# _framework density 19.243176999999999
#
# number of rings (size 3 to 8) (size 9 to 14) (size 15 to 20)
#    0.000    3.000    0.000    3.000    0.000    4.000 
#    0.000    5.000    0.000    8.000    0.000    0.000 
#    0.000    0.000    0.000    0.000    0.000    0.000 
#
# Total GULP energy -267469.812869 kJ/mol
# GULP energy per Si atom -5572.287768 kJ/mol
# Density = 1.919938 g / cm^3
# Si number density = 19.243177 Si / 1000 Ang^3
#
#
#
# Elastic Constant Matrix: (Units=GPa)
#
#
# Indices 1 2 3 4 5 6 
#
# 1 233.8039 107.8895 5.5831 0.0000 0.0000 0.0000
# 2 107.8895 89.9042 7.6144 0.0000 0.0000 0.0000
# 3 5.5831 7.6144 16.9282 0.0000 0.0000 0.0000
# 4 0.0000 0.0000 0.0000 3.5680 0.0000 0.0000
# 5 0.0000 0.0000 0.0000 0.0000 28.3719 0.0000
# 6 0.0000 0.0000 0.0000 0.0000 0.0000 38.3134
#
#
#
# Elastic Compliance Matrix: (Units=1/GPa)
#
#
# Indices 1 2 3 4 5 6 
#
# 1 0.009657 -0.011767 0.002108 0.000000 0.000000 0.000000
# 2 -0.011767 0.025902 -0.007770 0.000000 0.000000 0.000000
# 3 0.002108 -0.007770 0.061873 0.000000 0.000000 0.000000
# 4 0.000000 0.000000 0.000000 0.280270 0.000000 0.000000
# 5 0.000000 0.000000 0.000000 0.000000 0.035246 0.000000
# 6 0.000000 0.000000 0.000000 0.000000 0.000000 0.026101
#
#
# Mechanical properties :
#
#
# Convention : Reuss Voigt Hill
#
# Bulk Modulus (GPa) = 15.98125 64.75672 40.36898
# Shear Modulus (GPa) = 10.10583 28.68728 19.39655
#
# Velocity S-wave (km/s) = 2.29413 3.86525 3.17830
# Velocity P-wave (km/s) = 3.91667 7.32428 5.87305
#
# Compressibility (1/GPa) = 0.06257333
#
# Stress axis : x y z
#
# Youngs Moduli (GPa) = 103.55523 38.60700 16.16224
#
# Poissons Ratio (x) = 0.45429 -0.03407
# Poissons Ratio (y) = 1.21854 0.12558
# Poissons Ratio (z) = -0.21829 0.29997
#
# Static dielectric constant tensor:
#      x y z
#    x 1.691030 0.000000 0.000000 
#    y 0.000000 1.660660 0.000000 
#    z 0.000000 0.000000 1.705050 
# 
# From -- ./inp_files/13858.got.cif
#   From: 2010.05.17/outbox.cif.g08.bks.cpg/sg47_7_cif.got.tgz:13858.got - 2010.06.03 20:15:42.
