data_PCOD9387736
_publ_section_title
;
Structure prediction by ZEFSAII (Michael W. Deem and Ramdas Pophale) SiO2 
 PCOD9387736
Probable space group: P M M M
;
_chemical_formula_sum "Si O2"
_cell_formula_units_Z 64
_cell_length_a 20.892303
_cell_length_b 8.498718
_cell_length_c 19.126660
_cell_angle_alpha 90.000000
_cell_angle_beta 90.000000
_cell_angle_gamma 90.000000
_cell_volume 3396.087510
_symmetry_space_group_name_H-M "P M M M"
_symmetry_group_IT_number 47
_symmetry_cell_setting 'orthorhombic'
loop_
_space_group_symop_operation_xyz
x,y,z
-x,-y,z
x,-y,-z
-x,y,-z
-x,-y,-z
x,y,-z
-x,y,z
x,-y,z
loop_
_atom_site_type_symbol
_atom_site_label
_atom_site_fract_x
_atom_site_fract_y
_atom_site_fract_z
Si Si1 0.307357 0.811878 0.419932
Si Si2 0.190168 0.812008 0.830508
Si Si3 0.072632 0.691732 0.580304
Si Si4 0.926703 0.310085 0.080406
Si Si5 0.191266 0.688373 0.673341
Si Si6 0.573435 0.809895 0.818338
Si Si7 0.426287 0.688263 0.663289
Si Si8 0.687039 0.807810 0.080239
O O1 0.299766 0.758025 0.500000
O O2 0.252428 0.740864 0.371163
O O3 0.375974 0.762459 0.389568
O O4 0.302145 0.000000 0.418100
O O5 0.124853 0.758692 0.867194
O O6 0.194867 0.749949 0.751972
O O7 0.249995 0.756132 0.877662
O O8 0.192670 0.000000 0.828635
O O9 0.086447 0.739246 0.500000
O O10 0.072914 0.500000 0.580994
O O11 0.127158 0.745769 0.633373
O O12 0.000000 0.741249 0.597839
O O13 0.924110 0.500000 0.083295
O O14 0.000000 0.263370 0.096156
O O15 0.912604 0.263082 0.000000
O O16 0.189236 0.500000 0.675221
O O17 0.500000 0.765687 0.834909
O O18 0.589761 0.740907 0.742372
O O19 0.624097 0.759561 0.876710
O O20 0.576077 0.000000 0.813157
O O21 0.500000 0.736811 0.650015
O O22 0.422733 0.500000 0.658908
O O23 0.687386 0.000000 0.079129
O O24 0.687207 0.754308 0.000000
#
# Coordination Sequence:
#
# PCOD9387736 Si02
#       8
#     8   8   8   8   8   8   8   8
#     4  11  24  40  58  81 111 146 183 227 279 333
#     4  11  22  35  53  78 110 147 185 227 278 335
#     4   8  15  30  53  80 107 135 171 216 265 317
#     4   9  19  37  59  81 107 141 183 233 286 338
#     4  11  22  36  57  83 111 145 185 229 275 325
#     4   9  17  31  54  81 108 140 176 216 265 320
#     4  10  21  37  58  83 111 144 182 224 269 323
#     4   9  18  32  50  74 104 137 176 223 269 313
#
# _framework density 18.845217000000002
#
# number of rings (size 3 to 8) (size 9 to 14) (size 15 to 20)
#    0.000    2.250    0.000    3.750    0.000    5.250 
#    0.000    5.000    0.000    3.000    0.000    6.125 
#    0.000    0.000    0.000    0.000    0.000    0.000 
#
# Total GULP energy -357380.092112 kJ/mol
# GULP energy per Si atom -5584.063939 kJ/mol
# Density = 1.880232 g / cm^3
# Si number density = 18.845217 Si / 1000 Ang^3
#
#
#
# Elastic Constant Matrix: (Units=GPa)
#
#
# Indices 1 2 3 4 5 6 
#
# 1 112.9952 24.1293 99.6354 0.0000 0.0000 0.0000
# 2 24.1293 22.5848 30.6690 0.0000 0.0000 0.0000
# 3 99.6354 30.6690 159.6783 0.0000 0.0000 0.0000
# 4 0.0000 0.0000 0.0000 -59.7701 0.0000 0.0000
# 5 0.0000 0.0000 0.0000 0.0000 42.2685 0.0000
# 6 0.0000 0.0000 0.0000 0.0000 0.0000 19.9560
#
#
#
# Elastic Compliance Matrix: (Units=1/GPa)
#
#
# Indices 1 2 3 4 5 6 
#
# 1 0.020271 -0.006062 -0.011484 0.000000 0.000000 0.000000
# 2 -0.006062 0.061714 -0.008071 0.000000 0.000000 0.000000
# 3 -0.011484 -0.008071 0.014979 0.000000 0.000000 0.000000
# 4 0.000000 0.000000 0.000000 -0.016731 0.000000 0.000000
# 5 0.000000 0.000000 0.000000 0.000000 0.023658 0.000000
# 6 0.000000 0.000000 0.000000 0.000000 0.000000 0.050110
#
#
# Mechanical properties :
#
#
# Convention : Reuss Voigt Hill
#
# Bulk Modulus (GPa) = 21.86787 67.12509 44.49648
# Shear Modulus (GPa) = 22.67807 9.87919 16.27863
#
# Velocity S-wave (km/s) = 3.47275 2.29209 2.94225
# Velocity P-wave (km/s) = 5.26394 6.53463 5.93340
#
# Compressibility (1/GPa) = 0.04572919
#
# Stress axis : x y z
#
# Youngs Moduli (GPa) = 49.33202 16.20389 66.76234
#
# Poissons Ratio (x) = 0.09823 0.76671
# Poissons Ratio (y) = 0.29906 0.53881
# Poissons Ratio (z) = 0.56654 0.13077
#
# Static dielectric constant tensor:
#      x y z
#    x 1.646690 0.000000 0.000000 
#    y 0.000000 1.647790 0.000000 
#    z 0.000000 0.000000 1.625590 
# 
# From -- ./inp_files/28788.got.cif
#   From: 2010.05.17/outbox.cif.g08.bks.cpg/sg47_15_cif.got.tgz:28788.got - 2010.06.03 20:15:42.
