data_PCOD9387034
_publ_section_title
;
Structure prediction by ZEFSAII (Michael W. Deem and Ramdas Pophale) SiO2 
 PCOD9387034
Probable space group: P M M M
;
_chemical_formula_sum "Si O2"
_cell_formula_units_Z 60
_cell_length_a 12.119883
_cell_length_b 22.252762
_cell_length_c 13.090489
_cell_angle_alpha 90.000000
_cell_angle_beta 90.000000
_cell_angle_gamma 90.000000
_cell_volume 3530.516296
_symmetry_space_group_name_H-M "P M M M"
_symmetry_group_IT_number 47
_symmetry_cell_setting 'orthorhombic'
loop_
_space_group_symop_operation_xyz
x,y,z
-x,-y,z
x,-y,-z
-x,y,-z
-x,-y,-z
x,y,-z
-x,y,z
x,-y,z
loop_
_atom_site_type_symbol
_atom_site_label
_atom_site_fract_x
_atom_site_fract_y
_atom_site_fract_z
Si Si1 0.794602 0.363121 0.735261
Si Si2 0.626033 0.572229 0.883105
Si Si3 0.266092 0.165421 0.743550
Si Si4 0.000000 0.427698 0.622776
Si Si5 0.870057 0.256763 0.881597
Si Si6 0.631758 0.067085 0.114780
Si Si7 0.628286 0.274244 0.378061
Si Si8 0.130228 0.932621 0.622033
O O1 0.714382 0.404997 0.802238
O O2 0.848382 0.316775 0.816013
O O3 0.714127 0.324480 0.661622
O O4 0.890936 0.397987 0.674279
O O5 0.500000 0.592150 0.859765
O O6 0.625882 0.500000 0.882826
O O7 0.651337 0.591719 0.000000
O O8 0.194774 0.204605 0.822767
O O9 0.336976 0.118813 0.808317
O O10 0.336534 0.212326 0.676951
O O11 0.190754 0.122888 0.673561
O O12 0.000000 0.500000 0.639160
O O13 0.000000 0.417007 0.500000
O O14 0.000000 0.243841 0.880503
O O15 0.834811 0.263059 0.000000
O O16 0.500000 0.064496 0.109924
O O17 0.670954 0.000000 0.143591
O O18 0.673407 0.079871 0.000000
O O19 0.637493 0.268250 0.500000
O O20 0.500000 0.288587 0.353504
O O21 0.143645 0.928975 0.500000
O O22 0.000000 0.929192 0.644448
O O23 0.168206 0.000000 0.653185
#
# Coordination Sequence:
#
# PCOD9387034 Si02
#       8
#     8   8   8   4   8   8   8   8
#     4  11  20  37  59  78 105 146 182 211 263 324
#     4   9  18  33  55  85 116 142 174 217 260 309
#     4  11  19  31  53  74  99 132 176 214 268 318
#     4  11  24  40  59  85 113 139 177 230 274 313
#     4  10  21  35  50  73 105 137 171 213 256 303
#     4   9  18  32  49  71  99 129 164 209 260 316
#     4  10  22  37  53  76 105 138 178 225 268 313
#     4   9  18  32  49  71 100 133 173 222 270 318
#
# _framework density 16.994681
#
# number of rings (size 3 to 8) (size 9 to 14) (size 15 to 20)
#    0.000    2.067    0.667    4.800    0.000    0.000 
#    0.000    0.000    0.000    8.000    0.000   16.800 
#    0.000    0.000    0.000    0.000    0.000    0.000 
#
# Total GULP energy -334524.503135 kJ/mol
# GULP energy per Si atom -5575.408386 kJ/mol
# Density = 1.695600 g / cm^3
# Si number density = 16.994681 Si / 1000 Ang^3
#
#
#
# Elastic Constant Matrix: (Units=GPa)
#
#
# Indices 1 2 3 4 5 6 
#
# 1 105.8967 59.3077 73.4389 0.0000 0.0000 0.0000
# 2 59.3077 104.8295 61.0788 0.0000 0.0000 0.0000
# 3 73.4389 61.0788 107.9040 0.0000 0.0000 0.0000
# 4 0.0000 0.0000 0.0000 27.0745 0.0000 0.0000
# 5 0.0000 0.0000 0.0000 0.0000 34.2262 0.0000
# 6 0.0000 0.0000 0.0000 0.0000 0.0000 26.9555
#
#
#
# Elastic Compliance Matrix: (Units=1/GPa)
#
#
# Indices 1 2 3 4 5 6 
#
# 1 0.019442 -0.004908 -0.010453 0.000000 0.000000 0.000000
# 2 -0.004908 0.015473 -0.005418 0.000000 0.000000 0.000000
# 3 -0.010453 -0.005418 0.019449 0.000000 0.000000 0.000000
# 4 0.000000 0.000000 0.000000 0.036935 0.000000 0.000000
# 5 0.000000 0.000000 0.000000 0.000000 0.029217 0.000000
# 6 0.000000 0.000000 0.000000 0.000000 0.000000 0.037098
#
#
# Mechanical properties :
#
#
# Convention : Reuss Voigt Hill
#
# Bulk Modulus (GPa) = 78.10059 78.47567 78.28813
# Shear Modulus (GPa) = 24.57715 25.97156 25.27436
#
# Velocity S-wave (km/s) = 3.80698 3.91348 3.86060
# Velocity P-wave (km/s) = 8.08578 8.16684 8.12641
#
# Compressibility (1/GPa) = 0.01280400
#
# Stress axis : x y z
#
# Youngs Moduli (GPa) = 51.43624 64.62909 51.41728
#
# Poissons Ratio (x) = 0.31723 0.53749
# Poissons Ratio (y) = 0.25247 0.27856
# Poissons Ratio (z) = 0.53768 0.35014
#
# Static dielectric constant tensor:
#      x y z
#    x 1.561930 0.000000 0.000000 
#    y 0.000000 1.558560 0.000000 
#    z 0.000000 0.000000 1.565270 
# 
# From -- ./inp_files/16594.got.cif
#   From: 2010.05.17/outbox.cif.g08.bks.cpg/sg47_9_cif.got.tgz:16594.got - 2010.06.03 20:15:42.
