data_PCOD9387169
_publ_section_title
;
Structure prediction by ZEFSAII (Michael W. Deem and Ramdas Pophale) SiO2 
 PCOD9387169
Probable space group: P M M M
;
_chemical_formula_sum "Si O2"
_cell_formula_units_Z 52
_cell_length_a 14.802405
_cell_length_b 22.140200
_cell_length_c 7.890729
_cell_angle_alpha 90.000000
_cell_angle_beta 90.000000
_cell_angle_gamma 90.000000
_cell_volume 2586.014469
_symmetry_space_group_name_H-M "P M M M"
_symmetry_group_IT_number 47
_symmetry_cell_setting 'orthorhombic'
loop_
_space_group_symop_operation_xyz
x,y,z
-x,-y,z
x,-y,-z
-x,y,-z
-x,-y,-z
x,y,-z
-x,y,z
x,-y,z
loop_
_atom_site_type_symbol
_atom_site_label
_atom_site_fract_x
_atom_site_fract_y
_atom_site_fract_z
Si Si1 0.898230 0.899000 0.304244
Si Si2 0.601164 0.315249 0.801507
Si Si3 0.291792 0.935025 0.195925
Si Si4 0.397773 0.818319 0.697921
Si Si5 0.790834 0.641703 0.793685
Si Si6 0.105963 0.427702 0.500000
Si Si7 0.103732 0.764194 0.199793
O O1 0.895476 0.918103 0.500000
O O2 0.816205 0.929811 0.209287
O O3 0.881379 0.826805 0.295442
O O4 0.000000 0.909521 0.238382
O O5 0.500000 0.322528 0.726457
O O6 0.626678 0.244305 0.787619
O O7 0.685569 0.354486 0.740092
O O8 0.594545 0.329049 0.000000
O O9 0.334467 0.875520 0.275760
O O10 0.319866 0.000000 0.270484
O O11 0.318386 0.934067 0.000000
O O12 0.398600 0.803600 0.500000
O O13 0.500000 0.834363 0.752090
O O14 0.845621 0.597824 0.669525
O O15 0.831995 0.708492 0.762297
O O16 0.798602 0.630339 0.000000
O O17 0.111033 0.500000 0.500000
O O18 0.000000 0.409828 0.500000
O O19 0.000000 0.745205 0.230648
O O20 0.112972 0.778536 0.000000
#
# Coordination Sequence:
#
# PCOD9387169 Si02
#       7
#     8   8   8   8   8   4   8
#     4  10  21  35  53  78 106 137 174 227 295 356
#     4   9  18  34  59  92 125 155 190 236 293 355
#     4  11  24  39  54  71  96 140 193 237 280 338
#     4  10  21  36  57  86 116 145 178 225 288 349
#     4  10  21  37  61  91 123 163 205 248 299 351
#     4  11  26  44  63  91 125 165 211 254 294 340
#     4   9  17  30  51  80 110 140 178 227 287 352
#
# _framework density 20.108162
#
# number of rings (size 3 to 8) (size 9 to 14) (size 15 to 20)
#    0.000    2.077    0.000    2.769    2.154    6.154 
#    0.000    3.846    0.000    0.923    0.000    2.154 
#    0.000    0.000    0.000    0.000    0.000    0.000 
#
# Total GULP energy -290183.013612 kJ/mol
# GULP energy per Si atom -5580.442569 kJ/mol
# Density = 2.006240 g / cm^3
# Si number density = 20.108162 Si / 1000 Ang^3
#
#
#
# Elastic Constant Matrix: (Units=GPa)
#
#
# Indices 1 2 3 4 5 6 
#
# 1 116.3075 54.8251 31.8651 0.0000 0.0000 0.0000
# 2 54.8251 48.0662 16.4045 0.0000 0.0000 0.0000
# 3 31.8651 16.4045 41.1172 0.0000 0.0000 0.0000
# 4 0.0000 0.0000 0.0000 16.3176 0.0000 0.0000
# 5 0.0000 0.0000 0.0000 0.0000 20.6243 0.0000
# 6 0.0000 0.0000 0.0000 0.0000 0.0000 11.0457
#
#
#
# Elastic Compliance Matrix: (Units=1/GPa)
#
#
# Indices 1 2 3 4 5 6 
#
# 1 0.020449 -0.020740 -0.007573 0.000000 0.000000 0.000000
# 2 -0.020740 0.045119 -0.001928 0.000000 0.000000 0.000000
# 3 -0.007573 -0.001928 0.030959 0.000000 0.000000 0.000000
# 4 0.000000 0.000000 0.000000 0.061283 0.000000 0.000000
# 5 0.000000 0.000000 0.000000 0.000000 0.048487 0.000000
# 6 0.000000 0.000000 0.000000 0.000000 0.000000 0.090533
#
#
# Mechanical properties :
#
#
# Convention : Reuss Voigt Hill
#
# Bulk Modulus (GPa) = 27.74313 45.74225 36.74269
# Shear Modulus (GPa) = 13.53814 16.42395 14.98104
#
# Velocity S-wave (km/s) = 2.59755 2.86104 2.73247
# Velocity P-wave (km/s) = 4.77737 5.80616 5.31671
#
# Compressibility (1/GPa) = 0.03604496
#
# Stress axis : x y z
#
# Youngs Moduli (GPa) = 48.90179 22.16362 32.30085
#
# Poissons Ratio (x) = 0.45967 0.24462
# Poissons Ratio (y) = 1.01422 0.06227
# Poissons Ratio (z) = 0.37034 0.04273
#
# Static dielectric constant tensor:
#      x y z
#    x 1.758860 0.000000 0.000000 
#    y 0.000000 1.687300 0.000000 
#    z 0.000000 0.000000 1.718940 
# 
# From -- ./inp_files/7058.got.cif
#   From: 2010.05.17/outbox.cif.g08.bks.cpg/sg47_4_cif.got.tgz:7058.got - 2010.06.03 20:15:42.
