data_PCOD9387832
_publ_section_title
;
Structure prediction by ZEFSAII (Michael W. Deem and Ramdas Pophale) SiO2 
 PCOD9387832
Probable space group: P M M M
;
_chemical_formula_sum "Si O2"
_cell_formula_units_Z 52
_cell_length_a 19.113179
_cell_length_b 17.570263
_cell_length_c 7.857686
_cell_angle_alpha 90.000000
_cell_angle_beta 90.000000
_cell_angle_gamma 90.000000
_cell_volume 2638.796257
_symmetry_space_group_name_H-M "P M M M"
_symmetry_group_IT_number 47
_symmetry_cell_setting 'orthorhombic'
loop_
_space_group_symop_operation_xyz
x,y,z
-x,-y,z
x,-y,-z
-x,y,-z
-x,-y,-z
x,y,-z
-x,y,z
x,-y,z
loop_
_atom_site_type_symbol
_atom_site_label
_atom_site_fract_x
_atom_site_fract_y
_atom_site_fract_z
Si Si1 0.417164 0.085112 0.500000
Si Si2 0.788925 0.914201 0.206878
Si Si3 0.919635 0.661916 0.297888
Si Si4 0.420405 0.500000 0.297857
Si Si5 0.652536 0.178896 0.794528
Si Si6 0.919994 0.500000 0.202005
Si Si7 0.920718 0.826866 0.797980
Si Si8 0.580596 0.334695 0.797130
O O1 0.500000 0.081817 0.500000
O O2 0.394370 0.127151 0.327663
O O3 0.387565 0.000000 0.500000
O O4 0.730432 0.851040 0.245977
O O5 0.864469 0.886348 0.270557
O O6 0.771682 0.000000 0.264378
O O7 0.791779 0.916730 0.000000
O O8 0.921742 0.668603 0.500000
O O9 0.886669 0.580303 0.254643
O O10 0.891613 0.741188 0.227353
O O11 0.000000 0.658280 0.230169
O O12 0.500000 0.500000 0.225569
O O13 0.424113 0.500000 0.500000
O O14 0.390456 0.418427 0.245830
O O15 0.630890 0.265176 0.747828
O O16 0.641436 0.169011 0.000000
O O17 0.000000 0.500000 0.276148
O O18 0.924678 0.500000 0.000000
O O19 0.000000 0.830925 0.726866
O O20 0.926121 0.839407 0.000000
O O21 0.500000 0.327067 0.728143
O O22 0.574825 0.330716 0.000000
#
# Coordination Sequence:
#
# PCOD9387832 Si02
#       8
#     4   8   8   4   8   4   8   8
#     4  11  24  38  56  85 116 148 190 237 283 334
#     4   9  18  34  56  79 104 138 181 228 280 340
#     4   9  16  26  41  64  96 130 163 203 255 314
#     4   9  17  27  45  76 111 146 180 222 273 319
#     4  10  21  38  59  82 113 153 193 235 284 338
#     4   9  15  23  39  64  93 126 163 202 248 305
#     4   9  17  30  50  76 104 134 173 225 282 337
#     4   9  17  30  50  77 109 146 186 227 271 323
#
# _framework density 19.705953999999998
#
# number of rings (size 3 to 8) (size 9 to 14) (size 15 to 20)
#    0.000    2.692    0.000    1.846    1.077    5.846 
#    1.385    2.308    0.000    0.923    0.000    5.385 
#    0.000    0.000    0.000    0.000    0.000    0.000 
#
# Total GULP energy -289539.740616 kJ/mol
# GULP energy per Si atom -5568.071935 kJ/mol
# Density = 1.966110 g / cm^3
# Si number density = 19.705954 Si / 1000 Ang^3
#
#
#
# Elastic Constant Matrix: (Units=GPa)
#
#
# Indices 1 2 3 4 5 6 
#
# 1 74.4158 64.5448 14.5172 0.0000 0.0000 0.0000
# 2 64.5448 177.3938 14.4421 0.0000 0.0000 0.0000
# 3 14.5172 14.4421 36.0483 0.0000 0.0000 0.0000
# 4 0.0000 0.0000 0.0000 -28.5031 0.0000 0.0000
# 5 0.0000 0.0000 0.0000 0.0000 8.1724 0.0000
# 6 0.0000 0.0000 0.0000 0.0000 0.0000 20.5279
#
#
#
# Elastic Compliance Matrix: (Units=1/GPa)
#
#
# Indices 1 2 3 4 5 6 
#
# 1 0.020631 -0.007060 -0.005480 0.000000 0.000000 0.000000
# 2 -0.007060 0.008244 -0.000459 0.000000 0.000000 0.000000
# 3 -0.005480 -0.000459 0.030131 0.000000 0.000000 0.000000
# 4 0.000000 0.000000 0.000000 -0.035084 0.000000 0.000000
# 5 0.000000 0.000000 0.000000 0.000000 0.122363 0.000000
# 6 0.000000 0.000000 0.000000 0.000000 0.000000 0.048714
#
#
# Mechanical properties :
#
#
# Convention : Reuss Voigt Hill
#
# Bulk Modulus (GPa) = 30.29674 52.76288 41.52981
# Shear Modulus (GPa) = 21.55171 12.99637 17.27404
#
# Velocity S-wave (km/s) = 3.31065 2.57089 2.96394
# Velocity P-wave (km/s) = 5.47920 5.97041 5.73007
#
# Compressibility (1/GPa) = 0.03300685
#
# Stress axis : x y z
#
# Youngs Moduli (GPa) = 48.47104 121.30768 33.18807
#
# Poissons Ratio (x) = 0.85648 0.18186
# Poissons Ratio (y) = 0.34223 0.01524
# Poissons Ratio (z) = 0.26561 0.05571
#
# Static dielectric constant tensor:
#      x y z
#    x 1.706950 0.000000 0.000000 
#    y 0.000000 1.737640 0.000000 
#    z 0.000000 0.000000 1.680430 
# 
# From -- ./inp_files/11153.got.cif
#   From: 2010.05.17/outbox.cif.g08.bks.cpg/sg47_6_cif.got.tgz:11153.got - 2010.06.03 20:15:42.
