data_PCOD9387113
_publ_section_title
;
Structure prediction by ZEFSAII (Michael W. Deem and Ramdas Pophale) SiO2 
 PCOD9387113
Probable space group: P M M M
;
_chemical_formula_sum "Si O2"
_cell_formula_units_Z 64
_cell_length_a 25.790441
_cell_length_b 14.970613
_cell_length_c 8.728620
_cell_angle_alpha 90.000000
_cell_angle_beta 90.000000
_cell_angle_gamma 90.000000
_cell_volume 3370.108934
_symmetry_space_group_name_H-M "P M M M"
_symmetry_group_IT_number 47
_symmetry_cell_setting 'orthorhombic'
loop_
_space_group_symop_operation_xyz
x,y,z
-x,-y,z
x,-y,-z
-x,y,-z
-x,-y,-z
x,y,-z
-x,y,z
x,-y,z
loop_
_atom_site_type_symbol
_atom_site_label
_atom_site_fract_x
_atom_site_fract_y
_atom_site_fract_z
Si Si1 0.721146 0.597939 0.814168
Si Si2 0.343010 0.895732 0.685555
Si Si3 0.938800 0.784450 0.180930
Si Si4 0.557493 0.782165 0.684629
Si Si5 0.850481 0.102656 0.682437
Si Si6 0.401249 0.399878 0.184402
Si Si7 0.937040 0.598168 0.320528
Si Si8 0.755099 0.788946 0.816072
O O1 0.738647 0.500000 0.758833
O O2 0.660015 0.608016 0.777027
O O3 0.750808 0.686072 0.761286
O O4 0.724013 0.596441 0.000000
O O5 0.339887 0.891244 0.500000
O O6 0.396104 0.847116 0.735413
O O7 0.294544 0.842886 0.754605
O O8 0.342103 0.000000 0.728842
O O9 0.905560 0.856643 0.270753
O O10 0.920284 0.684885 0.227623
O O11 0.000000 0.790870 0.216881
O O12 0.932130 0.796727 0.000000
O O13 0.558112 0.782433 0.500000
O O14 0.500000 0.810177 0.735669
O O15 0.569042 0.682083 0.741123
O O16 0.844280 0.105553 0.500000
O O17 0.806383 0.162769 0.758341
O O18 0.845585 0.000000 0.733050
O O19 0.418361 0.500000 0.229811
O O20 0.405599 0.393901 0.000000
O O21 0.923754 0.608443 0.500000
O O22 0.918827 0.500000 0.267587
O O23 0.000000 0.596455 0.311883
O O24 0.753933 0.789212 0.000000
#
# Coordination Sequence:
#
# PCOD9387113 Si02
#       8
#     8   8   8   8   8   8   8   8
#     4   8  15  30  54  83 112 141 174 214 265 326
#     4  10  21  37  56  77 104 141 184 229 280 338
#     4  10  21  37  59  88 120 153 191 238 289 337
#     4  10  21  35  51  75 108 144 184 232 279 324
#     4  11  25  43  61  82 112 151 192 234 282 339
#     4   9  17  32  54  78 106 142 182 221 267 329
#     4   8  14  27  50  80 114 153 194 232 271 321
#     4  11  21  36  62  89 112 140 178 228 281 332
#
# _framework density 18.990483999999999
#
# number of rings (size 3 to 8) (size 9 to 14) (size 15 to 20)
#    0.000    2.375    1.250    2.625    0.000    5.000 
#    0.000    5.625    0.000    3.750    0.000    1.750 
#    0.000    0.000    0.000    0.000    0.000    0.000 
#
# Total GULP energy -357106.709935 kJ/mol
# GULP energy per Si atom -5579.792343 kJ/mol
# Density = 1.894726 g / cm^3
# Si number density = 18.990484 Si / 1000 Ang^3
#
#
#
# Elastic Constant Matrix: (Units=GPa)
#
#
# Indices 1 2 3 4 5 6 
#
# 1 50.1332 51.2146 21.6030 0.0000 0.0000 0.0000
# 2 51.2146 134.1108 27.1835 0.0000 0.0000 0.0000
# 3 21.6030 27.1835 15.5068 0.0000 0.0000 0.0000
# 4 0.0000 0.0000 0.0000 27.0276 0.0000 0.0000
# 5 0.0000 0.0000 0.0000 0.0000 20.8381 0.0000
# 6 0.0000 0.0000 0.0000 0.0000 0.0000 4.0183
#
#
#
# Elastic Compliance Matrix: (Units=1/GPa)
#
#
# Indices 1 2 3 4 5 6 
#
# 1 0.055624 -0.008585 -0.062442 0.000000 0.000000 0.000000
# 2 -0.008585 0.012891 -0.010638 0.000000 0.000000 0.000000
# 3 -0.062442 -0.010638 0.170127 0.000000 0.000000 0.000000
# 4 0.000000 0.000000 0.000000 0.036999 0.000000 0.000000
# 5 0.000000 0.000000 0.000000 0.000000 0.047989 0.000000
# 6 0.000000 0.000000 0.000000 0.000000 0.000000 0.248859
#
#
# Mechanical properties :
#
#
# Convention : Reuss Voigt Hill
#
# Bulk Modulus (GPa) = 13.27816 44.41699 28.84758
# Shear Modulus (GPa) = 6.57094 17.02678 11.79886
#
# Velocity S-wave (km/s) = 1.86216 2.99757 2.49530
# Velocity P-wave (km/s) = 3.41038 5.95151 4.85032
#
# Compressibility (1/GPa) = 0.07531164
#
# Stress axis : x y z
#
# Youngs Moduli (GPa) = 17.97773 77.57092 5.87795
#
# Poissons Ratio (x) = 0.66597 0.36703
# Poissons Ratio (y) = 0.15434 0.06253
# Poissons Ratio (z) = 1.12257 0.82523
#
# Static dielectric constant tensor:
#      x y z
#    x 1.658950 0.000000 0.000000 
#    y 0.000000 1.666860 0.000000 
#    z 0.000000 0.000000 1.644220 
# 
# From -- ./inp_files/12767.got.cif
#   From: 2010.05.17/outbox.cif.g08.bks.cpg/sg47_7_cif.got.tgz:12767.got - 2010.06.03 20:15:42.
