data_PCOD9387633
_publ_section_title
;
Structure prediction by ZEFSAII (Michael W. Deem and Ramdas Pophale) SiO2 
 PCOD9387633
Probable space group: P M M M
;
_chemical_formula_sum "Si O2"
_cell_formula_units_Z 48
_cell_length_a 18.272205
_cell_length_b 9.132915
_cell_length_c 15.842866
_cell_angle_alpha 90.000000
_cell_angle_beta 90.000000
_cell_angle_gamma 90.000000
_cell_volume 2643.833637
_symmetry_space_group_name_H-M "P M M M"
_symmetry_group_IT_number 47
_symmetry_cell_setting 'orthorhombic'
loop_
_space_group_symop_operation_xyz
x,y,z
-x,-y,z
x,-y,-z
-x,y,-z
-x,-y,-z
x,y,-z
-x,y,z
x,-y,z
loop_
_atom_site_type_symbol
_atom_site_label
_atom_site_fract_x
_atom_site_fract_y
_atom_site_fract_z
Si Si1 0.818164 0.824050 0.156068
Si Si2 0.082433 0.178323 0.000000
Si Si3 0.804147 0.823322 0.351221
Si Si4 0.351779 0.671148 0.657932
Si Si5 0.500000 0.167290 0.600726
Si Si6 0.585970 0.162161 0.000000
Si Si7 0.334015 0.669245 0.858326
Si Si8 0.084974 0.822016 0.500000
O O1 0.829365 0.787799 0.255200
O O2 0.743046 0.748599 0.130047
O O3 0.811052 0.000000 0.151900
O O4 0.877504 0.778334 0.086672
O O5 0.000000 0.231824 0.000000
O O6 0.081808 0.000000 0.000000
O O7 0.725118 0.748220 0.367789
O O8 0.866533 0.779786 0.418287
O O9 0.794352 0.000000 0.356593
O O10 0.351220 0.500000 0.632529
O O11 0.425269 0.750571 0.626803
O O12 0.353354 0.678251 0.759750
O O13 0.500000 0.160871 0.500000
O O14 0.500000 0.000000 0.634198
O O15 0.609690 0.248910 0.917467
O O16 0.500000 0.149231 0.000000
O O17 0.620049 0.000000 0.000000
O O18 0.328824 0.500000 0.882058
O O19 0.000000 0.771333 0.500000
O O20 0.082028 0.000000 0.500000
#
# Coordination Sequence:
#
# PCOD9387633 Si02
#       8
#     8   4   8   8   4   4   8   4
#     4   9  17  31  52  76 103 138 178 223 271 326
#     4   9  17  28  46  76 108 135 170 221 276 326
#     4   9  18  33  54  79 108 144 187 230 279 335
#     4  10  22  39  59  84 113 147 186 231 282 333
#     4  11  25  41  59  84 113 146 185 229 280 335
#     4  11  24  37  52  78 108 141 182 225 270 318
#     4  10  21  37  57  79 106 143 183 225 272 323
#     4   9  18  32  53  82 113 144 183 233 282 331
#
# _framework density 18.155453999999999
#
# number of rings (size 3 to 8) (size 9 to 14) (size 15 to 20)
#    0.000    2.333    0.000    2.000    2.333    4.667 
#    0.000    3.333    0.000    2.000    0.000    4.667 
#    0.000    0.000    0.000    0.000    0.000    0.000 
#
# Total GULP energy -267687.804515 kJ/mol
# GULP energy per Si atom -5576.829261 kJ/mol
# Density = 1.811413 g / cm^3
# Si number density = 18.155454 Si / 1000 Ang^3
#
#
#
# Elastic Constant Matrix: (Units=GPa)
#
#
# Indices 1 2 3 4 5 6 
#
# 1 168.8860 60.5208 90.2525 0.0000 0.0000 0.0000
# 2 60.5208 50.7307 43.3032 0.0000 0.0000 0.0000
# 3 90.2525 43.3032 79.8467 0.0000 0.0000 0.0000
# 4 0.0000 0.0000 0.0000 20.4935 0.0000 0.0000
# 5 0.0000 0.0000 0.0000 0.0000 465.6426 0.0000
# 6 0.0000 0.0000 0.0000 0.0000 0.0000 -29.3681
#
#
#
# Elastic Compliance Matrix: (Units=1/GPa)
#
#
# Indices 1 2 3 4 5 6 
#
# 1 0.016141 -0.006857 -0.014526 0.000000 0.000000 0.000000
# 2 -0.006857 0.039615 -0.013734 0.000000 0.000000 0.000000
# 3 -0.014526 -0.013734 0.036391 0.000000 0.000000 0.000000
# 4 0.000000 0.000000 0.000000 0.048796 0.000000 0.000000
# 5 0.000000 0.000000 0.000000 0.000000 0.002148 0.000000
# 6 0.000000 0.000000 0.000000 0.000000 0.000000 -0.034051
#
#
# Mechanical properties :
#
#
# Convention : Reuss Voigt Hill
#
# Bulk Modulus (GPa) = 45.63298 76.40184 61.01741
# Shear Modulus (GPa) = 26.79843 98.37939 62.58891
#
# Velocity S-wave (km/s) = 3.84611 7.36918 5.87782
# Velocity P-wave (km/s) = 6.70169 10.70420 8.93007
#
# Compressibility (1/GPa) = 0.02191398
#
# Stress axis : x y z
#
# Youngs Moduli (GPa) = 61.95471 25.24288 27.47915
#
# Poissons Ratio (x) = 0.17308 0.39916
# Poissons Ratio (y) = 0.42480 0.37740
# Poissons Ratio (z) = 0.89994 0.34669
#
# Static dielectric constant tensor:
#      x y z
#    x 1.593310 0.000000 0.000000 
#    y 0.000000 1.626310 0.000000 
#    z 0.000000 0.000000 1.614450 
# 
# From -- ./inp_files/24529.got.cif
#   From: 2010.05.17/outbox.cif.g08.bks.cpg/sg47_13_cif.got.tgz:24529.got - 2010.06.03 20:15:42.
