data_PCOD9387033
_publ_section_title
;
Structure prediction by ZEFSAII (Michael W. Deem and Ramdas Pophale) SiO2 
 PCOD9387033
Probable space group: P M M M
;
_chemical_formula_sum "Si O2"
_cell_formula_units_Z 44
_cell_length_a 9.601000
_cell_length_b 7.792282
_cell_length_c 31.248780
_cell_angle_alpha 90.000000
_cell_angle_beta 90.000000
_cell_angle_gamma 90.000000
_cell_volume 2337.836836
_symmetry_space_group_name_H-M "P M M M"
_symmetry_group_IT_number 47
_symmetry_cell_setting 'orthorhombic'
loop_
_space_group_symop_operation_xyz
x,y,z
-x,-y,z
x,-y,-z
-x,y,-z
-x,-y,-z
x,y,-z
-x,y,z
x,-y,z
loop_
_atom_site_type_symbol
_atom_site_label
_atom_site_fract_x
_atom_site_fract_y
_atom_site_fract_z
Si Si1 0.659526 0.793355 0.047182
Si Si2 0.168820 0.500000 0.548608
Si Si3 0.842856 0.703531 0.871445
Si Si4 0.158882 0.204279 0.222391
Si Si5 0.340461 0.790684 0.698342
Si Si6 0.166419 0.202241 0.386264
O O1 0.500000 0.733711 0.052566
O O2 0.752390 0.743542 0.087190
O O3 0.656693 0.000000 0.046106
O O4 0.709107 0.734491 0.000000
O O5 0.221676 0.500000 0.500000
O O6 0.206581 0.670103 0.575405
O O7 0.000000 0.500000 0.546564
O O8 0.851321 0.500000 0.867804
O O9 0.787388 0.767868 0.825776
O O10 0.000000 0.774372 0.876501
O O11 0.258993 0.271696 0.259499
O O12 0.000000 0.273627 0.224845
O O13 0.149227 0.000000 0.228908
O O14 0.500000 0.731016 0.696472
O O15 0.252308 0.748902 0.656044
O O16 0.344273 0.000000 0.700136
O O17 0.000000 0.221025 0.378259
O O18 0.191133 0.000000 0.395728
#
# Coordination Sequence:
#
# PCOD9387033 Si02
#       6
#     8   4   8   8   8   8
#     4   9  19  36  56  76  97 125 165 210 254 302
#     4   9  18  32  51  79 109 135 173 221 262 305
#     4  10  21  35  50  73 105 136 166 203 250 304
#     4   9  17  31  51  72  97 132 171 209 250 298
#     4   9  17  30  50  75 101 130 167 210 253 299
#     4   9  17  31  52  76 103 137 174 213 261 312
#
# _framework density 18.820817000000002
#
# number of rings (size 3 to 8) (size 9 to 14) (size 15 to 20)
#    0.000    2.818    0.000    1.636    0.000    5.455 
#    1.636    6.818    0.000    1.091    0.000    2.545 
#    0.000    0.000    0.000    0.000    0.000    0.000 
#
# Total GULP energy -245306.752450 kJ/mol
# GULP energy per Si atom -5575.153465 kJ/mol
# Density = 1.877798 g / cm^3
# Si number density = 18.820817 Si / 1000 Ang^3
#
#
#
# Elastic Constant Matrix: (Units=GPa)
#
#
# Indices 1 2 3 4 5 6 
#
# 1 72.4570 26.0466 91.4236 0.0000 0.0000 0.0000
# 2 26.0466 46.5794 42.6633 0.0000 0.0000 0.0000
# 3 91.4236 42.6633 208.1520 0.0000 0.0000 0.0000
# 4 0.0000 0.0000 0.0000 80.4216 0.0000 0.0000
# 5 0.0000 0.0000 0.0000 0.0000 26.8483 0.0000
# 6 0.0000 0.0000 0.0000 0.0000 0.0000 16.5681
#
#
#
# Elastic Compliance Matrix: (Units=1/GPa)
#
#
# Indices 1 2 3 4 5 6 
#
# 1 0.032372 -0.006253 -0.012937 0.000000 0.000000 0.000000
# 2 -0.006253 0.027638 -0.002918 0.000000 0.000000 0.000000
# 3 -0.012937 -0.002918 0.011084 0.000000 0.000000 0.000000
# 4 0.000000 0.000000 0.000000 0.012434 0.000000 0.000000
# 5 0.000000 0.000000 0.000000 0.000000 0.037246 0.000000
# 6 0.000000 0.000000 0.000000 0.000000 0.000000 0.060357
#
#
# Mechanical properties :
#
#
# Convention : Reuss Voigt Hill
#
# Bulk Modulus (GPa) = 37.20435 71.93949 54.57192
# Shear Modulus (GPa) = 21.33939 35.90459 28.62199
#
# Velocity S-wave (km/s) = 3.37087 4.37247 3.90393
# Velocity P-wave (km/s) = 5.91278 7.98734 7.02704
#
# Compressibility (1/GPa) = 0.02687858
#
# Stress axis : x y z
#
# Youngs Moduli (GPa) = 30.89064 36.18162 90.21716
#
# Poissons Ratio (x) = 0.22625 1.16712
# Poissons Ratio (y) = 0.19316 0.26329
# Poissons Ratio (z) = 0.39962 0.10559
#
# Static dielectric constant tensor:
#      x y z
#    x 1.649050 0.000000 0.000000 
#    y 0.000000 1.672740 0.000000 
#    z 0.000000 0.000000 1.640420 
# 
# From -- ./inp_files/2122.got.cif
#   From: 2010.05.17/outbox.cif.g08.bks.cpg/sg47_2_cif.got.tgz:2122.got - 2010.06.03 20:15:42.
