data_PCOD9387307
_publ_section_title
;
Structure prediction by ZEFSAII (Michael W. Deem and Ramdas Pophale) SiO2 
 PCOD9387307
Probable space group: P M M M
;
_chemical_formula_sum "Si O2"
_cell_formula_units_Z 48
_cell_length_a 28.374208
_cell_length_b 9.193054
_cell_length_c 10.591838
_cell_angle_alpha 90.000000
_cell_angle_beta 90.000000
_cell_angle_gamma 90.000000
_cell_volume 2762.834617
_symmetry_space_group_name_H-M "P M M M"
_symmetry_group_IT_number 47
_symmetry_cell_setting 'orthorhombic'
loop_
_space_group_symop_operation_xyz
x,y,z
-x,-y,z
x,-y,-z
-x,y,-z
-x,-y,-z
x,y,-z
-x,y,z
x,-y,z
loop_
_atom_site_type_symbol
_atom_site_label
_atom_site_fract_x
_atom_site_fract_y
_atom_site_fract_z
Si Si1 0.053475 0.673316 0.743934
Si Si2 0.500000 0.668075 0.153858
Si Si3 0.404778 0.831713 0.154085
Si Si4 0.151501 0.674171 0.360401
Si Si5 0.787378 0.825648 0.852618
Si Si6 0.689343 0.666334 0.152755
Si Si7 0.943075 0.837400 0.000000
O O1 0.052080 0.500000 0.765484
O O2 0.095350 0.702186 0.647311
O O3 0.068160 0.751053 0.873612
O O4 0.000000 0.718526 0.708834
O O5 0.500000 0.500000 0.193848
O O6 0.452642 0.751168 0.193752
O O7 0.500000 0.668393 0.000000
O O8 0.358169 0.745996 0.196667
O O9 0.404048 0.000000 0.193298
O O10 0.404433 0.830909 0.000000
O O11 0.168974 0.715403 0.500000
O O12 0.158224 0.500000 0.344582
O O13 0.176607 0.757319 0.246858
O O14 0.736172 0.758400 0.820934
O O15 0.786397 0.000000 0.843433
O O16 0.798271 0.788298 0.000000
O O17 0.692898 0.500000 0.198593
O O18 0.686187 0.660035 0.000000
O O19 0.000000 0.847815 0.000000
O O20 0.922847 0.000000 0.000000
#
# Coordination Sequence:
#
# PCOD9387307 Si02
#       7
#     8   4   8   8   8   8   4
#     4   9  18  33  53  76 102 132 165 201 244 295
#     4   9  15  21  29  45  73 113 160 203 244 295
#     4   9  15  22  33  51  79 115 155 200 248 298
#     4  10  22  38  55  77 104 134 167 205 252 303
#     4  10  21  36  54  76 100 129 168 211 255 304
#     4   9  16  27  44  65  88 117 156 203 252 299
#     4   9  17  29  47  73 103 131 161 199 239 280
#
# _framework density 17.373463000000001
#
# number of rings (size 3 to 8) (size 9 to 14) (size 15 to 20)
#    0.000    2.667    0.000    2.000    1.167    8.333 
#    0.000    1.667    0.000    0.000    0.000    3.500 
#    0.000    0.000    0.000    0.750    0.000   14.667 
#
# Total GULP energy -267488.145182 kJ/mol
# GULP energy per Si atom -5572.669691 kJ/mol
# Density = 1.733392 g / cm^3
# Si number density = 17.373463 Si / 1000 Ang^3
#
#
#
# Elastic Constant Matrix: (Units=GPa)
#
#
# Indices 1 2 3 4 5 6 
#
# 1 125.5679 64.9414 50.0343 0.0000 0.0000 0.0000
# 2 64.9414 91.2762 42.0690 0.0000 0.0000 0.0000
# 3 50.0343 42.0690 61.4764 0.0000 0.0000 0.0000
# 4 0.0000 0.0000 0.0000 9.5591 0.0000 0.0000
# 5 0.0000 0.0000 0.0000 0.0000 0.3638 0.0000
# 6 0.0000 0.0000 0.0000 0.0000 0.0000 18.2068
#
#
#
# Elastic Compliance Matrix: (Units=1/GPa)
#
#
# Indices 1 2 3 4 5 6 
#
# 1 0.014335 -0.007043 -0.006847 0.000000 0.000000 0.000000
# 2 -0.007043 0.019464 -0.007587 0.000000 0.000000 0.000000
# 3 -0.006847 -0.007587 0.027031 0.000000 0.000000 0.000000
# 4 0.000000 0.000000 0.000000 0.104612 0.000000 0.000000
# 5 0.000000 0.000000 0.000000 0.000000 2.748663 0.000000
# 6 0.000000 0.000000 0.000000 0.000000 0.000000 0.054925
#
#
# Mechanical properties :
#
#
# Convention : Reuss Voigt Hill
#
# Bulk Modulus (GPa) = 55.94393 65.82334 60.88364
# Shear Modulus (GPa) = 1.65676 13.71101 7.68388
#
# Velocity S-wave (km/s) = 0.97759 2.81230 2.10532
# Velocity P-wave (km/s) = 5.79180 6.96527 6.40546
#
# Compressibility (1/GPa) = 0.01787504
#
# Stress axis : x y z
#
# Youngs Moduli (GPa) = 69.76102 51.37799 36.99476
#
# Poissons Ratio (x) = 0.36186 0.25330
# Poissons Ratio (y) = 0.49133 0.28068
# Poissons Ratio (z) = 0.47765 0.38980
#
# Static dielectric constant tensor:
#      x y z
#    x 1.605850 0.000000 0.000000 
#    y 0.000000 1.588120 0.000000 
#    z 0.000000 0.000000 1.555100 
# 
# From -- ./inp_files/13987.got.cif
#   From: 2010.05.17/outbox.cif.g08.bks.cpg/sg47_7_cif.got.tgz:13987.got - 2010.06.03 20:15:42.
