data_PCOD9387549
_publ_section_title
;
Structure prediction by ZEFSAII (Michael W. Deem and Ramdas Pophale) SiO2 
 PCOD9387549
Probable space group: P M M M
;
_chemical_formula_sum "Si O2"
_cell_formula_units_Z 56
_cell_length_a 13.631243
_cell_length_b 13.451332
_cell_length_c 13.289453
_cell_angle_alpha 90.000000
_cell_angle_beta 90.000000
_cell_angle_gamma 90.000000
_cell_volume 2436.732509
_symmetry_space_group_name_H-M "P M M M"
_symmetry_group_IT_number 47
_symmetry_cell_setting 'orthorhombic'
loop_
_space_group_symop_operation_xyz
x,y,z
-x,-y,z
x,-y,-z
-x,y,-z
-x,-y,-z
x,y,-z
-x,y,z
x,-y,z
loop_
_atom_site_type_symbol
_atom_site_label
_atom_site_fract_x
_atom_site_fract_y
_atom_site_fract_z
Si Si1 0.893200 0.320563 0.618964
Si Si2 0.114999 0.825398 0.884040
Si Si3 0.185904 0.607852 0.121470
Si Si4 0.609253 0.299117 0.882638
Si Si5 0.681166 0.608858 0.621357
Si Si6 0.182261 0.892209 0.675603
Si Si7 0.392154 0.182859 0.692888
O O1 0.895728 0.341921 0.500000
O O2 0.793867 0.372737 0.656809
O O3 0.875314 0.202486 0.632593
O O4 0.000000 0.349137 0.660333
O O5 0.129922 0.709526 0.853253
O O6 0.167456 0.885703 0.796303
O O7 0.000000 0.849082 0.881929
O O8 0.149303 0.838357 0.000000
O O9 0.152746 0.500000 0.158662
O O10 0.301041 0.628353 0.142811
O O11 0.177457 0.603830 0.000000
O O12 0.500000 0.341636 0.867003
O O13 0.616778 0.202064 0.812738
O O14 0.618839 0.274224 0.000000
O O15 0.682744 0.609943 0.500000
O O16 0.646439 0.500000 0.653252
O O17 0.618802 0.703679 0.653855
O O18 0.297677 0.875279 0.654352
O O19 0.149840 0.000000 0.639276
O O20 0.500000 0.143482 0.668288
#
# Coordination Sequence:
#
# PCOD9387549 Si02
#       7
#     8   8   8   8   8   8   8
#     4   9  19  37  60  86 115 145 180 225 276 327
#     4  10  21  37  55  78 111 146 182 225 272 328
#     4   9  17  30  49  73 103 141 181 218 261 316
#     4   9  17  31  52  76 105 141 180 224 271 317
#     4   9  19  36  58  86 119 152 185 220 261 317
#     4  11  23  39  59  81 107 140 183 235 286 335
#     4  10  21  37  57  82 110 144 184 228 277 329
#
# _framework density 22.981594999999999
#
# number of rings (size 3 to 8) (size 9 to 14) (size 15 to 20)
#    0.000    2.429    1.429    0.429    0.000    4.000 
#    0.000    7.857    0.000    1.714    0.000    7.000 
#    0.000    0.000    0.000    0.000    0.000    0.000 
#
# Total GULP energy -312741.206000 kJ/mol
# GULP energy per Si atom -5584.664393 kJ/mol
# Density = 2.292929 g / cm^3
# Si number density = 22.981595 Si / 1000 Ang^3
#
#
#
# Elastic Constant Matrix: (Units=GPa)
#
#
# Indices 1 2 3 4 5 6 
#
# 1 90.2049 -9.9297 6.7273 0.0000 0.0000 0.0000
# 2 -9.9297 55.8348 -14.6464 0.0000 0.0000 0.0000
# 3 6.7273 -14.6464 44.6601 0.0000 0.0000 0.0000
# 4 0.0000 0.0000 0.0000 8.3849 0.0000 0.0000
# 5 0.0000 0.0000 0.0000 0.0000 22.9712 0.0000
# 6 0.0000 0.0000 0.0000 0.0000 0.0000 -2.9165
#
#
#
# Elastic Compliance Matrix: (Units=1/GPa)
#
#
# Indices 1 2 3 4 5 6 
#
# 1 0.011361 0.001719 -0.001147 0.000000 0.000000 0.000000
# 2 0.001719 0.019856 0.006253 0.000000 0.000000 0.000000
# 3 -0.001147 0.006253 0.024615 0.000000 0.000000 0.000000
# 4 0.000000 0.000000 0.000000 0.119262 0.000000 0.000000
# 5 0.000000 0.000000 0.000000 0.000000 0.043533 0.000000
# 6 0.000000 0.000000 0.000000 0.000000 0.000000 -0.342881
#
#
# Mechanical properties :
#
#
# Convention : Reuss Voigt Hill
#
# Bulk Modulus (GPa) = 14.39240 17.22247 15.80744
# Shear Modulus (GPa) = -43.57523 19.59117 -11.99203
#
# Velocity S-wave (km/s) = -4.35914 2.92288 -2.28679
# Velocity P-wave (km/s) = 4.36577 4.34756 0.28167
#
# Compressibility (1/GPa) = 0.06948109
#
# Stress axis : x y z
#
# Youngs Moduli (GPa) = 88.02260 50.36269 40.62598
#
# Poissons Ratio (x) = -0.08659 0.04661
# Poissons Ratio (y) = -0.15135 -0.25403
# Poissons Ratio (z) = 0.10100 -0.31491
#
# Static dielectric constant tensor:
#      x y z
#    x 1.846100 0.000000 0.000000 
#    y 0.000000 1.818140 0.000000 
#    z 0.000000 0.000000 1.949700 
# 
# From -- ./inp_files/17649.got.cif
#   From: 2010.05.17/outbox.cif.g08.bks.cpg/sg47_9_cif.got.tgz:17649.got - 2010.06.03 20:15:42.
