data_PCOD9387473
_publ_section_title
;
Structure prediction by ZEFSAII (Michael W. Deem and Ramdas Pophale) SiO2 
 PCOD9387473
Probable space group: P M M M
;
_chemical_formula_sum "Si O2"
_cell_formula_units_Z 56
_cell_length_a 14.541580
_cell_length_b 9.508538
_cell_length_c 20.673173
_cell_angle_alpha 90.000000
_cell_angle_beta 90.000000
_cell_angle_gamma 90.000000
_cell_volume 2858.462389
_symmetry_space_group_name_H-M "P M M M"
_symmetry_group_IT_number 47
_symmetry_cell_setting 'orthorhombic'
loop_
_space_group_symop_operation_xyz
x,y,z
-x,-y,z
x,-y,-z
-x,y,-z
-x,-y,-z
x,y,-z
-x,y,z
x,-y,z
loop_
_atom_site_type_symbol
_atom_site_label
_atom_site_fract_x
_atom_site_fract_y
_atom_site_fract_z
Si Si1 0.395495 0.170729 0.662530
Si Si2 0.888131 0.338366 0.926935
Si Si3 0.612016 0.161906 0.194484
Si Si4 0.888016 0.839120 0.804156
Si Si5 0.889135 0.662606 0.678165
Si Si6 0.611859 0.663158 0.071224
Si Si7 0.775619 0.168318 0.423807
O O1 0.500000 0.219422 0.650655
O O2 0.363130 0.216862 0.734087
O O3 0.323063 0.206494 0.607376
O O4 0.398909 0.000000 0.666070
O O5 0.861303 0.500000 0.913219
O O6 0.858355 0.233112 0.870978
O O7 0.000000 0.336799 0.927014
O O8 0.858932 0.302485 0.000000
O O9 0.500000 0.162434 0.194560
O O10 0.643607 0.251182 0.133338
O O11 0.640724 0.000000 0.187633
O O12 0.860304 0.745726 0.742883
O O13 0.000000 0.840537 0.804692
O O14 0.857285 0.000000 0.797758
O O15 0.859475 0.500000 0.679868
O O16 0.849368 0.744404 0.616750
O O17 0.000000 0.664575 0.676211
O O18 0.500000 0.666821 0.072092
O O19 0.638598 0.500000 0.075973
O O20 0.639811 0.716606 0.000000
O O21 0.778718 0.196488 0.500000
O O22 0.789367 0.000000 0.414281
#
# Coordination Sequence:
#
# PCOD9387473 Si02
#       7
#     8   8   8   8   8   8   8
#     4   8  15  30  52  78 108 139 170 206 250 301
#     4   8  13  21  34  56  91 134 175 213 254 303
#     4   8  13  22  38  60  87 122 163 202 237 280
#     4   9  16  26  43  68  97 129 169 218 265 308
#     4  10  21  37  56  76 102 139 178 215 260 316
#     4   8  13  20  30  49  82 121 158 200 248 290
#     4  10  21  36  56  83 110 135 167 209 256 307
#
# _framework density 19.590952999999999
#
# number of rings (size 3 to 8) (size 9 to 14) (size 15 to 20)
#    0.000    3.286    0.000    2.571    0.000    4.000 
#    0.000    6.429    0.000    1.286    0.000    2.000 
#    0.000    5.714    0.000    0.571    0.000    0.000 
#
# Total GULP energy -312398.323341 kJ/mol
# GULP energy per Si atom -5578.541488 kJ/mol
# Density = 1.954636 g / cm^3
# Si number density = 19.590953 Si / 1000 Ang^3
#
#
#
# Elastic Constant Matrix: (Units=GPa)
#
#
# Indices 1 2 3 4 5 6 
#
# 1 69.3665 24.2300 25.1454 0.0000 0.0000 0.0000
# 2 24.2300 101.6777 103.0803 0.0000 0.0000 0.0000
# 3 25.1454 103.0803 181.2002 0.0000 0.0000 0.0000
# 4 0.0000 0.0000 0.0000 -4.5712 0.0000 0.0000
# 5 0.0000 0.0000 0.0000 0.0000 76.8543 0.0000
# 6 0.0000 0.0000 0.0000 0.0000 0.0000 0.8832
#
#
#
# Elastic Compliance Matrix: (Units=1/GPa)
#
#
# Indices 1 2 3 4 5 6 
#
# 1 0.015726 -0.003627 -0.000119 0.000000 0.000000 0.000000
# 2 -0.003627 0.024072 -0.013191 0.000000 0.000000 0.000000
# 3 -0.000119 -0.013191 0.013039 0.000000 0.000000 0.000000
# 4 0.000000 0.000000 0.000000 -0.218760 0.000000 0.000000
# 5 0.000000 0.000000 0.000000 0.000000 0.013012 0.000000
# 6 0.000000 0.000000 0.000000 0.000000 0.000000 1.132212
#
#
# Mechanical properties :
#
#
# Convention : Reuss Voigt Hill
#
# Bulk Modulus (GPa) = 52.73123 73.01731 62.87427
# Shear Modulus (GPa) = 4.90439 27.95250 16.42844
#
# Velocity S-wave (km/s) = 1.58393 3.78141 2.89895
# Velocity P-wave (km/s) = 5.50633 7.51114 6.58547
#
# Compressibility (1/GPa) = 0.01896409
#
# Stress axis : x y z
#
# Youngs Moduli (GPa) = 63.58800 41.54240 76.69253
#
# Poissons Ratio (x) = 0.15067 0.00914
# Poissons Ratio (y) = 0.23062 1.01162
# Poissons Ratio (z) = 0.00758 0.54797
#
# Static dielectric constant tensor:
#      x y z
#    x 1.768000 0.000000 0.000000 
#    y 0.000000 1.648950 0.000000 
#    z 0.000000 0.000000 1.664580 
# 
# From -- ./inp_files/30980.got.cif
#   From: 2010.05.17/outbox.cif.g08.bks.cpg/sg47_16_cif.got.tgz:30980.got - 2010.06.03 20:15:42.
