data_PCOD9387525
_publ_section_title
;
Structure prediction by ZEFSAII (Michael W. Deem and Ramdas Pophale) SiO2 
 PCOD9387525
Probable space group: P M M M
;
_chemical_formula_sum "Si O2"
_cell_formula_units_Z 52
_cell_length_a 22.029259
_cell_length_b 8.914047
_cell_length_c 14.031807
_cell_angle_alpha 90.000000
_cell_angle_beta 90.000000
_cell_angle_gamma 90.000000
_cell_volume 2755.423837
_symmetry_space_group_name_H-M "P M M M"
_symmetry_group_IT_number 47
_symmetry_cell_setting 'orthorhombic'
loop_
_space_group_symop_operation_xyz
x,y,z
-x,-y,z
x,-y,-z
-x,y,-z
-x,-y,-z
x,y,-z
-x,y,z
x,-y,z
loop_
_atom_site_type_symbol
_atom_site_label
_atom_site_fract_x
_atom_site_fract_y
_atom_site_fract_z
Si Si1 0.687593 0.679558 0.781235
Si Si2 0.748424 0.178162 0.611189
Si Si3 0.000000 0.827455 0.616635
Si Si4 0.801908 0.822684 0.885067
Si Si5 0.875311 0.671908 0.383612
Si Si6 0.432341 0.682600 0.110452
Si Si7 0.065525 0.820009 0.115056
O O1 0.687982 0.500000 0.780280
O O2 0.698939 0.743085 0.676378
O O3 0.744832 0.737630 0.842070
O O4 0.624369 0.733091 0.826967
O O5 0.740730 0.214764 0.500000
O O6 0.815037 0.236628 0.641378
O O7 0.746342 0.000000 0.622603
O O8 0.061982 0.747965 0.647644
O O9 0.000000 0.825560 0.500000
O O10 0.000000 0.000000 0.646884
O O11 0.868464 0.763612 0.852457
O O12 0.797713 0.000000 0.860716
O O13 0.800184 0.812152 0.000000
O O14 0.877367 0.670994 0.500000
O O15 0.870972 0.500000 0.351885
O O16 0.500000 0.730906 0.140979
O O17 0.432154 0.500000 0.112114
O O18 0.423778 0.726710 0.000000
O O19 0.000000 0.761651 0.150123
O O20 0.066131 0.000000 0.131187
O O21 0.065173 0.800600 0.000000
#
# Coordination Sequence:
#
# PCOD9387525 Si02
#       7
#     8   8   4   8   8   8   8
#     4  11  21  32  52  80 108 137 172 216 265 318
#     4  10  21  37  55  73  97 133 177 224 272 325
#     4   9  15  23  39  65  95 127 164 205 258 329
#     4   9  17  29  47  73 105 138 171 211 259 310
#     4   9  16  27  45  69  95 123 161 214 273 324
#     4   8  15  30  53  82 115 147 176 206 245 299
#     4   7  10  19  38  63  89 122 167 212 249 288
#
# _framework density 18.871869
#
# number of rings (size 3 to 8) (size 9 to 14) (size 15 to 20)
#    0.000    3.000    0.000    3.923    0.000    4.615 
#    0.000    0.000    1.692    2.769    0.000   10.769 
#    0.000    0.000    0.000    0.000    0.000    0.000 
#
# Total GULP energy -290165.246199 kJ/mol
# GULP energy per Si atom -5580.100888 kJ/mol
# Density = 1.882892 g / cm^3
# Si number density = 18.871869 Si / 1000 Ang^3
#
#
#
# Elastic Constant Matrix: (Units=GPa)
#
#
# Indices 1 2 3 4 5 6 
#
# 1 194.3783 50.0046 73.7555 0.0000 0.0000 0.0000
# 2 50.0046 47.2317 24.6042 0.0000 0.0000 0.0000
# 3 73.7555 24.6042 76.0158 0.0000 0.0000 0.0000
# 4 0.0000 0.0000 0.0000 19.4330 0.0000 0.0000
# 5 0.0000 0.0000 0.0000 0.0000 28.7971 0.0000
# 6 0.0000 0.0000 0.0000 0.0000 0.0000 55.3525
#
#
#
# Elastic Compliance Matrix: (Units=1/GPa)
#
#
# Indices 1 2 3 4 5 6 
#
# 1 0.009485 -0.006312 -0.007160 0.000000 0.000000 0.000000
# 2 -0.006312 0.029667 -0.003478 0.000000 0.000000 0.000000
# 3 -0.007160 -0.003478 0.021228 0.000000 0.000000 0.000000
# 4 0.000000 0.000000 0.000000 0.051459 0.000000 0.000000
# 5 0.000000 0.000000 0.000000 0.000000 0.034726 0.000000
# 6 0.000000 0.000000 0.000000 0.000000 0.000000 0.018066
#
#
# Mechanical properties :
#
#
# Convention : Reuss Voigt Hill
#
# Bulk Modulus (GPa) = 37.76460 68.26159 53.01309
# Shear Modulus (GPa) = 24.11290 32.00061 28.05676
#
# Velocity S-wave (km/s) = 3.57839 4.12233 3.85995
# Velocity P-wave (km/s) = 6.09325 7.67514 6.92948
#
# Compressibility (1/GPa) = 0.02647983
#
# Stress axis : x y z
#
# Youngs Moduli (GPa) = 105.42551 33.70777 47.10733
#
# Poissons Ratio (x) = 0.21277 0.33730
# Poissons Ratio (y) = 0.66548 0.16382
# Poissons Ratio (z) = 0.75487 0.11722
#
# Static dielectric constant tensor:
#      x y z
#    x 1.652380 0.000000 0.000000 
#    y 0.000000 1.634360 0.000000 
#    z 0.000000 0.000000 1.713720 
# 
# From -- ./inp_files/25042.got.cif
#   From: 2010.05.17/outbox.cif.g08.bks.cpg/sg47_13_cif.got.tgz:25042.got - 2010.06.03 20:15:42.
