data_PCOD9387264
_publ_section_title
;
Structure prediction by ZEFSAII (Michael W. Deem and Ramdas Pophale) SiO2 
 PCOD9387264
Probable space group: P M M M
;
_chemical_formula_sum "Si O2"
_cell_formula_units_Z 64
_cell_length_a 20.706365
_cell_length_b 8.186506
_cell_length_c 20.745805
_cell_angle_alpha 90.000000
_cell_angle_beta 90.000000
_cell_angle_gamma 90.000000
_cell_volume 3516.679106
_symmetry_space_group_name_H-M "P M M M"
_symmetry_group_IT_number 47
_symmetry_cell_setting 'orthorhombic'
loop_
_space_group_symop_operation_xyz
x,y,z
-x,-y,z
x,-y,-z
-x,y,-z
-x,-y,-z
x,y,-z
-x,y,z
x,-y,z
loop_
_atom_site_type_symbol
_atom_site_label
_atom_site_fract_x
_atom_site_fract_y
_atom_site_fract_z
Si Si1 0.573428 0.805222 0.323773
Si Si2 0.678069 0.694774 0.573255
Si Si3 0.426486 0.305036 0.180691
Si Si4 0.073709 0.199482 0.676003
Si Si5 0.178461 0.803431 0.573340
Si Si6 0.325878 0.197061 0.073257
Si Si7 0.073725 0.800557 0.176797
Si Si8 0.178696 0.800546 0.073668
O O1 0.500000 0.741995 0.333586
O O2 0.622817 0.743381 0.377091
O O3 0.593419 0.757240 0.251347
O O4 0.571662 0.000000 0.327559
O O5 0.664772 0.754325 0.500000
O O6 0.682057 0.500000 0.571441
O O7 0.748474 0.760800 0.592566
O O8 0.500000 0.244633 0.168559
O O9 0.428264 0.500000 0.183079
O O10 0.377460 0.253334 0.125259
O O11 0.125643 0.257883 0.624093
O O12 0.088469 0.249254 0.749599
O O13 0.000000 0.248424 0.660896
O O14 0.074710 0.000000 0.675427
O O15 0.168279 0.742564 0.500000
O O16 0.173205 0.000000 0.571616
O O17 0.252341 0.250035 0.088580
O O18 0.325707 0.000000 0.072922
O O19 0.340960 0.251516 0.000000
O O20 0.126227 0.743228 0.125250
O O21 0.000000 0.751135 0.161631
O O22 0.074478 0.000000 0.175972
O O23 0.178044 0.000000 0.074670
O O24 0.163820 0.751717 0.000000
#
# Coordination Sequence:
#
# PCOD9387264 Si02
#       8
#     8   8   8   8   8   8   8   8
#     4  10  21  37  57  79 102 129 163 203 244 290
#     4  10  21  36  53  74 103 136 166 201 247 296
#     4  10  21  36  53  74 101 130 161 201 248 298
#     4   8  14  24  38  60  90 120 154 202 256 301
#     4   9  17  29  46  68  93 123 162 205 245 289
#     4   9  18  32  49  70  98 132 169 209 251 295
#     4   8  13  21  34  55  85 118 150 187 234 287
#     4   8  14  24  37  56  85 120 157 196 237 281
#
# _framework density 18.198988
#
# number of rings (size 3 to 8) (size 9 to 14) (size 15 to 20)
#    0.000    3.000    0.000    2.625    0.000    4.500 
#    0.000    7.500    0.000    0.375    0.000    1.750 
#    0.000    1.500    0.000    2.750    0.000    2.750 
#
# Total GULP energy -356764.181218 kJ/mol
# GULP energy per Si atom -5574.440332 kJ/mol
# Density = 1.815757 g / cm^3
# Si number density = 18.198988 Si / 1000 Ang^3
#
#
#
# Elastic Constant Matrix: (Units=GPa)
#
#
# Indices 1 2 3 4 5 6 
#
# 1 138.9909 9.2039 125.3001 0.0000 0.0000 0.0000
# 2 9.2039 10.3124 9.6997 0.0000 0.0000 0.0000
# 3 125.3001 9.6997 140.4873 0.0000 0.0000 0.0000
# 4 0.0000 0.0000 0.0000 13.6435 0.0000 0.0000
# 5 0.0000 0.0000 0.0000 0.0000 44.2825 0.0000
# 6 0.0000 0.0000 0.0000 0.0000 0.0000 -2.7111
#
#
#
# Elastic Compliance Matrix: (Units=1/GPa)
#
#
# Indices 1 2 3 4 5 6 
#
# 1 0.036759 -0.002107 -0.032639 0.000000 0.000000 0.000000
# 2 -0.002107 0.103827 -0.005289 0.000000 0.000000 0.000000
# 3 -0.032639 -0.005289 0.036594 0.000000 0.000000 0.000000
# 4 0.000000 0.000000 0.000000 0.073295 0.000000 0.000000
# 5 0.000000 0.000000 0.000000 0.000000 0.022582 0.000000
# 6 0.000000 0.000000 0.000000 0.000000 0.000000 -0.368851
#
#
# Mechanical properties :
#
#
# Convention : Reuss Voigt Hill
#
# Bulk Modulus (GPa) = 10.29782 64.24421 37.27101
# Shear Modulus (GPa) = 300.36481 20.74876 160.55678
#
# Velocity S-wave (km/s) = 12.86091 3.38021 9.40290
# Velocity P-wave (km/s) = 15.04022 7.11421 11.76478
#
# Compressibility (1/GPa) = 0.09710795
#
# Stress axis : x y z
#
# Youngs Moduli (GPa) = 27.20444 9.63145 27.32664
#
# Poissons Ratio (x) = 0.02029 0.89193
# Poissons Ratio (y) = 0.05732 0.14454
# Poissons Ratio (z) = 0.88794 0.05094
#
# Static dielectric constant tensor:
#      x y z
#    x 1.615220 0.000000 0.000000 
#    y 0.000000 1.635200 0.000000 
#    z 0.000000 0.000000 1.617460 
# 
# From -- ./inp_files/27063.got.cif
#   From: 2010.05.17/outbox.cif.g08.bks.cpg/sg47_14_cif.got.tgz:27063.got - 2010.06.03 20:15:42.
