data_PCOD9387320
_publ_section_title
;
Structure prediction by ZEFSAII (Michael W. Deem and Ramdas Pophale) SiO2 
 PCOD9387320
Probable space group: P M M M
;
_chemical_formula_sum "Si O2"
_cell_formula_units_Z 44
_cell_length_a 15.512551
_cell_length_b 12.131541
_cell_length_c 13.184768
_cell_angle_alpha 90.000000
_cell_angle_beta 90.000000
_cell_angle_gamma 90.000000
_cell_volume 2481.256632
_symmetry_space_group_name_H-M "P M M M"
_symmetry_group_IT_number 47
_symmetry_cell_setting 'orthorhombic'
loop_
_space_group_symop_operation_xyz
x,y,z
-x,-y,z
x,-y,-z
-x,y,-z
-x,-y,-z
x,y,-z
-x,y,z
x,-y,z
loop_
_atom_site_type_symbol
_atom_site_label
_atom_site_fract_x
_atom_site_fract_y
_atom_site_fract_z
Si Si1 0.901785 0.000000 0.379404
Si Si2 0.834016 0.233434 0.691887
Si Si3 0.726697 0.801701 0.114442
Si Si4 0.593645 0.629995 0.171915
Si Si5 0.399967 0.000000 0.123096
Si Si6 0.673201 0.370859 0.386210
Si Si7 0.000000 0.367859 0.622033
O O1 0.854902 0.111578 0.347222
O O2 0.906862 0.000000 0.500000
O O3 0.000000 0.000000 0.338525
O O4 0.804179 0.217486 0.808005
O O5 0.754100 0.291874 0.634984
O O6 0.916368 0.310352 0.670874
O O7 0.670218 0.691182 0.116559
O O8 0.658456 0.894608 0.152021
O O9 0.753611 0.829553 0.000000
O O10 0.500000 0.673670 0.141216
O O11 0.596136 0.500000 0.152448
O O12 0.608101 0.645828 0.292879
O O13 0.500000 0.000000 0.159241
O O14 0.404520 0.000000 0.000000
O O15 0.639089 0.352857 0.500000
O O16 0.700749 0.500000 0.380293
O O17 0.000000 0.500000 0.636287
O O18 0.000000 0.346386 0.500000
#
# Coordination Sequence:
#
# PCOD9387320 Si02
#       7
#     4   8   8   8   4   8   4
#     4  11  21  34  55  81 109 133 157 200 258 315
#     4  11  21  35  54  78 109 139 175 219 264 320
#     4  10  21  36  54  76 106 143 181 222 266 309
#     4   9  18  31  48  74 105 137 176 219 264 316
#     4   9  17  32  56  81 102 132 180 228 263 299
#     4   9  17  30  49  73 103 138 174 215 265 319
#     4  11  22  37  60  84 105 133 173 225 276 323
#
# _framework density 17.732951
#
# number of rings (size 3 to 8) (size 9 to 14) (size 15 to 20)
#    0.000    2.091    0.909    3.273    0.000    4.000 
#    0.000    3.182    0.000    1.091    0.000    0.000 
#    0.000   16.727    0.000    0.000    0.000    0.000 
#
# Total GULP energy -245347.443618 kJ/mol
# GULP energy per Si atom -5576.078264 kJ/mol
# Density = 1.769259 g / cm^3
# Si number density = 17.732951 Si / 1000 Ang^3
#
#
#
# Elastic Constant Matrix: (Units=GPa)
#
#
# Indices 1 2 3 4 5 6 
#
# 1 84.5143 41.9736 29.2726 0.0000 0.0000 0.0000
# 2 41.9736 84.5724 26.9000 0.0000 0.0000 0.0000
# 3 29.2726 26.9000 87.0593 0.0000 0.0000 0.0000
# 4 0.0000 0.0000 0.0000 16.2795 0.0000 0.0000
# 5 0.0000 0.0000 0.0000 0.0000 -24.6409 0.0000
# 6 0.0000 0.0000 0.0000 0.0000 0.0000 -1.8981
#
#
#
# Elastic Compliance Matrix: (Units=1/GPa)
#
#
# Indices 1 2 3 4 5 6 
#
# 1 0.016542 -0.007143 -0.003355 0.000000 0.000000 0.000000
# 2 -0.007143 0.016197 -0.002603 0.000000 0.000000 0.000000
# 3 -0.003355 -0.002603 0.013419 0.000000 0.000000 0.000000
# 4 0.000000 0.000000 0.000000 0.061427 0.000000 0.000000
# 5 0.000000 0.000000 0.000000 0.000000 -0.040583 0.000000
# 6 0.000000 0.000000 0.000000 0.000000 0.000000 -0.526854
#
#
# Mechanical properties :
#
#
# Convention : Reuss Voigt Hill
#
# Bulk Modulus (GPa) = 50.10945 50.27091 50.19018
# Shear Modulus (GPa) = -11.70961 8.48144 -1.61409
#
# Velocity S-wave (km/s) = -2.57248 2.18935 -0.95509
# Velocity P-wave (km/s) = 4.41539 5.89927 5.21042
#
# Compressibility (1/GPa) = 0.01995632
#
# Stress axis : x y z
#
# Youngs Moduli (GPa) = 60.45335 61.73979 74.52234
#
# Poissons Ratio (x) = 0.44098 0.25002
# Poissons Ratio (y) = 0.43179 0.19398
# Poissons Ratio (z) = 0.20282 0.16071
#
# Static dielectric constant tensor:
#      x y z
#    x 1.596840 0.000000 0.000000 
#    y 0.000000 1.614460 0.000000 
#    z 0.000000 0.000000 1.630130 
# 
# From -- ./inp_files/17457.got.cif
#   From: 2010.05.17/outbox.cif.g08.bks.cpg/sg47_9_cif.got.tgz:17457.got - 2010.06.03 20:15:42.
