data_PCOD9387085
_publ_section_title
;
Structure prediction by ZEFSAII (Michael W. Deem and Ramdas Pophale) SiO2 
 PCOD9387085
Probable space group: P M M M
;
_chemical_formula_sum "Si O2"
_cell_formula_units_Z 56
_cell_length_a 20.672914
_cell_length_b 9.423456
_cell_length_c 15.075954
_cell_angle_alpha 90.000000
_cell_angle_beta 90.000000
_cell_angle_gamma 90.000000
_cell_volume 2936.951053
_symmetry_space_group_name_H-M "P M M M"
_symmetry_group_IT_number 47
_symmetry_cell_setting 'orthorhombic'
loop_
_space_group_symop_operation_xyz
x,y,z
-x,-y,z
x,-y,-z
-x,y,-z
-x,-y,-z
x,y,-z
-x,y,z
x,-y,z
loop_
_atom_site_type_symbol
_atom_site_label
_atom_site_fract_x
_atom_site_fract_y
_atom_site_fract_z
Si Si1 0.662690 0.832111 0.606465
Si Si2 0.801530 0.158587 0.894380
Si Si3 0.071729 0.662432 0.857244
Si Si4 0.424173 0.330981 0.742472
Si Si5 0.069595 0.664253 0.355955
Si Si6 0.789233 0.661415 0.394588
Si Si7 0.676190 0.668686 0.895879
O O1 0.654758 0.811790 0.500000
O O2 0.606453 0.756858 0.661923
O O3 0.729897 0.757528 0.635635
O O4 0.664696 0.000000 0.623251
O O5 0.869180 0.237860 0.881076
O O6 0.740144 0.249453 0.863450
O O7 0.802491 0.000000 0.856143
O O8 0.793029 0.147990 0.000000
O O9 0.083226 0.500000 0.886934
O O10 0.068648 0.660301 0.750464
O O11 0.000000 0.706445 0.888989
O O12 0.500000 0.301645 0.753634
O O13 0.416504 0.500000 0.725190
O O14 0.383552 0.298266 0.831539
O O15 0.071151 0.500000 0.387929
O O16 0.139283 0.725643 0.380233
O O17 0.000000 0.725694 0.385476
O O18 0.781796 0.648464 0.500000
O O19 0.786666 0.500000 0.356241
O O20 0.688619 0.500000 0.891227
O O21 0.663447 0.702301 0.000000
#
# Coordination Sequence:
#
# PCOD9387085 Si02
#       7
#     8   8   8   8   8   8   8
#     4  10  22  39  57  80 114 153 190 229 273 324
#     4  10  21  35  51  74 104 137 176 224 273 318
#     4   9  18  32  49  70  99 137 180 225 272 322
#     4  10  22  39  61  90 117 143 179 222 271 326
#     4   8  15  28  46  71 102 134 171 218 269 317
#     4   9  17  30  51  78 105 136 177 224 272 320
#     4   9  19  37  60  85 114 147 181 219 268 330
#
# _framework density 19.067394
#
# number of rings (size 3 to 8) (size 9 to 14) (size 15 to 20)
#    0.000    2.714    0.000    1.714    2.000    4.000 
#    0.000    5.714    0.000    1.286    0.000    5.000 
#    0.000    0.000    0.000    0.000    0.000    0.000 
#
# Total GULP energy -312180.023291 kJ/mol
# GULP energy per Si atom -5574.643273 kJ/mol
# Density = 1.902400 g / cm^3
# Si number density = 19.067394 Si / 1000 Ang^3
#
#
#
# Elastic Constant Matrix: (Units=GPa)
#
#
# Indices 1 2 3 4 5 6 
#
# 1 198.5909 92.3098 47.7962 0.0000 0.0000 0.0000
# 2 92.3098 74.2945 40.0547 0.0000 0.0000 0.0000
# 3 47.7962 40.0547 55.0156 0.0000 0.0000 0.0000
# 4 0.0000 0.0000 0.0000 16.1880 0.0000 0.0000
# 5 0.0000 0.0000 0.0000 0.0000 38.8809 0.0000
# 6 0.0000 0.0000 0.0000 0.0000 0.0000 -12.5461
#
#
#
# Elastic Compliance Matrix: (Units=1/GPa)
#
#
# Indices 1 2 3 4 5 6 
#
# 1 0.011936 -0.015210 0.000704 0.000000 0.000000 0.000000
# 2 -0.015210 0.041539 -0.017029 0.000000 0.000000 0.000000
# 3 0.000704 -0.017029 0.029963 0.000000 0.000000 0.000000
# 4 0.000000 0.000000 0.000000 0.061774 0.000000 0.000000
# 5 0.000000 0.000000 0.000000 0.000000 0.025720 0.000000
# 6 0.000000 0.000000 0.000000 0.000000 0.000000 -0.079706
#
#
# Mechanical properties :
#
#
# Convention : Reuss Voigt Hill
#
# Bulk Modulus (GPa) = 49.09543 76.46915 62.78229
# Shear Modulus (GPa) = 31.03973 18.35391 24.69682
#
# Velocity S-wave (km/s) = 4.03910 3.10592 3.60285
# Velocity P-wave (km/s) = 6.89613 7.28382 7.09263
#
# Compressibility (1/GPa) = 0.02036849
#
# Stress axis : x y z
#
# Youngs Moduli (GPa) = 83.78096 24.07399 33.37443
#
# Poissons Ratio (x) = 0.36616 -0.02350
# Poissons Ratio (y) = 1.27428 0.56833
# Poissons Ratio (z) = -0.05898 0.40995
#
# Static dielectric constant tensor:
#      x y z
#    x 1.668090 0.000000 0.000000 
#    y 0.000000 1.657110 0.000000 
#    z 0.000000 0.000000 1.687750 
# 
# From -- ./inp_files/11235.got.cif
#   From: 2010.05.17/outbox.cif.g08.bks.cpg/sg47_6_cif.got.tgz:11235.got - 2010.06.03 20:15:42.
