data_PCOD9387237
_publ_section_title
;
Structure prediction by ZEFSAII (Michael W. Deem and Ramdas Pophale) SiO2 
 PCOD9387237
Probable space group: P M M M
;
_chemical_formula_sum "Si O2"
_cell_formula_units_Z 64
_cell_length_a 15.163806
_cell_length_b 7.793993
_cell_length_c 29.391069
_cell_angle_alpha 90.000000
_cell_angle_beta 90.000000
_cell_angle_gamma 90.000000
_cell_volume 3473.630451
_symmetry_space_group_name_H-M "P M M M"
_symmetry_group_IT_number 47
_symmetry_cell_setting 'orthorhombic'
loop_
_space_group_symop_operation_xyz
x,y,z
-x,-y,z
x,-y,-z
-x,y,-z
-x,-y,-z
x,y,-z
-x,y,z
x,-y,z
loop_
_atom_site_type_symbol
_atom_site_label
_atom_site_fract_x
_atom_site_fract_y
_atom_site_fract_z
Si Si1 0.598439 0.699901 0.265008
Si Si2 0.100855 0.705747 0.681316
Si Si3 0.893654 0.704954 0.951105
Si Si4 0.599687 0.800186 0.365583
Si Si5 0.781528 0.710893 0.234084
Si Si6 0.712922 0.301180 0.450861
Si Si7 0.901379 0.800403 0.577250
Si Si8 0.102467 0.710195 0.148490
O O1 0.500000 0.775863 0.260117
O O2 0.592127 0.500000 0.252524
O O3 0.622795 0.706943 0.318638
O O4 0.680867 0.772524 0.237343
O O5 0.110929 0.500000 0.675439
O O6 0.167166 0.764395 0.720198
O O7 0.112210 0.786439 0.631721
O O8 0.000000 0.737566 0.696237
O O9 0.876314 0.500000 0.951619
O O10 0.865409 0.769763 0.901505
O O11 0.000000 0.723997 0.950818
O O12 0.861763 0.775127 0.000000
O O13 0.500000 0.746483 0.378881
O O14 0.665824 0.777030 0.407134
O O15 0.597784 0.000000 0.353755
O O16 0.781546 0.500000 0.234329
O O17 0.835615 0.765318 0.189746
O O18 0.687668 0.225174 0.500000
O O19 0.687917 0.500000 0.450738
O O20 0.818218 0.287828 0.445514
O O21 0.000000 0.731928 0.567497
O O22 0.899772 0.000000 0.564209
O O23 0.102414 0.500000 0.147879
O O24 0.000000 0.760989 0.155240
#
# Coordination Sequence:
#
# PCOD9387237 Si02
#       8
#     8   8   8   8   8   8   8   8
#     4   9  17  29  45  64  86 112 141 171 202 241
#     4   9  16  26  42  63  85 109 138 171 207 251
#     4   7   9  13  21  34  56  90 130 169 209 251
#     4  10  21  37  57  78  97 117 142 174 214 261
#     4   9  15  22  34  53  77 104 134 169 208 247
#     4  11  24  39  55  75  97 121 148 178 214 257
#     4  10  21  36  53  72  94 121 153 187 220 254
#     4   8  12  17  26  43  69  99 132 172 214 252
#
# _framework density 18.424527000000001
#
# number of rings (size 3 to 8) (size 9 to 14) (size 15 to 20)
#    0.000    2.875    0.000    3.375    0.000    5.500 
#    0.000    2.500    0.000    0.000    0.000    0.000 
#    0.000    0.500    0.000    7.000    0.000    2.750 
#
# Total GULP energy -356742.952034 kJ/mol
# GULP energy per Si atom -5574.108626 kJ/mol
# Density = 1.838259 g / cm^3
# Si number density = 18.424527 Si / 1000 Ang^3
#
#
#
# Elastic Constant Matrix: (Units=GPa)
#
#
# Indices 1 2 3 4 5 6 
#
# 1 84.1890 3.0042 54.1334 0.0000 0.0000 0.0000
# 2 3.0042 24.4055 -3.0139 0.0000 0.0000 0.0000
# 3 54.1334 -3.0139 73.1802 0.0000 0.0000 0.0000
# 4 0.0000 0.0000 0.0000 -90.5447 0.0000 0.0000
# 5 0.0000 0.0000 0.0000 0.0000 11.2022 0.0000
# 6 0.0000 0.0000 0.0000 0.0000 0.0000 7.8860
#
#
#
# Elastic Compliance Matrix: (Units=1/GPa)
#
#
# Indices 1 2 3 4 5 6 
#
# 1 0.023247 -0.005011 -0.017402 0.000000 0.000000 0.000000
# 2 -0.005011 0.042264 0.005447 0.000000 0.000000 0.000000
# 3 -0.017402 0.005447 0.026762 0.000000 0.000000 0.000000
# 4 0.000000 0.000000 0.000000 -0.011044 0.000000 0.000000
# 5 0.000000 0.000000 0.000000 0.000000 0.089268 0.000000
# 6 0.000000 0.000000 0.000000 0.000000 0.000000 0.126807
#
#
# Mechanical properties :
#
#
# Convention : Reuss Voigt Hill
#
# Bulk Modulus (GPa) = 17.14071 32.22468 24.68270
# Shear Modulus (GPa) = 14.25792 -5.78123 4.23835
#
# Velocity S-wave (km/s) = 2.78484 -1.77330 1.51835
# Velocity P-wave (km/s) = 4.43440 3.65175 4.06197
#
# Compressibility (1/GPa) = 0.05834064
#
# Stress axis : x y z
#
# Youngs Moduli (GPa) = 43.01712 23.66094 37.36604
#
# Poissons Ratio (x) = 0.11855 0.65026
# Poissons Ratio (y) = 0.21554 -0.20353
# Poissons Ratio (z) = 0.74860 -0.12888
#
# Static dielectric constant tensor:
#      x y z
#    x 1.644230 0.000000 0.000000 
#    y 0.000000 1.670850 0.000000 
#    z 0.000000 0.000000 1.655080 
# 
# From -- ./inp_files/22138.got.cif
#   From: 2010.05.17/outbox.cif.g08.bks.cpg/sg47_12_cif.got.tgz:22138.got - 2010.06.03 20:15:42.
