data_PCOD9387947
_publ_section_title
;
Structure prediction by ZEFSAII (Michael W. Deem and Ramdas Pophale) SiO2 
 PCOD9387947
Probable space group: P M M M
;
_chemical_formula_sum "Si O2"
_cell_formula_units_Z 40
_cell_length_a 27.946606
_cell_length_b 7.602669
_cell_length_c 9.708545
_cell_angle_alpha 90.000000
_cell_angle_beta 90.000000
_cell_angle_gamma 90.000000
_cell_volume 2062.762858
_symmetry_space_group_name_H-M "P M M M"
_symmetry_group_IT_number 47
_symmetry_cell_setting 'orthorhombic'
loop_
_space_group_symop_operation_xyz
x,y,z
-x,-y,z
x,-y,-z
-x,y,-z
-x,-y,-z
x,y,-z
-x,y,z
x,-y,z
loop_
_atom_site_type_symbol
_atom_site_label
_atom_site_fract_x
_atom_site_fract_y
_atom_site_fract_z
Si Si1 0.804499 0.788544 0.156695
Si Si2 0.000000 0.715796 0.341512
Si Si3 0.557292 0.000000 0.838413
Si Si4 0.392038 0.702313 0.337526
Si Si5 0.911491 0.289646 0.157404
Si Si6 0.716670 0.213298 0.341466
O O1 0.857754 0.746423 0.208346
O O2 0.760431 0.724725 0.247864
O O3 0.800954 0.000000 0.152625
O O4 0.801296 0.721685 0.000000
O O5 0.953023 0.774575 0.257956
O O6 0.000000 0.500000 0.342379
O O7 0.000000 0.772443 0.500000
O O8 0.578603 0.831864 0.759147
O O9 0.500000 0.000000 0.829387
O O10 0.570815 0.000000 0.000000
O O11 0.396470 0.752150 0.500000
O O12 0.407105 0.500000 0.323221
O O13 0.335700 0.718290 0.302239
O O14 0.916921 0.500000 0.149289
O O15 0.915772 0.220762 0.000000
O O16 0.725389 0.262618 0.500000
O O17 0.714289 0.000000 0.334588
#
# Coordination Sequence:
#
# PCOD9387947 Si02
#       6
#     8   4   4   8   8   8
#     4   9  18  31  47  70 100 134 171 211 258 318
#     4   9  17  29  46  67  88 114 154 205 258 310
#     4  11  25  43  63  89 125 165 201 246 303 354
#     4  10  21  39  64  92 121 157 204 251 294 350
#     4   9  17  30  47  65  88 121 161 204 252 310
#     4   9  17  32  53  77 108 145 181 223 277 333
#
# _framework density 19.391468
#
# number of rings (size 3 to 8) (size 9 to 14) (size 15 to 20)
#    0.000    2.600    1.000    0.600    0.000    5.200 
#    0.000    2.500    0.000    3.000    0.000    0.000 
#    0.000    0.000    0.000    0.000    0.000    0.000 
#
# Total GULP energy -223257.152840 kJ/mol
# GULP energy per Si atom -5581.428821 kJ/mol
# Density = 1.934733 g / cm^3
# Si number density = 19.391468 Si / 1000 Ang^3
#
#
#
# Elastic Constant Matrix: (Units=GPa)
#
#
# Indices 1 2 3 4 5 6 
#
# 1 137.4511 38.3831 98.7037 0.0000 0.0000 0.0000
# 2 38.3831 65.2380 41.5715 0.0000 0.0000 0.0000
# 3 98.7037 41.5715 108.2993 0.0000 0.0000 0.0000
# 4 0.0000 0.0000 0.0000 10.3457 0.0000 0.0000
# 5 0.0000 0.0000 0.0000 0.0000 44.0368 0.0000
# 6 0.0000 0.0000 0.0000 0.0000 0.0000 23.4145
#
#
#
# Elastic Compliance Matrix: (Units=1/GPa)
#
#
# Indices 1 2 3 4 5 6 
#
# 1 0.021058 -0.000211 -0.019111 0.000000 0.000000 0.000000
# 2 -0.000211 0.020294 -0.007597 0.000000 0.000000 0.000000
# 3 -0.019111 -0.007597 0.029568 0.000000 0.000000 0.000000
# 4 0.000000 0.000000 0.000000 0.096659 0.000000 0.000000
# 5 0.000000 0.000000 0.000000 0.000000 0.022708 0.000000
# 6 0.000000 0.000000 0.000000 0.000000 0.000000 0.042709
#
#
# Mechanical properties :
#
#
# Convention : Reuss Voigt Hill
#
# Bulk Modulus (GPa) = 58.54736 74.25610 66.40173
# Shear Modulus (GPa) = 17.09237 24.38141 20.73689
#
# Velocity S-wave (km/s) = 2.97212 3.54973 3.27369
# Velocity P-wave (km/s) = 6.48351 7.42813 6.97183
#
# Compressibility (1/GPa) = 0.01708019
#
# Stress axis : x y z
#
# Youngs Moduli (GPa) = 47.48791 49.27535 33.82073
#
# Poissons Ratio (x) = 0.01042 0.64635
# Poissons Ratio (y) = 0.01004 0.25695
# Poissons Ratio (z) = 0.90754 0.37436
#
# Static dielectric constant tensor:
#      x y z
#    x 1.650340 0.000000 0.000000 
#    y 0.000000 1.710790 0.000000 
#    z 0.000000 0.000000 1.662260 
# 
# From -- ./inp_files/12998.got.cif
#   From: 2010.05.17/outbox.cif.g08.bks.cpg/sg47_7_cif.got.tgz:12998.got - 2010.06.03 20:15:42.
