data_PCOD9387920
_publ_section_title
;
Structure prediction by ZEFSAII (Michael W. Deem and Ramdas Pophale) SiO2 
 PCOD9387920
Probable space group: P M M M
;
_chemical_formula_sum "Si O2"
_cell_formula_units_Z 48
_cell_length_a 18.095571
_cell_length_b 15.719689
_cell_length_c 8.883760
_cell_angle_alpha 90.000000
_cell_angle_beta 90.000000
_cell_angle_gamma 90.000000
_cell_volume 2527.045483
_symmetry_space_group_name_H-M "P M M M"
_symmetry_group_IT_number 47
_symmetry_cell_setting 'orthorhombic'
loop_
_space_group_symop_operation_xyz
x,y,z
-x,-y,z
x,-y,-z
-x,y,-z
-x,-y,-z
x,y,-z
-x,y,z
x,-y,z
loop_
_atom_site_type_symbol
_atom_site_label
_atom_site_fract_x
_atom_site_fract_y
_atom_site_fract_z
Si Si1 0.911831 0.000000 0.826317
Si Si2 0.818945 0.653810 0.817467
Si Si3 0.587325 0.000000 0.328521
Si Si4 0.087848 0.500000 0.680752
Si Si5 0.349153 0.341590 0.172811
Si Si6 0.832686 0.159863 0.321105
Si Si7 0.322055 0.858520 0.173176
Si Si8 0.500000 0.601627 0.669369
O O1 0.883842 0.085568 0.745068
O O2 0.000000 0.000000 0.825979
O O3 0.885501 0.000000 0.000000
O O4 0.872878 0.582386 0.752635
O O5 0.733358 0.633768 0.770689
O O6 0.841085 0.747112 0.755541
O O7 0.820084 0.655902 0.000000
O O8 0.615996 0.918688 0.239087
O O9 0.500000 0.000000 0.333749
O O10 0.616009 0.000000 0.500000
O O11 0.098054 0.500000 0.500000
O O12 0.000000 0.500000 0.711419
O O13 0.346776 0.239241 0.175742
O O14 0.423009 0.371060 0.254808
O O15 0.353970 0.370936 0.000000
O O16 0.841539 0.167228 0.500000
O O17 0.749912 0.132340 0.275995
O O18 0.303812 0.880169 0.000000
O O19 0.500000 0.500000 0.666959
O O20 0.500000 0.635862 0.500000
#
# Coordination Sequence:
#
# PCOD9387920 Si02
#       8
#     4   8   4   4   8   8   8   4
#     4  11  24  41  62  89 123 163 204 249 302 363
#     4  10  22  42  67  94 123 162 212 258 306 368
#     4  11  24  37  52  81 117 153 196 247 302 353
#     4  11  25  43  65  96 131 166 203 251 312 371
#     4   9  21  40  62  87 115 155 201 249 298 351
#     4  11  22  39  64  92 123 159 199 249 307 364
#     4  10  21  39  61  84 113 154 203 247 293 353
#     4  11  25  39  55  86 121 156 195 241 300 361
#
# _framework density 18.994515
#
# number of rings (size 3 to 8) (size 9 to 14) (size 15 to 20)
#    0.000    1.667    0.000    5.000    2.333    7.333 
#    0.000    0.000    0.000    0.000    0.000    0.000 
#    0.000    0.000    0.000    0.000    0.000    0.000 
#
# Total GULP energy -268066.098694 kJ/mol
# GULP energy per Si atom -5584.710389 kJ/mol
# Density = 1.895128 g / cm^3
# Si number density = 18.994515 Si / 1000 Ang^3
#
#
#
# Elastic Constant Matrix: (Units=GPa)
#
#
# Indices 1 2 3 4 5 6 
#
# 1 132.4330 79.6194 69.0958 0.0000 0.0000 0.0000
# 2 79.6194 84.2572 52.8527 0.0000 0.0000 0.0000
# 3 69.0958 52.8527 125.4411 0.0000 0.0000 0.0000
# 4 0.0000 0.0000 0.0000 30.4845 0.0000 0.0000
# 5 0.0000 0.0000 0.0000 0.0000 21.7317 0.0000
# 6 0.0000 0.0000 0.0000 0.0000 0.0000 494.7586
#
#
#
# Elastic Compliance Matrix: (Units=1/GPa)
#
#
# Indices 1 2 3 4 5 6 
#
# 1 0.018789 -0.015309 -0.003899 0.000000 0.000000 0.000000
# 2 -0.015309 0.028606 -0.003620 0.000000 0.000000 0.000000
# 3 -0.003899 -0.003620 0.011645 0.000000 0.000000 0.000000
# 4 0.000000 0.000000 0.000000 0.032804 0.000000 0.000000
# 5 0.000000 0.000000 0.000000 0.000000 0.046016 0.000000
# 6 0.000000 0.000000 0.000000 0.000000 0.000000 0.002021
#
#
# Mechanical properties :
#
#
# Convention : Reuss Voigt Hill
#
# Bulk Modulus (GPa) = 74.72120 82.80745 78.76432
# Shear Modulus (GPa) = 26.31602 118.76585 72.54093
#
# Velocity S-wave (km/s) = 3.72621 7.91594 6.18655
# Velocity P-wave (km/s) = 7.61160 11.28005 9.62227
#
# Compressibility (1/GPa) = 0.01338308
#
# Stress axis : x y z
#
# Youngs Moduli (GPa) = 53.22149 34.95812 85.87461
#
# Poissons Ratio (x) = 0.53518 0.33485
# Poissons Ratio (y) = 0.81478 0.31086
# Poissons Ratio (z) = 0.20753 0.12654
#
# Static dielectric constant tensor:
#      x y z
#    x 1.649260 0.000000 0.000000 
#    y 0.000000 1.640090 0.000000 
#    z 0.000000 0.000000 1.662790 
# 
# From -- ./inp_files/9311.got.cif
#   From: 2010.05.17/outbox.cif.g08.bks.cpg/sg47_5_cif.got.tgz:9311.got - 2010.06.03 20:15:42.
