data_PCOD9387744
_publ_section_title
;
Structure prediction by ZEFSAII (Michael W. Deem and Ramdas Pophale) SiO2 
 PCOD9387744
Probable space group: P M M M
;
_chemical_formula_sum "Si O2"
_cell_formula_units_Z 48
_cell_length_a 31.545227
_cell_length_b 8.940156
_cell_length_c 9.164643
_cell_angle_alpha 90.000000
_cell_angle_beta 90.000000
_cell_angle_gamma 90.000000
_cell_volume 2584.605749
_symmetry_space_group_name_H-M "P M M M"
_symmetry_group_IT_number 47
_symmetry_cell_setting 'orthorhombic'
loop_
_space_group_symop_operation_xyz
x,y,z
-x,-y,z
x,-y,-z
-x,y,-z
-x,-y,-z
x,y,-z
-x,y,z
x,-y,z
loop_
_atom_site_type_symbol
_atom_site_label
_atom_site_fract_x
_atom_site_fract_y
_atom_site_fract_z
Si Si1 0.167502 0.177948 0.327205
Si Si2 0.337187 0.178531 0.172480
Si Si3 0.256923 0.677731 0.326500
Si Si4 0.080582 0.179907 0.171227
Si Si5 0.000000 0.678910 0.329639
Si Si6 0.581597 0.679045 0.672648
Si Si7 0.500000 0.179135 0.172746
O O1 0.160083 0.201835 0.500000
O O2 0.210222 0.264003 0.285523
O O3 0.125773 0.224371 0.239497
O O4 0.174112 0.000000 0.304852
O O5 0.293251 0.239221 0.237158
O O6 0.375737 0.256679 0.256614
O O7 0.339784 0.000000 0.192308
O O8 0.340039 0.210666 0.000000
O O9 0.262516 0.708369 0.500000
O O10 0.260060 0.500000 0.304990
O O11 0.041705 0.256014 0.253222
O O12 0.076868 0.000000 0.187984
O O13 0.079169 0.214821 0.000000
O O14 0.000000 0.500000 0.318098
O O15 0.000000 0.720648 0.500000
O O16 0.580476 0.712412 0.500000
O O17 0.580298 0.500000 0.690183
O O18 0.541441 0.752112 0.752045
O O19 0.500000 0.000000 0.190179
O O20 0.500000 0.212439 0.000000
#
# Coordination Sequence:
#
# PCOD9387744 Si02
#       7
#     8   8   8   8   4   8   4
#     4   9  18  34  56  81 111 149 190 230 274 327
#     4  11  24  40  59  85 116 151 193 239 286 338
#     4  10  21  37  58  85 116 150 189 233 281 335
#     4  10  21  37  58  84 113 145 183 228 278 333
#     4  11  24  39  56  80 110 145 186 231 278 330
#     4  11  24  41  62  89 119 152 193 238 285 340
#     4  11  24  41  62  90 122 155 194 237 282 336
#
# _framework density 18.571497000000001
#
# number of rings (size 3 to 8) (size 9 to 14) (size 15 to 20)
#    0.000    1.667    0.000    4.000    0.000   13.333 
#    0.000    3.333    0.000    0.000    0.000    0.000 
#    0.000    0.000    0.000    0.000    0.000    0.000 
#
# Total GULP energy -268370.660559 kJ/mol
# GULP energy per Si atom -5591.055428 kJ/mol
# Density = 1.852923 g / cm^3
# Si number density = 18.571497 Si / 1000 Ang^3
#
#
#
# Elastic Constant Matrix: (Units=GPa)
#
#
# Indices 1 2 3 4 5 6 
#
# 1 187.3027 74.9119 117.1822 0.0000 0.0000 0.0000
# 2 74.9119 67.3285 88.1384 0.0000 0.0000 0.0000
# 3 117.1822 88.1384 144.1876 0.0000 0.0000 0.0000
# 4 0.0000 0.0000 0.0000 27.4887 0.0000 0.0000
# 5 0.0000 0.0000 0.0000 0.0000 115.0362 0.0000
# 6 0.0000 0.0000 0.0000 0.0000 0.0000 76.9442
#
#
#
# Elastic Compliance Matrix: (Units=1/GPa)
#
#
# Indices 1 2 3 4 5 6 
#
# 1 0.010957 -0.002673 -0.007271 0.000000 0.000000 0.000000
# 2 -0.002673 0.074992 -0.043669 0.000000 0.000000 0.000000
# 3 -0.007271 -0.043669 0.039538 0.000000 0.000000 0.000000
# 4 0.000000 0.000000 0.000000 0.036379 0.000000 0.000000
# 5 0.000000 0.000000 0.000000 0.000000 0.008693 0.000000
# 6 0.000000 0.000000 0.000000 0.000000 0.000000 0.012996
#
#
# Mechanical properties :
#
#
# Convention : Reuss Voigt Hill
#
# Bulk Modulus (GPa) = 54.75740 106.58709 80.67225
# Shear Modulus (GPa) = 16.84257 51.79960 34.32108
#
# Velocity S-wave (km/s) = 3.01475 5.28702 4.30356
# Velocity P-wave (km/s) = 6.45500 9.73589 8.25998
#
# Compressibility (1/GPa) = 0.01826237
#
# Stress axis : x y z
#
# Youngs Moduli (GPa) = 91.26756 13.33475 25.29203
#
# Poissons Ratio (x) = 0.03564 0.18390
# Poissons Ratio (y) = 0.24393 1.10447
# Poissons Ratio (z) = 0.66360 0.58231
#
# Static dielectric constant tensor:
#      x y z
#    x 1.600370 0.000000 0.000000 
#    y 0.000000 1.620170 0.000000 
#    z 0.000000 0.000000 1.621130 
# 
# From -- ./inp_files/13903.got.cif
#   From: 2010.05.17/outbox.cif.g08.bks.cpg/sg47_7_cif.got.tgz:13903.got - 2010.06.03 20:15:42.
