data_PCOD9387346
_publ_section_title
;
Structure prediction by ZEFSAII (Michael W. Deem and Ramdas Pophale) SiO2 
 PCOD9387346
Probable space group: P M M M
;
_chemical_formula_sum "Si O2"
_cell_formula_units_Z 48
_cell_length_a 13.925720
_cell_length_b 9.392869
_cell_length_c 19.445364
_cell_angle_alpha 90.000000
_cell_angle_beta 90.000000
_cell_angle_gamma 90.000000
_cell_volume 2543.501519
_symmetry_space_group_name_H-M "P M M M"
_symmetry_group_IT_number 47
_symmetry_cell_setting 'orthorhombic'
loop_
_space_group_symop_operation_xyz
x,y,z
-x,-y,z
x,-y,-z
-x,y,-z
-x,-y,-z
x,y,-z
-x,y,z
x,-y,z
loop_
_atom_site_type_symbol
_atom_site_label
_atom_site_fract_x
_atom_site_fract_y
_atom_site_fract_z
Si Si1 0.116733 0.336983 0.926937
Si Si2 0.890215 0.667561 0.417281
Si Si3 0.616375 0.836023 0.921903
Si Si4 0.746817 0.835882 0.323045
Si Si5 0.108527 0.159131 0.801815
Si Si6 0.384296 0.666635 0.218349
O O1 0.147378 0.500000 0.925777
O O2 0.150225 0.257908 0.860243
O O3 0.000000 0.335590 0.924697
O O4 0.143752 0.271184 0.000000
O O5 0.886115 0.677558 0.500000
O O6 0.881365 0.500000 0.398499
O O7 0.802384 0.755226 0.384433
O O8 0.000000 0.713319 0.397062
O O9 0.500000 0.840070 0.922652
O O10 0.640109 0.740799 0.855221
O O11 0.649881 0.000000 0.911991
O O12 0.643803 0.788784 0.000000
O O13 0.829226 0.841530 0.265356
O O14 0.663665 0.749171 0.282901
O O15 0.719227 0.000000 0.339676
O O16 0.000000 0.204148 0.785325
O O17 0.104994 0.000000 0.830583
O O18 0.500000 0.673293 0.224865
O O19 0.355467 0.500000 0.218106
#
# Coordination Sequence:
#
# PCOD9387346 Si02
#       6
#     8   8   8   8   8   8
#     4   8  14  25  41  61  86 120 164 210 253 297
#     4   9  19  37  61  89 120 151 180 212 256 313
#     4   8  14  27  49  75 102 134 174 224 284 343
#     4  11  22  35  54  80 110 143 178 218 266 321
#     4   9  18  31  46  68  98 129 163 204 250 301
#     4  10  21  36  54  77 106 142 186 235 284 333
#
# _framework density 18.871621999999999
#
# number of rings (size 3 to 8) (size 9 to 14) (size 15 to 20)
#    0.000    2.833    0.000    3.000    0.000    4.333 
#    0.000    6.667    0.000    1.500    0.000    3.500 
#    0.000    0.000    0.000    0.000    0.000    0.000 
#
# Total GULP energy -267429.865186 kJ/mol
# GULP energy per Si atom -5571.455525 kJ/mol
# Density = 1.882867 g / cm^3
# Si number density = 18.871622 Si / 1000 Ang^3
#
#
#
# Elastic Constant Matrix: (Units=GPa)
#
#
# Indices 1 2 3 4 5 6 
#
# 1 80.6760 35.4619 20.0979 0.0000 0.0000 0.0000
# 2 35.4619 85.8149 46.0112 0.0000 0.0000 0.0000
# 3 20.0979 46.0112 69.2664 0.0000 0.0000 0.0000
# 4 0.0000 0.0000 0.0000 33.3829 0.0000 0.0000
# 5 0.0000 0.0000 0.0000 0.0000 64.7201 0.0000
# 6 0.0000 0.0000 0.0000 0.0000 0.0000 19.4441
#
#
#
# Elastic Compliance Matrix: (Units=1/GPa)
#
#
# Indices 1 2 3 4 5 6 
#
# 1 0.015153 -0.006064 -0.000368 0.000000 0.000000 0.000000
# 2 -0.006064 0.020526 -0.011875 0.000000 0.000000 0.000000
# 3 -0.000368 -0.011875 0.022432 0.000000 0.000000 0.000000
# 4 0.000000 0.000000 0.000000 0.029955 0.000000 0.000000
# 5 0.000000 0.000000 0.000000 0.000000 0.015451 0.000000
# 6 0.000000 0.000000 0.000000 0.000000 0.000000 0.051429
#
#
# Mechanical properties :
#
#
# Convention : Reuss Voigt Hill
#
# Bulk Modulus (GPa) = 46.52161 48.76658 47.64410
# Shear Modulus (GPa) = 25.16014 32.45519 28.80767
#
# Velocity S-wave (km/s) = 3.65530 4.15153 3.91129
# Velocity P-wave (km/s) = 6.52074 6.99125 6.76009
#
# Compressibility (1/GPa) = 0.02149539
#
# Stress axis : x y z
#
# Youngs Moduli (GPa) = 65.99546 48.71884 44.57889
#
# Poissons Ratio (x) = 0.29543 0.01642
# Poissons Ratio (y) = 0.40020 0.52938
# Poissons Ratio (z) = 0.02432 0.57854
#
# Static dielectric constant tensor:
#      x y z
#    x 1.714540 0.000000 0.000000 
#    y 0.000000 1.686470 0.000000 
#    z 0.000000 0.000000 1.637310 
# 
# From -- ./inp_files/27970.got.cif
#   From: 2010.05.17/outbox.cif.g08.bks.cpg/sg47_14_cif.got.tgz:27970.got - 2010.06.03 20:15:42.
