data_PCOD9387546
_publ_section_title
;
Structure prediction by ZEFSAII (Michael W. Deem and Ramdas Pophale) SiO2 
 PCOD9387546
Probable space group: P M M M
;
_chemical_formula_sum "Si O2"
_cell_formula_units_Z 56
_cell_length_a 14.290654
_cell_length_b 21.633769
_cell_length_c 8.938384
_cell_angle_alpha 90.000000
_cell_angle_beta 90.000000
_cell_angle_gamma 90.000000
_cell_volume 2763.397121
_symmetry_space_group_name_H-M "P M M M"
_symmetry_group_IT_number 47
_symmetry_cell_setting 'orthorhombic'
loop_
_space_group_symop_operation_xyz
x,y,z
-x,-y,z
x,-y,-z
-x,y,-z
-x,-y,-z
x,y,-z
-x,y,z
x,-y,z
loop_
_atom_site_type_symbol
_atom_site_label
_atom_site_fract_x
_atom_site_fract_y
_atom_site_fract_z
Si Si1 0.886220 0.068977 0.327940
Si Si2 0.385406 0.000000 0.324983
Si Si3 0.608780 0.133910 0.317560
Si Si4 0.707986 0.617331 0.176665
Si Si5 0.892969 0.425361 0.674569
Si Si6 0.388180 0.500000 0.327236
Si Si7 0.720479 0.744489 0.321531
Si Si8 0.110580 0.196993 0.176196
O O1 0.855602 0.080067 0.500000
O O2 0.862163 0.127424 0.227330
O O3 0.000000 0.066860 0.329641
O O4 0.854441 0.000000 0.282972
O O5 0.355862 0.933315 0.262578
O O6 0.500000 0.000000 0.321336
O O7 0.358535 0.000000 0.500000
O O8 0.611999 0.131753 0.500000
O O9 0.500000 0.140240 0.275662
O O10 0.665495 0.193994 0.271082
O O11 0.815821 0.604955 0.221650
O O12 0.651055 0.560847 0.247809
O O13 0.680944 0.682783 0.247838
O O14 0.696530 0.618178 0.000000
O O15 0.874663 0.409780 0.500000
O O16 0.885890 0.500000 0.687112
O O17 0.000000 0.408212 0.709831
O O18 0.500000 0.500000 0.323306
O O19 0.356259 0.500000 0.500000
O O20 0.715258 0.739699 0.500000
O O21 0.826612 0.755892 0.269101
O O22 0.000000 0.204444 0.205829
O O23 0.126829 0.204814 0.000000
#
# Coordination Sequence:
#
# PCOD9387546 Si02
#       8
#     8   4   8   8   8   4   8   8
#     4   8  14  27  49  75 102 137 187 246 302 355
#     4   7  10  22  48  80 112 141 172 226 295 351
#     4   8  15  30  54  84 115 146 185 236 296 358
#     4  12  25  41  63  92 128 165 200 248 301 355
#     4   9  18  35  62  93 124 159 199 243 292 350
#     4  11  25  47  74  99 124 159 203 248 294 351
#     4  11  23  38  58  86 120 161 203 245 294 354
#     4  10  21  37  55  76 110 156 204 253 304 359
#
# _framework density 20.264911000000001
#
# number of rings (size 3 to 8) (size 9 to 14) (size 15 to 20)
#    0.000    2.429    0.714    4.071    0.000    3.143 
#    1.286    3.571    0.000    1.286    0.000    0.000 
#    0.000    6.857    0.000    0.000    0.000    0.000 
#
# Total GULP energy -312777.885414 kJ/mol
# GULP energy per Si atom -5585.319382 kJ/mol
# Density = 2.021879 g / cm^3
# Si number density = 20.264911 Si / 1000 Ang^3
#
#
#
# Elastic Constant Matrix: (Units=GPa)
#
#
# Indices 1 2 3 4 5 6 
#
# 1 62.0131 51.0717 33.5744 0.0000 0.0000 0.0000
# 2 51.0717 162.9759 65.1077 0.0000 0.0000 0.0000
# 3 33.5744 65.1077 80.2169 0.0000 0.0000 0.0000
# 4 0.0000 0.0000 0.0000 13.4934 0.0000 0.0000
# 5 0.0000 0.0000 0.0000 0.0000 -59.2737 0.0000
# 6 0.0000 0.0000 0.0000 0.0000 0.0000 13.3462
#
#
#
# Elastic Compliance Matrix: (Units=1/GPa)
#
#
# Indices 1 2 3 4 5 6 
#
# 1 0.023360 -0.005053 -0.005676 0.000000 0.000000 0.000000
# 2 -0.005053 0.010173 -0.006142 0.000000 0.000000 0.000000
# 3 -0.005676 -0.006142 0.019827 0.000000 0.000000 0.000000
# 4 0.000000 0.000000 0.000000 0.074110 0.000000 0.000000
# 5 0.000000 0.000000 0.000000 0.000000 -0.016871 0.000000
# 6 0.000000 0.000000 0.000000 0.000000 0.000000 0.074928
#
#
# Mechanical properties :
#
#
# Convention : Reuss Voigt Hill
#
# Bulk Modulus (GPa) = 50.97324 67.19038 59.08181
# Shear Modulus (GPa) = 22.14266 3.87665 13.00965
#
# Velocity S-wave (km/s) = 3.30913 1.38461 2.53648
# Velocity P-wave (km/s) = 6.30940 5.98199 6.14787
#
# Compressibility (1/GPa) = 0.01961814
#
# Stress axis : x y z
#
# Youngs Moduli (GPa) = 42.80817 98.30004 50.43600
#
# Poissons Ratio (x) = 0.49668 0.28629
# Poissons Ratio (y) = 0.21630 0.30978
# Poissons Ratio (z) = 0.24299 0.60376
#
# Static dielectric constant tensor:
#      x y z
#    x 1.749840 0.000000 0.000000 
#    y 0.000000 1.733150 0.000000 
#    z 0.000000 0.000000 1.672380 
# 
# From -- ./inp_files/7384.got.cif
#   From: 2010.05.17/outbox.cif.g08.bks.cpg/sg47_4_cif.got.tgz:7384.got - 2010.06.03 20:15:42.
