data_PCOD9387667
_publ_section_title
;
Structure prediction by ZEFSAII (Michael W. Deem and Ramdas Pophale) SiO2 
 PCOD9387667
Probable space group: P M M M
;
_chemical_formula_sum "Si O2"
_cell_formula_units_Z 48
_cell_length_a 9.323090
_cell_length_b 7.826868
_cell_length_c 35.163737
_cell_angle_alpha 90.000000
_cell_angle_beta 90.000000
_cell_angle_gamma 90.000000
_cell_volume 2565.918804
_symmetry_space_group_name_H-M "P M M M"
_symmetry_group_IT_number 47
_symmetry_cell_setting 'orthorhombic'
loop_
_space_group_symop_operation_xyz
x,y,z
-x,-y,z
x,-y,-z
-x,y,-z
-x,-y,-z
x,y,-z
-x,y,z
x,-y,z
loop_
_atom_site_type_symbol
_atom_site_label
_atom_site_fract_x
_atom_site_fract_y
_atom_site_fract_z
Si Si1 0.835536 0.706199 0.457428
Si Si2 0.327582 0.701055 0.766441
Si Si3 0.161314 0.703811 0.690888
Si Si4 0.326210 0.000000 0.176988
Si Si5 0.672899 0.000000 0.089014
Si Si6 0.829949 0.698592 0.045283
Si Si7 0.660808 0.202391 0.383162
O O1 0.793298 0.763467 0.500000
O O2 0.837239 0.500000 0.457789
O O3 0.733067 0.760721 0.423625
O O4 0.000000 0.763060 0.450508
O O5 0.500000 0.712082 0.761807
O O6 0.293959 0.500000 0.773776
O O7 0.252439 0.760290 0.727421
O O8 0.282906 0.829682 0.799974
O O9 0.151076 0.500000 0.694840
O O10 0.241628 0.735713 0.651451
O O11 0.000000 0.775194 0.690500
O O12 0.281282 0.000000 0.133232
O O13 0.500000 0.000000 0.176812
O O14 0.736902 0.166725 0.068423
O O15 0.500000 0.000000 0.086856
O O16 0.797631 0.500000 0.054394
O O17 0.000000 0.726410 0.052231
O O18 0.806844 0.721686 0.000000
O O19 0.500000 0.275697 0.381095
O O20 0.651346 0.000000 0.379099
#
# Coordination Sequence:
#
# PCOD9387667 Si02
#       7
#     8   8   8   4   4   8   8
#     4   9  19  37  59  80 103 134 172 213 257 306
#     4   9  18  35  58  79 103 141 185 227 272 326
#     4  10  21  37  57  81 107 133 167 217 272 321
#     4   9  20  36  54  79 112 150 189 227 276 344
#     4  11  22  34  53  86 122 154 190 241 301 354
#     4   9  19  37  59  81 110 154 204 249 295 350
#     4  11  24  37  51  77 110 141 173 211 254 306
#
# _framework density 18.706748999999999
#
# number of rings (size 3 to 8) (size 9 to 14) (size 15 to 20)
#    0.000    2.333    0.000    3.000    1.167    7.667 
#    0.000    6.667    0.000    2.000    0.000    0.000 
#    0.000    0.000    0.000    0.000    0.000    0.000 
#
# Total GULP energy -267850.392498 kJ/mol
# GULP energy per Si atom -5580.216510 kJ/mol
# Density = 1.866417 g / cm^3
# Si number density = 18.706749 Si / 1000 Ang^3
#
#
#
# Elastic Constant Matrix: (Units=GPa)
#
#
# Indices 1 2 3 4 5 6 
#
# 1 90.6524 49.3277 77.2674 0.0000 0.0000 0.0000
# 2 49.3277 72.2068 63.0216 0.0000 0.0000 0.0000
# 3 77.2674 63.0216 143.9105 0.0000 0.0000 0.0000
# 4 0.0000 0.0000 0.0000 7.5098 0.0000 0.0000
# 5 0.0000 0.0000 0.0000 0.0000 6.6951 0.0000
# 6 0.0000 0.0000 0.0000 0.0000 0.0000 23.9026
#
#
#
# Elastic Compliance Matrix: (Units=1/GPa)
#
#
# Indices 1 2 3 4 5 6 
#
# 1 0.022838 -0.007931 -0.008789 0.000000 0.000000 0.000000
# 2 -0.007931 0.025171 -0.006765 0.000000 0.000000 0.000000
# 3 -0.008789 -0.006765 0.014630 0.000000 0.000000 0.000000
# 4 0.000000 0.000000 0.000000 0.133160 0.000000 0.000000
# 5 0.000000 0.000000 0.000000 0.000000 0.149364 0.000000
# 6 0.000000 0.000000 0.000000 0.000000 0.000000 0.041837
#
#
# Mechanical properties :
#
#
# Convention : Reuss Voigt Hill
#
# Bulk Modulus (GPa) = 63.81541 76.22255 70.01898
# Shear Modulus (GPa) = 11.38455 15.43168 13.40811
#
# Velocity S-wave (km/s) = 2.46962 2.87527 2.68013
# Velocity P-wave (km/s) = 6.50535 7.20121 6.86211
#
# Compressibility (1/GPa) = 0.01567020
#
# Stress axis : x y z
#
# Youngs Moduli (GPa) = 43.78731 39.72780 68.35185
#
# Poissons Ratio (x) = 0.31506 0.60074
# Poissons Ratio (y) = 0.34726 0.46240
# Poissons Ratio (z) = 0.38484 0.26876
#
# Static dielectric constant tensor:
#      x y z
#    x 1.659250 0.000000 0.000000 
#    y 0.000000 1.659000 0.000000 
#    z 0.000000 0.000000 1.622520 
# 
# From -- ./inp_files/34118.got.cif
#   From: 2010.05.17/outbox.cif.g08.bks.cpg/sg47_18_cif.got.tgz:34118.got - 2010.06.03 20:15:42.
