data_PCOD9387704
_publ_section_title
;
Structure prediction by ZEFSAII (Michael W. Deem and Ramdas Pophale) SiO2 
 PCOD9387704
Probable space group: P M M M
;
_chemical_formula_sum "Si O2"
_cell_formula_units_Z 56
_cell_length_a 9.061541
_cell_length_b 21.818698
_cell_length_c 14.290459
_cell_angle_alpha 90.000000
_cell_angle_beta 90.000000
_cell_angle_gamma 90.000000
_cell_volume 2825.381318
_symmetry_space_group_name_H-M "P M M M"
_symmetry_group_IT_number 47
_symmetry_cell_setting 'orthorhombic'
loop_
_space_group_symop_operation_xyz
x,y,z
-x,-y,z
x,-y,-z
-x,y,-z
-x,-y,-z
x,y,-z
-x,y,z
x,-y,z
loop_
_atom_site_type_symbol
_atom_site_label
_atom_site_fract_x
_atom_site_fract_y
_atom_site_fract_z
Si Si1 0.826000 0.931214 0.387360
Si Si2 0.167349 0.500000 0.886304
Si Si3 0.331219 0.000000 0.886599
Si Si4 0.176207 0.872321 0.109895
Si Si5 0.676584 0.373986 0.106285
Si Si6 0.677054 0.181130 0.282761
Si Si7 0.323611 0.684406 0.705422
Si Si8 0.825646 0.567633 0.387689
O O1 0.813900 0.928195 0.500000
O O2 0.737240 0.876045 0.341544
O O3 0.000000 0.925360 0.363757
O O4 0.777486 0.000000 0.358568
O O5 0.250343 0.437691 0.861638
O O6 0.000000 0.500000 0.851501
O O7 0.163930 0.500000 0.000000
O O8 0.242510 0.938729 0.862603
O O9 0.500000 0.000000 0.850974
O O10 0.339396 0.000000 0.000000
O O11 0.253950 0.825528 0.179585
O O12 0.000000 0.872380 0.121518
O O13 0.208731 0.861681 0.000000
O O14 0.500000 0.382420 0.104437
O O15 0.710956 0.323946 0.184300
O O16 0.724897 0.359769 0.000000
O O17 0.500000 0.178993 0.276999
O O18 0.721409 0.247313 0.324522
O O19 0.500000 0.679832 0.694294
O O20 0.252057 0.626956 0.653929
O O21 0.809075 0.568758 0.500000
O O22 0.771928 0.500000 0.355094
O O23 0.000000 0.570892 0.367019
#
# Coordination Sequence:
#
# PCOD9387704 Si02
#       8
#     8   4   4   8   8   8   8   8
#     4   9  20  41  67  91 115 148 192 241 295 356
#     4   9  17  29  47  75 106 135 176 231 285 330
#     4   9  17  31  53  81 110 143 188 241 295 345
#     4  10  21  37  57  82 115 157 203 248 293 345
#     4   9  18  34  54  75 106 150 194 233 276 331
#     4  11  24  39  57  86 123 160 197 242 297 352
#     4  10  23  39  56  84 118 155 198 239 285 343
#     4   9  20  40  64  89 116 148 188 236 294 355
#
# _framework density 19.820333000000002
#
# number of rings (size 3 to 8) (size 9 to 14) (size 15 to 20)
#    0.000    2.429    0.000    2.143    2.000    6.571 
#    0.000    5.714    0.000    1.714    0.000    0.000 
#    0.000    0.000    0.000    0.000    0.000    0.000 
#
# Total GULP energy -312611.966571 kJ/mol
# GULP energy per Si atom -5582.356546 kJ/mol
# Density = 1.977522 g / cm^3
# Si number density = 19.820333 Si / 1000 Ang^3
#
#
#
# Elastic Constant Matrix: (Units=GPa)
#
#
# Indices 1 2 3 4 5 6 
#
# 1 52.5981 62.2999 30.5360 0.0000 0.0000 0.0000
# 2 62.2999 180.3458 56.5678 0.0000 0.0000 0.0000
# 3 30.5360 56.5678 57.5879 0.0000 0.0000 0.0000
# 4 0.0000 0.0000 0.0000 19.5645 0.0000 0.0000
# 5 0.0000 0.0000 0.0000 0.0000 29.1525 0.0000
# 6 0.0000 0.0000 0.0000 0.0000 0.0000 67.3876
#
#
#
# Elastic Compliance Matrix: (Units=1/GPa)
#
#
# Indices 1 2 3 4 5 6 
#
# 1 0.035660 -0.009232 -0.009840 0.000000 0.000000 0.000000
# 2 -0.009232 0.010404 -0.005325 0.000000 0.000000 0.000000
# 3 -0.009840 -0.005325 0.027813 0.000000 0.000000 0.000000
# 4 0.000000 0.000000 0.000000 0.051113 0.000000 0.000000
# 5 0.000000 0.000000 0.000000 0.000000 0.034302 0.000000
# 6 0.000000 0.000000 0.000000 0.000000 0.000000 0.014840
#
#
# Mechanical properties :
#
#
# Convention : Reuss Voigt Hill
#
# Bulk Modulus (GPa) = 39.86732 65.48215 52.67474
# Shear Modulus (GPa) = 21.61825 32.62946 27.12385
#
# Velocity S-wave (km/s) = 3.30617 4.06182 3.70332
# Velocity P-wave (km/s) = 5.89342 7.42344 6.70223
#
# Compressibility (1/GPa) = 0.02508320
#
# Stress axis : x y z
#
# Youngs Moduli (GPa) = 28.04286 96.11479 35.95473
#
# Poissons Ratio (x) = 0.88734 0.35380
# Poissons Ratio (y) = 0.25889 0.19145
# Poissons Ratio (z) = 0.27594 0.51177
#
# Static dielectric constant tensor:
#      x y z
#    x 1.662870 0.000000 0.000000 
#    y 0.000000 1.687410 0.000000 
#    z 0.000000 0.000000 1.736240 
# 
# From -- ./inp_files/21596.got.cif
#   From: 2010.05.17/outbox.cif.g08.bks.cpg/sg47_11_cif.got.tgz:21596.got - 2010.06.03 20:15:42.
