data_PCOD9387478
_publ_section_title
;
Structure prediction by ZEFSAII (Michael W. Deem and Ramdas Pophale) SiO2 
 PCOD9387478
Probable space group: P M M M
;
_chemical_formula_sum "Si O2"
_cell_formula_units_Z 48
_cell_length_a 19.914587
_cell_length_b 7.846484
_cell_length_c 14.850193
_cell_angle_alpha 90.000000
_cell_angle_beta 90.000000
_cell_angle_gamma 90.000000
_cell_volume 2320.483559
_symmetry_space_group_name_H-M "P M M M"
_symmetry_group_IT_number 47
_symmetry_cell_setting 'orthorhombic'
loop_
_space_group_symop_operation_xyz
x,y,z
-x,-y,z
x,-y,-z
-x,y,-z
-x,-y,-z
x,y,-z
-x,y,z
x,-y,z
loop_
_atom_site_type_symbol
_atom_site_label
_atom_site_fract_x
_atom_site_fract_y
_atom_site_fract_z
Si Si1 0.703157 0.301768 0.215752
Si Si2 0.081953 0.299454 0.500000
Si Si3 0.500000 0.305784 0.390898
Si Si4 0.351452 0.800305 0.601616
Si Si5 0.079794 0.000000 0.843799
Si Si6 0.172023 0.699844 0.896691
Si Si7 0.918752 0.000000 0.633513
Si Si8 0.574038 0.795789 0.102638
O O1 0.707735 0.500000 0.197499
O O2 0.695957 0.273732 0.321962
O O3 0.769379 0.230506 0.168513
O O4 0.635112 0.243542 0.167639
O O5 0.104248 0.500000 0.500000
O O6 0.102895 0.175950 0.416357
O O7 0.000000 0.307054 0.500000
O O8 0.500000 0.500000 0.359159
O O9 0.500000 0.304169 0.500000
O O10 0.429056 0.222861 0.367048
O O11 0.344960 0.728073 0.500000
O O12 0.338316 0.000000 0.596801
O O13 0.110606 0.828997 0.886137
O O14 0.098233 0.000000 0.737821
O O15 0.000000 0.000000 0.852182
O O16 0.155480 0.500000 0.876730
O O17 0.196447 0.705148 0.000000
O O18 0.000000 0.000000 0.625726
O O19 0.500000 0.733333 0.132454
O O20 0.570331 0.000000 0.098279
O O21 0.585815 0.733613 0.000000
#
# Coordination Sequence:
#
# PCOD9387478 Si02
#       8
#     8   4   4   8   4   8   4   8
#     4  11  23  38  60  87 119 161 209 258 311 373
#     4   8  13  25  50  83 125 174 209 239 286 339
#     4   9  17  31  51  77 112 155 204 259 317 369
#     4  10  21  36  56  83 117 161 211 264 318 371
#     4  11  24  42  70 103 132 167 207 254 324 398
#     4  10  24  45  67  95 130 167 212 264 320 391
#     4   8  16  30  50  86 127 158 202 252 288 351
#     4   9  19  35  55  83 119 158 203 255 307 358
#
# _framework density 20.685344000000001
#
# number of rings (size 3 to 8) (size 9 to 14) (size 15 to 20)
#    0.000    2.333    0.000    3.000    3.500    5.000 
#    0.000    3.333    3.667    0.000    0.000    0.000 
#    0.000    0.000    0.000    0.000    0.000    0.000 
#
# Total GULP energy -267734.602600 kJ/mol
# GULP energy per Si atom -5577.804221 kJ/mol
# Density = 2.063826 g / cm^3
# Si number density = 20.685344 Si / 1000 Ang^3
#
#
#
# Elastic Constant Matrix: (Units=GPa)
#
#
# Indices 1 2 3 4 5 6 
#
# 1 84.2348 26.0190 48.9807 0.0000 0.0000 0.0000
# 2 26.0190 86.0278 19.6439 0.0000 0.0000 0.0000
# 3 48.9807 19.6439 84.3732 0.0000 0.0000 0.0000
# 4 0.0000 0.0000 0.0000 8.6032 0.0000 0.0000
# 5 0.0000 0.0000 0.0000 0.0000 35.2729 0.0000
# 6 0.0000 0.0000 0.0000 0.0000 0.0000 23.2684
#
#
#
# Elastic Compliance Matrix: (Units=1/GPa)
#
#
# Indices 1 2 3 4 5 6 
#
# 1 0.018805 -0.003374 -0.010131 0.000000 0.000000 0.000000
# 2 -0.003374 0.012882 -0.001041 0.000000 0.000000 0.000000
# 3 -0.010131 -0.001041 0.017976 0.000000 0.000000 0.000000
# 4 0.000000 0.000000 0.000000 0.116235 0.000000 0.000000
# 5 0.000000 0.000000 0.000000 0.000000 0.028350 0.000000
# 6 0.000000 0.000000 0.000000 0.000000 0.000000 0.042977
#
#
# Mechanical properties :
#
#
# Convention : Reuss Voigt Hill
#
# Bulk Modulus (GPa) = 48.61134 49.32477 48.96805
# Shear Modulus (GPa) = 18.30339 24.09506 21.19922
#
# Velocity S-wave (km/s) = 2.97787 3.41667 3.20479
# Velocity P-wave (km/s) = 5.94769 6.28187 6.11706
#
# Compressibility (1/GPa) = 0.02057133
#
# Stress axis : x y z
#
# Youngs Moduli (GPa) = 53.17799 77.62626 55.63075
#
# Poissons Ratio (x) = 0.26192 0.56360
# Poissons Ratio (y) = 0.17943 0.05788
# Poissons Ratio (z) = 0.53875 0.08077
#
# Static dielectric constant tensor:
#      x y z
#    x 1.755300 0.000000 0.000000 
#    y 0.000000 1.735400 0.000000 
#    z 0.000000 0.000000 1.788710 
# 
# From -- ./inp_files/24519.got.cif
#   From: 2010.05.17/outbox.cif.g08.bks.cpg/sg47_13_cif.got.tgz:24519.got - 2010.06.03 20:15:42.
