data_PCOD9387099
_publ_section_title
;
Structure prediction by ZEFSAII (Michael W. Deem and Ramdas Pophale) SiO2 
 PCOD9387099
Probable space group: P M M M
;
_chemical_formula_sum "Si O2"
_cell_formula_units_Z 48
_cell_length_a 9.289237
_cell_length_b 31.984058
_cell_length_c 9.487438
_cell_angle_alpha 90.000000
_cell_angle_beta 90.000000
_cell_angle_gamma 90.000000
_cell_volume 2818.788938
_symmetry_space_group_name_H-M "P M M M"
_symmetry_group_IT_number 47
_symmetry_cell_setting 'orthorhombic'
loop_
_space_group_symop_operation_xyz
x,y,z
-x,-y,z
x,-y,-z
-x,y,-z
-x,-y,-z
x,y,-z
-x,y,z
x,-y,z
loop_
_atom_site_type_symbol
_atom_site_label
_atom_site_fract_x
_atom_site_fract_y
_atom_site_fract_z
Si Si1 0.672607 0.548141 0.665299
Si Si2 0.334297 0.788348 0.328369
Si Si3 0.171242 0.872078 0.668212
Si Si4 0.173012 0.620719 0.835071
Si Si5 0.175008 0.046353 0.164269
Si Si6 0.171997 0.704136 0.666543
O O1 0.706980 0.555188 0.500000
O O2 0.500000 0.552115 0.680295
O O3 0.710766 0.500000 0.699342
O O4 0.752189 0.581516 0.761170
O O5 0.331095 0.788651 0.500000
O O6 0.500000 0.788137 0.283573
O O7 0.253366 0.830493 0.283138
O O8 0.252941 0.746035 0.285997
O O9 0.190582 0.876567 0.500000
O O10 0.222863 0.914139 0.744979
O O11 0.000000 0.866922 0.693766
O O12 0.214310 0.663412 0.754888
O O13 0.000000 0.616605 0.822372
O O14 0.209348 0.622991 0.000000
O O15 0.000000 0.046153 0.170766
O O16 0.222822 0.000000 0.211877
O O17 0.214028 0.051254 0.000000
O O18 0.201932 0.697213 0.500000
O O19 0.000000 0.710321 0.680596
#
# Coordination Sequence:
#
# PCOD9387099 Si02
#       6
#     8   8   8   8   8   8
#     4   9  19  36  56  77 101 131 169 209 245 285
#     4   9  17  29  46  68  92 118 150 189 232 277
#     4   9  16  26  43  67  91 114 144 184 227 269
#     4  10  21  35  51  75 106 135 163 199 245 294
#     4   8  14  25  41  62  88 116 146 181 221 265
#     4   9  17  31  51  71  92 122 160 198 235 278
#
# _framework density 17.028587999999999
#
# number of rings (size 3 to 8) (size 9 to 14) (size 15 to 20)
#    0.000    3.000    0.000    2.000    0.000    5.000 
#    0.000    6.667    0.000    6.000    0.000    3.500 
#    0.000    0.000    0.000    0.000    0.000    0.000 
#
# Total GULP energy -267484.566701 kJ/mol
# GULP energy per Si atom -5572.595140 kJ/mol
# Density = 1.698983 g / cm^3
# Si number density = 17.028588 Si / 1000 Ang^3
#
#
#
# Elastic Constant Matrix: (Units=GPa)
#
#
# Indices 1 2 3 4 5 6 
#
# 1 35.8870 69.5221 41.3645 0.0000 0.0000 0.0000
# 2 69.5221 209.4494 93.5841 0.0000 0.0000 0.0000
# 3 41.3645 93.5841 61.9282 0.0000 0.0000 0.0000
# 4 0.0000 0.0000 0.0000 -8.8299 0.0000 0.0000
# 5 0.0000 0.0000 0.0000 0.0000 15.0737 0.0000
# 6 0.0000 0.0000 0.0000 0.0000 0.0000 -14.8266
#
#
#
# Elastic Compliance Matrix: (Units=1/GPa)
#
#
# Indices 1 2 3 4 5 6 
#
# 1 0.132717 -0.013682 -0.067972 0.000000 0.000000 0.000000
# 2 -0.013682 0.016110 -0.015207 0.000000 0.000000 0.000000
# 3 -0.067972 -0.015207 0.084529 0.000000 0.000000 0.000000
# 4 0.000000 0.000000 0.000000 -0.113251 0.000000 0.000000
# 5 0.000000 0.000000 0.000000 0.000000 0.066341 0.000000
# 6 0.000000 0.000000 0.000000 0.000000 0.000000 -0.067446
#
#
# Mechanical properties :
#
#
# Convention : Reuss Voigt Hill
#
# Bulk Modulus (GPa) = 25.22976 79.57846 52.40411
# Shear Modulus (GPa) = 15.34061 5.13636 10.23849
#
# Velocity S-wave (km/s) = 3.00471 1.73864 2.45471
# Velocity P-wave (km/s) = 5.18517 7.13191 6.23499
#
# Compressibility (1/GPa) = 0.03963573
#
# Stress axis : x y z
#
# Youngs Moduli (GPa) = 7.53480 62.07167 11.83031
#
# Poissons Ratio (x) = 0.84928 0.80412
# Poissons Ratio (y) = 0.10309 0.17990
# Poissons Ratio (z) = 0.51215 0.94390
#
# Static dielectric constant tensor:
#      x y z
#    x 1.565810 0.000000 0.000000 
#    y 0.000000 1.565880 0.000000 
#    z 0.000000 0.000000 1.561700 
# 
# From -- ./inp_files/2518.got.cif
#   From: 2010.05.17/outbox.cif.g08.bks.cpg/sg47_2_cif.got.tgz:2518.got - 2010.06.03 20:15:42.
