data_PCOD9387070
_publ_section_title
;
Structure prediction by ZEFSAII (Michael W. Deem and Ramdas Pophale) SiO2 
 PCOD9387070
Probable space group: P M M M
;
_chemical_formula_sum "Si O2"
_cell_formula_units_Z 44
_cell_length_a 29.148450
_cell_length_b 9.915192
_cell_length_c 7.542949
_cell_angle_alpha 90.000000
_cell_angle_beta 90.000000
_cell_angle_gamma 90.000000
_cell_volume 2180.006384
_symmetry_space_group_name_H-M "P M M M"
_symmetry_group_IT_number 47
_symmetry_cell_setting 'orthorhombic'
loop_
_space_group_symop_operation_xyz
x,y,z
-x,-y,z
x,-y,-z
-x,y,-z
-x,-y,-z
x,y,-z
-x,y,z
x,-y,z
loop_
_atom_site_type_symbol
_atom_site_label
_atom_site_fract_x
_atom_site_fract_y
_atom_site_fract_z
Si Si1 0.682074 0.846474 0.713151
Si Si2 0.865124 0.652020 0.789563
Si Si3 0.785950 0.153321 0.788100
Si Si4 0.399856 0.343924 0.717561
Si Si5 0.500000 0.335974 0.293714
Si Si6 0.052370 0.848653 0.286310
O O1 0.678538 0.850366 0.500000
O O2 0.733744 0.801580 0.755800
O O3 0.641937 0.748850 0.777393
O O4 0.676927 0.000000 0.779437
O O5 0.867263 0.500000 0.717283
O O6 0.823689 0.743571 0.716380
O O7 0.911948 0.735054 0.767186
O O8 0.857242 0.640497 0.000000
O O9 0.791089 0.000000 0.717875
O O10 0.792185 0.145379 0.000000
O O11 0.400965 0.342385 0.500000
O O12 0.393418 0.500000 0.769145
O O13 0.450343 0.296021 0.779879
O O14 0.500000 0.500000 0.290288
O O15 0.500000 0.294259 0.500000
O O16 0.051685 0.851280 0.500000
O O17 0.000000 0.824184 0.226641
O O18 0.066189 0.000000 0.226281
#
# Coordination Sequence:
#
# PCOD9387070 Si02
#       6
#     8   8   8   8   4   8
#     4   9  17  28  42  63  89 112 139 182 230 268
#     4  10  21  35  51  74 102 128 157 197 241 282
#     4   9  18  33  50  65  86 121 159 189 223 273
#     4   8  13  22  37  57  82 112 143 174 212 262
#     4   7  10  18  33  53  78 109 142 172 206 255
#     4   9  19  36  56  77 101 130 164 198 231 273
#
# _framework density 20.183426000000001
#
# number of rings (size 3 to 8) (size 9 to 14) (size 15 to 20)
#    0.000    3.182    0.000    2.182    0.000    3.636 
#    0.000    5.000    0.000    2.727    0.000    0.636 
#    0.000    5.091    0.000    0.000    0.000    0.000 
#
# Total GULP energy -245322.408490 kJ/mol
# GULP energy per Si atom -5575.509284 kJ/mol
# Density = 2.013749 g / cm^3
# Si number density = 20.183426 Si / 1000 Ang^3
#
#
#
# Elastic Constant Matrix: (Units=GPa)
#
#
# Indices 1 2 3 4 5 6 
#
# 1 183.1607 126.2164 -0.6843 0.0000 0.0000 0.0000
# 2 126.2164 129.8276 5.7372 0.0000 0.0000 0.0000
# 3 -0.6843 5.7372 48.4883 0.0000 0.0000 0.0000
# 4 0.0000 0.0000 0.0000 6.5466 0.0000 0.0000
# 5 0.0000 0.0000 0.0000 0.0000 23.5987 0.0000
# 6 0.0000 0.0000 0.0000 0.0000 0.0000 31.0633
#
#
#
# Elastic Compliance Matrix: (Units=1/GPa)
#
#
# Indices 1 2 3 4 5 6 
#
# 1 0.016767 -0.016396 0.002177 0.000000 0.000000 0.000000
# 2 -0.016396 0.023777 -0.003045 0.000000 0.000000 0.000000
# 3 0.002177 -0.003045 0.021015 0.000000 0.000000 0.000000
# 4 0.000000 0.000000 0.000000 0.152751 0.000000 0.000000
# 5 0.000000 0.000000 0.000000 0.000000 0.042375 0.000000
# 6 0.000000 0.000000 0.000000 0.000000 0.000000 0.032192
#
#
# Mechanical properties :
#
#
# Convention : Reuss Voigt Hill
#
# Bulk Modulus (GPa) = 36.99661 69.33501 53.16581
# Shear Modulus (GPa) = 15.04137 27.58888 21.31512
#
# Velocity S-wave (km/s) = 2.73286 3.70118 3.25325
# Velocity P-wave (km/s) = 5.32241 7.25893 6.36475
#
# Compressibility (1/GPa) = 0.02702950
#
# Stress axis : x y z
#
# Youngs Moduli (GPa) = 59.64221 42.05662 47.58612
#
# Poissons Ratio (x) = 0.68958 -0.10358
# Poissons Ratio (y) = 0.97792 0.14489
# Poissons Ratio (z) = -0.12982 0.12805
#
# Static dielectric constant tensor:
#      x y z
#    x 1.708020 0.000000 0.000000 
#    y 0.000000 1.702280 0.000000 
#    z 0.000000 0.000000 1.776660 
# 
# From -- ./inp_files/12330.got.cif
#   From: 2010.05.17/outbox.cif.g08.bks.cpg/sg47_7_cif.got.tgz:12330.got - 2010.06.03 20:15:42.
