data_PCOD9387871
_publ_section_title
;
Structure prediction by ZEFSAII (Michael W. Deem and Ramdas Pophale) SiO2 
 PCOD9387871
Probable space group: P M M M
;
_chemical_formula_sum "Si O2"
_cell_formula_units_Z 37
_cell_length_a 9.097595
_cell_length_b 22.968380
_cell_length_c 9.623172
_cell_angle_alpha 90.000000
_cell_angle_beta 90.000000
_cell_angle_gamma 90.000000
_cell_volume 2010.829335
_symmetry_space_group_name_H-M "P M M M"
_symmetry_group_IT_number 47
_symmetry_cell_setting 'orthorhombic'
loop_
_space_group_symop_operation_xyz
x,y,z
-x,-y,z
x,-y,-z
-x,y,-z
-x,-y,-z
x,y,-z
-x,y,z
x,-y,z
loop_
_atom_site_type_symbol
_atom_site_label
_atom_site_fract_x
_atom_site_fract_y
_atom_site_fract_z
Si Si1 0.337895 0.000000 0.285742
Si Si2 0.500000 0.000000 0.000000
Si Si3 0.175092 0.431105 0.160915
Si Si4 0.822474 0.770495 0.837409
Si Si5 0.676049 0.667159 0.337124
Si Si6 0.175453 0.879982 0.656028
O O1 0.252232 0.058240 0.324714
O O2 0.500000 0.000000 0.351311
O O3 0.373741 0.000000 0.122434
O O4 0.201434 0.500000 0.179514
O O5 0.264279 0.391756 0.266904
O O6 0.000000 0.421039 0.178143
O O7 0.211278 0.416272 0.000000
O O8 0.748223 0.719633 0.749129
O O9 0.779180 0.832272 0.769524
O O10 0.000000 0.765210 0.826596
O O11 0.783460 0.767321 0.000000
O O12 0.716275 0.670217 0.500000
O O13 0.500000 0.669862 0.326360
O O14 0.207047 0.857632 0.500000
O O15 0.000000 0.887877 0.667336
#
# Coordination Sequence:
#
# PCOD9387871 Si02
#       6
#     4   1   8   8   8   8
#     4  10  22  38  58  80 118 152 188 228 277 333
#     4   8  24  40  52  84 120 152 192 232 274 336
#     4   9  19  37  61  87 114 146 187 233 280 333
#     4  10  22  39  61  86 111 144 188 235 283 336
#     4  11  24  39  55  81 117 153 190 231 279 333
#     4  10  21  38  61  88 115 145 186 233 284 339
#
# _framework density 18.400368
#
# number of rings (size 3 to 8) (size 9 to 14) (size 15 to 20)
#    0.324    1.730    0.000    3.243    1.514    9.514 
#    0.000    3.784    0.000    0.000    0.000    0.000 
#    0.000    0.000    0.000    0.000    0.000    0.000 
#
# Total GULP energy -206283.056709 kJ/mol
# GULP energy per Si atom -5575.217749 kJ/mol
# Density = 1.835849 g / cm^3
# Si number density = 18.400368 Si / 1000 Ang^3
#
#
#
# Elastic Constant Matrix: (Units=GPa)
#
#
# Indices 1 2 3 4 5 6 
#
# 1 36.7313 48.3901 62.9324 0.0000 0.0000 0.0000
# 2 48.3901 107.5416 86.7926 0.0000 0.0000 0.0000
# 3 62.9324 86.7926 181.1000 0.0000 0.0000 0.0000
# 4 0.0000 0.0000 0.0000 -3.2730 0.0000 0.0000
# 5 0.0000 0.0000 0.0000 0.0000 32.6385 0.0000
# 6 0.0000 0.0000 0.0000 0.0000 0.0000 -87.1967
#
#
#
# Elastic Compliance Matrix: (Units=1/GPa)
#
#
# Indices 1 2 3 4 5 6 
#
# 1 0.101802 -0.028141 -0.021889 0.000000 0.000000 0.000000
# 2 -0.028141 0.022943 -0.001216 0.000000 0.000000 0.000000
# 3 -0.021889 -0.001216 0.013711 0.000000 0.000000 0.000000
# 4 0.000000 0.000000 0.000000 -0.305530 0.000000 0.000000
# 5 0.000000 0.000000 0.000000 0.000000 0.030639 0.000000
# 6 0.000000 0.000000 0.000000 0.000000 0.000000 -0.011468
#
#
# Mechanical properties :
#
#
# Convention : Reuss Voigt Hill
#
# Bulk Modulus (GPa) = 27.80707 80.17811 53.99259
# Shear Modulus (GPa) = -149.60647 -3.08238 -76.34442
#
# Velocity S-wave (km/s) = -9.02678 -1.29569 -6.44832
# Velocity P-wave (km/s) = 9.66947 6.43664 5.10236
#
# Compressibility (1/GPa) = 0.03596207
#
# Stress axis : x y z
#
# Youngs Moduli (GPa) = 9.82298 43.58609 72.93213
#
# Poissons Ratio (x) = 1.22657 1.59645
# Poissons Ratio (y) = 0.27643 0.08871
# Poissons Ratio (z) = 0.21502 0.05302
#
# Static dielectric constant tensor:
#      x y z
#    x 1.615320 0.000000 0.000000 
#    y 0.000000 1.612390 0.000000 
#    z 0.000000 0.000000 1.626120 
# 
# From -- ./inp_files/1496.got.cif
#   From: 2010.05.17/outbox.cif.g08.bks.cpg/sg47_1_cif.got.tgz:1496.got - 2010.06.03 20:15:42.
