data_PCOD9387327
_publ_section_title
;
Structure prediction by ZEFSAII (Michael W. Deem and Ramdas Pophale) SiO2 
 PCOD9387327
Probable space group: P M M M
;
_chemical_formula_sum "Si O2"
_cell_formula_units_Z 40
_cell_length_a 10.205977
_cell_length_b 19.861028
_cell_length_c 11.514484
_cell_angle_alpha 90.000000
_cell_angle_beta 90.000000
_cell_angle_gamma 90.000000
_cell_volume 2333.999666
_symmetry_space_group_name_H-M "P M M M"
_symmetry_group_IT_number 47
_symmetry_cell_setting 'orthorhombic'
loop_
_space_group_symop_operation_xyz
x,y,z
-x,-y,z
x,-y,-z
-x,y,-z
-x,-y,-z
x,y,-z
-x,y,z
x,-y,z
loop_
_atom_site_type_symbol
_atom_site_label
_atom_site_fract_x
_atom_site_fract_y
_atom_site_fract_z
Si Si1 0.158341 0.076173 0.500000
Si Si2 0.158007 0.816159 0.305494
Si Si3 0.720500 0.421264 0.500000
Si Si4 0.150936 0.285489 0.500000
Si Si5 0.649137 0.243951 0.137785
Si Si6 0.153215 0.500000 0.860410
Si Si7 0.645020 0.605842 0.239420
O O1 0.191368 0.119242 0.614991
O O2 0.000000 0.073608 0.500000
O O3 0.208838 0.000000 0.500000
O O4 0.200497 0.752617 0.386377
O O5 0.243223 0.805931 0.191171
O O6 0.000000 0.814972 0.285176
O O7 0.756935 0.500000 0.500000
O O8 0.832869 0.364861 0.500000
O O9 0.648199 0.405040 0.621169
O O10 0.000000 0.267443 0.500000
O O11 0.500000 0.220135 0.160061
O O12 0.659737 0.317721 0.196507
O O13 0.666220 0.251801 0.000000
O O14 0.234980 0.563169 0.811776
O O15 0.000000 0.500000 0.824315
O O16 0.156886 0.500000 0.000000
O O17 0.500000 0.583003 0.198729
#
# Coordination Sequence:
#
# PCOD9387327 Si02
#       7
#     4   8   4   4   8   4   8
#     4   8  15  30  55  88 121 148 176 213 258 313
#     4   9  17  32  56  82 108 141 176 216 265 313
#     4  12  22  34  52  78 103 133 170 218 273 330
#     4   9  18  33  50  73 106 136 169 213 267 326
#     4  10  21  36  54  77 104 139 183 227 270 315
#     4  11  25  42  57  74  98 133 178 225 274 329
#     4  11  23  39  57  76 101 134 174 222 276 332
#
# _framework density 17.137962999999999
#
# number of rings (size 3 to 8) (size 9 to 14) (size 15 to 20)
#    0.000    2.000    3.000    2.400    0.000    4.200 
#    0.000    2.000    0.000    1.800    0.000    4.200 
#    0.000    0.000    0.000    0.000    0.000    0.000 
#
# Total GULP energy -222721.063789 kJ/mol
# GULP energy per Si atom -5568.026595 kJ/mol
# Density = 1.709896 g / cm^3
# Si number density = 17.137963 Si / 1000 Ang^3
#
#
#
# Elastic Constant Matrix: (Units=GPa)
#
#
# Indices 1 2 3 4 5 6 
#
# 1 102.6911 40.9883 54.7614 0.0000 0.0000 0.0000
# 2 40.9883 98.4833 45.8002 0.0000 0.0000 0.0000
# 3 54.7614 45.8002 97.5067 0.0000 0.0000 0.0000
# 4 0.0000 0.0000 0.0000 10.4082 0.0000 0.0000
# 5 0.0000 0.0000 0.0000 0.0000 22.3791 0.0000
# 6 0.0000 0.0000 0.0000 0.0000 0.0000 13.6314
#
#
#
# Elastic Compliance Matrix: (Units=1/GPa)
#
#
# Indices 1 2 3 4 5 6 
#
# 1 0.014512 -0.002878 -0.006798 0.000000 0.000000 0.000000
# 2 -0.002878 0.013563 -0.004754 0.000000 0.000000 0.000000
# 3 -0.006798 -0.004754 0.016307 0.000000 0.000000 0.000000
# 4 0.000000 0.000000 0.000000 0.096078 0.000000 0.000000
# 5 0.000000 0.000000 0.000000 0.000000 0.044685 0.000000
# 6 0.000000 0.000000 0.000000 0.000000 0.000000 0.073360
#
#
# Mechanical properties :
#
#
# Convention : Reuss Voigt Hill
#
# Bulk Modulus (GPa) = 64.43158 64.64233 64.53695
# Shear Modulus (GPa) = 17.09172 19.75916 18.42544
#
# Velocity S-wave (km/s) = 3.16143 3.39919 3.28247
# Velocity P-wave (km/s) = 7.14168 7.29429 7.21839
#
# Compressibility (1/GPa) = 0.01552034
#
# Stress axis : x y z
#
# Youngs Moduli (GPa) = 68.90833 73.73055 61.32410
#
# Poissons Ratio (x) = 0.21222 0.41690
# Poissons Ratio (y) = 0.19834 0.29155
# Poissons Ratio (z) = 0.46845 0.35053
#
# Static dielectric constant tensor:
#      x y z
#    x 1.587780 0.000000 0.000000 
#    y 0.000000 1.576590 0.000000 
#    z 0.000000 0.000000 1.609270 
# 
# From -- ./inp_files/4153.got.cif
#   From: 2010.05.17/outbox.cif.g08.bks.cpg/sg47_3_cif.got.tgz:4153.got - 2010.06.03 20:15:42.
