data_PCOD9387581
_publ_section_title
;
Structure prediction by ZEFSAII (Michael W. Deem and Ramdas Pophale) SiO2 
 PCOD9387581
Probable space group: P M M M
;
_chemical_formula_sum "Si O2"
_cell_formula_units_Z 40
_cell_length_a 9.715803
_cell_length_b 26.467970
_cell_length_c 8.615945
_cell_angle_alpha 90.000000
_cell_angle_beta 90.000000
_cell_angle_gamma 90.000000
_cell_volume 2215.655586
_symmetry_space_group_name_H-M "P M M M"
_symmetry_group_IT_number 47
_symmetry_cell_setting 'orthorhombic'
loop_
_space_group_symop_operation_xyz
x,y,z
-x,-y,z
x,-y,-z
-x,y,-z
-x,-y,-z
x,y,-z
-x,y,z
x,-y,z
loop_
_atom_site_type_symbol
_atom_site_label
_atom_site_fract_x
_atom_site_fract_y
_atom_site_fract_z
Si Si1 0.339285 0.408855 0.312505
Si Si2 0.841503 0.500000 0.185716
Si Si3 0.159986 0.091174 0.185643
Si Si4 0.658438 0.294878 0.689000
Si Si5 0.838959 0.200618 0.686711
Si Si6 0.340883 0.000000 0.685948
O O1 0.332841 0.411164 0.500000
O O2 0.500000 0.417489 0.269824
O O3 0.240280 0.450948 0.244376
O O4 0.300977 0.351669 0.263386
O O5 0.000000 0.500000 0.240534
O O6 0.841627 0.500000 0.000000
O O7 0.201805 0.147287 0.239130
O O8 0.258939 0.048958 0.255027
O O9 0.000000 0.083284 0.235792
O O10 0.163174 0.087996 0.000000
O O11 0.662392 0.294938 0.500000
O O12 0.500000 0.286870 0.734710
O O13 0.752513 0.248785 0.741964
O O14 0.823697 0.196402 0.500000
O O15 0.000000 0.208705 0.720579
O O16 0.500000 0.000000 0.739076
O O17 0.340301 0.000000 0.500000
#
# Coordination Sequence:
#
# PCOD9387581 Si02
#       6
#     8   4   8   8   8   4
#     4   9  18  34  56  79 101 130 171 214 256 306
#     4  11  24  37  48  70 104 137 170 211 260 310
#     4  10  21  37  56  78 106 141 177 211 252 304
#     4   8  15  29  50  76 103 129 162 208 256 299
#     4   9  17  30  50  76 104 135 171 208 247 295
#     4  11  24  39  56  80 106 133 170 217 266 310
#
# _framework density 18.053348
#
# number of rings (size 3 to 8) (size 9 to 14) (size 15 to 20)
#    0.000    2.600    0.000    3.000    0.000    7.200 
#    0.000    5.000    0.000    3.600    0.000    0.000 
#    0.000    0.000    0.000    0.000    0.000    0.000 
#
# Total GULP energy -223151.069941 kJ/mol
# GULP energy per Si atom -5578.776749 kJ/mol
# Density = 1.801226 g / cm^3
# Si number density = 18.053348 Si / 1000 Ang^3
#
#
#
# Elastic Constant Matrix: (Units=GPa)
#
#
# Indices 1 2 3 4 5 6 
#
# 1 116.0011 128.4990 34.2515 0.0000 0.0000 0.0000
# 2 128.4990 205.5103 41.6248 0.0000 0.0000 0.0000
# 3 34.2515 41.6248 19.3177 0.0000 0.0000 0.0000
# 4 0.0000 0.0000 0.0000 -40.0947 0.0000 0.0000
# 5 0.0000 0.0000 0.0000 0.0000 19.0678 0.0000
# 6 0.0000 0.0000 0.0000 0.0000 0.0000 39.7461
#
#
#
# Elastic Compliance Matrix: (Units=1/GPa)
#
#
# Indices 1 2 3 4 5 6 
#
# 1 0.033966 -0.016041 -0.025661 0.000000 0.000000 0.000000
# 2 -0.016041 0.016209 -0.006486 0.000000 0.000000 0.000000
# 3 -0.025661 -0.006486 0.111241 0.000000 0.000000 0.000000
# 4 0.000000 0.000000 0.000000 -0.024941 0.000000 0.000000
# 5 0.000000 0.000000 0.000000 0.000000 0.052444 0.000000
# 6 0.000000 0.000000 0.000000 0.000000 0.000000 0.025160
#
#
# Mechanical properties :
#
#
# Convention : Reuss Voigt Hill
#
# Bulk Modulus (GPa) = 15.37493 83.28665 49.33079
# Shear Modulus (GPa) = 15.05411 12.84075 13.94743
#
# Velocity S-wave (km/s) = 2.89081 2.66985 2.78253
# Velocity P-wave (km/s) = 4.43591 7.46578 6.14065
#
# Compressibility (1/GPa) = 0.06504094
#
# Stress axis : x y z
#
# Youngs Moduli (GPa) = 29.44095 61.69303 8.98951
#
# Poissons Ratio (x) = 0.98959 0.23068
# Poissons Ratio (y) = 0.47225 0.05831
# Poissons Ratio (z) = 0.75549 0.40014
#
# Static dielectric constant tensor:
#      x y z
#    x 1.607420 0.000000 0.000000 
#    y 0.000000 1.603380 0.000000 
#    z 0.000000 0.000000 1.609140 
# 
# From -- ./inp_files/1755.got.cif
#   From: 2010.05.17/outbox.cif.g08.bks.cpg/sg47_1_cif.got.tgz:1755.got - 2010.06.03 20:15:42.
