data_PCOD9387160
_publ_section_title
;
Structure prediction by ZEFSAII (Michael W. Deem and Ramdas Pophale) SiO2 
 PCOD9387160
Probable space group: P M M M
;
_chemical_formula_sum "Si O2"
_cell_formula_units_Z 32
_cell_length_a 11.118397
_cell_length_b 17.126973
_cell_length_c 7.607265
_cell_angle_alpha 90.000000
_cell_angle_beta 90.000000
_cell_angle_gamma 90.000000
_cell_volume 1448.609522
_symmetry_space_group_name_H-M "P M M M"
_symmetry_group_IT_number 47
_symmetry_cell_setting 'orthorhombic'
loop_
_space_group_symop_operation_xyz
x,y,z
-x,-y,z
x,-y,-z
-x,y,-z
-x,-y,-z
x,y,-z
-x,y,z
x,-y,z
loop_
_atom_site_type_symbol
_atom_site_label
_atom_site_fract_x
_atom_site_fract_y
_atom_site_fract_z
Si Si1 0.857800 0.500000 0.200807
Si Si2 0.367458 0.908229 0.214026
Si Si3 0.251781 0.660585 0.700799
Si Si4 0.500000 0.592065 0.715959
Si Si5 0.865472 0.182608 0.796153
O O1 0.814094 0.577844 0.293252
O O2 0.000000 0.500000 0.195597
O O3 0.811384 0.500000 0.000000
O O4 0.500000 0.879443 0.273485
O O5 0.249019 0.863859 0.280201
O O6 0.359329 0.000000 0.256199
O O7 0.368092 0.901785 0.000000
O O8 0.266372 0.686601 0.500000
O O9 0.382753 0.639373 0.774883
O O10 0.173886 0.726937 0.791969
O O11 0.500000 0.500000 0.768638
O O12 0.500000 0.590485 0.500000
O O13 0.000000 0.172666 0.719549
O O14 0.873661 0.158171 0.000000
#
# Coordination Sequence:
#
# PCOD9387160 Si02
#       5
#     4   8   8   4   8
#     4  11  23  38  55  76 106 141 178 225 274 315
#     4   8  15  30  53  80 109 142 181 223 267 320
#     4  11  22  37  57  78 105 142 182 221 268 327
#     4   9  18  36  56  76 101 130 173 229 274 312
#     4  10  21  35  52  80 115 144 177 226 274 316
#
# _framework density 22.090147999999999
#
# number of rings (size 3 to 8) (size 9 to 14) (size 15 to 20)
#    0.000    2.250    1.250    2.625    1.750    5.000 
#    0.000    5.000    0.000    0.750    0.000    3.500 
#    0.000    0.000    0.000    0.000    0.000    0.000 
#
# Total GULP energy -178593.681379 kJ/mol
# GULP energy per Si atom -5581.052543 kJ/mol
# Density = 2.203987 g / cm^3
# Si number density = 22.090148 Si / 1000 Ang^3
#
#
#
# Elastic Constant Matrix: (Units=GPa)
#
#
# Indices 1 2 3 4 5 6 
#
# 1 229.3115 78.2168 10.9977 0.0000 0.0000 0.0000
# 2 78.2168 79.7376 -5.4795 0.0000 0.0000 0.0000
# 3 10.9977 -5.4795 52.0034 0.0000 0.0000 0.0000
# 4 0.0000 0.0000 0.0000 -112.6724 0.0000 0.0000
# 5 0.0000 0.0000 0.0000 0.0000 9.4406 0.0000
# 6 0.0000 0.0000 0.0000 0.0000 0.0000 150.6198
#
#
#
# Elastic Compliance Matrix: (Units=1/GPa)
#
#
# Indices 1 2 3 4 5 6 
#
# 1 0.006785 -0.006803 -0.002152 0.000000 0.000000 0.000000
# 2 -0.006803 0.019454 0.003489 0.000000 0.000000 0.000000
# 3 -0.002152 0.003489 0.020052 0.000000 0.000000 0.000000
# 4 0.000000 0.000000 0.000000 -0.008875 0.000000 0.000000
# 5 0.000000 0.000000 0.000000 0.000000 0.105926 0.000000
# 6 0.000000 0.000000 0.000000 0.000000 0.000000 0.006639
#
#
# Mechanical properties :
#
#
# Convention : Reuss Voigt Hill
#
# Bulk Modulus (GPa) = 28.28166 58.72474 43.50320
# Shear Modulus (GPa) = 28.95213 27.96543 28.45878
#
# Velocity S-wave (km/s) = 3.62420 3.56190 3.59319
# Velocity P-wave (km/s) = 5.50851 6.59985 6.07872
#
# Compressibility (1/GPa) = 0.03535860
#
# Stress axis : x y z
#
# Youngs Moduli (GPa) = 147.39417 51.40308 49.87007
#
# Poissons Ratio (x) = 0.34969 0.10730
# Poissons Ratio (y) = 1.00272 -0.17397
# Poissons Ratio (z) = 0.31714 -0.17932
#
# Static dielectric constant tensor:
#      x y z
#    x 1.851770 0.000000 0.000000 
#    y 0.000000 1.781350 0.000000 
#    z 0.000000 0.000000 1.875890 
# 
# From -- ./inp_files/3436.got.cif
#   From: 2010.05.17/outbox.cif.g08.bks.cpg/sg47_2_cif.got.tgz:3436.got - 2010.06.03 20:15:42.
