data_PCOD9387916
_publ_section_title
;
Structure prediction by ZEFSAII (Michael W. Deem and Ramdas Pophale) SiO2 
 PCOD9387916
Probable space group: P M M M
;
_chemical_formula_sum "Si O2"
_cell_formula_units_Z 37
_cell_length_a 7.868973
_cell_length_b 18.537894
_cell_length_c 12.235360
_cell_angle_alpha 90.000000
_cell_angle_beta 90.000000
_cell_angle_gamma 90.000000
_cell_volume 1784.823197
_symmetry_space_group_name_H-M "P M M M"
_symmetry_group_IT_number 47
_symmetry_cell_setting 'orthorhombic'
loop_
_space_group_symop_operation_xyz
x,y,z
-x,-y,z
x,-y,-z
-x,y,-z
-x,-y,-z
x,y,-z
-x,y,z
x,-y,z
loop_
_atom_site_type_symbol
_atom_site_label
_atom_site_fract_x
_atom_site_fract_y
_atom_site_fract_z
Si Si1 0.702684 0.417876 0.235847
Si Si2 0.799207 0.118293 0.000000
Si Si3 0.207703 0.000000 0.370219
Si Si4 0.297168 0.711453 0.621330
Si Si5 0.500000 0.000000 0.000000
Si Si6 0.797131 0.416473 0.000000
Si Si7 0.798626 0.147244 0.248606
O O1 0.500000 0.423373 0.250205
O O2 0.772130 0.500000 0.243169
O O3 0.773012 0.360334 0.321101
O O4 0.734183 0.386743 0.114571
O O5 0.774547 0.155158 0.881771
O O6 0.000000 0.093360 0.000000
O O7 0.651225 0.060405 0.000000
O O8 0.265255 0.071681 0.303023
O O9 0.257618 0.000000 0.500000
O O10 0.000000 0.000000 0.369410
O O11 0.227289 0.720975 0.500000
O O12 0.500000 0.701206 0.614038
O O13 0.270261 0.783304 0.690263
O O14 0.736952 0.500000 0.000000
O O15 0.000000 0.415239 0.000000
O O16 0.000000 0.145667 0.266782
#
# Coordination Sequence:
#
# PCOD9387916 Si02
#       7
#     8   4   4   8   1   4   8
#     4   9  18  34  56  81 112 153 196 238 294 361
#     4  10  23  40  60  94 128 163 210 252 302 372
#     4   9  17  31  55  82 106 143 190 228 271 336
#     4  10  22  38  56  82 116 151 195 252 303 357
#     4  12  22  36  68  94 126 172 192 244 316 356
#     4   9  17  30  51  81 113 141 177 233 290 338
#     4  10  21  39  60  83 118 154 194 246 295 355
#
# _framework density 20.730343999999999
#
# number of rings (size 3 to 8) (size 9 to 14) (size 15 to 20)
#    0.000    2.378    0.000    1.784    1.514    6.486 
#    0.000    4.324    0.000    1.946    0.000    4.541 
#    0.000    0.000    0.000    0.000    0.000    0.000 
#
# Total GULP energy -205972.663364 kJ/mol
# GULP energy per Si atom -5566.828740 kJ/mol
# Density = 2.068316 g / cm^3
# Si number density = 20.730344 Si / 1000 Ang^3
#
#
#
# Elastic Constant Matrix: (Units=GPa)
#
#
# Indices 1 2 3 4 5 6 
#
# 1 24.6274 18.1344 31.4226 0.0000 0.0000 0.0000
# 2 18.1344 127.5621 91.4293 0.0000 0.0000 0.0000
# 3 31.4226 91.4293 178.6413 0.0000 0.0000 0.0000
# 4 0.0000 0.0000 0.0000 31.7162 0.0000 0.0000
# 5 0.0000 0.0000 0.0000 0.0000 2.9211 0.0000
# 6 0.0000 0.0000 0.0000 0.0000 0.0000 11.5677
#
#
#
# Elastic Compliance Matrix: (Units=1/GPa)
#
#
# Indices 1 2 3 4 5 6 
#
# 1 0.052499 -0.001334 -0.008552 0.000000 0.000000 0.000000
# 2 -0.001334 0.012415 -0.006119 0.000000 0.000000 0.000000
# 3 -0.008552 -0.006119 0.010234 0.000000 0.000000 0.000000
# 4 0.000000 0.000000 0.000000 0.031530 0.000000 0.000000
# 5 0.000000 0.000000 0.000000 0.000000 0.342340 0.000000
# 6 0.000000 0.000000 0.000000 0.000000 0.000000 0.086448
#
#
# Mechanical properties :
#
#
# Convention : Reuss Voigt Hill
#
# Bulk Modulus (GPa) = 23.18165 68.08926 45.63546
# Shear Modulus (GPa) = 8.59322 21.89730 15.24526
#
# Velocity S-wave (km/s) = 2.03819 3.25359 2.71478
# Velocity P-wave (km/s) = 4.09216 6.85791 5.64698
#
# Compressibility (1/GPa) = 0.04313756
#
# Stress axis : x y z
#
# Youngs Moduli (GPa) = 19.04813 80.54779 97.71384
#
# Poissons Ratio (x) = 0.10744 0.83562
# Poissons Ratio (y) = 0.02541 0.59795
# Poissons Ratio (z) = 0.16289 0.49290
#
# Static dielectric constant tensor:
#      x y z
#    x 1.749960 0.000000 0.000000 
#    y 0.000000 1.735370 0.000000 
#    z 0.000000 0.000000 1.288910 
# 
# From -- ./inp_files/14952.got.cif
#   From: 2010.05.17/outbox.cif.g08.bks.cpg/sg47_8_cif.got.tgz:14952.got - 2010.06.03 20:15:42.
