data_PCOD9387451
_publ_section_title
;
Structure prediction by ZEFSAII (Michael W. Deem and Ramdas Pophale) SiO2 
 PCOD9387451
Probable space group: P M M M
;
_chemical_formula_sum "Si O2"
_cell_formula_units_Z 48
_cell_length_a 7.795230
_cell_length_b 35.359476
_cell_length_c 9.062691
_cell_angle_alpha 90.000000
_cell_angle_beta 90.000000
_cell_angle_gamma 90.000000
_cell_volume 2497.997082
_symmetry_space_group_name_H-M "P M M M"
_symmetry_group_IT_number 47
_symmetry_cell_setting 'orthorhombic'
loop_
_space_group_symop_operation_xyz
x,y,z
-x,-y,z
x,-y,-z
-x,y,-z
-x,-y,-z
x,y,-z
-x,y,z
x,-y,z
loop_
_atom_site_type_symbol
_atom_site_label
_atom_site_fract_x
_atom_site_fract_y
_atom_site_fract_z
Si Si1 0.295113 0.117955 0.834722
Si Si2 0.000000 0.755863 0.822914
Si Si3 0.793037 0.458233 0.173785
Si Si4 0.000000 0.326377 0.320862
Si Si5 0.704872 0.194605 0.675845
Si Si6 0.689464 0.380960 0.676758
Si Si7 0.793466 0.041880 0.669031
O O1 0.500000 0.120643 0.843880
O O2 0.242936 0.152510 0.729662
O O3 0.255849 0.077002 0.768892
O O4 0.223591 0.122355 0.000000
O O5 0.000000 0.713460 0.759866
O O6 0.169355 0.776856 0.759837
O O7 0.000000 0.756747 0.000000
O O8 0.737273 0.500000 0.226543
O O9 0.718681 0.422342 0.256400
O O10 0.000000 0.456754 0.187341
O O11 0.752030 0.455715 0.000000
O O12 0.164618 0.351538 0.278575
O O13 0.000000 0.321076 0.500000
O O14 0.727559 0.198075 0.500000
O O15 0.500000 0.200227 0.707158
O O16 0.699813 0.384376 0.500000
O O17 0.500000 0.367256 0.717293
O O18 0.733606 0.047659 0.500000
O O19 0.000000 0.040858 0.665453
O O20 0.734335 0.000000 0.718036
#
# Coordination Sequence:
#
# PCOD9387451 Si02
#       7
#     8   4   8   4   8   8   8
#     4  10  21  36  55  82 116 150 185 233 292 347
#     4  12  26  42  66  97 126 157 192 241 306 366
#     4   9  18  33  54  81 115 155 198 244 294 348
#     4  10  22  42  61  83 118 154 195 242 288 350
#     4  10  22  42  67  93 122 158 201 245 291 353
#     4  10  21  37  59  86 115 152 198 245 291 341
#     4   9  19  35  53  75 106 147 195 242 284 334
#
# _framework density 19.215394
#
# number of rings (size 3 to 8) (size 9 to 14) (size 15 to 20)
#    0.000    2.167    0.833    2.750    1.167    5.333 
#    0.000    6.667    0.000    0.000    0.000    0.000 
#    0.000    0.000    0.000    0.000    0.000    0.000 
#
# Total GULP energy -267940.777988 kJ/mol
# GULP energy per Si atom -5582.099541 kJ/mol
# Density = 1.917166 g / cm^3
# Si number density = 19.215394 Si / 1000 Ang^3
#
#
#
# Elastic Constant Matrix: (Units=GPa)
#
#
# Indices 1 2 3 4 5 6 
#
# 1 91.9772 71.9502 52.7953 0.0000 0.0000 0.0000
# 2 71.9502 168.1181 69.7315 0.0000 0.0000 0.0000
# 3 52.7953 69.7315 80.2950 0.0000 0.0000 0.0000
# 4 0.0000 0.0000 0.0000 58.9005 0.0000 0.0000
# 5 0.0000 0.0000 0.0000 0.0000 22.2357 0.0000
# 6 0.0000 0.0000 0.0000 0.0000 0.0000 -45.0823
#
#
#
# Elastic Compliance Matrix: (Units=1/GPa)
#
#
# Indices 1 2 3 4 5 6 
#
# 1 0.019635 -0.004765 -0.008772 0.000000 0.000000 0.000000
# 2 -0.004765 0.010453 -0.005945 0.000000 0.000000 0.000000
# 3 -0.008772 -0.005945 0.023385 0.000000 0.000000 0.000000
# 4 0.000000 0.000000 0.000000 0.016978 0.000000 0.000000
# 5 0.000000 0.000000 0.000000 0.000000 0.044973 0.000000
# 6 0.000000 0.000000 0.000000 0.000000 0.000000 -0.022182
#
#
# Mechanical properties :
#
#
# Convention : Reuss Voigt Hill
#
# Bulk Modulus (GPa) = 68.92411 81.03826 74.98118
# Shear Modulus (GPa) = 36.48485 16.93834 26.71159
#
# Velocity S-wave (km/s) = 4.36217 2.97222 3.73247
# Velocity P-wave (km/s) = 7.83061 7.35146 7.59482
#
# Compressibility (1/GPa) = 0.01450871
#
# Stress axis : x y z
#
# Youngs Moduli (GPa) = 50.92986 95.66383 42.76198
#
# Poissons Ratio (x) = 0.45580 0.37513
# Poissons Ratio (y) = 0.24266 0.25423
# Poissons Ratio (z) = 0.44678 0.56875
#
# Static dielectric constant tensor:
#      x y z
#    x 1.697210 0.000000 0.000000 
#    y 0.000000 1.644130 0.000000 
#    z 0.000000 0.000000 1.654720 
# 
# From -- ./inp_files/2607.got.cif
#   From: 2010.05.17/outbox.cif.g08.bks.cpg/sg47_2_cif.got.tgz:2607.got - 2010.06.03 20:15:42.
