data_PCOD9387142
_publ_section_title
;
Structure prediction by ZEFSAII (Michael W. Deem and Ramdas Pophale) SiO2 
 PCOD9387142
Probable space group: P M M M
;
_chemical_formula_sum "Si O2"
_cell_formula_units_Z 44
_cell_length_a 9.657711
_cell_length_b 30.188380
_cell_length_c 7.617988
_cell_angle_alpha 90.000000
_cell_angle_beta 90.000000
_cell_angle_gamma 90.000000
_cell_volume 2221.029350
_symmetry_space_group_name_H-M "P M M M"
_symmetry_group_IT_number 47
_symmetry_cell_setting 'orthorhombic'
loop_
_space_group_symop_operation_xyz
x,y,z
-x,-y,z
x,-y,-z
-x,y,-z
-x,-y,-z
x,y,-z
-x,y,z
x,-y,z
loop_
_atom_site_type_symbol
_atom_site_label
_atom_site_fract_x
_atom_site_fract_y
_atom_site_fract_z
Si Si1 0.155216 0.794592 0.288774
Si Si2 0.844334 0.366846 0.208796
Si Si3 0.163878 0.897008 0.709110
Si Si4 0.344459 0.287523 0.208609
Si Si5 0.656874 0.550214 0.711743
Si Si6 0.337067 0.946976 0.000000
O O1 0.150807 0.794141 0.500000
O O2 0.185478 0.845386 0.239658
O O3 0.267115 0.758958 0.232322
O O4 0.000000 0.782879 0.224844
O O5 0.750483 0.327034 0.282112
O O6 0.765950 0.413119 0.233404
O O7 0.000000 0.367224 0.281227
O O8 0.855420 0.359549 0.000000
O O9 0.191174 0.901751 0.500000
O O10 0.259525 0.927078 0.830139
O O11 0.000000 0.906427 0.736332
O O12 0.500000 0.287414 0.281381
O O13 0.355633 0.295056 0.000000
O O14 0.654864 0.549610 0.500000
O O15 0.500000 0.561397 0.770824
O O16 0.688565 0.500000 0.770694
O O17 0.500000 0.935181 0.000000
O O18 0.325751 0.000000 0.000000
#
# Coordination Sequence:
#
# PCOD9387142 Si02
#       6
#     8   8   8   8   8   4
#     4   9  19  36  57  82 111 143 182 227 277 332
#     4  10  21  36  53  75 104 138 177 219 265 318
#     4   9  20  40  64  90 120 157 204 255 303 356
#     4  10  21  35  52  77 108 142 180 220 265 321
#     4   9  19  36  56  77 101 131 169 213 264 323
#     4  11  25  41  59  89 127 165 205 249 304 367
#
# _framework density 19.810634
#
# number of rings (size 3 to 8) (size 9 to 14) (size 15 to 20)
#    0.000    2.455    0.000    3.000    1.273    6.545 
#    0.000    6.364    0.000    0.000    0.000    0.000 
#    0.000    0.000    0.000    0.000    0.000    0.000 
#
# Total GULP energy -245654.521678 kJ/mol
# GULP energy per Si atom -5583.057311 kJ/mol
# Density = 1.976554 g / cm^3
# Si number density = 19.810634 Si / 1000 Ang^3
#
#
#
# Elastic Constant Matrix: (Units=GPa)
#
#
# Indices 1 2 3 4 5 6 
#
# 1 192.3907 122.5868 44.1723 0.0000 0.0000 0.0000
# 2 122.5868 117.8834 30.3215 0.0000 0.0000 0.0000
# 3 44.1723 30.3215 58.0029 0.0000 0.0000 0.0000
# 4 0.0000 0.0000 0.0000 36.1375 0.0000 0.0000
# 5 0.0000 0.0000 0.0000 0.0000 17.9921 0.0000
# 6 0.0000 0.0000 0.0000 0.0000 0.0000 29.3761
#
#
#
# Elastic Compliance Matrix: (Units=1/GPa)
#
#
# Indices 1 2 3 4 5 6 
#
# 1 0.016200 -0.015797 -0.004079 0.000000 0.000000 0.000000
# 2 -0.015797 0.025205 -0.001146 0.000000 0.000000 0.000000
# 3 -0.004079 -0.001146 0.020946 0.000000 0.000000 0.000000
# 4 0.000000 0.000000 0.000000 0.027672 0.000000 0.000000
# 5 0.000000 0.000000 0.000000 0.000000 0.055580 0.000000
# 6 0.000000 0.000000 0.000000 0.000000 0.000000 0.034041
#
#
# Mechanical properties :
#
#
# Convention : Reuss Voigt Hill
#
# Bulk Modulus (GPa) = 49.24419 84.71538 66.97979
# Shear Modulus (GPa) = 21.88606 28.11423 25.00015
#
# Velocity S-wave (km/s) = 3.32740 3.77125 3.55626
# Velocity P-wave (km/s) = 6.29870 7.86247 7.12362
#
# Compressibility (1/GPa) = 0.02030696
#
# Stress axis : x y z
#
# Youngs Moduli (GPa) = 61.72980 39.67497 47.74199
#
# Poissons Ratio (x) = 0.62674 0.19474
# Poissons Ratio (y) = 0.97513 0.05471
# Poissons Ratio (z) = 0.25179 0.04546
#
# Static dielectric constant tensor:
#      x y z
#    x 1.692580 0.000000 0.000000 
#    y 0.000000 1.667850 0.000000 
#    z 0.000000 0.000000 1.738390 
# 
# From -- ./inp_files/2189.got.cif
#   From: 2010.05.17/outbox.cif.g08.bks.cpg/sg47_2_cif.got.tgz:2189.got - 2010.06.03 20:15:42.
