data_PCOD9387117
_publ_section_title
;
Structure prediction by ZEFSAII (Michael W. Deem and Ramdas Pophale) SiO2 
 PCOD9387117
Probable space group: P M M M
;
_chemical_formula_sum "Si O2"
_cell_formula_units_Z 44
_cell_length_a 7.755964
_cell_length_b 19.368137
_cell_length_c 14.149765
_cell_angle_alpha 90.000000
_cell_angle_beta 90.000000
_cell_angle_gamma 90.000000
_cell_volume 2125.557511
_symmetry_space_group_name_H-M "P M M M"
_symmetry_group_IT_number 47
_symmetry_cell_setting 'orthorhombic'
loop_
_space_group_symop_operation_xyz
x,y,z
-x,-y,z
x,-y,-z
-x,y,-z
-x,-y,-z
x,y,-z
-x,y,z
x,-y,z
loop_
_atom_site_type_symbol
_atom_site_label
_atom_site_fract_x
_atom_site_fract_y
_atom_site_fract_z
Si Si1 0.707265 0.286368 0.290306
Si Si2 0.709021 0.846701 0.604550
Si Si3 0.795959 0.922328 0.797413
Si Si4 0.297337 0.214070 0.896946
Si Si5 0.198485 0.584098 0.000000
Si Si6 0.792900 0.578132 0.206073
O O1 0.500000 0.282073 0.289345
O O2 0.763772 0.231967 0.369764
O O3 0.778390 0.255407 0.191476
O O4 0.752652 0.366513 0.286550
O O5 0.769004 0.866538 0.500000
O O6 0.500000 0.848442 0.604630
O O7 0.766311 0.894954 0.690699
O O8 0.717124 0.866067 0.867851
O O9 0.000000 0.922830 0.814731
O O10 0.728706 0.000000 0.807964
O O11 0.500000 0.230887 0.900882
O O12 0.221316 0.227887 0.000000
O O13 0.276789 0.602104 0.897759
O O14 0.194786 0.500000 0.000000
O O15 0.000000 0.608538 0.000000
O O16 0.731703 0.500000 0.224282
O O17 0.000000 0.574954 0.196277
#
# Coordination Sequence:
#
# PCOD9387117 Si02
#       6
#     8   8   8   8   4   8
#     4   9  18  31  49  73  98 123 158 208 255 292
#     4   9  19  37  58  76  96 127 166 205 248 301
#     4  10  21  35  51  76 108 134 160 201 250 297
#     4   9  19  35  52  71  99 137 177 211 243 285
#     4   7  12  24  39  57  85 121 158 191 222 265
#     4   9  17  29  45  66  95 131 168 202 239 288
#
# _framework density 20.70045
#
# number of rings (size 3 to 8) (size 9 to 14) (size 15 to 20)
#    0.000    3.000    0.000    2.727    1.273    6.182 
#    0.000    3.636    0.000    2.182    0.000    3.818 
#    0.000    0.000    0.000    0.000    0.000    0.000 
#
# Total GULP energy -245262.897704 kJ/mol
# GULP energy per Si atom -5574.156766 kJ/mol
# Density = 2.065333 g / cm^3
# Si number density = 20.700450 Si / 1000 Ang^3
#
#
#
# Elastic Constant Matrix: (Units=GPa)
#
#
# Indices 1 2 3 4 5 6 
#
# 1 31.6874 -8.0065 0.0078 0.0000 0.0000 0.0000
# 2 -8.0065 67.0260 -24.3232 0.0000 0.0000 0.0000
# 3 0.0078 -24.3232 29.2756 0.0000 0.0000 0.0000
# 4 0.0000 0.0000 0.0000 15.3969 0.0000 0.0000
# 5 0.0000 0.0000 0.0000 0.0000 5.6617 0.0000
# 6 0.0000 0.0000 0.0000 0.0000 0.0000 23.8278
#
#
#
# Elastic Compliance Matrix: (Units=1/GPa)
#
#
# Indices 1 2 3 4 5 6 
#
# 1 0.032981 0.005636 0.004674 0.000000 0.000000 0.000000
# 2 0.005636 0.022323 0.018545 0.000000 0.000000 0.000000
# 3 0.004674 0.018545 0.049565 0.000000 0.000000 0.000000
# 4 0.000000 0.000000 0.000000 0.064948 0.000000 0.000000
# 5 0.000000 0.000000 0.000000 0.000000 0.176625 0.000000
# 6 0.000000 0.000000 0.000000 0.000000 0.000000 0.041968
#
#
# Mechanical properties :
#
#
# Convention : Reuss Voigt Hill
#
# Bulk Modulus (GPa) = 6.15095 7.03835 6.59465
# Shear Modulus (GPa) = 12.99062 19.66468 16.32765
#
# Velocity S-wave (km/s) = 2.50782 3.08549 2.81153
# Velocity P-wave (km/s) = 3.37096 4.01262 3.70571
#
# Compressibility (1/GPa) = 0.16257663
#
# Stress axis : x y z
#
# Youngs Moduli (GPa) = 30.32037 44.79766 20.17568
#
# Poissons Ratio (x) = -0.25247 -0.09429
# Poissons Ratio (y) = -0.17088 -0.37416
# Poissons Ratio (z) = -0.14170 -0.83077
#
# Static dielectric constant tensor:
#      x y z
#    x 1.761370 0.000000 0.000000 
#    y 0.000000 1.773020 0.000000 
#    z 0.000000 0.000000 1.750400 
# 
# From -- ./inp_files/8941.got.cif
#   From: 2010.05.17/outbox.cif.g08.bks.cpg/sg47_5_cif.got.tgz:8941.got - 2010.06.03 20:15:42.
