data_PCOD9387137
_publ_section_title
;
Structure prediction by ZEFSAII (Michael W. Deem and Ramdas Pophale) SiO2 
 PCOD9387137
Probable space group: P M M M
;
_chemical_formula_sum "Si O2"
_cell_formula_units_Z 48
_cell_length_a 33.425594
_cell_length_b 8.330446
_cell_length_c 9.430466
_cell_angle_alpha 90.000000
_cell_angle_beta 90.000000
_cell_angle_gamma 90.000000
_cell_volume 2625.914256
_symmetry_space_group_name_H-M "P M M M"
_symmetry_group_IT_number 47
_symmetry_cell_setting 'orthorhombic'
loop_
_space_group_symop_operation_xyz
x,y,z
-x,-y,z
x,-y,-z
-x,y,-z
-x,-y,-z
x,y,-z
-x,y,z
x,-y,z
loop_
_atom_site_type_symbol
_atom_site_label
_atom_site_fract_x
_atom_site_fract_y
_atom_site_fract_z
Si Si1 0.500000 0.691594 0.838231
Si Si2 0.813176 0.307391 0.662190
Si Si3 0.095979 0.314738 0.672978
Si Si4 0.737885 0.809068 0.162684
Si Si5 0.651791 0.309000 0.835714
Si Si6 0.576188 0.191352 0.338015
Si Si7 0.046320 0.000000 0.672839
O O1 0.500000 0.500000 0.845294
O O2 0.539306 0.744616 0.753804
O O3 0.500000 0.754736 0.000000
O O4 0.810744 0.248805 0.500000
O O5 0.809119 0.500000 0.660643
O O6 0.858242 0.276035 0.715729
O O7 0.777155 0.236517 0.751319
O O8 0.095683 0.318101 0.500000
O O9 0.086044 0.500000 0.716953
O O10 0.067946 0.166349 0.717911
O O11 0.696400 0.733427 0.215907
O O12 0.732949 0.000000 0.163972
O O13 0.742938 0.753971 0.000000
O O14 0.646965 0.500000 0.836817
O O15 0.617476 0.236128 0.738558
O O16 0.648312 0.251254 0.000000
O O17 0.574928 0.253066 0.500000
O O18 0.572803 0.000000 0.342976
O O19 0.047622 0.000000 0.500000
O O20 0.000000 0.000000 0.715916
#
# Coordination Sequence:
#
# PCOD9387137 Si02
#       7
#     4   8   8   8   8   8   4
#     4  11  24  41  62  88 114 143 182 221 262 316
#     4   9  18  32  50  72  98 133 175 215 260 315
#     4   8  15  27  41  61  92 127 166 213 262 315
#     4  10  21  35  52  77 107 138 174 217 264 314
#     4  10  21  38  59  80 104 139 179 216 260 314
#     4  11  24  40  59  85 115 144 177 219 265 312
#     4   9  16  24  38  62  91 129 173 211 259 320
#
# _framework density 18.279347000000001
#
# number of rings (size 3 to 8) (size 9 to 14) (size 15 to 20)
#    0.000    2.333    0.000    3.500    1.167    8.333 
#    0.000    1.667    0.000    0.000    0.000    0.000 
#    0.000    1.333    0.000    3.667    0.000    3.667 
#
# Total GULP energy -267749.551155 kJ/mol
# GULP energy per Si atom -5578.115649 kJ/mol
# Density = 1.823774 g / cm^3
# Si number density = 18.279347 Si / 1000 Ang^3
#
#
#
# Elastic Constant Matrix: (Units=GPa)
#
#
# Indices 1 2 3 4 5 6 
#
# 1 144.3492 64.0480 60.4590 0.0000 0.0000 0.0000
# 2 64.0480 71.3970 32.1187 0.0000 0.0000 0.0000
# 3 60.4590 32.1187 64.7673 0.0000 0.0000 0.0000
# 4 0.0000 0.0000 0.0000 19.4781 0.0000 0.0000
# 5 0.0000 0.0000 0.0000 0.0000 52.7220 0.0000
# 6 0.0000 0.0000 0.0000 0.0000 0.0000 40.8722
#
#
#
# Elastic Compliance Matrix: (Units=1/GPa)
#
#
# Indices 1 2 3 4 5 6 
#
# 1 0.014927 -0.009168 -0.009388 0.000000 0.000000 0.000000
# 2 -0.009168 0.023658 -0.003175 0.000000 0.000000 0.000000
# 3 -0.009388 -0.003175 0.025778 0.000000 0.000000 0.000000
# 4 0.000000 0.000000 0.000000 0.051340 0.000000 0.000000
# 5 0.000000 0.000000 0.000000 0.000000 0.018967 0.000000
# 6 0.000000 0.000000 0.000000 0.000000 0.000000 0.024467
#
#
# Mechanical properties :
#
#
# Convention : Reuss Voigt Hill
#
# Bulk Modulus (GPa) = 47.84027 65.97385 56.90706
# Shear Modulus (GPa) = 23.85887 30.87364 27.36625
#
# Velocity S-wave (km/s) = 3.61672 4.11419 3.87345
# Velocity P-wave (km/s) = 6.60829 7.66415 7.15572
#
# Compressibility (1/GPa) = 0.02090289
#
# Stress axis : x y z
#
# Youngs Moduli (GPa) = 66.99064 42.26852 38.79289
#
# Poissons Ratio (x) = 0.38750 0.36420
# Poissons Ratio (y) = 0.61414 0.12315
# Poissons Ratio (z) = 0.62892 0.13419
#
# Static dielectric constant tensor:
#      x y z
#    x 1.607400 0.000000 0.000000 
#    y 0.000000 1.632270 0.000000 
#    z 0.000000 0.000000 1.632630 
# 
# From -- ./inp_files/13958.got.cif
#   From: 2010.05.17/outbox.cif.g08.bks.cpg/sg47_7_cif.got.tgz:13958.got - 2010.06.03 20:15:42.
