data_PCOD9387278
_publ_section_title
;
Structure prediction by ZEFSAII (Michael W. Deem and Ramdas Pophale) SiO2 
 PCOD9387278
Probable space group: P M M M
;
_chemical_formula_sum "Si O2"
_cell_formula_units_Z 52
_cell_length_a 20.411705
_cell_length_b 9.074469
_cell_length_c 16.384860
_cell_angle_alpha 90.000000
_cell_angle_beta 90.000000
_cell_angle_gamma 90.000000
_cell_volume 3034.891990
_symmetry_space_group_name_H-M "P M M M"
_symmetry_group_IT_number 47
_symmetry_cell_setting 'orthorhombic'
loop_
_space_group_symop_operation_xyz
x,y,z
-x,-y,z
x,-y,-z
-x,y,-z
-x,-y,-z
x,y,-z
-x,y,z
x,-y,z
loop_
_atom_site_type_symbol
_atom_site_label
_atom_site_fract_x
_atom_site_fract_y
_atom_site_fract_z
Si Si1 0.836865 0.175060 0.128407
Si Si2 0.926176 0.171487 0.597930
Si Si3 0.332175 0.675229 0.726687
Si Si4 0.301323 0.322705 0.090764
Si Si5 0.179171 0.674618 0.297339
Si Si6 0.576894 0.177316 0.407759
Si Si7 0.077528 0.668105 0.000000
O O1 0.768698 0.243000 0.095642
O O2 0.843315 0.230813 0.220123
O O3 0.894772 0.245391 0.076941
O O4 0.835494 0.000000 0.121931
O O5 0.926314 0.175747 0.500000
O O6 0.867597 0.271732 0.630584
O O7 0.000000 0.215585 0.625436
O O8 0.916128 0.000000 0.622169
O O9 0.343630 0.500000 0.722867
O O10 0.336550 0.718552 0.823314
O O11 0.257299 0.702513 0.696850
O O12 0.380931 0.754741 0.664908
O O13 0.291516 0.500000 0.095277
O O14 0.330298 0.291421 0.000000
O O15 0.171639 0.500000 0.282671
O O16 0.597418 0.223802 0.500000
O O17 0.500000 0.214936 0.398739
O O18 0.582127 0.000000 0.404799
O O19 0.102867 0.500000 0.000000
O O20 0.000000 0.664731 0.000000
#
# Coordination Sequence:
#
# PCOD9387278 Si02
#       7
#     8   8   8   8   8   8   4
#     4  11  21  33  51  74  98 126 166 213 258 308
#     4   9  19  36  55  74  98 130 170 217 268 319
#     4   9  19  33  51  81 110 136 176 220 262 311
#     4   9  17  32  54  75 104 141 171 207 259 315
#     4  10  21  36  53  75 105 138 172 213 263 317
#     4   9  19  36  56  78 107 145 183 217 263 322
#     4  11  23  37  51  67  93 131 170 209 260 319
#
# _framework density 17.134052000000001
#
# number of rings (size 3 to 8) (size 9 to 14) (size 15 to 20)
#    0.000    2.385    0.769    3.923    0.000    6.154 
#    0.000    4.615    0.000    0.462    0.000    3.231 
#    0.000    0.000    0.000    0.000    0.000    0.000 
#
# Total GULP energy -289746.110852 kJ/mol
# GULP energy per Si atom -5572.040593 kJ/mol
# Density = 1.709505 g / cm^3
# Si number density = 17.134052 Si / 1000 Ang^3
#
#
#
# Elastic Constant Matrix: (Units=GPa)
#
#
# Indices 1 2 3 4 5 6 
#
# 1 63.9326 37.7522 63.1457 0.0000 0.0000 0.0000
# 2 37.7522 55.0116 43.6914 0.0000 0.0000 0.0000
# 3 63.1457 43.6914 120.4708 0.0000 0.0000 0.0000
# 4 0.0000 0.0000 0.0000 34.0431 0.0000 0.0000
# 5 0.0000 0.0000 0.0000 0.0000 81.6491 0.0000
# 6 0.0000 0.0000 0.0000 0.0000 0.0000 22.0808
#
#
#
# Elastic Compliance Matrix: (Units=1/GPa)
#
#
# Indices 1 2 3 4 5 6 
#
# 1 0.039678 -0.015045 -0.015341 0.000000 0.000000 0.000000
# 2 -0.015045 0.031237 -0.003443 0.000000 0.000000 0.000000
# 3 -0.015341 -0.003443 0.017590 0.000000 0.000000 0.000000
# 4 0.000000 0.000000 0.000000 0.029375 0.000000 0.000000
# 5 0.000000 0.000000 0.000000 0.000000 0.012248 0.000000
# 6 0.000000 0.000000 0.000000 0.000000 0.000000 0.045288
#
#
# Mechanical properties :
#
#
# Convention : Reuss Voigt Hill
#
# Bulk Modulus (GPa) = 47.96716 58.73263 53.34990
# Shear Modulus (GPa) = 19.99818 33.87632 26.93725
#
# Velocity S-wave (km/s) = 3.42008 4.45132 3.96933
# Velocity P-wave (km/s) = 6.60696 7.79562 7.22578
#
# Compressibility (1/GPa) = 0.02084760
#
# Stress axis : x y z
#
# Youngs Moduli (GPa) = 25.20303 32.01310 56.84897
#
# Poissons Ratio (x) = 0.48164 0.87212
# Poissons Ratio (y) = 0.37918 0.19572
# Poissons Ratio (z) = 0.38664 0.11022
#
# Static dielectric constant tensor:
#      x y z
#    x 1.561300 0.000000 0.000000 
#    y 0.000000 1.571040 0.000000 
#    z 0.000000 0.000000 1.348600 
# 
# From -- ./inp_files/28484.got.cif
#   From: 2010.05.17/outbox.cif.g08.bks.cpg/sg47_15_cif.got.tgz:28484.got - 2010.06.03 20:15:42.
