data_PCOD9387720
_publ_section_title
;
Structure prediction by ZEFSAII (Michael W. Deem and Ramdas Pophale) SiO2 
 PCOD9387720
Probable space group: P M M M
;
_chemical_formula_sum "Si O2"
_cell_formula_units_Z 64
_cell_length_a 27.245732
_cell_length_b 7.971312
_cell_length_c 14.679827
_cell_angle_alpha 90.000000
_cell_angle_beta 90.000000
_cell_angle_gamma 90.000000
_cell_volume 3188.226930
_symmetry_space_group_name_H-M "P M M M"
_symmetry_group_IT_number 47
_symmetry_cell_setting 'orthorhombic'
loop_
_space_group_symop_operation_xyz
x,y,z
-x,-y,z
x,-y,-z
-x,y,-z
-x,-y,-z
x,y,-z
-x,y,z
x,-y,z
loop_
_atom_site_type_symbol
_atom_site_label
_atom_site_fract_x
_atom_site_fract_y
_atom_site_fract_z
Si Si1 0.648802 0.200457 0.396196
Si Si2 0.055358 0.204735 0.395058
Si Si3 0.243933 0.796243 0.392685
Si Si4 0.851345 0.206019 0.281575
Si Si5 0.196260 0.201058 0.102788
Si Si6 0.303946 0.309096 0.110430
Si Si7 0.552778 0.305491 0.289841
Si Si8 0.589286 0.805407 0.896030
O O1 0.642320 0.263606 0.500000
O O2 0.701971 0.262580 0.360628
O O3 0.601089 0.234824 0.337139
O O4 0.653528 0.000000 0.401375
O O5 0.065093 0.253777 0.500000
O O6 0.098560 0.262295 0.328906
O O7 0.000000 0.258177 0.370816
O O8 0.055561 0.000000 0.393759
O O9 0.240054 0.755608 0.500000
O O10 0.196371 0.737024 0.338497
O O11 0.243052 0.000000 0.385843
O O12 0.842399 0.260208 0.177683
O O13 0.851646 0.000000 0.282821
O O14 0.251243 0.239430 0.138668
O O15 0.192700 0.000000 0.097240
O O16 0.190566 0.268897 0.000000
O O17 0.310450 0.500000 0.141348
O O18 0.353175 0.208274 0.131432
O O19 0.301543 0.308386 0.000000
O O20 0.500000 0.228816 0.316336
O O21 0.551705 0.500000 0.313812
O O22 0.559352 0.287449 0.181343
O O23 0.575103 0.000000 0.895446
O O24 0.584241 0.741477 0.000000
#
# Coordination Sequence:
#
# PCOD9387720 Si02
#       8
#     8   8   8   8   8   8   8   8
#     4   9  19  36  57  79 102 129 165 212 260 307
#     4   8  13  21  34  55  86 124 165 208 252 297
#     4   8  14  25  42  66  92 115 146 193 247 299
#     4   9  15  22  37  60  88 126 164 200 245 293
#     4   9  17  27  39  61  94 129 166 203 238 283
#     4   9  17  30  48  70  97 128 161 198 243 294
#     4  11  25  41  56  77 104 135 171 210 255 309
#     4  10  21  37  58  81 104 132 167 208 253 303
#
# _framework density 20.073853
#
# number of rings (size 3 to 8) (size 9 to 14) (size 15 to 20)
#    0.000    2.875    0.000    2.625    1.750    5.500 
#    0.000    2.500    0.000    0.375    0.000    2.625 
#    0.000    2.000    0.000    4.500    0.000    5.625 
#
# Total GULP energy -356917.055508 kJ/mol
# GULP energy per Si atom -5576.828992 kJ/mol
# Density = 2.002816 g / cm^3
# Si number density = 20.073853 Si / 1000 Ang^3
#
#
#
# Elastic Constant Matrix: (Units=GPa)
#
#
# Indices 1 2 3 4 5 6 
#
# 1 145.7996 3.5532 74.5720 0.0000 0.0000 0.0000
# 2 3.5532 16.2334 1.3612 0.0000 0.0000 0.0000
# 3 74.5720 1.3612 77.8056 0.0000 0.0000 0.0000
# 4 0.0000 0.0000 0.0000 -4.3996 0.0000 0.0000
# 5 0.0000 0.0000 0.0000 0.0000 22.8935 0.0000
# 6 0.0000 0.0000 0.0000 0.0000 0.0000 54.9428
#
#
#
# Elastic Compliance Matrix: (Units=1/GPa)
#
#
# Indices 1 2 3 4 5 6 
#
# 1 0.013511 -0.001874 -0.012917 0.000000 0.000000 0.000000
# 2 -0.001874 0.061952 0.000712 0.000000 0.000000 0.000000
# 3 -0.012917 0.000712 0.025220 0.000000 0.000000 0.000000
# 4 0.000000 0.000000 0.000000 -0.227296 0.000000 0.000000
# 5 0.000000 0.000000 0.000000 0.000000 0.043681 0.000000
# 6 0.000000 0.000000 0.000000 0.000000 0.000000 0.018201
#
#
# Mechanical properties :
#
#
# Convention : Reuss Voigt Hill
#
# Bulk Modulus (GPa) = 13.78815 44.31238 29.05026
# Shear Modulus (GPa) = -403.22579 25.37747 -188.92416
#
# Velocity S-wave (km/s) = -14.18828 3.55942 -9.71179
# Velocity P-wave (km/s) = 16.17177 6.24622 10.54777
#
# Compressibility (1/GPa) = 0.07252607
#
# Stress axis : x y z
#
# Youngs Moduli (GPa) = 74.01482 16.14154 39.65138
#
# Poissons Ratio (x) = 0.03025 0.51216
# Poissons Ratio (y) = 0.13872 -0.02825
# Poissons Ratio (z) = 0.95601 -0.01150
#
# Static dielectric constant tensor:
#      x y z
#    x 1.723250 0.000000 0.000000 
#    y 0.000000 1.717950 0.000000 
#    z 0.000000 0.000000 1.735490 
# 
# From -- ./inp_files/25582.got.cif
#   From: 2010.05.17/outbox.cif.g08.bks.cpg/sg47_13_cif.got.tgz:25582.got - 2010.06.03 20:15:42.
