data_PCOD9387298
_publ_section_title
;
Structure prediction by ZEFSAII (Michael W. Deem and Ramdas Pophale) SiO2 
 PCOD9387298
Probable space group: P M M M
;
_chemical_formula_sum "Si O2"
_cell_formula_units_Z 37
_cell_length_a 23.374998
_cell_length_b 7.786690
_cell_length_c 10.315653
_cell_angle_alpha 90.000000
_cell_angle_beta 90.000000
_cell_angle_gamma 90.000000
_cell_volume 1877.591854
_symmetry_space_group_name_H-M "P M M M"
_symmetry_group_IT_number 47
_symmetry_cell_setting 'orthorhombic'
loop_
_space_group_symop_operation_xyz
x,y,z
-x,-y,z
x,-y,-z
-x,y,-z
-x,-y,-z
x,y,-z
-x,y,z
x,-y,z
loop_
_atom_site_type_symbol
_atom_site_label
_atom_site_fract_x
_atom_site_fract_y
_atom_site_fract_z
Si Si1 0.617111 0.209295 0.648005
Si Si2 0.935450 0.793286 0.353417
Si Si3 0.500000 0.000000 0.000000
Si Si4 0.710572 0.204067 0.146293
Si Si5 0.500000 0.695261 0.782198
Si Si6 0.160533 0.295902 0.853988
O O1 0.629296 0.258743 0.500000
O O2 0.666044 0.269729 0.747934
O O3 0.556526 0.278859 0.695792
O O4 0.614894 0.000000 0.652394
O O5 0.921701 0.733309 0.500000
O O6 0.888497 0.745939 0.248165
O O7 0.000000 0.733159 0.321168
O O8 0.937233 0.000000 0.357596
O O9 0.500000 0.152845 0.887891
O O10 0.776619 0.230027 0.183904
O O11 0.700738 0.000000 0.137904
O O12 0.702577 0.275157 0.000000
O O13 0.500000 0.500000 0.834733
O O14 0.164857 0.500000 0.861194
O O15 0.147884 0.229586 0.000000
#
# Coordination Sequence:
#
# PCOD9387298 Si02
#       6
#     8   8   1   8   4   8
#     4  10  21  39  63  90 126 166 200 248 309 363
#     4   9  19  36  57  80 106 139 184 236 286 344
#     4  12  26  48  66  94 136 160 208 264 302 378
#     4   9  19  35  58  82 113 158 204 245 291 346
#     4  12  26  42  68  97 126 167 209 256 311 367
#     4  10  21  36  53  79 116 152 187 234 289 342
#
# _framework density 19.706095000000001
#
# number of rings (size 3 to 8) (size 9 to 14) (size 15 to 20)
#    0.000    2.162    1.081    1.784    1.514    6.054 
#    0.000    5.405    0.000    0.000    0.000    0.000 
#    0.000    0.000    0.000    0.000    0.000    0.000 
#
# Total GULP energy -206246.927392 kJ/mol
# GULP energy per Si atom -5574.241281 kJ/mol
# Density = 1.966124 g / cm^3
# Si number density = 19.706095 Si / 1000 Ang^3
#
#
#
# Elastic Constant Matrix: (Units=GPa)
#
#
# Indices 1 2 3 4 5 6 
#
# 1 170.1010 5.6463 132.1676 0.0000 0.0000 0.0000
# 2 5.6463 60.4774 24.4928 0.0000 0.0000 0.0000
# 3 132.1676 24.4928 154.7400 0.0000 0.0000 0.0000
# 4 0.0000 0.0000 0.0000 5.5503 0.0000 0.0000
# 5 0.0000 0.0000 0.0000 0.0000 31.9455 0.0000
# 6 0.0000 0.0000 0.0000 0.0000 0.0000 536.3946
#
#
#
# Elastic Compliance Matrix: (Units=1/GPa)
#
#
# Indices 1 2 3 4 5 6 
#
# 1 0.018835 0.005083 -0.016892 0.000000 0.000000 0.000000
# 2 0.005083 0.019039 -0.007355 0.000000 0.000000 0.000000
# 3 -0.016892 -0.007355 0.022055 0.000000 0.000000 0.000000
# 4 0.000000 0.000000 0.000000 0.180172 0.000000 0.000000
# 5 0.000000 0.000000 0.000000 0.000000 0.031303 0.000000
# 6 0.000000 0.000000 0.000000 0.000000 0.000000 0.001864
#
#
# Mechanical properties :
#
#
# Convention : Reuss Voigt Hill
#
# Bulk Modulus (GPa) = 46.29537 78.88132 62.58834
# Shear Modulus (GPa) = 15.68392 129.64552 72.66472
#
# Velocity S-wave (km/s) = 2.82422 8.11988 6.07900
# Velocity P-wave (km/s) = 5.84627 11.31484 9.00568
#
# Compressibility (1/GPa) = 0.02160043
#
# Stress axis : x y z
#
# Youngs Moduli (GPa) = 53.09167 52.52316 45.34172
#
# Poissons Ratio (x) = -0.26696 0.76592
# Poissons Ratio (y) = -0.26985 0.33348
# Poissons Ratio (z) = 0.89684 0.38630
#
# Static dielectric constant tensor:
#      x y z
#    x 1.663440 0.000000 0.000000 
#    y 0.000000 1.709740 0.000000 
#    z 0.000000 0.000000 1.697530 
# 
# From -- ./inp_files/1491.got.cif
#   From: 2010.05.17/outbox.cif.g08.bks.cpg/sg47_1_cif.got.tgz:1491.got - 2010.06.03 20:15:42.
