data_PCOD9387357
_publ_section_title
;
Structure prediction by ZEFSAII (Michael W. Deem and Ramdas Pophale) SiO2 
 PCOD9387357
Probable space group: P M M M
;
_chemical_formula_sum "Si O2"
_cell_formula_units_Z 44
_cell_length_a 9.350320
_cell_length_b 7.878321
_cell_length_c 29.094107
_cell_angle_alpha 90.000000
_cell_angle_beta 90.000000
_cell_angle_gamma 90.000000
_cell_volume 2143.212225
_symmetry_space_group_name_H-M "P M M M"
_symmetry_group_IT_number 47
_symmetry_cell_setting 'orthorhombic'
loop_
_space_group_symop_operation_xyz
x,y,z
-x,-y,z
x,-y,-z
-x,y,-z
-x,-y,-z
x,y,-z
-x,y,z
x,-y,z
loop_
_atom_site_type_symbol
_atom_site_label
_atom_site_fract_x
_atom_site_fract_y
_atom_site_fract_z
Si Si1 0.663224 0.797236 0.500000
Si Si2 0.836851 0.704147 0.591143
Si Si3 0.836096 0.295139 0.948396
Si Si4 0.663514 0.704767 0.680060
Si Si5 0.338529 0.203346 0.859058
Si Si6 0.162806 0.204865 0.771208
O O1 0.500000 0.730402 0.500000
O O2 0.749003 0.743017 0.545255
O O3 0.656316 0.000000 0.500000
O O4 0.844736 0.500000 0.595028
O O5 0.751953 0.768078 0.635903
O O6 0.000000 0.768776 0.589007
O O7 0.836779 0.500000 0.948690
O O8 0.733283 0.238093 0.907980
O O9 0.000000 0.238857 0.939733
O O10 0.795294 0.238669 0.000000
O O11 0.500000 0.767607 0.680153
O O12 0.658163 0.500000 0.677028
O O13 0.745299 0.749796 0.726645
O O14 0.500000 0.271001 0.856591
O O15 0.240608 0.268633 0.817346
O O16 0.345991 0.000000 0.853687
O O17 0.000000 0.268186 0.767637
O O18 0.156700 0.000000 0.773834
#
# Coordination Sequence:
#
# PCOD9387357 Si02
#       6
#     4   8   8   8   8   8
#     4  11  24  39  56  82 114 147 184 225 270 320
#     4  10  21  38  60  84 110 143 183 225 270 320
#     4   9  19  36  56  78 105 138 177 220 266 317
#     4  10  21  37  58  84 112 143 180 221 267 320
#     4  10  21  36  54  78 108 141 178 220 266 318
#     4  10  21  37  57  80 107 142 182 222 267 318
#
# _framework density 20.529933
#
# number of rings (size 3 to 8) (size 9 to 14) (size 15 to 20)
#    0.000    2.091    0.000    3.273    0.000    8.727 
#    0.000    2.727    0.000    0.000    0.000    0.000 
#    0.000    0.000    0.000    0.000    0.000    0.000 
#
# Total GULP energy -245846.897531 kJ/mol
# GULP energy per Si atom -5587.429489 kJ/mol
# Density = 2.048321 g / cm^3
# Si number density = 20.529933 Si / 1000 Ang^3
#
#
#
# Elastic Constant Matrix: (Units=GPa)
#
#
# Indices 1 2 3 4 5 6 
#
# 1 229.4846 12.1697 135.3804 0.0000 0.0000 0.0000
# 2 12.1697 19.1309 0.0416 0.0000 0.0000 0.0000
# 3 135.3804 0.0416 192.9549 0.0000 0.0000 0.0000
# 4 0.0000 0.0000 0.0000 34.3178 0.0000 0.0000
# 5 0.0000 0.0000 0.0000 0.0000 95.0906 0.0000
# 6 0.0000 0.0000 0.0000 0.0000 0.0000 23.6474
#
#
#
# Elastic Compliance Matrix: (Units=1/GPa)
#
#
# Indices 1 2 3 4 5 6 
#
# 1 0.007887 -0.005005 -0.005532 0.000000 0.000000 0.000000
# 2 -0.005005 0.055448 0.003500 0.000000 0.000000 0.000000
# 3 -0.005532 0.003500 0.009063 0.000000 0.000000 0.000000
# 4 0.000000 0.000000 0.000000 0.029139 0.000000 0.000000
# 5 0.000000 0.000000 0.000000 0.000000 0.010516 0.000000
# 6 0.000000 0.000000 0.000000 0.000000 0.000000 0.042288
#
#
# Mechanical properties :
#
#
# Convention : Reuss Voigt Hill
#
# Bulk Modulus (GPa) = 17.14612 81.86153 49.50383
# Shear Modulus (GPa) = 26.61592 50.20975 38.41283
#
# Velocity S-wave (km/s) = 3.60452 4.95075 4.33027
# Velocity P-wave (km/s) = 5.06886 8.52295 7.01192
#
# Compressibility (1/GPa) = 0.05832222
#
# Stress axis : x y z
#
# Youngs Moduli (GPa) = 126.79510 18.03507 110.33362
#
# Poissons Ratio (x) = 0.09026 0.61041
# Poissons Ratio (y) = 0.63460 -0.38612
# Poissons Ratio (z) = 0.70148 -0.06312
#
# Static dielectric constant tensor:
#      x y z
#    x 1.722560 0.000000 0.000000 
#    y 0.000000 1.754480 0.000000 
#    z 0.000000 0.000000 1.683020 
# 
# From -- ./inp_files/33948.got.cif
#   From: 2010.05.17/outbox.cif.g08.bks.cpg/sg47_17_cif.got.tgz:33948.got - 2010.06.03 20:15:42.
