data_PCOD9387738
_publ_section_title
;
Structure prediction by ZEFSAII (Michael W. Deem and Ramdas Pophale) SiO2 
 PCOD9387738
Probable space group: P M M M
;
_chemical_formula_sum "Si O2"
_cell_formula_units_Z 44
_cell_length_a 24.050646
_cell_length_b 9.119946
_cell_length_c 10.725525
_cell_angle_alpha 90.000000
_cell_angle_beta 90.000000
_cell_angle_gamma 90.000000
_cell_volume 2352.543011
_symmetry_space_group_name_H-M "P M M M"
_symmetry_group_IT_number 47
_symmetry_cell_setting 'orthorhombic'
loop_
_space_group_symop_operation_xyz
x,y,z
-x,-y,z
x,-y,-z
-x,y,-z
-x,-y,-z
x,y,-z
-x,y,z
x,-y,z
loop_
_atom_site_type_symbol
_atom_site_label
_atom_site_fract_x
_atom_site_fract_y
_atom_site_fract_z
Si Si1 0.067344 0.832684 0.500000
Si Si2 0.366119 0.674811 0.639899
Si Si3 0.833022 0.825804 0.862171
Si Si4 0.233405 0.674846 0.640524
Si Si5 0.434697 0.823703 0.141051
Si Si6 0.065332 0.674756 0.242152
O O1 0.081484 0.743257 0.376139
O O2 0.000000 0.841508 0.500000
O O3 0.088778 0.000000 0.500000
O O4 0.383182 0.723438 0.500000
O O5 0.375338 0.500000 0.647246
O O6 0.299771 0.698211 0.650077
O O7 0.398604 0.752723 0.750523
O O8 0.797020 0.758254 0.751043
O O9 0.893525 0.751747 0.853195
O O10 0.838147 0.000000 0.846286
O O11 0.809038 0.796685 0.000000
O O12 0.216074 0.720107 0.500000
O O13 0.223100 0.500000 0.651271
O O14 0.500000 0.787111 0.156660
O O15 0.429950 0.000000 0.147133
O O16 0.418129 0.778538 0.000000
O O17 0.072907 0.500000 0.243561
O O18 0.000000 0.704584 0.219716
#
# Coordination Sequence:
#
# PCOD9387738 Si02
#       6
#     4   8   8   8   8   8
#     4   9  17  31  53  81 111 141 175 217 264 317
#     4   9  19  36  57  83 113 144 183 232 285 337
#     4  11  25  41  57  82 115 149 185 228 282 340
#     4   9  20  40  63  84 109 144 185 231 283 338
#     4   9  19  35  53  77 113 155 195 233 275 326
#     4  10  21  37  58  83 111 145 185 227 274 331
#
# _framework density 18.703164999999998
#
# number of rings (size 3 to 8) (size 9 to 14) (size 15 to 20)
#    0.000    2.455    0.000    3.000    1.273    7.273 
#    0.000   10.000    0.000    0.000    0.000    0.000 
#    0.000    0.000    0.000    0.000    0.000    0.000 
#
# Total GULP energy -245599.795231 kJ/mol
# GULP energy per Si atom -5581.813528 kJ/mol
# Density = 1.866060 g / cm^3
# Si number density = 18.703165 Si / 1000 Ang^3
#
#
#
# Elastic Constant Matrix: (Units=GPa)
#
#
# Indices 1 2 3 4 5 6 
#
# 1 62.7672 44.6923 80.9103 0.0000 0.0000 0.0000
# 2 44.6923 68.8616 78.6540 0.0000 0.0000 0.0000
# 3 80.9103 78.6540 186.0583 0.0000 0.0000 0.0000
# 4 0.0000 0.0000 0.0000 36.7075 0.0000 0.0000
# 5 0.0000 0.0000 0.0000 0.0000 19.8043 0.0000
# 6 0.0000 0.0000 0.0000 0.0000 0.0000 -70.8825
#
#
#
# Elastic Compliance Matrix: (Units=1/GPa)
#
#
# Indices 1 2 3 4 5 6 
#
# 1 0.040828 -0.012025 -0.012671 0.000000 0.000000 0.000000
# 2 -0.012025 0.031622 -0.008139 0.000000 0.000000 0.000000
# 3 -0.012671 -0.008139 0.014326 0.000000 0.000000 0.000000
# 4 0.000000 0.000000 0.000000 0.027242 0.000000 0.000000
# 5 0.000000 0.000000 0.000000 0.000000 0.050494 0.000000
# 6 0.000000 0.000000 0.000000 0.000000 0.000000 -0.014108
#
#
# Mechanical properties :
#
#
# Convention : Reuss Voigt Hill
#
# Bulk Modulus (GPa) = 47.37975 80.68893 64.03434
# Shear Modulus (GPa) = 22.41048 4.68788 13.54918
#
# Velocity S-wave (km/s) = 3.46529 1.58490 2.69445
# Velocity P-wave (km/s) = 6.43416 6.82530 6.63261
#
# Compressibility (1/GPa) = 0.02110606
#
# Stress axis : x y z
#
# Youngs Moduli (GPa) = 24.49300 31.62321 69.80509
#
# Poissons Ratio (x) = 0.38026 0.88453
# Poissons Ratio (y) = 0.29452 0.56813
# Poissons Ratio (z) = 0.31036 0.25738
#
# Static dielectric constant tensor:
#      x y z
#    x 1.647900 0.000000 0.000000 
#    y 0.000000 1.619330 0.000000 
#    z 0.000000 0.000000 1.651940 
# 
# From -- ./inp_files/19474.got.cif
#   From: 2010.05.17/outbox.cif.g08.bks.cpg/sg47_10_cif.got.tgz:19474.got - 2010.06.03 20:15:42.
