data_PCOD9387081
_publ_section_title
;
Structure prediction by ZEFSAII (Michael W. Deem and Ramdas Pophale) SiO2 
 PCOD9387081
Probable space group: P M M M
;
_chemical_formula_sum "Si O2"
_cell_formula_units_Z 64
_cell_length_a 8.610282
_cell_length_b 27.035214
_cell_length_c 14.608100
_cell_angle_alpha 90.000000
_cell_angle_beta 90.000000
_cell_angle_gamma 90.000000
_cell_volume 3400.485445
_symmetry_space_group_name_H-M "P M M M"
_symmetry_group_IT_number 47
_symmetry_cell_setting 'orthorhombic'
loop_
_space_group_symop_operation_xyz
x,y,z
-x,-y,z
x,-y,-z
-x,y,-z
-x,-y,-z
x,y,-z
-x,y,z
x,-y,z
loop_
_atom_site_type_symbol
_atom_site_label
_atom_site_fract_x
_atom_site_fract_y
_atom_site_fract_z
Si Si1 0.812704 0.944049 0.105684
Si Si2 0.687113 0.348784 0.892440
Si Si3 0.686259 0.553565 0.787482
Si Si4 0.310483 0.804226 0.395992
Si Si5 0.185260 0.243238 0.108531
Si Si6 0.685739 0.851664 0.785341
Si Si7 0.816628 0.409478 0.605360
Si Si8 0.323549 0.304846 0.389233
O O1 0.749464 0.901253 0.169666
O O2 0.000000 0.942745 0.107643
O O3 0.763971 0.000000 0.130606
O O4 0.765202 0.935099 0.000000
O O5 0.500000 0.346450 0.885135
O O6 0.744215 0.397652 0.839991
O O7 0.753713 0.296591 0.857911
O O8 0.726788 0.353267 0.000000
O O9 0.500000 0.554091 0.796272
O O10 0.742466 0.500000 0.822077
O O11 0.730449 0.558848 0.681295
O O12 0.257312 0.813081 0.500000
O O13 0.500000 0.802393 0.398499
O O14 0.263146 0.843380 0.319829
O O15 0.262946 0.749192 0.362880
O O16 0.258624 0.196496 0.159032
O O17 0.000000 0.241377 0.117852
O O18 0.223790 0.240141 0.000000
O O19 0.500000 0.852894 0.787455
O O20 0.765090 0.417556 0.500000
O O21 0.779484 0.352334 0.630092
O O22 0.000000 0.418458 0.609535
O O23 0.333953 0.301902 0.500000
O O24 0.500000 0.312683 0.353989
#
# Coordination Sequence:
#
# PCOD9387081 Si02
#       8
#     8   8   8   8   8   8   8   8
#     4   9  19  37  58  78 106 147 189 226 269 323
#     4   9  19  37  59  80 103 131 166 213 265 314
#     4  10  22  38  56  78 101 129 169 214 261 319
#     4   8  16  31  49  72 105 143 179 215 259 310
#     4  10  21  36  53  76 110 147 176 205 253 320
#     4  11  21  31  52  85 114 142 180 226 269 309
#     4  10  21  35  51  74 104 135 168 211 261 309
#     4   8  14  28  50  71  93 128 172 211 250 303
#
# _framework density 18.820841999999999
#
# number of rings (size 3 to 8) (size 9 to 14) (size 15 to 20)
#    0.000    2.625    0.000    2.625    1.750    4.750 
#    0.000    3.750    0.000    2.625    0.000    5.250 
#    0.000    0.000    0.000    0.000    0.000    0.000 
#
# Total GULP energy -357089.076575 kJ/mol
# GULP energy per Si atom -5579.516821 kJ/mol
# Density = 1.877801 g / cm^3
# Si number density = 18.820842 Si / 1000 Ang^3
#
#
#
# Elastic Constant Matrix: (Units=GPa)
#
#
# Indices 1 2 3 4 5 6 
#
# 1 8.1870 18.0655 12.6776 0.0000 0.0000 0.0000
# 2 18.0655 143.4045 70.5709 0.0000 0.0000 0.0000
# 3 12.6776 70.5709 81.0022 0.0000 0.0000 0.0000
# 4 0.0000 0.0000 0.0000 27.1037 0.0000 0.0000
# 5 0.0000 0.0000 0.0000 0.0000 13.7012 0.0000
# 6 0.0000 0.0000 0.0000 0.0000 0.0000 47.3329
#
#
#
# Elastic Compliance Matrix: (Units=1/GPa)
#
#
# Indices 1 2 3 4 5 6 
#
# 1 0.178533 -0.015300 -0.014612 0.000000 0.000000 0.000000
# 2 -0.015300 0.013518 -0.009383 0.000000 0.000000 0.000000
# 3 -0.014612 -0.009383 0.022807 0.000000 0.000000 0.000000
# 4 0.000000 0.000000 0.000000 0.036895 0.000000 0.000000
# 5 0.000000 0.000000 0.000000 0.000000 0.072986 0.000000
# 6 0.000000 0.000000 0.000000 0.000000 0.000000 0.021127
#
#
# Mechanical properties :
#
#
# Convention : Reuss Voigt Hill
#
# Bulk Modulus (GPa) = 7.33847 48.35794 27.84821
# Shear Modulus (GPa) = 10.64104 26.37955 18.51029
#
# Velocity S-wave (km/s) = 2.38036 3.74787 3.13948
# Velocity P-wave (km/s) = 3.38562 6.66921 5.28870
#
# Compressibility (1/GPa) = 0.13626816
#
# Stress axis : x y z
#
# Youngs Moduli (GPa) = 5.60119 73.97562 43.84691
#
# Poissons Ratio (x) = 1.13182 0.64071
# Poissons Ratio (y) = 0.08570 0.41140
# Poissons Ratio (z) = 0.08185 0.69408
#
# Static dielectric constant tensor:
#      x y z
#    x 1.637790 0.000000 0.000000 
#    y 0.000000 1.654670 0.000000 
#    z 0.000000 0.000000 1.680770 
# 
# From -- ./inp_files/7782.got.cif
#   From: 2010.05.17/outbox.cif.g08.bks.cpg/sg47_4_cif.got.tgz:7782.got - 2010.06.03 20:15:42.
