data_PCOD9387889
_publ_section_title
;
Structure prediction by ZEFSAII (Michael W. Deem and Ramdas Pophale) SiO2 
 PCOD9387889
Probable space group: P M M M
;
_chemical_formula_sum "Si O2"
_cell_formula_units_Z 56
_cell_length_a 16.345185
_cell_length_b 19.958732
_cell_length_c 8.391651
_cell_angle_alpha 90.000000
_cell_angle_beta 90.000000
_cell_angle_gamma 90.000000
_cell_volume 2737.601315
_symmetry_space_group_name_H-M "P M M M"
_symmetry_group_IT_number 47
_symmetry_cell_setting 'orthorhombic'
loop_
_space_group_symop_operation_xyz
x,y,z
-x,-y,z
x,-y,-z
-x,y,-z
-x,-y,-z
x,y,-z
-x,y,z
x,-y,z
loop_
_atom_site_type_symbol
_atom_site_label
_atom_site_fract_x
_atom_site_fract_y
_atom_site_fract_z
Si Si1 0.749776 0.076435 0.808261
Si Si2 0.089274 0.849041 0.687449
Si Si3 0.849875 0.716270 0.184012
Si Si4 0.098641 0.574194 0.312323
Si Si5 0.595249 0.573302 0.306124
Si Si6 0.671921 0.288095 0.690710
Si Si7 0.409062 0.840762 0.192739
O O1 0.832382 0.115206 0.762903
O O2 0.667212 0.113844 0.752211
O O3 0.752568 0.000000 0.749689
O O4 0.745390 0.075088 0.000000
O O5 0.091501 0.862606 0.500000
O O6 0.098646 0.769380 0.715097
O O7 0.000000 0.870487 0.750629
O O8 0.866583 0.639161 0.226866
O O9 0.755527 0.730848 0.222592
O O10 0.867986 0.728266 0.000000
O O11 0.119912 0.578690 0.500000
O O12 0.125059 0.500000 0.255316
O O13 0.000000 0.576368 0.300137
O O14 0.596833 0.573631 0.500000
O O15 0.500000 0.579473 0.259756
O O16 0.625600 0.500000 0.253833
O O17 0.644839 0.638055 0.254725
O O18 0.685002 0.288790 0.500000
O O19 0.605218 0.232743 0.734948
O O20 0.500000 0.865872 0.234449
O O21 0.405102 0.836040 0.000000
#
# Coordination Sequence:
#
# PCOD9387889 Si02
#       7
#     8   8   8   8   8   8   8
#     4  10  22  41  65  94 128 165 203 243 292 357
#     4  11  24  42  65  92 122 160 205 252 305 363
#     4  12  24  37  56  84 119 157 200 252 309 365
#     4   9  19  37  59  82 111 150 198 251 305 363
#     4   8  15  29  49  75 107 143 188 242 295 346
#     4  11  21  34  56  84 114 153 203 254 303 357
#     4  10  21  38  61  90 125 164 203 246 299 359
#
# _framework density 20.455862
#
# number of rings (size 3 to 8) (size 9 to 14) (size 15 to 20)
#    0.000    1.857    1.429    3.857    0.000    5.714 
#    0.000    5.000    0.000    1.286    0.000    7.000 
#    0.000    0.000    0.000    0.000    0.000    0.000 
#
# Total GULP energy -312745.534146 kJ/mol
# GULP energy per Si atom -5584.741681 kJ/mol
# Density = 2.040930 g / cm^3
# Si number density = 20.455862 Si / 1000 Ang^3
#
#
#
# Elastic Constant Matrix: (Units=GPa)
#
#
# Indices 1 2 3 4 5 6 
#
# 1 112.3156 47.5383 6.0253 0.0000 0.0000 0.0000
# 2 47.5383 113.6115 3.6543 0.0000 0.0000 0.0000
# 3 6.0253 3.6543 12.6000 0.0000 0.0000 0.0000
# 4 0.0000 0.0000 0.0000 25.9004 0.0000 0.0000
# 5 0.0000 0.0000 0.0000 0.0000 23.7612 0.0000
# 6 0.0000 0.0000 0.0000 0.0000 0.0000 16.7167
#
#
#
# Elastic Compliance Matrix: (Units=1/GPa)
#
#
# Indices 1 2 3 4 5 6 
#
# 1 0.011013 -0.004480 -0.003967 0.000000 0.000000 0.000000
# 2 -0.004480 0.010708 -0.000963 0.000000 0.000000 0.000000
# 3 -0.003967 -0.000963 0.081541 0.000000 0.000000 0.000000
# 4 0.000000 0.000000 0.000000 0.038609 0.000000 0.000000
# 5 0.000000 0.000000 0.000000 0.000000 0.042085 0.000000
# 6 0.000000 0.000000 0.000000 0.000000 0.000000 0.059820
#
#
# Mechanical properties :
#
#
# Convention : Reuss Voigt Hill
#
# Bulk Modulus (GPa) = 11.84256 39.21809 25.53032
# Shear Modulus (GPa) = 17.19725 25.36294 21.28010
#
# Velocity S-wave (km/s) = 2.90263 3.52502 3.22886
# Velocity P-wave (km/s) = 4.12742 5.98175 5.13892
#
# Compressibility (1/GPa) = 0.08444122
#
# Stress axis : x y z
#
# Youngs Moduli (GPa) = 90.80469 93.39130 12.26374
#
# Poissons Ratio (x) = 0.41843 0.04865
# Poissons Ratio (y) = 0.40684 0.01181
# Poissons Ratio (z) = 0.36020 0.08993
#
# Static dielectric constant tensor:
#      x y z
#    x 1.734690 0.000000 0.000000 
#    y 0.000000 1.747300 0.000000 
#    z 0.000000 0.000000 1.707960 
# 
# From -- ./inp_files/7202.got.cif
#   From: 2010.05.17/outbox.cif.g08.bks.cpg/sg47_4_cif.got.tgz:7202.got - 2010.06.03 20:15:42.
