data_PCOD9387727
_publ_section_title
;
Structure prediction by ZEFSAII (Michael W. Deem and Ramdas Pophale) SiO2 
 PCOD9387727
Probable space group: P M M M
;
_chemical_formula_sum "Si O2"
_cell_formula_units_Z 52
_cell_length_a 10.859100
_cell_length_b 30.475773
_cell_length_c 8.914520
_cell_angle_alpha 90.000000
_cell_angle_beta 90.000000
_cell_angle_gamma 90.000000
_cell_volume 2950.166494
_symmetry_space_group_name_H-M "P M M M"
_symmetry_group_IT_number 47
_symmetry_cell_setting 'orthorhombic'
loop_
_space_group_symop_operation_xyz
x,y,z
-x,-y,z
x,-y,-z
-x,y,-z
-x,-y,-z
x,y,-z
-x,y,z
x,-y,z
loop_
_atom_site_type_symbol
_atom_site_label
_atom_site_fract_x
_atom_site_fract_y
_atom_site_fract_z
Si Si1 0.355648 0.729166 0.320723
Si Si2 0.350306 0.548478 0.675747
Si Si3 0.648859 0.637134 0.169554
Si Si4 0.000000 0.048758 0.681739
Si Si5 0.354020 0.951758 0.829289
Si Si6 0.143273 0.790272 0.819852
Si Si7 0.210217 0.883487 0.678503
O O1 0.350861 0.733851 0.500000
O O2 0.500000 0.738320 0.274753
O O3 0.326765 0.679129 0.272660
O O4 0.250439 0.759240 0.246871
O O5 0.318829 0.552758 0.500000
O O6 0.500000 0.548641 0.683316
O O7 0.310252 0.500000 0.728850
O O8 0.305366 0.590798 0.765705
O O9 0.500000 0.633754 0.164318
O O10 0.692858 0.644756 0.000000
O O11 0.115108 0.078267 0.723088
O O12 0.000000 0.045880 0.500000
O O13 0.000000 0.000000 0.743933
O O14 0.500000 0.955511 0.839894
O O15 0.331460 0.908321 0.731944
O O16 0.309791 0.000000 0.770283
O O17 0.305874 0.946225 0.000000
O O18 0.174996 0.838901 0.760464
O O19 0.000000 0.779785 0.776500
O O20 0.149296 0.788920 0.000000
O O21 0.206432 0.876260 0.500000
#
# Coordination Sequence:
#
# PCOD9387727 Si02
#       7
#     8   8   8   4   8   8   8
#     4  10  21  37  58  82 107 139 182 228 274 326
#     4   8  13  21  34  55  88 132 178 221 267 320
#     4   9  16  26  42  66  98 135 175 221 272 324
#     4   9  18  32  51  77 105 129 155 193 240 287
#     4   9  19  36  55  76 106 141 173 207 249 298
#     4  11  24  41  60  81 109 142 178 221 272 326
#     4  11  21  35  56  79 105 134 166 206 251 301
#
# _framework density 17.626124000000001
#
# number of rings (size 3 to 8) (size 9 to 14) (size 15 to 20)
#    0.000    2.385    0.769    3.231    0.000    5.846 
#    0.000    2.308    0.000    1.846    0.000    0.000 
#    0.000    0.615    0.000    6.462    0.000    8.923 
#
# Total GULP energy -289482.867989 kJ/mol
# GULP energy per Si atom -5566.978231 kJ/mol
# Density = 1.758601 g / cm^3
# Si number density = 17.626124 Si / 1000 Ang^3
#
#
#
# Elastic Constant Matrix: (Units=GPa)
#
#
# Indices 1 2 3 4 5 6 
#
# 1 67.5634 53.4759 32.5154 0.0000 0.0000 0.0000
# 2 53.4759 138.1507 46.0866 0.0000 0.0000 0.0000
# 3 32.5154 46.0866 62.8530 0.0000 0.0000 0.0000
# 4 0.0000 0.0000 0.0000 28.4495 0.0000 0.0000
# 5 0.0000 0.0000 0.0000 0.0000 18.2819 0.0000
# 6 0.0000 0.0000 0.0000 0.0000 0.0000 30.0595
#
#
#
# Elastic Compliance Matrix: (Units=1/GPa)
#
#
# Indices 1 2 3 4 5 6 
#
# 1 0.023625 -0.006709 -0.007303 0.000000 0.000000 0.000000
# 2 -0.006709 0.011487 -0.004952 0.000000 0.000000 0.000000
# 3 -0.007303 -0.004952 0.023319 0.000000 0.000000 0.000000
# 4 0.000000 0.000000 0.000000 0.035150 0.000000 0.000000
# 5 0.000000 0.000000 0.000000 0.000000 0.054699 0.000000
# 6 0.000000 0.000000 0.000000 0.000000 0.000000 0.033267
#
#
# Mechanical properties :
#
#
# Convention : Reuss Voigt Hill
#
# Bulk Modulus (GPa) = 48.77067 59.19141 53.98104
# Shear Modulus (GPa) = 22.09343 24.45746 23.27545
#
# Velocity S-wave (km/s) = 3.54425 3.72905 3.63782
# Velocity P-wave (km/s) = 6.66922 7.22465 6.95249
#
# Compressibility (1/GPa) = 0.02050413
#
# Stress axis : x y z
#
# Youngs Moduli (GPa) = 42.32725 87.05120 42.88267
#
# Poissons Ratio (x) = 0.58401 0.31316
# Poissons Ratio (y) = 0.28397 0.21238
# Poissons Ratio (z) = 0.30911 0.43112
#
# Static dielectric constant tensor:
#      x y z
#    x 2.117480 0.000000 0.000000 
#    y 0.000000 1.601170 0.000000 
#    z 0.000000 0.000000 1.608650 
# 
# From -- ./inp_files/4579.got.cif
#   From: 2010.05.17/outbox.cif.g08.bks.cpg/sg47_3_cif.got.tgz:4579.got - 2010.06.03 20:15:42.
