data_PCOD9387812
_publ_section_title
;
Structure prediction by ZEFSAII (Michael W. Deem and Ramdas Pophale) SiO2 
 PCOD9387812
Probable space group: P M M M
;
_chemical_formula_sum "Si O2"
_cell_formula_units_Z 44
_cell_length_a 8.722512
_cell_length_b 15.494061
_cell_length_c 17.107333
_cell_angle_alpha 90.000000
_cell_angle_beta 90.000000
_cell_angle_gamma 90.000000
_cell_volume 2312.007008
_symmetry_space_group_name_H-M "P M M M"
_symmetry_group_IT_number 47
_symmetry_cell_setting 'orthorhombic'
loop_
_space_group_symop_operation_xyz
x,y,z
-x,-y,z
x,-y,-z
-x,y,-z
-x,-y,-z
x,y,-z
-x,y,z
x,-y,z
loop_
_atom_site_type_symbol
_atom_site_label
_atom_site_fract_x
_atom_site_fract_y
_atom_site_fract_z
Si Si1 0.679278 0.254063 0.813606
Si Si2 0.815868 0.601089 0.500000
Si Si3 0.319480 0.908132 0.406131
Si Si4 0.686402 0.281027 0.361828
Si Si5 0.176777 0.402963 0.906307
Si Si6 0.815306 0.900757 0.910219
O O1 0.500000 0.235234 0.807247
O O2 0.728818 0.290269 0.728945
O O3 0.714380 0.330396 0.873416
O O4 0.757186 0.167907 0.847300
O O5 0.769595 0.500000 0.500000
O O6 0.753950 0.651347 0.576570
O O7 0.000000 0.604877 0.500000
O O8 0.312891 0.908828 0.500000
O O9 0.500000 0.908127 0.384263
O O10 0.257151 0.816305 0.380523
O O11 0.252836 0.000000 0.377831
O O12 0.500000 0.283922 0.370212
O O13 0.215770 0.500000 0.879983
O O14 0.000000 0.384532 0.883236
O O15 0.180840 0.402292 0.000000
O O16 0.000000 0.898969 0.909885
O O17 0.767140 0.000000 0.894729
O O18 0.766928 0.878631 0.000000
#
# Coordination Sequence:
#
# PCOD9387812 Si02
#       6
#     8   4   8   8   8   8
#     4  11  23  34  52  86 120 148 181 228 286 341
#     4  11  25  43  62  83 106 138 185 239 290 335
#     4   8  13  25  51  80 100 127 170 212 248 296
#     4  10  21  38  58  81 112 148 183 220 271 338
#     4   9  19  37  59  79 102 140 187 229 275 335
#     4   9  19  37  59  81 111 158 208 242 273 324
#
# _framework density 19.031082999999999
#
# number of rings (size 3 to 8) (size 9 to 14) (size 15 to 20)
#    0.000    2.455    0.909    3.000    0.000    7.273 
#    0.000    7.273    0.000    1.091    0.000    0.000 
#    0.000    0.000    0.000    0.000    0.000    0.000 
#
# Total GULP energy -245207.366514 kJ/mol
# GULP energy per Si atom -5572.894693 kJ/mol
# Density = 1.898777 g / cm^3
# Si number density = 19.031083 Si / 1000 Ang^3
#
#
#
# Elastic Constant Matrix: (Units=GPa)
#
#
# Indices 1 2 3 4 5 6 
#
# 1 21.6099 26.2015 28.0123 0.0000 0.0000 0.0000
# 2 26.2015 114.4963 55.3933 0.0000 0.0000 0.0000
# 3 28.0123 55.3933 83.9891 0.0000 0.0000 0.0000
# 4 0.0000 0.0000 0.0000 -11.3703 0.0000 0.0000
# 5 0.0000 0.0000 0.0000 0.0000 1.6811 0.0000
# 6 0.0000 0.0000 0.0000 0.0000 0.0000 -138.6340
#
#
#
# Elastic Compliance Matrix: (Units=1/GPa)
#
#
# Indices 1 2 3 4 5 6 
#
# 1 0.086946 -0.008617 -0.023315 0.000000 0.000000 0.000000
# 2 -0.008617 0.013681 -0.006149 0.000000 0.000000 0.000000
# 3 -0.023315 -0.006149 0.023738 0.000000 0.000000 0.000000
# 4 0.000000 0.000000 0.000000 -0.087949 0.000000 0.000000
# 5 0.000000 0.000000 0.000000 0.000000 0.594862 0.000000
# 6 0.000000 0.000000 0.000000 0.000000 0.000000 -0.007213
#
#
# Mechanical properties :
#
#
# Convention : Reuss Voigt Hill
#
# Bulk Modulus (GPa) = 20.74592 48.81217 34.77905
# Shear Modulus (GPa) = 6.98036 -22.29877 -7.65920
#
# Velocity S-wave (km/s) = 1.91725 -3.42673 -2.00831
# Velocity P-wave (km/s) = 3.97817 3.16981 3.59677
#
# Compressibility (1/GPa) = 0.04820225
#
# Stress axis : x y z
#
# Youngs Moduli (GPa) = 11.50138 73.09605 42.12673
#
# Poissons Ratio (x) = 0.62986 0.98220
# Poissons Ratio (y) = 0.09911 0.25903
# Poissons Ratio (z) = 0.26816 0.44946
#
# Static dielectric constant tensor:
#      x y z
#    x 1.660860 0.000000 0.000000 
#    y 0.000000 1.669600 0.000000 
#    z 0.000000 0.000000 1.582700 
# 
# From -- ./inp_files/20916.got.cif
#   From: 2010.05.17/outbox.cif.g08.bks.cpg/sg47_11_cif.got.tgz:20916.got - 2010.06.03 20:15:42.
