data_PCOD9387354
_publ_section_title
;
Structure prediction by ZEFSAII (Michael W. Deem and Ramdas Pophale) SiO2 
 PCOD9387354
Probable space group: P M M M
;
_chemical_formula_sum "Si O2"
_cell_formula_units_Z 48
_cell_length_a 8.989199
_cell_length_b 9.599439
_cell_length_c 31.842174
_cell_angle_alpha 90.000000
_cell_angle_beta 90.000000
_cell_angle_gamma 90.000000
_cell_volume 2747.701553
_symmetry_space_group_name_H-M "P M M M"
_symmetry_group_IT_number 47
_symmetry_cell_setting 'orthorhombic'
loop_
_space_group_symop_operation_xyz
x,y,z
-x,-y,z
x,-y,-z
-x,y,-z
-x,-y,-z
x,y,-z
-x,y,z
x,-y,z
loop_
_atom_site_type_symbol
_atom_site_label
_atom_site_fract_x
_atom_site_fract_y
_atom_site_fract_z
Si Si1 0.675724 0.335566 0.835312
Si Si2 0.178844 0.663732 0.586438
Si Si3 0.176613 0.167113 0.239398
Si Si4 0.822244 0.335903 0.075339
Si Si5 0.181220 0.160502 0.333447
Si Si6 0.672414 0.669485 0.500000
Si Si7 0.321741 0.835804 0.000000
O O1 0.500000 0.313210 0.841260
O O2 0.700069 0.500000 0.826964
O O3 0.736322 0.246277 0.796739
O O4 0.761126 0.301361 0.878410
O O5 0.214112 0.500000 0.591205
O O6 0.230390 0.746349 0.627590
O O7 0.249330 0.715874 0.542952
O O8 0.000000 0.676047 0.583312
O O9 0.225836 0.207655 0.286682
O O10 0.000000 0.196388 0.235396
O O11 0.194901 0.000000 0.236044
O O12 0.788566 0.500000 0.067385
O O13 0.745745 0.240596 0.040562
O O14 0.000000 0.319312 0.073872
O O15 0.000000 0.162071 0.333157
O O16 0.226996 0.000000 0.339137
O O17 0.682831 0.500000 0.500000
O O18 0.500000 0.707933 0.500000
O O19 0.500000 0.821582 0.000000
O O20 0.285148 0.000000 0.000000
#
# Coordination Sequence:
#
# PCOD9387354 Si02
#       7
#     8   8   8   8   8   4   4
#     4  10  21  36  54  78 107 138 173 213 256 302
#     4   9  16  27  46  70  91 115 153 197 236 279
#     4   9  18  33  53  76 102 134 170 207 251 303
#     4  10  21  38  60  83 106 137 177 217 259 306
#     4   8  15  29  48  70  96 124 156 196 241 289
#     4   9  17  29  44  63  90 122 152 187 236 288
#     4  11  24  39  56  82 114 145 176 211 254 304
#
# _framework density 17.469145000000001
#
# number of rings (size 3 to 8) (size 9 to 14) (size 15 to 20)
#    0.000    2.667    0.000    2.750    0.000    6.333 
#    0.000    2.917    0.000    6.000    0.000    0.000 
#    0.000    0.000    0.000    0.000    0.000    0.000 
#
# Total GULP energy -267702.449552 kJ/mol
# GULP energy per Si atom -5577.134366 kJ/mol
# Density = 1.742938 g / cm^3
# Si number density = 17.469145 Si / 1000 Ang^3
#
#
#
# Elastic Constant Matrix: (Units=GPa)
#
#
# Indices 1 2 3 4 5 6 
#
# 1 46.0628 44.2831 62.8836 0.0000 0.0000 0.0000
# 2 44.2831 60.9545 88.9853 0.0000 0.0000 0.0000
# 3 62.8836 88.9853 188.4881 0.0000 0.0000 0.0000
# 4 0.0000 0.0000 0.0000 218.2824 0.0000 0.0000
# 5 0.0000 0.0000 0.0000 0.0000 -24.5275 0.0000
# 6 0.0000 0.0000 0.0000 0.0000 0.0000 21.5517
#
#
#
# Elastic Compliance Matrix: (Units=1/GPa)
#
#
# Indices 1 2 3 4 5 6 
#
# 1 0.072264 -0.055675 0.002176 0.000000 0.000000 0.000000
# 2 -0.055675 0.095681 -0.026596 0.000000 0.000000 0.000000
# 3 0.002176 -0.026596 0.017136 0.000000 0.000000 0.000000
# 4 0.000000 0.000000 0.000000 0.004581 0.000000 0.000000
# 5 0.000000 0.000000 0.000000 0.000000 -0.040771 0.000000
# 6 0.000000 0.000000 0.000000 0.000000 0.000000 0.046400
#
#
# Mechanical properties :
#
#
# Convention : Reuss Voigt Hill
#
# Bulk Modulus (GPa) = 40.18026 76.42326 58.30176
# Shear Modulus (GPa) = 13.74463 49.68487 31.71475
#
# Velocity S-wave (km/s) = 2.80803 5.33884 4.26546
# Velocity P-wave (km/s) = 5.79345 9.04693 7.59641
#
# Compressibility (1/GPa) = 0.02488784
#
# Stress axis : x y z
#
# Youngs Moduli (GPa) = 13.83822 10.45145 58.35782
#
# Poissons Ratio (x) = 0.58189 -0.12697
# Poissons Ratio (y) = 0.77045 1.55210
# Poissons Ratio (z) = -0.03011 0.27797
#
# Static dielectric constant tensor:
#      x y z
#    x 1.580800 0.000000 0.000000 
#    y 0.000000 1.580540 0.000000 
#    z 0.000000 0.000000 1.580420 
# 
# From -- ./inp_files/34044.got.cif
#   From: 2010.05.17/outbox.cif.g08.bks.cpg/sg47_18_cif.got.tgz:34044.got - 2010.06.03 20:15:42.
