data_PCOD9387331
_publ_section_title
;
Structure prediction by ZEFSAII (Michael W. Deem and Ramdas Pophale) SiO2 
 PCOD9387331
Probable space group: P M M M
;
_chemical_formula_sum "Si O2"
_cell_formula_units_Z 44
_cell_length_a 7.718059
_cell_length_b 13.617160
_cell_length_c 17.036218
_cell_angle_alpha 90.000000
_cell_angle_beta 90.000000
_cell_angle_gamma 90.000000
_cell_volume 1790.473194
_symmetry_space_group_name_H-M "P M M M"
_symmetry_group_IT_number 47
_symmetry_cell_setting 'orthorhombic'
loop_
_space_group_symop_operation_xyz
x,y,z
-x,-y,z
x,-y,-z
-x,y,-z
-x,-y,-z
x,y,-z
-x,y,z
x,-y,z
loop_
_atom_site_type_symbol
_atom_site_label
_atom_site_fract_x
_atom_site_fract_y
_atom_site_fract_z
Si Si1 0.201930 0.888691 0.844948
Si Si2 0.296249 0.119537 0.330392
Si Si3 0.207708 0.615595 0.415767
Si Si4 0.708001 0.611775 0.753616
Si Si5 0.700488 0.304253 0.084647
Si Si6 0.289377 0.117295 0.500000
O O1 0.217776 0.855029 0.753894
O O2 0.294982 0.812165 0.900795
O O3 0.000000 0.889010 0.865617
O O4 0.269133 0.000000 0.849696
O O5 0.500000 0.144351 0.326670
O O6 0.223947 0.153806 0.415119
O O7 0.284153 0.000000 0.333359
O O8 0.273639 0.655556 0.500000
O O9 0.263674 0.500000 0.414426
O O10 0.257092 0.659069 0.331381
O O11 0.000000 0.616283 0.418355
O O12 0.500000 0.612192 0.759962
O O13 0.771318 0.500000 0.748667
O O14 0.779465 0.654069 0.834987
O O15 0.500000 0.336630 0.082082
O O16 0.779094 0.329138 0.000000
O O17 0.500000 0.126831 0.500000
O O18 0.254473 0.000000 0.500000
#
# Coordination Sequence:
#
# PCOD9387331 Si02
#       6
#     8   8   8   8   8   4
#     4  10  21  36  54  77 105 137 175 223 278 327
#     4   8  13  24  45  71  98 130 168 209 255 310
#     4   8  14  26  47  77 112 149 185 217 255 308
#     4   9  18  33  55  84 115 144 176 219 269 318
#     4  10  22  39  58  80 106 139 180 224 272 330
#     4   7  10  18  37  67  97 125 162 205 248 299
#
# _framework density 24.574511000000001
#
# number of rings (size 3 to 8) (size 9 to 14) (size 15 to 20)
#    0.000    3.182    0.000    2.182    0.000    3.273 
#    0.000    5.909    2.000    2.727    0.000    3.818 
#    0.000    0.000    0.000    0.000    0.000    0.000 
#
# Total GULP energy -245595.903444 kJ/mol
# GULP energy per Si atom -5581.725078 kJ/mol
# Density = 2.451858 g / cm^3
# Si number density = 24.574511 Si / 1000 Ang^3
#
#
#
# Elastic Constant Matrix: (Units=GPa)
#
#
# Indices 1 2 3 4 5 6 
#
# 1 42.1141 -10.0102 13.0234 0.0000 0.0000 0.0000
# 2 -10.0102 55.7772 60.0900 0.0000 0.0000 0.0000
# 3 13.0234 60.0900 238.1319 0.0000 0.0000 0.0000
# 4 0.0000 0.0000 0.0000 20.2007 0.0000 0.0000
# 5 0.0000 0.0000 0.0000 0.0000 46.9746 0.0000
# 6 0.0000 0.0000 0.0000 0.0000 0.0000 5.8077
#
#
#
# Elastic Compliance Matrix: (Units=1/GPa)
#
#
# Indices 1 2 3 4 5 6 
#
# 1 0.026991 0.008837 -0.003706 0.000000 0.000000 0.000000
# 2 0.008837 0.027515 -0.007426 0.000000 0.000000 0.000000
# 3 -0.003706 -0.007426 0.006276 0.000000 0.000000 0.000000
# 4 0.000000 0.000000 0.000000 0.049503 0.000000 0.000000
# 5 0.000000 0.000000 0.000000 0.000000 0.021288 0.000000
# 6 0.000000 0.000000 0.000000 0.000000 0.000000 0.172185
#
#
# Mechanical properties :
#
#
# Convention : Reuss Voigt Hill
#
# Bulk Modulus (GPa) = 17.79647 51.35886 34.57766
# Shear Modulus (GPa) = 15.28678 32.79127 24.03902
#
# Velocity S-wave (km/s) = 2.49682 3.65685 3.13103
# Velocity P-wave (km/s) = 3.94584 6.22693 5.21270
#
# Compressibility (1/GPa) = 0.05619091
#
# Stress axis : x y z
#
# Youngs Moduli (GPa) = 37.04879 36.34385 159.33720
#
# Poissons Ratio (x) = -0.32116 0.59050
# Poissons Ratio (y) = -0.32739 1.18330
# Poissons Ratio (z) = 0.13730 0.26990
#
# Static dielectric constant tensor:
#      x y z
#    x 1.892040 0.000000 0.000000 
#    y 0.000000 2.023800 0.000000 
#    z 0.000000 0.000000 1.993040 
# 
# From -- ./inp_files/26383.got.cif
#   From: 2010.05.17/outbox.cif.g08.bks.cpg/sg47_14_cif.got.tgz:26383.got - 2010.06.03 20:15:42.
