data_PCOD9387553
_publ_section_title
;
Structure prediction by ZEFSAII (Michael W. Deem and Ramdas Pophale) SiO2 
 PCOD9387553
Probable space group: P M M M
;
_chemical_formula_sum "Si O2"
_cell_formula_units_Z 56
_cell_length_a 20.785192
_cell_length_b 7.943137
_cell_length_c 19.310122
_cell_angle_alpha 90.000000
_cell_angle_beta 90.000000
_cell_angle_gamma 90.000000
_cell_volume 3188.093952
_symmetry_space_group_name_H-M "P M M M"
_symmetry_group_IT_number 47
_symmetry_cell_setting 'orthorhombic'
loop_
_space_group_symop_operation_xyz
x,y,z
-x,-y,z
x,-y,-z
-x,y,-z
-x,-y,-z
x,y,-z
-x,y,z
x,-y,z
loop_
_atom_site_type_symbol
_atom_site_label
_atom_site_fract_x
_atom_site_fract_y
_atom_site_fract_z
Si Si1 0.393510 0.304339 0.679642
Si Si2 0.396608 0.000000 0.420169
Si Si3 0.187798 0.695699 0.825996
Si Si4 0.239971 0.000000 0.421209
Si Si5 0.927450 0.798503 0.077430
Si Si6 0.762249 0.697555 0.678079
Si Si7 0.695404 0.198248 0.078767
Si Si8 0.571163 0.703056 0.163284
O O1 0.411420 0.500000 0.664744
O O2 0.414834 0.168228 0.622580
O O3 0.315586 0.298745 0.684965
O O4 0.419123 0.256527 0.755629
O O5 0.318292 0.000000 0.421641
O O6 0.418621 0.000000 0.500000
O O7 0.177419 0.500000 0.815246
O O8 0.125015 0.761285 0.864808
O O9 0.206919 0.761327 0.750128
O O10 0.248634 0.719821 0.876142
O O11 0.220081 0.830248 0.381262
O O12 0.217601 0.000000 0.500000
O O13 0.000000 0.735895 0.092107
O O14 0.931011 0.000000 0.073127
O O15 0.908385 0.736866 0.000000
O O16 0.778842 0.500000 0.665014
O O17 0.627795 0.224613 0.116860
O O18 0.709766 0.000000 0.076726
O O19 0.693584 0.262313 0.000000
O O20 0.500000 0.757202 0.141122
O O21 0.575051 0.500000 0.158651
#
# Coordination Sequence:
#
# PCOD9387553 Si02
#       8
#     8   4   8   4   8   8   8   8
#     4   9  17  32  51  72 101 134 170 212 260 316
#     4   9  18  30  49  78 103 129 167 207 257 316
#     4  11  21  33  53  79 106 140 180 221 265 311
#     4   9  18  30  48  75 105 141 171 203 262 319
#     4   9  19  35  52  73 106 147 186 223 265 311
#     4   9  18  30  48  76 105 135 174 218 260 310
#     4  11  24  37  52  76 103 134 173 220 272 321
#     4  10  21  37  56  75  96 130 175 220 269 321
#
# _framework density 17.565353000000002
#
# number of rings (size 3 to 8) (size 9 to 14) (size 15 to 20)
#    0.000    2.286    1.429    1.714    3.000    4.571 
#    0.000    5.000    0.000    0.857    0.000    2.000 
#    0.000    1.143    0.000    3.143    0.000    0.143 
#
# Total GULP energy -312360.018925 kJ/mol
# GULP energy per Si atom -5577.857481 kJ/mol
# Density = 1.752537 g / cm^3
# Si number density = 17.565353 Si / 1000 Ang^3
#
#
#
# Elastic Constant Matrix: (Units=GPa)
#
#
# Indices 1 2 3 4 5 6 
#
# 1 61.7098 13.9425 37.2485 0.0000 0.0000 0.0000
# 2 13.9425 50.9821 40.5060 0.0000 0.0000 0.0000
# 3 37.2485 40.5060 125.3773 0.0000 0.0000 0.0000
# 4 0.0000 0.0000 0.0000 55.6968 0.0000 0.0000
# 5 0.0000 0.0000 0.0000 0.0000 41.8946 0.0000
# 6 0.0000 0.0000 0.0000 0.0000 0.0000 15.0316
#
#
#
# Elastic Compliance Matrix: (Units=1/GPa)
#
#
# Indices 1 2 3 4 5 6 
#
# 1 0.019783 -0.000996 -0.005556 0.000000 0.000000 0.000000
# 2 -0.000996 0.026438 -0.008246 0.000000 0.000000 0.000000
# 3 -0.005556 -0.008246 0.012290 0.000000 0.000000 0.000000
# 4 0.000000 0.000000 0.000000 0.017954 0.000000 0.000000
# 5 0.000000 0.000000 0.000000 0.000000 0.023869 0.000000
# 6 0.000000 0.000000 0.000000 0.000000 0.000000 0.066526
#
#
# Mechanical properties :
#
#
# Convention : Reuss Voigt Hill
#
# Bulk Modulus (GPa) = 34.58146 46.82925 40.70536
# Shear Modulus (GPa) = 24.26053 32.28276 28.27164
#
# Velocity S-wave (km/s) = 3.72043 4.29168 4.01622
# Velocity P-wave (km/s) = 6.17944 7.16072 6.68810
#
# Compressibility (1/GPa) = 0.02891723
#
# Stress axis : x y z
#
# Youngs Moduli (GPa) = 50.54751 37.82381 81.36475
#
# Poissons Ratio (x) = 0.03769 0.45203
# Poissons Ratio (y) = 0.05036 0.67089
# Poissons Ratio (z) = 0.28082 0.31188
#
# Static dielectric constant tensor:
#      x y z
#    x 1.596420 0.000000 0.000000 
#    y 0.000000 1.624890 0.000000 
#    z 0.000000 0.000000 1.606570 
# 
# From -- ./inp_files/11332.got.cif
#   From: 2010.05.17/outbox.cif.g08.bks.cpg/sg47_6_cif.got.tgz:11332.got - 2010.06.03 20:15:42.
