data_PCOD9387229
_publ_section_title
;
Structure prediction by ZEFSAII (Michael W. Deem and Ramdas Pophale) SiO2 
 PCOD9387229
Probable space group: P M M M
;
_chemical_formula_sum "Si O2"
_cell_formula_units_Z 48
_cell_length_a 9.328717
_cell_length_b 7.764055
_cell_length_c 32.051465
_cell_angle_alpha 90.000000
_cell_angle_beta 90.000000
_cell_angle_gamma 90.000000
_cell_volume 2321.445041
_symmetry_space_group_name_H-M "P M M M"
_symmetry_group_IT_number 47
_symmetry_cell_setting 'orthorhombic'
loop_
_space_group_symop_operation_xyz
x,y,z
-x,-y,z
x,-y,-z
-x,y,-z
-x,-y,-z
x,y,-z
-x,y,z
x,-y,z
loop_
_atom_site_type_symbol
_atom_site_label
_atom_site_fract_x
_atom_site_fract_y
_atom_site_fract_z
Si Si1 0.663431 0.707462 0.663554
Si Si2 0.662328 0.793166 0.826971
Si Si3 0.336880 0.205530 0.500000
Si Si4 0.164325 0.291789 0.909412
Si Si5 0.836984 0.792384 0.253169
Si Si6 0.837018 0.706627 0.583125
Si Si7 0.825352 0.300526 0.000000
O O1 0.500000 0.772436 0.664157
O O2 0.656848 0.500000 0.660191
O O3 0.746241 0.749167 0.705943
O O4 0.751462 0.773020 0.623502
O O5 0.500000 0.726164 0.825225
O O6 0.736626 0.755430 0.870933
O O7 0.757643 0.727540 0.788437
O O8 0.655687 0.000000 0.822745
O O9 0.500000 0.274507 0.500000
O O10 0.250815 0.258663 0.541184
O O11 0.344803 0.000000 0.500000
O O12 0.160010 0.500000 0.912296
O O13 0.215161 0.225598 0.954946
O O14 0.000000 0.233083 0.902195
O O15 0.000000 0.727539 0.256184
O O16 0.843625 0.000000 0.250359
O O17 0.846206 0.500000 0.587468
O O18 0.000000 0.773531 0.580895
O O19 0.777042 0.500000 0.000000
O O20 0.000000 0.301607 0.000000
#
# Coordination Sequence:
#
# PCOD9387229 Si02
#       7
#     8   8   4   8   8   8   4
#     4  10  21  37  58  84 112 142 176 215 261 313
#     4  10  21  36  52  72 102 139 175 212 257 309
#     4  11  24  39  56  82 114 147 184 225 268 314
#     4   9  17  31  53  78 101 129 168 213 259 307
#     4  10  21  37  57  79 103 136 177 218 262 311
#     4  10  21  38  60  84 110 143 182 222 266 315
#     4   7  12  26  48  73 100 128 162 207 256 305
#
# _framework density 20.676774999999999
#
# number of rings (size 3 to 8) (size 9 to 14) (size 15 to 20)
#    0.000    2.333    0.000    3.500    0.000    7.333 
#    0.000    0.833    0.000    4.000    0.000    0.000 
#    0.000    0.000    0.000    0.000    0.000    0.000 
#
# Total GULP energy -268030.038343 kJ/mol
# GULP energy per Si atom -5583.959132 kJ/mol
# Density = 2.062971 g / cm^3
# Si number density = 20.676775 Si / 1000 Ang^3
#
#
#
# Elastic Constant Matrix: (Units=GPa)
#
#
# Indices 1 2 3 4 5 6 
#
# 1 207.5300 10.3535 132.2645 0.0000 0.0000 0.0000
# 2 10.3535 28.6921 -0.7675 0.0000 0.0000 0.0000
# 3 132.2645 -0.7675 227.7395 0.0000 0.0000 0.0000
# 4 0.0000 0.0000 0.0000 36.8511 0.0000 0.0000
# 5 0.0000 0.0000 0.0000 0.0000 257.2102 0.0000
# 6 0.0000 0.0000 0.0000 0.0000 0.0000 20.5304
#
#
#
# Elastic Compliance Matrix: (Units=1/GPa)
#
#
# Indices 1 2 3 4 5 6 
#
# 1 0.007896 -0.002972 -0.004596 0.000000 0.000000 0.000000
# 2 -0.002972 0.035975 0.001847 0.000000 0.000000 0.000000
# 3 -0.004596 0.001847 0.007066 0.000000 0.000000 0.000000
# 4 0.000000 0.000000 0.000000 0.027136 0.000000 0.000000
# 5 0.000000 0.000000 0.000000 0.000000 0.003888 0.000000
# 6 0.000000 0.000000 0.000000 0.000000 0.000000 0.048708
#
#
# Mechanical properties :
#
#
# Convention : Reuss Voigt Hill
#
# Bulk Modulus (GPa) = 25.31907 83.07362 54.19635
# Shear Modulus (GPa) = 32.20089 84.39241 58.29665
#
# Velocity S-wave (km/s) = 3.95060 6.39560 5.31559
# Velocity P-wave (km/s) = 5.75165 9.73667 7.99638
#
# Compressibility (1/GPa) = 0.03949592
#
# Stress axis : x y z
#
# Youngs Moduli (GPa) = 126.64965 27.79729 141.51800
#
# Poissons Ratio (x) = 0.08262 0.65037
# Poissons Ratio (y) = 0.37642 -0.26143
# Poissons Ratio (z) = 0.58204 -0.05135
#
# Static dielectric constant tensor:
#      x y z
#    x 1.723350 0.000000 0.000000 
#    y 0.000000 1.772280 0.000000 
#    z 0.000000 0.000000 1.710900 
# 
# From -- ./inp_files/34200.got.cif
#   From: 2010.05.17/outbox.cif.g08.bks.cpg/sg47_18_cif.got.tgz:34200.got - 2010.06.03 20:15:42.
