data_PCOD9387040
_publ_section_title
;
Structure prediction by ZEFSAII (Michael W. Deem and Ramdas Pophale) SiO2 
 PCOD9387040
Probable space group: P M M M
;
_chemical_formula_sum "Si O2"
_cell_formula_units_Z 37
_cell_length_a 7.767841
_cell_length_b 14.608244
_cell_length_c 17.118090
_cell_angle_alpha 90.000000
_cell_angle_beta 90.000000
_cell_angle_gamma 90.000000
_cell_volume 1942.466989
_symmetry_space_group_name_H-M "P M M M"
_symmetry_group_IT_number 47
_symmetry_cell_setting 'orthorhombic'
loop_
_space_group_symop_operation_xyz
x,y,z
-x,-y,z
x,-y,-z
-x,y,-z
-x,-y,-z
x,y,-z
-x,y,z
x,-y,z
loop_
_atom_site_type_symbol
_atom_site_label
_atom_site_fract_x
_atom_site_fract_y
_atom_site_fract_z
Si Si1 0.693906 0.152912 0.000000
Si Si2 0.207616 0.896463 0.304584
Si Si3 0.704551 0.728804 0.412096
Si Si4 0.795372 0.397434 0.730866
Si Si5 0.000000 0.000000 0.000000
Si Si6 0.209731 0.767609 0.837166
O O1 0.717834 0.212766 0.921947
O O2 0.500000 0.114218 0.000000
O O3 0.847340 0.079173 0.000000
O O4 0.257758 0.827381 0.373497
O O5 0.260112 0.848711 0.223156
O O6 0.000000 0.899632 0.303508
O O7 0.272357 0.000000 0.312592
O O8 0.774301 0.721947 0.500000
O O9 0.500000 0.718194 0.415242
O O10 0.770989 0.652233 0.352308
O O11 0.723201 0.500000 0.732874
O O12 0.730643 0.326445 0.796323
O O13 0.000000 0.403609 0.743303
O O14 0.000000 0.767319 0.841040
#
# Coordination Sequence:
#
# PCOD9387040 Si02
#       6
#     4   8   8   8   1   8
#     4  12  25  39  62  91 120 162 202 236 292 346
#     4   9  19  34  56  79 104 144 188 230 282 337
#     4  10  21  35  50  74 111 149 183 229 288 339
#     4   9  19  37  62  86 107 142 188 231 286 347
#     4  12  26  44  60  86 130 160 192 260 284 322
#     4   9  18  36  59  80 118 152 180 237 294 336
#
# _framework density 19.047943
#
# number of rings (size 3 to 8) (size 9 to 14) (size 15 to 20)
#    0.000    2.378    1.081    2.108    1.514    6.919 
#    0.000    4.865    0.000    3.243    0.000    0.000 
#    0.000    0.000    0.000    0.000    0.000    0.000 
#
# Total GULP energy -206150.244402 kJ/mol
# GULP energy per Si atom -5571.628227 kJ/mol
# Density = 1.900459 g / cm^3
# Si number density = 19.047943 Si / 1000 Ang^3
#
#
#
# Elastic Constant Matrix: (Units=GPa)
#
#
# Indices 1 2 3 4 5 6 
#
# 1 60.1490 25.9696 18.3044 0.0000 0.0000 0.0000
# 2 25.9696 170.6599 73.8690 0.0000 0.0000 0.0000
# 3 18.3044 73.8690 152.8754 0.0000 0.0000 0.0000
# 4 0.0000 0.0000 0.0000 146.0958 0.0000 0.0000
# 5 0.0000 0.0000 0.0000 0.0000 28.4830 0.0000
# 6 0.0000 0.0000 0.0000 0.0000 0.0000 -2.6077
#
#
#
# Elastic Compliance Matrix: (Units=1/GPa)
#
#
# Indices 1 2 3 4 5 6 
#
# 1 0.017926 -0.002275 -0.001047 0.000000 0.000000 0.000000
# 2 -0.002275 0.007698 -0.003447 0.000000 0.000000 0.000000
# 3 -0.001047 -0.003447 0.008332 0.000000 0.000000 0.000000
# 4 0.000000 0.000000 0.000000 0.006845 0.000000 0.000000
# 5 0.000000 0.000000 0.000000 0.000000 0.035109 0.000000
# 6 0.000000 0.000000 0.000000 0.000000 0.000000 -0.383476
#
#
# Mechanical properties :
#
#
# Convention : Reuss Voigt Hill
#
# Bulk Modulus (GPa) = 48.97598 68.88559 58.93078
# Shear Modulus (GPa) = -17.40815 52.09696 17.34441
#
# Velocity S-wave (km/s) = -3.02638 5.23544 3.02083
# Velocity P-wave (km/s) = 3.68182 8.53166 6.57058
#
# Compressibility (1/GPa) = 0.02041817
#
# Stress axis : x y z
#
# Youngs Moduli (GPa) = 55.78446 129.90656 120.01391
#
# Poissons Ratio (x) = 0.29548 0.12569
# Poissons Ratio (y) = 0.12688 0.41372
# Poissons Ratio (z) = 0.05842 0.44782
#
# Static dielectric constant tensor:
#      x y z
#    x 1.687740 0.000000 0.000000 
#    y 0.000000 1.665010 0.000000 
#    z 0.000000 0.000000 1.646120 
# 
# From -- ./inp_files/20615.got.cif
#   From: 2010.05.17/outbox.cif.g08.bks.cpg/sg47_11_cif.got.tgz:20615.got - 2010.06.03 20:15:42.
