data_PCOD9387862
_publ_section_title
;
Structure prediction by ZEFSAII (Michael W. Deem and Ramdas Pophale) SiO2 
 PCOD9387862
Probable space group: P M M M
;
_chemical_formula_sum "Si O2"
_cell_formula_units_Z 48
_cell_length_a 8.663165
_cell_length_b 9.202942
_cell_length_c 31.993120
_cell_angle_alpha 90.000000
_cell_angle_beta 90.000000
_cell_angle_gamma 90.000000
_cell_volume 2550.702842
_symmetry_space_group_name_H-M "P M M M"
_symmetry_group_IT_number 47
_symmetry_cell_setting 'orthorhombic'
loop_
_space_group_symop_operation_xyz
x,y,z
-x,-y,z
x,-y,-z
-x,y,-z
-x,-y,-z
x,y,-z
-x,y,z
x,-y,z
loop_
_atom_site_type_symbol
_atom_site_label
_atom_site_fract_x
_atom_site_fract_y
_atom_site_fract_z
Si Si1 0.686465 0.168594 0.747506
Si Si2 0.685268 0.669328 0.500000
Si Si3 0.687184 0.170420 0.908659
Si Si4 0.686627 0.330609 0.337546
Si Si5 0.814883 0.830758 0.581276
Si Si6 0.815122 0.332047 0.171819
Si Si7 0.679435 0.823244 0.000000
O O1 0.500000 0.173880 0.749857
O O2 0.733897 0.254844 0.705827
O O3 0.752959 0.242529 0.788769
O O4 0.732737 0.000000 0.744755
O O5 0.732354 0.500000 0.500000
O O6 0.500000 0.675052 0.500000
O O7 0.747730 0.748980 0.541079
O O8 0.500000 0.178096 0.908757
O O9 0.752131 0.263211 0.870872
O O10 0.727568 0.000000 0.903039
O O11 0.744488 0.219603 0.954797
O O12 0.500000 0.323140 0.340206
O O13 0.731059 0.500000 0.337966
O O14 0.756077 0.246839 0.376883
O O15 0.000000 0.824604 0.579695
O O16 0.767556 0.000000 0.581028
O O17 0.766113 0.500000 0.175425
O O18 0.000000 0.326146 0.171533
O O19 0.500000 0.777252 0.000000
O O20 0.679514 0.000000 0.000000
#
# Coordination Sequence:
#
# PCOD9387862 Si02
#       7
#     8   4   8   8   8   8   4
#     4  10  21  38  61  86 109 138 180 228 276 325
#     4  11  24  41  62  88 116 149 192 239 286 334
#     4   9  17  32  56  82 105 133 173 220 269 321
#     4  10  21  38  61  88 116 147 184 225 272 328
#     4  11  24  40  59  86 119 154 192 232 276 328
#     4  11  24  38  51  73 108 147 183 220 267 322
#     4   7  12  26  50  79 106 130 164 215 268 317
#
# _framework density 18.818342000000001
#
# number of rings (size 3 to 8) (size 9 to 14) (size 15 to 20)
#    0.000    2.000    0.000    4.500    0.000   11.333 
#    0.000    0.833    0.000    4.000    0.000    0.000 
#    0.000    0.000    0.000    0.000    0.000    0.000 
#
# Total GULP energy -268106.560807 kJ/mol
# GULP energy per Si atom -5585.553350 kJ/mol
# Density = 1.877551 g / cm^3
# Si number density = 18.818342 Si / 1000 Ang^3
#
#
#
# Elastic Constant Matrix: (Units=GPa)
#
#
# Indices 1 2 3 4 5 6 
#
# 1 18.9232 44.6469 40.1991 0.0000 0.0000 0.0000
# 2 44.6469 176.7177 118.2276 0.0000 0.0000 0.0000
# 3 40.1991 118.2276 217.2923 0.0000 0.0000 0.0000
# 4 0.0000 0.0000 0.0000 123.1090 0.0000 0.0000
# 5 0.0000 0.0000 0.0000 0.0000 -109.1166 0.0000
# 6 0.0000 0.0000 0.0000 0.0000 0.0000 27.2310
#
#
#
# Elastic Compliance Matrix: (Units=1/GPa)
#
#
# Indices 1 2 3 4 5 6 
#
# 1 0.145533 -0.029491 -0.010878 0.000000 0.000000 0.000000
# 2 -0.029491 0.014874 -0.002637 0.000000 0.000000 0.000000
# 3 -0.010878 -0.002637 0.008049 0.000000 0.000000 0.000000
# 4 0.000000 0.000000 0.000000 0.008123 0.000000 0.000000
# 5 0.000000 0.000000 0.000000 0.000000 -0.009165 0.000000
# 6 0.000000 0.000000 0.000000 0.000000 0.000000 0.036723
#
#
# Mechanical properties :
#
#
# Convention : Reuss Voigt Hill
#
# Bulk Modulus (GPa) = 12.12928 91.00893 51.56911
# Shear Modulus (GPa) = 15.74157 22.23531 18.98844
#
# Velocity S-wave (km/s) = 2.89537 3.44114 3.17998
# Velocity P-wave (km/s) = 4.19965 8.01594 6.39892
#
# Compressibility (1/GPa) = 0.08244511
#
# Stress axis : x y z
#
# Youngs Moduli (GPa) = 6.87127 67.23335 124.23636
#
# Poissons Ratio (x) = 1.98277 1.35142
# Poissons Ratio (y) = 0.20264 0.32759
# Poissons Ratio (z) = 0.07474 0.17728
#
# Static dielectric constant tensor:
#      x y z
#    x 1.637050 0.000000 0.000000 
#    y 0.000000 1.633470 0.000000 
#    z 0.000000 0.000000 1.626510 
# 
# From -- ./inp_files/34130.got.cif
#   From: 2010.05.17/outbox.cif.g08.bks.cpg/sg47_18_cif.got.tgz:34130.got - 2010.06.03 20:15:42.
