data_PCOD9387400
_publ_section_title
;
Structure prediction by ZEFSAII (Michael W. Deem and Ramdas Pophale) SiO2 
 PCOD9387400
Probable space group: P M M M
;
_chemical_formula_sum "Si O2"
_cell_formula_units_Z 32
_cell_length_a 9.434358
_cell_length_b 8.057051
_cell_length_c 23.107274
_cell_angle_alpha 90.000000
_cell_angle_beta 90.000000
_cell_angle_gamma 90.000000
_cell_volume 1756.455612
_symmetry_space_group_name_H-M "P M M M"
_symmetry_group_IT_number 47
_symmetry_cell_setting 'orthorhombic'
loop_
_space_group_symop_operation_xyz
x,y,z
-x,-y,z
x,-y,-z
-x,y,-z
-x,-y,-z
x,y,-z
-x,y,z
x,-y,z
loop_
_atom_site_type_symbol
_atom_site_label
_atom_site_fract_x
_atom_site_fract_y
_atom_site_fract_z
Si Si1 0.161183 0.697319 0.389609
Si Si2 0.341146 0.197127 0.500000
Si Si3 0.329335 0.805615 0.147642
Si Si4 0.672388 0.500000 0.066257
Si Si5 0.162140 0.199266 0.736883
O O1 0.152727 0.500000 0.392267
O O2 0.256658 0.753833 0.442529
O O3 0.215718 0.744894 0.325916
O O4 0.000000 0.765613 0.394872
O O5 0.500000 0.268805 0.500000
O O6 0.351188 0.000000 0.500000
O O7 0.500000 0.800175 0.153061
O O8 0.286215 0.668513 0.100116
O O9 0.257586 0.755644 0.208371
O O10 0.291847 0.000000 0.134645
O O11 0.500000 0.500000 0.065310
O O12 0.722113 0.500000 0.000000
O O13 0.000000 0.261837 0.743475
O O14 0.157330 0.000000 0.735971
#
# Coordination Sequence:
#
# PCOD9387400 Si02
#       5
#     8   4   8   4   8
#     4  10  21  36  55  79 104 133 172 215 260 315
#     4  11  24  39  54  74 102 137 176 217 262 312
#     4   9  18  32  51  76 105 137 175 218 261 308
#     4   9  18  32  51  77 107 138 175 216 259 309
#     4   9  18  33  53  77 104 135 170 209 256 308
#
# _framework density 18.218508
#
# number of rings (size 3 to 8) (size 9 to 14) (size 15 to 20)
#    0.000    2.500    0.000    1.500    1.750    5.500 
#    0.000    5.000    0.000    1.500    0.000    3.500 
#    0.000    0.000    0.000    0.000    0.000    0.000 
#
# Total GULP energy -178408.484759 kJ/mol
# GULP energy per Si atom -5575.265149 kJ/mol
# Density = 1.817704 g / cm^3
# Si number density = 18.218508 Si / 1000 Ang^3
#
#
#
# Elastic Constant Matrix: (Units=GPa)
#
#
# Indices 1 2 3 4 5 6 
#
# 1 41.2110 29.3061 65.6096 0.0000 0.0000 0.0000
# 2 29.3061 72.3889 78.3024 0.0000 0.0000 0.0000
# 3 65.6096 78.3024 203.1156 0.0000 0.0000 0.0000
# 4 0.0000 0.0000 0.0000 37.6061 0.0000 0.0000
# 5 0.0000 0.0000 0.0000 0.0000 36.5311 0.0000
# 6 0.0000 0.0000 0.0000 0.0000 0.0000 15.0998
#
#
#
# Elastic Compliance Matrix: (Units=1/GPa)
#
#
# Indices 1 2 3 4 5 6 
#
# 1 0.050926 -0.004843 -0.014583 0.000000 0.000000 0.000000
# 2 -0.004843 0.024156 -0.007748 0.000000 0.000000 0.000000
# 3 -0.014583 -0.007748 0.012621 0.000000 0.000000 0.000000
# 4 0.000000 0.000000 0.000000 0.026591 0.000000 0.000000
# 5 0.000000 0.000000 0.000000 0.000000 0.027374 0.000000
# 6 0.000000 0.000000 0.000000 0.000000 0.000000 0.066226
#
#
# Mechanical properties :
#
#
# Convention : Reuss Voigt Hill
#
# Bulk Modulus (GPa) = 29.98040 73.68352 51.83196
# Shear Modulus (GPa) = 18.29098 27.41389 22.85244
#
# Velocity S-wave (km/s) = 3.17200 3.88329 3.54553
# Velocity P-wave (km/s) = 5.46874 7.78709 6.72852
#
# Compressibility (1/GPa) = 0.03335513
#
# Stress axis : x y z
#
# Youngs Moduli (GPa) = 19.63640 41.39826 79.23470
#
# Poissons Ratio (x) = 0.20047 1.15548
# Poissons Ratio (y) = 0.09509 0.61390
# Poissons Ratio (z) = 0.28636 0.32075
#
# Static dielectric constant tensor:
#      x y z
#    x 1.647600 0.000000 0.000000 
#    y 0.000000 1.636650 0.000000 
#    z 0.000000 0.000000 1.632140 
# 
# From -- ./inp_files/31608.got.cif
#   From: 2010.05.17/outbox.cif.g08.bks.cpg/sg47_16_cif.got.tgz:31608.got - 2010.06.03 20:15:42.
