data_PCOD9387941
_publ_section_title
;
Structure prediction by ZEFSAII (Michael W. Deem and Ramdas Pophale) SiO2 
 PCOD9387941
Probable space group: P M M M
;
_chemical_formula_sum "Si O2"
_cell_formula_units_Z 44
_cell_length_a 8.845715
_cell_length_b 33.447658
_cell_length_c 7.512532
_cell_angle_alpha 90.000000
_cell_angle_beta 90.000000
_cell_angle_gamma 90.000000
_cell_volume 2222.721199
_symmetry_space_group_name_H-M "P M M M"
_symmetry_group_IT_number 47
_symmetry_cell_setting 'orthorhombic'
loop_
_space_group_symop_operation_xyz
x,y,z
-x,-y,z
x,-y,-z
-x,y,-z
-x,-y,-z
x,y,-z
-x,y,z
x,-y,z
loop_
_atom_site_type_symbol
_atom_site_label
_atom_site_fract_x
_atom_site_fract_y
_atom_site_fract_z
Si Si1 0.678978 0.712407 0.212572
Si Si2 0.680374 0.858113 0.500000
Si Si3 0.819955 0.915924 0.211549
Si Si4 0.175657 0.457088 0.713461
Si Si5 0.827836 0.370055 0.788477
Si Si6 0.820139 0.229934 0.500000
Si Si7 0.326298 0.000000 0.216262
O O1 0.500000 0.715964 0.241682
O O2 0.734958 0.668359 0.272045
O O3 0.765237 0.745157 0.328158
O O4 0.707258 0.716766 0.000000
O O5 0.500000 0.857378 0.500000
O O6 0.740652 0.882234 0.328548
O O7 0.745553 0.813565 0.500000
O O8 0.757512 0.959364 0.268706
O O9 0.000000 0.914524 0.237756
O O10 0.789654 0.911054 0.000000
O O11 0.172739 0.458491 0.500000
O O12 0.240213 0.500000 0.775358
O O13 0.242505 0.413948 0.758487
O O14 0.000000 0.455868 0.776010
O O15 0.000000 0.369432 0.714642
O O16 0.839590 0.365984 0.000000
O O17 0.000000 0.226468 0.500000
O O18 0.500000 0.000000 0.276466
O O19 0.326622 0.000000 0.000000
#
# Coordination Sequence:
#
# PCOD9387941 Si02
#       7
#     8   4   8   8   8   4   4
#     4  10  22  41  63  88 119 152 189 236 292 354
#     4  12  26  43  63  90 124 159 202 248 298 365
#     4  10  21  39  63  91 126 167 210 257 305 353
#     4   8  14  24  39  64 100 139 179 223 271 324
#     4   9  17  29  48  76 105 136 181 231 279 333
#     4  12  26  44  67  91 117 151 194 244 297 356
#     4   9  17  32  57  90 126 165 211 258 307 360
#
# _framework density 19.795555
#
# number of rings (size 3 to 8) (size 9 to 14) (size 15 to 20)
#    0.000    2.273    0.000    3.545    1.273    4.727 
#    0.000    3.636    0.000    0.545    0.000    3.818 
#    0.000    0.000    0.000    0.000    0.000    0.000 
#
# Total GULP energy -245568.906246 kJ/mol
# GULP energy per Si atom -5581.111506 kJ/mol
# Density = 1.975050 g / cm^3
# Si number density = 19.795555 Si / 1000 Ang^3
#
#
#
# Elastic Constant Matrix: (Units=GPa)
#
#
# Indices 1 2 3 4 5 6 
#
# 1 117.1688 87.7937 53.3780 0.0000 0.0000 0.0000
# 2 87.7937 216.6308 59.9269 0.0000 0.0000 0.0000
# 3 53.3780 59.9269 75.9489 0.0000 0.0000 0.0000
# 4 0.0000 0.0000 0.0000 28.0868 0.0000 0.0000
# 5 0.0000 0.0000 0.0000 0.0000 22.7940 0.0000
# 6 0.0000 0.0000 0.0000 0.0000 0.0000 202.8268
#
#
#
# Elastic Compliance Matrix: (Units=1/GPa)
#
#
# Indices 1 2 3 4 5 6 
#
# 1 0.014851 -0.004006 -0.007277 0.000000 0.000000 0.000000
# 2 -0.004006 0.006986 -0.002697 0.000000 0.000000 0.000000
# 3 -0.007277 -0.002697 0.020409 0.000000 0.000000 0.000000
# 4 0.000000 0.000000 0.000000 0.035604 0.000000 0.000000
# 5 0.000000 0.000000 0.000000 0.000000 0.043871 0.000000
# 6 0.000000 0.000000 0.000000 0.000000 0.000000 0.004930
#
#
# Mechanical properties :
#
#
# Convention : Reuss Voigt Hill
#
# Bulk Modulus (GPa) = 69.99362 90.21620 80.10491
# Shear Modulus (GPa) = 31.37310 64.65150 48.01230
#
# Velocity S-wave (km/s) = 3.98534 5.72106 4.93019
# Velocity P-wave (km/s) = 7.52411 9.45059 8.54183
#
# Compressibility (1/GPa) = 0.01428702
#
# Stress axis : x y z
#
# Youngs Moduli (GPa) = 67.33410 143.15360 48.99824
#
# Poissons Ratio (x) = 0.57343 0.35656
# Poissons Ratio (y) = 0.26972 0.13213
# Poissons Ratio (z) = 0.48999 0.38603
#
# Static dielectric constant tensor:
#      x y z
#    x 1.669270 0.000000 0.000000 
#    y 0.000000 1.696780 0.000000 
#    z 0.000000 0.000000 1.717050 
# 
# From -- ./inp_files/2352.got.cif
#   From: 2010.05.17/outbox.cif.g08.bks.cpg/sg47_2_cif.got.tgz:2352.got - 2010.06.03 20:15:42.
