data_PCOD9387803
_publ_section_title
;
Structure prediction by ZEFSAII (Michael W. Deem and Ramdas Pophale) SiO2 
 PCOD9387803
Probable space group: P M M M
;
_chemical_formula_sum "Si O2"
_cell_formula_units_Z 56
_cell_length_a 17.196192
_cell_length_b 20.386223
_cell_length_c 9.422288
_cell_angle_alpha 90.000000
_cell_angle_beta 90.000000
_cell_angle_gamma 90.000000
_cell_volume 3303.128207
_symmetry_space_group_name_H-M "P M M M"
_symmetry_group_IT_number 47
_symmetry_cell_setting 'orthorhombic'
loop_
_space_group_symop_operation_xyz
x,y,z
-x,-y,z
x,-y,-z
-x,y,-z
-x,-y,-z
x,y,-z
-x,y,z
x,-y,z
loop_
_atom_site_type_symbol
_atom_site_label
_atom_site_fract_x
_atom_site_fract_y
_atom_site_fract_z
Si Si1 0.671815 0.425494 0.831973
Si Si2 0.323534 0.189393 0.169904
Si Si3 0.591492 0.077795 0.666516
Si Si4 0.593076 0.307804 0.666767
Si Si5 0.000000 0.763889 0.337296
Si Si6 0.847694 0.607043 0.166178
Si Si7 0.151080 0.235393 0.834295
Si Si8 0.000000 0.603888 0.336672
O O1 0.644275 0.500000 0.813005
O O2 0.626239 0.373819 0.737133
O O3 0.763797 0.422167 0.797451
O O4 0.664985 0.408297 0.000000
O O5 0.355849 0.121936 0.233280
O O6 0.370069 0.247417 0.247767
O O7 0.232317 0.200914 0.200151
O O8 0.334113 0.193248 0.000000
O O9 0.606222 0.092812 0.500000
O O10 0.500000 0.091747 0.692950
O O11 0.603215 0.000000 0.686687
O O12 0.613713 0.304023 0.500000
O O13 0.500000 0.305968 0.678427
O O14 0.078126 0.785830 0.258943
O O15 0.000000 0.683936 0.331939
O O16 0.000000 0.783923 0.500000
O O17 0.839013 0.685904 0.183689
O O18 0.921001 0.583791 0.257339
O O19 0.863298 0.594007 0.000000
O O20 0.133417 0.224594 0.000000
O O21 0.000000 0.583538 0.500000
#
# Coordination Sequence:
#
# PCOD9387803 Si02
#       8
#     8   8   8   8   4   8   8   4
#     4  10  21  38  58  77  98 129 173 222 269 317
#     4  11  21  34  55  84 111 139 178 222 263 306
#     4   9  19  36  55  77 111 152 186 216 258 313
#     4  11  24  39  55  76 104 137 172 214 267 323
#     4   9  17  27  43  72 103 132 170 210 250 302
#     4   9  16  31  50  70  97 131 166 205 258 315
#     4   9  17  30  48  71 103 137 168 208 260 311
#     4   9  17  27  44  72  99 127 165 206 249 302
#
# _framework density 16.953624999999999
#
# number of rings (size 3 to 8) (size 9 to 14) (size 15 to 20)
#    0.000    2.286    1.429    2.143    0.000    7.429 
#    0.000    2.500    0.000    2.143    0.000    0.500 
#    0.000    4.000    0.000    0.000    0.000    0.000 
#
# Total GULP energy -312569.833865 kJ/mol
# GULP energy per Si atom -5581.604176 kJ/mol
# Density = 1.691504 g / cm^3
# Si number density = 16.953625 Si / 1000 Ang^3
#
#
#
# Elastic Constant Matrix: (Units=GPa)
#
#
# Indices 1 2 3 4 5 6 
#
# 1 108.3204 51.0673 85.5614 0.0000 0.0000 0.0000
# 2 51.0673 56.2233 53.7328 0.0000 0.0000 0.0000
# 3 85.5614 53.7328 100.2666 0.0000 0.0000 0.0000
# 4 0.0000 0.0000 0.0000 18.3167 0.0000 0.0000
# 5 0.0000 0.0000 0.0000 0.0000 74.4067 0.0000
# 6 0.0000 0.0000 0.0000 0.0000 0.0000 39.6814
#
#
#
# Elastic Compliance Matrix: (Units=1/GPa)
#
#
# Indices 1 2 3 4 5 6 
#
# 1 0.029141 -0.005541 -0.021898 0.000000 0.000000 0.000000
# 2 -0.005541 0.037513 -0.015375 0.000000 0.000000 0.000000
# 3 -0.021898 -0.015375 0.036899 0.000000 0.000000 0.000000
# 4 0.000000 0.000000 0.000000 0.054595 0.000000 0.000000
# 5 0.000000 0.000000 0.000000 0.000000 0.013440 0.000000
# 6 0.000000 0.000000 0.000000 0.000000 0.000000 0.025201
#
#
# Mechanical properties :
#
#
# Convention : Reuss Voigt Hill
#
# Bulk Modulus (GPa) = 55.78554 71.72592 63.75573
# Shear Modulus (GPa) = 17.33761 31.44420 24.39091
#
# Velocity S-wave (km/s) = 3.20136 4.31132 3.79711
# Velocity P-wave (km/s) = 6.82943 8.19648 7.54398
#
# Compressibility (1/GPa) = 0.01792579
#
# Stress axis : x y z
#
# Youngs Moduli (GPa) = 34.31589 26.65768 27.10095
#
# Poissons Ratio (x) = 0.14770 0.59345
# Poissons Ratio (y) = 0.19014 0.41667
# Poissons Ratio (z) = 0.75145 0.40986
#
# Static dielectric constant tensor:
#      x y z
#    x 1.556660 0.000000 0.000000 
#    y 0.000000 1.570640 0.000000 
#    z 0.000000 0.000000 1.563970 
# 
# From -- ./inp_files/7459.got.cif
#   From: 2010.05.17/outbox.cif.g08.bks.cpg/sg47_4_cif.got.tgz:7459.got - 2010.06.03 20:15:42.
