data_PCOD9387006
_publ_section_title
;
Structure prediction by ZEFSAII (Michael W. Deem and Ramdas Pophale) SiO2 
 PCOD9387006
Probable space group: P M M M
;
_chemical_formula_sum "Si O2"
_cell_formula_units_Z 44
_cell_length_a 29.630279
_cell_length_b 9.654785
_cell_length_c 7.581259
_cell_angle_alpha 90.000000
_cell_angle_beta 90.000000
_cell_angle_gamma 90.000000
_cell_volume 2168.800884
_symmetry_space_group_name_H-M "P M M M"
_symmetry_group_IT_number 47
_symmetry_cell_setting 'orthorhombic'
loop_
_space_group_symop_operation_xyz
x,y,z
-x,-y,z
x,-y,-z
-x,y,-z
-x,-y,-z
x,y,-z
-x,y,z
x,-y,z
loop_
_atom_site_type_symbol
_atom_site_label
_atom_site_fract_x
_atom_site_fract_y
_atom_site_fract_z
Si Si1 0.684482 0.839367 0.711949
Si Si2 0.864068 0.655609 0.790121
Si Si3 0.782893 0.157760 0.790451
Si Si4 0.414353 0.161600 0.715363
Si Si5 0.500000 0.340222 0.283971
Si Si6 0.050973 0.842909 0.287351
O O1 0.683868 0.838461 0.500000
O O2 0.732774 0.779902 0.765518
O O3 0.635479 0.786117 0.770954
O O4 0.685557 0.000000 0.771523
O O5 0.865477 0.500000 0.717846
O O6 0.822850 0.747590 0.717453
O O7 0.910905 0.735835 0.765902
O O8 0.856698 0.644884 0.000000
O O9 0.784045 0.000000 0.717789
O O10 0.789737 0.146113 0.000000
O O11 0.414847 0.161442 0.500000
O O12 0.455470 0.257059 0.773709
O O13 0.419805 0.000000 0.767757
O O14 0.500000 0.500000 0.228440
O O15 0.500000 0.339426 0.500000
O O16 0.050143 0.845543 0.500000
O O17 0.000000 0.808860 0.227633
O O18 0.061748 0.000000 0.227403
#
# Coordination Sequence:
#
# PCOD9387006 Si02
#       6
#     8   8   8   8   4   8
#     4   8  14  25  42  64  87 111 143 183 224 267
#     4  10  21  35  50  71 100 131 162 196 233 276
#     4   9  17  30  48  68  90 118 153 192 232 272
#     4   8  13  22  36  53  75 105 139 172 209 258
#     4   9  15  21  31  51  80 109 134 166 212 259
#     4   9  19  36  56  77 100 126 158 196 237 281
#
# _framework density 20.287707999999999
#
# number of rings (size 3 to 8) (size 9 to 14) (size 15 to 20)
#    0.000    3.182    0.000    2.455    0.000    4.000 
#    0.000    5.455    0.000    1.091    0.000    0.636 
#    0.000    5.091    0.000    0.000    0.000    0.000 
#
# Total GULP energy -245233.440115 kJ/mol
# GULP energy per Si atom -5573.487275 kJ/mol
# Density = 2.024153 g / cm^3
# Si number density = 20.287708 Si / 1000 Ang^3
#
#
#
# Elastic Constant Matrix: (Units=GPa)
#
#
# Indices 1 2 3 4 5 6 
#
# 1 209.3830 119.5896 1.2042 0.0000 0.0000 0.0000
# 2 119.5896 121.2724 5.7505 0.0000 0.0000 0.0000
# 3 1.2042 5.7505 41.4695 0.0000 0.0000 0.0000
# 4 0.0000 0.0000 0.0000 4.4540 0.0000 0.0000
# 5 0.0000 0.0000 0.0000 0.0000 23.5621 0.0000
# 6 0.0000 0.0000 0.0000 0.0000 0.0000 -6.5486
#
#
#
# Elastic Compliance Matrix: (Units=1/GPa)
#
#
# Indices 1 2 3 4 5 6 
#
# 1 0.010993 -0.010897 0.001192 0.000000 0.000000 0.000000
# 2 -0.010897 0.019102 -0.002332 0.000000 0.000000 0.000000
# 3 0.001192 -0.002332 0.024403 0.000000 0.000000 0.000000
# 4 0.000000 0.000000 0.000000 0.224519 0.000000 0.000000
# 5 0.000000 0.000000 0.000000 0.000000 0.042441 0.000000
# 6 0.000000 0.000000 0.000000 0.000000 0.000000 -0.152704
#
#
# Mechanical properties :
#
#
# Convention : Reuss Voigt Hill
#
# Bulk Modulus (GPa) = 32.86979 69.46816 51.16897
# Shear Modulus (GPa) = 24.63422 20.66552 22.64987
#
# Velocity S-wave (km/s) = 3.48838 3.19505 3.34493
# Velocity P-wave (km/s) = 5.69755 6.92293 6.33991
#
# Compressibility (1/GPa) = 0.03042307
#
# Stress axis : x y z
#
# Youngs Moduli (GPa) = 90.96858 52.35033 40.97863
#
# Poissons Ratio (x) = 0.57045 -0.04884
# Poissons Ratio (y) = 0.99126 0.09558
# Poissons Ratio (z) = -0.10842 0.12210
#
# Static dielectric constant tensor:
#      x y z
#    x 1.734380 0.000000 0.000000 
#    y 0.000000 1.694100 0.000000 
#    z 0.000000 0.000000 1.769930 
# 
# From -- ./inp_files/13576.got.cif
#   From: 2010.05.17/outbox.cif.g08.bks.cpg/sg47_7_cif.got.tgz:13576.got - 2010.06.03 20:15:42.
