data_PCOD9387865
_publ_section_title
;
Structure prediction by ZEFSAII (Michael W. Deem and Ramdas Pophale) SiO2 
 PCOD9387865
Probable space group: P M M M
;
_chemical_formula_sum "Si O2"
_cell_formula_units_Z 48
_cell_length_a 31.987925
_cell_length_b 9.201197
_cell_length_c 8.679234
_cell_angle_alpha 90.000000
_cell_angle_beta 90.000000
_cell_angle_gamma 90.000000
_cell_volume 2554.534637
_symmetry_space_group_name_H-M "P M M M"
_symmetry_group_IT_number 47
_symmetry_cell_setting 'orthorhombic'
loop_
_space_group_symop_operation_xyz
x,y,z
-x,-y,z
x,-y,-z
-x,y,-z
-x,-y,-z
x,y,-z
-x,y,z
x,-y,z
loop_
_atom_site_type_symbol
_atom_site_label
_atom_site_fract_x
_atom_site_fract_y
_atom_site_fract_z
Si Si1 0.500000 0.176716 0.679181
Si Si2 0.166209 0.330813 0.186175
Si Si3 0.408552 0.829058 0.313155
Si Si4 0.000000 0.668638 0.684669
Si Si5 0.247151 0.168670 0.684720
Si Si6 0.081004 0.169093 0.813767
Si Si7 0.672050 0.668907 0.184641
O O1 0.500000 0.222353 0.500000
O O2 0.454769 0.219661 0.743775
O O3 0.500000 0.000000 0.679527
O O4 0.164492 0.500000 0.231063
O O5 0.206741 0.253516 0.254530
O O6 0.123895 0.248134 0.233392
O O7 0.168824 0.324301 0.000000
O O8 0.408291 0.819611 0.500000
O O9 0.370972 0.736826 0.245619
O O10 0.403054 0.000000 0.274694
O O11 0.958941 0.749044 0.746642
O O12 0.000000 0.500000 0.734452
O O13 0.000000 0.673095 0.500000
O O14 0.248002 0.174039 0.500000
O O15 0.288953 0.242552 0.748560
O O16 0.245177 0.000000 0.733055
O O17 0.081336 0.000000 0.767766
O O18 0.078639 0.174824 0.000000
O O19 0.675354 0.500000 0.230227
O O20 0.673025 0.677346 0.000000
#
# Coordination Sequence:
#
# PCOD9387865 Si02
#       7
#     4   8   8   4   8   8   8
#     4   7  12  26  50  79 108 136 170 217 268 317
#     4  10  21  38  61  88 116 147 183 223 270 325
#     4   9  17  32  56  83 108 137 177 223 270 321
#     4  11  24  39  56  82 116 153 192 235 284 332
#     4  11  24  40  59  84 111 141 180 225 273 325
#     4  10  21  38  61  87 114 148 190 232 276 328
#     4  11  24  39  54  76 108 145 183 223 270 323
#
# _framework density 18.790116000000001
#
# number of rings (size 3 to 8) (size 9 to 14) (size 15 to 20)
#    0.000    2.000    0.000    4.500    0.000   11.333 
#    0.000    0.833    0.000    4.000    0.000    0.000 
#    0.000    0.000    0.000    0.000    0.000    0.000 
#
# Total GULP energy -268108.390950 kJ/mol
# GULP energy per Si atom -5585.591478 kJ/mol
# Density = 1.874735 g / cm^3
# Si number density = 18.790116 Si / 1000 Ang^3
#
#
#
# Elastic Constant Matrix: (Units=GPa)
#
#
# Indices 1 2 3 4 5 6 
#
# 1 220.2675 120.2912 39.7320 0.0000 0.0000 0.0000
# 2 120.2912 177.5328 44.4979 0.0000 0.0000 0.0000
# 3 39.7320 44.4979 18.3226 0.0000 0.0000 0.0000
# 4 0.0000 0.0000 0.0000 33.0526 0.0000 0.0000
# 5 0.0000 0.0000 0.0000 0.0000 32.7993 0.0000
# 6 0.0000 0.0000 0.0000 0.0000 0.0000 128.8089
#
#
#
# Elastic Compliance Matrix: (Units=1/GPa)
#
#
# Indices 1 2 3 4 5 6 
#
# 1 0.007939 -0.002720 -0.010610 0.000000 0.000000 0.000000
# 2 -0.002720 0.015327 -0.031325 0.000000 0.000000 0.000000
# 3 -0.010610 -0.031325 0.153661 0.000000 0.000000 0.000000
# 4 0.000000 0.000000 0.000000 0.030255 0.000000 0.000000
# 5 0.000000 0.000000 0.000000 0.000000 0.030488 0.000000
# 6 0.000000 0.000000 0.000000 0.000000 0.000000 0.007763
#
#
# Mechanical properties :
#
#
# Convention : Reuss Voigt Hill
#
# Bulk Modulus (GPa) = 11.41338 91.68501 51.54919
# Shear Modulus (GPa) = 13.73812 53.03895 33.38853
#
# Velocity S-wave (km/s) = 2.70688 5.31868 4.21993
# Velocity P-wave (km/s) = 3.98208 9.30688 7.15803
#
# Compressibility (1/GPa) = 0.08761647
#
# Stress axis : x y z
#
# Youngs Moduli (GPa) = 125.95648 65.24318 6.50783
#
# Poissons Ratio (x) = 0.17746 0.06905
# Poissons Ratio (y) = 0.34260 0.20386
# Poissons Ratio (z) = 1.33644 2.04376
#
# Static dielectric constant tensor:
#      x y z
#    x 1.625030 0.000000 0.000000 
#    y 0.000000 1.632250 0.000000 
#    z 0.000000 0.000000 1.641130 
# 
# From -- ./inp_files/13848.got.cif
#   From: 2010.05.17/outbox.cif.g08.bks.cpg/sg47_7_cif.got.tgz:13848.got - 2010.06.03 20:15:42.
