data_PCOD9387558
_publ_section_title
;
Structure prediction by ZEFSAII (Michael W. Deem and Ramdas Pophale) SiO2 
 PCOD9387558
Probable space group: P M M M
;
_chemical_formula_sum "Si O2"
_cell_formula_units_Z 44
_cell_length_a 8.248331
_cell_length_b 9.679614
_cell_length_c 29.561654
_cell_angle_alpha 90.000000
_cell_angle_beta 90.000000
_cell_angle_gamma 90.000000
_cell_volume 2360.221973
_symmetry_space_group_name_H-M "P M M M"
_symmetry_group_IT_number 47
_symmetry_cell_setting 'orthorhombic'
loop_
_space_group_symop_operation_xyz
x,y,z
-x,-y,z
x,-y,-z
-x,y,-z
-x,-y,-z
x,y,-z
-x,y,z
x,-y,z
loop_
_atom_site_type_symbol
_atom_site_label
_atom_site_fract_x
_atom_site_fract_y
_atom_site_fract_z
Si Si1 0.303974 0.340657 0.634629
Si Si2 0.306434 0.157646 0.182385
Si Si3 0.813079 0.332042 0.000000
Si Si4 0.196281 0.340887 0.098590
Si Si5 0.697775 0.160249 0.449755
Si Si6 0.193681 0.659139 0.733956
O O1 0.500000 0.336989 0.634904
O O2 0.252777 0.500000 0.629114
O O3 0.245491 0.250509 0.592391
O O4 0.244998 0.293634 0.683858
O O5 0.500000 0.152973 0.180505
O O6 0.245815 0.240883 0.138696
O O7 0.257222 0.241900 0.226996
O O8 0.244094 0.000000 0.183307
O O9 0.741475 0.294572 0.951149
O O10 0.817282 0.500000 0.000000
O O11 0.000000 0.283017 0.000000
O O12 0.248860 0.500000 0.107060
O O13 0.000000 0.343872 0.096092
O O14 0.748941 0.207743 0.500000
O O15 0.500000 0.164366 0.449453
O O16 0.744330 0.000000 0.444615
O O17 0.253068 0.500000 0.739900
O O18 0.000000 0.656236 0.736513
#
# Coordination Sequence:
#
# PCOD9387558 Si02
#       6
#     8   8   4   8   8   8
#     4   9  17  29  47  72  99 125 156 198 246 293
#     4  11  24  38  51  72 103 136 169 206 250 299
#     4   7  12  26  50  79 106 130 162 205 246 287
#     4   9  17  32  56  82 105 132 168 208 249 293
#     4   8  14  25  42  66  96 128 161 197 237 282
#     4  10  21  37  56  76  98 127 165 208 254 304
#
# _framework density 18.642313999999999
#
# number of rings (size 3 to 8) (size 9 to 14) (size 15 to 20)
#    0.000    2.818    0.000    3.273    0.000    6.182 
#    0.000    4.545    0.000    4.909    0.000    3.818 
#    0.000    0.000    0.000    0.000    0.000    0.000 
#
# Total GULP energy -245287.732796 kJ/mol
# GULP energy per Si atom -5574.721200 kJ/mol
# Density = 1.859988 g / cm^3
# Si number density = 18.642314 Si / 1000 Ang^3
#
#
#
# Elastic Constant Matrix: (Units=GPa)
#
#
# Indices 1 2 3 4 5 6 
#
# 1 13.5771 14.4155 19.5504 0.0000 0.0000 0.0000
# 2 14.4155 97.0376 114.4872 0.0000 0.0000 0.0000
# 3 19.5504 114.4872 225.3519 0.0000 0.0000 0.0000
# 4 0.0000 0.0000 0.0000 -36.7458 0.0000 0.0000
# 5 0.0000 0.0000 0.0000 0.0000 24.1484 0.0000
# 6 0.0000 0.0000 0.0000 0.0000 0.0000 16.4495
#
#
#
# Elastic Compliance Matrix: (Units=1/GPa)
#
#
# Indices 1 2 3 4 5 6 
#
# 1 0.087997 -0.010148 -0.002478 0.000000 0.000000 0.000000
# 2 -0.010148 0.026895 -0.012783 0.000000 0.000000 0.000000
# 3 -0.002478 -0.012783 0.011147 0.000000 0.000000 0.000000
# 4 0.000000 0.000000 0.000000 -0.027214 0.000000 0.000000
# 5 0.000000 0.000000 0.000000 0.000000 0.041411 0.000000
# 6 0.000000 0.000000 0.000000 0.000000 0.000000 0.060792
#
#
# Mechanical properties :
#
#
# Convention : Reuss Voigt Hill
#
# Bulk Modulus (GPa) = 13.29451 70.31921 41.80686
# Shear Modulus (GPa) = 18.05573 13.27131 15.66352
#
# Velocity S-wave (km/s) = 3.11551 2.67102 2.90179
# Velocity P-wave (km/s) = 4.48204 6.87856 5.80531
#
# Compressibility (1/GPa) = 0.07521901
#
# Stress axis : x y z
#
# Youngs Moduli (GPa) = 11.36397 37.18207 89.71175
#
# Poissons Ratio (x) = 0.37734 0.22234
# Poissons Ratio (y) = 0.11533 1.14679
# Poissons Ratio (z) = 0.02816 0.47530
#
# Static dielectric constant tensor:
#      x y z
#    x 1.661700 0.000000 0.000000 
#    y 0.000000 1.632520 0.000000 
#    z 0.000000 0.000000 1.648700 
# 
# From -- ./inp_files/33908.got.cif
#   From: 2010.05.17/outbox.cif.g08.bks.cpg/sg47_17_cif.got.tgz:33908.got - 2010.06.03 20:15:42.
