data_PCOD9387366
_publ_section_title
;
Structure prediction by ZEFSAII (Michael W. Deem and Ramdas Pophale) SiO2 
 PCOD9387366
Probable space group: P M M M
;
_chemical_formula_sum "Si O2"
_cell_formula_units_Z 44
_cell_length_a 9.229470
_cell_length_b 7.833803
_cell_length_c 30.288171
_cell_angle_alpha 90.000000
_cell_angle_beta 90.000000
_cell_angle_gamma 90.000000
_cell_volume 2189.890790
_symmetry_space_group_name_H-M "P M M M"
_symmetry_group_IT_number 47
_symmetry_cell_setting 'orthorhombic'
loop_
_space_group_symop_operation_xyz
x,y,z
-x,-y,z
x,-y,-z
-x,y,-z
-x,-y,-z
x,y,-z
-x,y,z
x,-y,z
loop_
_atom_site_type_symbol
_atom_site_label
_atom_site_fract_x
_atom_site_fract_y
_atom_site_fract_z
Si Si1 0.167491 0.702705 0.811154
Si Si2 0.666306 0.705928 0.450722
Si Si3 0.334050 0.207069 0.722413
Si Si4 0.163216 0.795690 0.363464
Si Si5 0.671916 0.806198 0.898175
Si Si6 0.830846 0.500000 0.947160
O O1 0.170503 0.500000 0.819932
O O2 0.238200 0.736306 0.763732
O O3 0.260928 0.790617 0.849280
O O4 0.000000 0.759527 0.811990
O O5 0.710955 0.763216 0.500000
O O6 0.500000 0.763059 0.443329
O O7 0.665119 0.500000 0.451204
O O8 0.766992 0.761382 0.410885
O O9 0.500000 0.265486 0.726688
O O10 0.263186 0.268009 0.676571
O O11 0.335590 0.000000 0.722129
O O12 0.000000 0.727006 0.360540
O O13 0.155727 0.000000 0.358306
O O14 0.500000 0.771720 0.896640
O O15 0.752409 0.666471 0.927706
O O16 0.693438 0.000000 0.914300
O O17 0.000000 0.500000 0.933680
O O18 0.822936 0.500000 0.000000
#
# Coordination Sequence:
#
# PCOD9387366 Si02
#       6
#     8   8   8   8   8   4
#     4  11  23  38  59  89 124 162 205 252 305 366
#     4   9  19  36  56  77 102 135 177 224 276 338
#     4  10  21  37  57  81 110 148 194 240 291 352
#     4  10  21  36  54  78 109 143 181 229 285 345
#     4  11  24  42  67  98 132 173 219 268 324 383
#     4  11  25  45  69  99 135 175 221 273 326 381
#
# _framework density 20.092326
#
# number of rings (size 3 to 8) (size 9 to 14) (size 15 to 20)
#    0.000    1.727    0.909    3.545    0.000    9.818 
#    0.000    4.545    0.000    0.000    0.000    0.000 
#    0.000    0.000    0.000    0.000    0.000    0.000 
#
# Total GULP energy -245962.151160 kJ/mol
# GULP energy per Si atom -5590.048890 kJ/mol
# Density = 2.004660 g / cm^3
# Si number density = 20.092326 Si / 1000 Ang^3
#
#
#
# Elastic Constant Matrix: (Units=GPa)
#
#
# Indices 1 2 3 4 5 6 
#
# 1 167.9947 58.5484 75.1104 0.0000 0.0000 0.0000
# 2 58.5484 67.5532 34.8685 0.0000 0.0000 0.0000
# 3 75.1104 34.8685 113.6062 0.0000 0.0000 0.0000
# 4 0.0000 0.0000 0.0000 32.6283 0.0000 0.0000
# 5 0.0000 0.0000 0.0000 0.0000 38.9430 0.0000
# 6 0.0000 0.0000 0.0000 0.0000 0.0000 17.4342
#
#
#
# Elastic Compliance Matrix: (Units=1/GPa)
#
#
# Indices 1 2 3 4 5 6 
#
# 1 0.010398 -0.006492 -0.004882 0.000000 0.000000 0.000000
# 2 -0.006492 0.021643 -0.002351 0.000000 0.000000 0.000000
# 3 -0.004882 -0.002351 0.012752 0.000000 0.000000 0.000000
# 4 0.000000 0.000000 0.000000 0.030648 0.000000 0.000000
# 5 0.000000 0.000000 0.000000 0.000000 0.025679 0.000000
# 6 0.000000 0.000000 0.000000 0.000000 0.000000 0.057359
#
#
# Mechanical properties :
#
#
# Convention : Reuss Voigt Hill
#
# Bulk Modulus (GPa) = 57.65925 76.24543 66.95234
# Shear Modulus (GPa) = 26.08133 29.84286 27.96210
#
# Velocity S-wave (km/s) = 3.60679 3.85812 3.73457
# Velocity P-wave (km/s) = 6.79004 7.60768 7.21046
#
# Compressibility (1/GPa) = 0.01734327
#
# Stress axis : x y z
#
# Youngs Moduli (GPa) = 96.17414 46.20425 78.42214
#
# Poissons Ratio (x) = 0.29995 0.38285
# Poissons Ratio (y) = 0.62435 0.18435
# Poissons Ratio (z) = 0.46952 0.10861
#
# Static dielectric constant tensor:
#      x y z
#    x 1.687580 0.000000 0.000000 
#    y 0.000000 1.728200 0.000000 
#    z 0.000000 0.000000 1.674880 
# 
# From -- ./inp_files/33910.got.cif
#   From: 2010.05.17/outbox.cif.g08.bks.cpg/sg47_17_cif.got.tgz:33910.got - 2010.06.03 20:15:42.
