data_PCOD9387764
_publ_section_title
;
Structure prediction by ZEFSAII (Michael W. Deem and Ramdas Pophale) SiO2 
 PCOD9387764
Probable space group: P M M M
;
_chemical_formula_sum "Si O2"
_cell_formula_units_Z 56
_cell_length_a 22.026952
_cell_length_b 14.341210
_cell_length_c 10.041568
_cell_angle_alpha 90.000000
_cell_angle_beta 90.000000
_cell_angle_gamma 90.000000
_cell_volume 3172.062489
_symmetry_space_group_name_H-M "P M M M"
_symmetry_group_IT_number 47
_symmetry_cell_setting 'orthorhombic'
loop_
_space_group_symop_operation_xyz
x,y,z
-x,-y,z
x,-y,-z
-x,y,-z
-x,-y,-z
x,y,-z
-x,y,z
x,-y,z
loop_
_atom_site_type_symbol
_atom_site_label
_atom_site_fract_x
_atom_site_fract_y
_atom_site_fract_z
Si Si1 0.315124 0.889847 0.341570
Si Si2 0.569296 0.238235 0.343825
Si Si3 0.123419 0.343946 0.152048
Si Si4 0.626543 0.389769 0.843115
Si Si5 0.072983 0.500000 0.657084
Si Si6 0.928552 0.144494 0.142745
Si Si7 0.074488 0.000000 0.351920
Si Si8 0.743208 0.260741 0.154912
O O1 0.302098 0.880352 0.500000
O O2 0.381784 0.843619 0.318306
O O3 0.271312 0.825054 0.252557
O O4 0.313462 0.000000 0.309061
O O5 0.575855 0.264320 0.500000
O O6 0.500000 0.207662 0.322265
O O7 0.584250 0.326670 0.250701
O O8 0.101255 0.413181 0.264546
O O9 0.080940 0.253477 0.155515
O O10 0.191085 0.305884 0.175982
O O11 0.120991 0.382443 0.000000
O O12 0.626841 0.500000 0.810746
O O13 0.692644 0.341574 0.826738
O O14 0.610139 0.380921 0.000000
O O15 0.086885 0.500000 0.500000
O O16 0.000000 0.500000 0.671710
O O17 0.904501 0.088621 0.267751
O O18 0.000000 0.123701 0.137578
O O19 0.901485 0.115571 0.000000
O O20 0.098035 0.000000 0.500000
O O21 0.000000 0.000000 0.359220
O O22 0.739757 0.230236 0.000000
#
# Coordination Sequence:
#
# PCOD9387764 Si02
#       8
#     8   8   8   8   4   8   4   8
#     4   9  18  34  55  77 106 144 180 218 268 322
#     4   9  18  32  50  75 106 138 178 225 266 311
#     4  10  21  37  59  82 104 137 180 224 264 311
#     4   9  18  32  51  73 101 138 175 215 266 320
#     4  11  25  41  57  83 117 147 174 213 270 329
#     4   9  17  31  51  74 100 130 166 210 258 306
#     4   9  17  29  47  71  97 129 165 199 244 303
#     4   9  19  35  55  79 104 134 176 225 268 310
#
# _framework density 17.654129000000001
#
# number of rings (size 3 to 8) (size 9 to 14) (size 15 to 20)
#    0.000    2.714    0.000    0.857    1.000    4.571 
#    1.286    4.286    0.000    0.000    0.000    4.000 
#    0.000    0.000    0.000    0.000    0.000    0.000 
#
# Total GULP energy -312014.869141 kJ/mol
# GULP energy per Si atom -5571.694092 kJ/mol
# Density = 1.761395 g / cm^3
# Si number density = 17.654129 Si / 1000 Ang^3
#
#
#
# Elastic Constant Matrix: (Units=GPa)
#
#
# Indices 1 2 3 4 5 6 
#
# 1 50.5042 26.6688 49.8513 0.0000 0.0000 0.0000
# 2 26.6688 122.5234 86.8433 0.0000 0.0000 0.0000
# 3 49.8513 86.8433 136.3267 0.0000 0.0000 0.0000
# 4 0.0000 0.0000 0.0000 43.7493 0.0000 0.0000
# 5 0.0000 0.0000 0.0000 0.0000 23.2497 0.0000
# 6 0.0000 0.0000 0.0000 0.0000 0.0000 13.7780
#
#
#
# Elastic Compliance Matrix: (Units=1/GPa)
#
#
# Indices 1 2 3 4 5 6 
#
# 1 0.031358 0.002374 -0.012979 0.000000 0.000000 0.000000
# 2 0.002374 0.015060 -0.010462 0.000000 0.000000 0.000000
# 3 -0.012979 -0.010462 0.018746 0.000000 0.000000 0.000000
# 4 0.000000 0.000000 0.000000 0.022858 0.000000 0.000000
# 5 0.000000 0.000000 0.000000 0.000000 0.043011 0.000000
# 6 0.000000 0.000000 0.000000 0.000000 0.000000 0.072579
#
#
# Mechanical properties :
#
#
# Convention : Reuss Voigt Hill
#
# Bulk Modulus (GPa) = 43.42115 70.67570 57.04842
# Shear Modulus (GPa) = 19.72984 25.88813 22.80898
#
# Velocity S-wave (km/s) = 3.34664 3.83352 3.59833
# Velocity P-wave (km/s) = 6.29144 7.72755 7.04618
#
# Compressibility (1/GPa) = 0.02303025
#
# Stress axis : x y z
#
# Youngs Moduli (GPa) = 31.88964 66.40020 53.34494
#
# Poissons Ratio (x) = -0.15764 0.69238
# Poissons Ratio (y) = -0.07571 0.55809
# Poissons Ratio (z) = 0.41390 0.69467
#
# Static dielectric constant tensor:
#      x y z
#    x 1.616170 0.000000 0.000000 
#    y 0.000000 1.580920 0.000000 
#    z 0.000000 0.000000 1.607160 
# 
# From -- ./inp_files/11306.got.cif
#   From: 2010.05.17/outbox.cif.g08.bks.cpg/sg47_6_cif.got.tgz:11306.got - 2010.06.03 20:15:42.
