data_PCOD9387647
_publ_section_title
;
Structure prediction by ZEFSAII (Michael W. Deem and Ramdas Pophale) SiO2 
 PCOD9387647
Probable space group: P M M M
;
_chemical_formula_sum "Si O2"
_cell_formula_units_Z 44
_cell_length_a 9.592172
_cell_length_b 7.535495
_cell_length_c 29.198452
_cell_angle_alpha 90.000000
_cell_angle_beta 90.000000
_cell_angle_gamma 90.000000
_cell_volume 2110.515621
_symmetry_space_group_name_H-M "P M M M"
_symmetry_group_IT_number 47
_symmetry_cell_setting 'orthorhombic'
loop_
_space_group_symop_operation_xyz
x,y,z
-x,-y,z
x,-y,-z
-x,y,-z
-x,-y,-z
x,y,-z
-x,y,z
x,-y,z
loop_
_atom_site_type_symbol
_atom_site_label
_atom_site_fract_x
_atom_site_fract_y
_atom_site_fract_z
Si Si1 0.157697 0.211718 0.410874
Si Si2 0.340935 0.787559 0.672856
Si Si3 0.159888 0.282529 0.138015
Si Si4 0.341218 0.712925 0.223742
Si Si5 0.341348 0.711079 0.500000
Si Si6 0.660697 0.283670 0.948585
O O1 0.238120 0.282462 0.366146
O O2 0.253707 0.238659 0.455180
O O3 0.000000 0.281467 0.416537
O O4 0.145640 0.000000 0.404949
O O5 0.500000 0.718682 0.668045
O O6 0.293209 0.752855 0.724716
O O7 0.348414 0.000000 0.667352
O O8 0.160977 0.500000 0.138020
O O9 0.242277 0.222868 0.183248
O O10 0.240177 0.224644 0.092251
O O11 0.000000 0.226112 0.138362
O O12 0.500000 0.780686 0.218972
O O13 0.347314 0.500000 0.219614
O O14 0.351888 0.500000 0.500000
O O15 0.500000 0.783465 0.500000
O O16 0.500000 0.230848 0.940578
O O17 0.662256 0.500000 0.948428
O O18 0.701339 0.227716 0.000000
#
# Coordination Sequence:
#
# PCOD9387647 Si02
#       6
#     8   8   8   8   4   8
#     4  10  21  37  57  80 105 134 167 202 244 294
#     4   9  18  33  52  73  97 126 161 200 239 279
#     4   9  16  24  35  54  81 112 146 185 229 276
#     4   9  17  29  45  64  88 120 155 190 230 278
#     4  11  24  39  56  80 108 137 170 207 244 284
#     4   8  13  21  33  49  72 106 146 184 223 270
#
# _framework density 20.847985999999999
#
# number of rings (size 3 to 8) (size 9 to 14) (size 15 to 20)
#    0.000    2.818    0.000    2.182    0.000    6.909 
#    0.000    3.636    0.000    0.000    0.000    0.000 
#    0.000    0.727    0.000    8.364    0.000   10.727 
#
# Total GULP energy -245615.976377 kJ/mol
# GULP energy per Si atom -5582.181281 kJ/mol
# Density = 2.080053 g / cm^3
# Si number density = 20.847986 Si / 1000 Ang^3
#
#
#
# Elastic Constant Matrix: (Units=GPa)
#
#
# Indices 1 2 3 4 5 6 
#
# 1 174.1581 5.9220 157.0741 0.0000 0.0000 0.0000
# 2 5.9220 51.9515 -1.1939 0.0000 0.0000 0.0000
# 3 157.0741 -1.1939 232.6785 0.0000 0.0000 0.0000
# 4 0.0000 0.0000 0.0000 20.7306 0.0000 0.0000
# 5 0.0000 0.0000 0.0000 0.0000 -52.5677 0.0000
# 6 0.0000 0.0000 0.0000 0.0000 0.0000 2.9109
#
#
#
# Elastic Compliance Matrix: (Units=1/GPa)
#
#
# Indices 1 2 3 4 5 6 
#
# 1 0.014870 -0.001926 -0.010048 0.000000 0.000000 0.000000
# 2 -0.001926 0.019500 0.001400 0.000000 0.000000 0.000000
# 3 -0.010048 0.001400 0.011088 0.000000 0.000000 0.000000
# 4 0.000000 0.000000 0.000000 0.048238 0.000000 0.000000
# 5 0.000000 0.000000 0.000000 0.000000 -0.019023 0.000000
# 6 0.000000 0.000000 0.000000 0.000000 0.000000 0.343540
#
#
# Mechanical properties :
#
#
# Convention : Reuss Voigt Hill
#
# Bulk Modulus (GPa) = 41.13397 86.93248 64.03322
# Shear Modulus (GPa) = 11.17407 14.01382 12.59395
#
# Velocity S-wave (km/s) = 2.31763 2.59548 2.46048
# Velocity P-wave (km/s) = 5.18991 7.12536 6.23322
#
# Compressibility (1/GPa) = 0.02431081
#
# Stress axis : x y z
#
# Youngs Moduli (GPa) = 67.25075 51.28086 90.18724
#
# Poissons Ratio (x) = 0.09876 0.90620
# Poissons Ratio (y) = 0.12952 -0.12628
# Poissons Ratio (z) = 0.67573 -0.07180
#
# Static dielectric constant tensor:
#      x y z
#    x 1.727880 0.000000 0.000000 
#    y 0.000000 1.797850 0.000000 
#    z 0.000000 0.000000 1.715400 
# 
# From -- ./inp_files/2103.got.cif
#   From: 2010.05.17/outbox.cif.g08.bks.cpg/sg47_2_cif.got.tgz:2103.got - 2010.06.03 20:15:42.
