data_PCOD9387971
_publ_section_title
;
Structure prediction by ZEFSAII (Michael W. Deem and Ramdas Pophale) SiO2 
 PCOD9387971
Probable space group: P M M M
;
_chemical_formula_sum "Si O2"
_cell_formula_units_Z 52
_cell_length_a 19.413519
_cell_length_b 8.884678
_cell_length_c 15.859089
_cell_angle_alpha 90.000000
_cell_angle_beta 90.000000
_cell_angle_gamma 90.000000
_cell_volume 2735.421110
_symmetry_space_group_name_H-M "P M M M"
_symmetry_group_IT_number 47
_symmetry_cell_setting 'orthorhombic'
loop_
_space_group_symop_operation_xyz
x,y,z
-x,-y,z
x,-y,-z
-x,y,-z
-x,-y,-z
x,y,-z
-x,y,z
x,-y,z
loop_
_atom_site_type_symbol
_atom_site_label
_atom_site_fract_x
_atom_site_fract_y
_atom_site_fract_z
Si Si1 0.341637 0.320128 0.407055
Si Si2 0.183545 0.320748 0.365524
Si Si3 0.200550 0.824325 0.817513
Si Si4 0.580806 0.820767 0.752207
Si Si5 0.921619 0.330609 0.101174
Si Si6 0.665643 0.680683 0.902030
Si Si7 0.081138 0.819002 0.500000
O O1 0.367509 0.273792 0.500000
O O2 0.352032 0.500000 0.398063
O O3 0.259443 0.294243 0.404370
O O4 0.377584 0.239427 0.328766
O O5 0.172220 0.500000 0.363229
O O6 0.189859 0.253139 0.272569
O O7 0.123218 0.244990 0.419857
O O8 0.130064 0.793601 0.866568
O O9 0.261966 0.745940 0.868935
O O10 0.215687 0.000000 0.807624
O O11 0.500000 0.788242 0.741717
O O12 0.609591 0.744335 0.836965
O O13 0.590330 0.000000 0.758774
O O14 0.899274 0.500000 0.127831
O O15 0.000000 0.308289 0.130298
O O16 0.921957 0.330170 0.000000
O O17 0.667305 0.500000 0.896716
O O18 0.654135 0.722546 0.000000
O O19 0.000000 0.776285 0.500000
O O20 0.084819 0.000000 0.500000
#
# Coordination Sequence:
#
# PCOD9387971 Si02
#       7
#     8   8   8   8   8   8   4
#     4  10  21  40  67  96 125 161 208 258 309 370
#     4  11  22  40  65  90 120 162 209 255 307 370
#     4  12  24  37  59  91 124 158 202 257 315 373
#     4  11  25  43  64  95 133 169 207 256 316 382
#     4   9  19  37  59  82 112 153 199 246 299 360
#     4  11  24  42  65  92 124 167 218 267 317 381
#     4  11  25  43  63  93 132 169 210 263 321 380
#
# _framework density 19.009868999999998
#
# number of rings (size 3 to 8) (size 9 to 14) (size 15 to 20)
#    0.000    1.308    2.308    3.923    0.000    7.692 
#    0.000    3.846    0.000    0.000    0.000    0.000 
#    0.000    0.000    0.000    0.000    0.000    0.000 
#
# Total GULP energy -290567.009509 kJ/mol
# GULP energy per Si atom -5587.827106 kJ/mol
# Density = 1.896660 g / cm^3
# Si number density = 19.009869 Si / 1000 Ang^3
#
#
#
# Elastic Constant Matrix: (Units=GPa)
#
#
# Indices 1 2 3 4 5 6 
#
# 1 110.2975 67.1462 71.0757 0.0000 0.0000 0.0000
# 2 67.1462 82.2481 63.9863 0.0000 0.0000 0.0000
# 3 71.0757 63.9863 152.2873 0.0000 0.0000 0.0000
# 4 0.0000 0.0000 0.0000 -1.3940 0.0000 0.0000
# 5 0.0000 0.0000 0.0000 0.0000 24.3455 0.0000
# 6 0.0000 0.0000 0.0000 0.0000 0.0000 32.4785
#
#
#
# Elastic Compliance Matrix: (Units=1/GPa)
#
#
# Indices 1 2 3 4 5 6 
#
# 1 0.019224 -0.012946 -0.003533 0.000000 0.000000 0.000000
# 2 -0.012946 0.026780 -0.005210 0.000000 0.000000 0.000000
# 3 -0.003533 -0.005210 0.010405 0.000000 0.000000 0.000000
# 4 0.000000 0.000000 0.000000 -0.717371 0.000000 0.000000
# 5 0.000000 0.000000 0.000000 0.000000 0.041075 0.000000
# 6 0.000000 0.000000 0.000000 0.000000 0.000000 0.030790
#
#
# Mechanical properties :
#
#
# Convention : Reuss Voigt Hill
#
# Bulk Modulus (GPa) = 76.73813 83.24991 79.99402
# Shear Modulus (GPa) = -9.23574 20.59433 5.67930
#
# Velocity S-wave (km/s) = -2.20657 3.29500 1.73033
# Velocity P-wave (km/s) = 5.82780 7.63964 6.79438
#
# Compressibility (1/GPa) = 0.01303133
#
# Stress axis : x y z
#
# Youngs Moduli (GPa) = 52.01835 37.34066 96.11170
#
# Poissons Ratio (x) = 0.48340 0.33955
# Poissons Ratio (y) = 0.67342 0.50076
# Poissons Ratio (z) = 0.18377 0.19455
#
# Static dielectric constant tensor:
#      x y z
#    x 1.648030 0.000000 0.000000 
#    y 0.000000 1.644980 0.000000 
#    z 0.000000 0.000000 1.668700 
# 
# From -- ./inp_files/25040.got.cif
#   From: 2010.05.17/outbox.cif.g08.bks.cpg/sg47_13_cif.got.tgz:25040.got - 2010.06.03 20:15:42.
