data_PCOD9387009
_publ_section_title
;
Structure prediction by ZEFSAII (Michael W. Deem and Ramdas Pophale) SiO2 
 PCOD9387009
Probable space group: P M M M
;
_chemical_formula_sum "Si O2"
_cell_formula_units_Z 48
_cell_length_a 33.915854
_cell_length_b 7.435787
_cell_length_c 9.540278
_cell_angle_alpha 90.000000
_cell_angle_beta 90.000000
_cell_angle_gamma 90.000000
_cell_volume 2405.972881
_symmetry_space_group_name_H-M "P M M M"
_symmetry_group_IT_number 47
_symmetry_cell_setting 'orthorhombic'
loop_
_space_group_symop_operation_xyz
x,y,z
-x,-y,z
x,-y,-z
-x,y,-z
-x,-y,-z
x,y,-z
-x,y,z
x,-y,z
loop_
_atom_site_type_symbol
_atom_site_label
_atom_site_fract_x
_atom_site_fract_y
_atom_site_fract_z
Si Si1 0.500000 0.719592 0.661652
Si Si2 0.184320 0.786423 0.157419
Si Si3 0.423721 0.280185 0.838756
Si Si4 0.955296 0.500000 0.670078
Si Si5 0.739625 0.715918 0.658647
Si Si6 0.109094 0.786105 0.333879
Si Si7 0.348859 0.280873 0.661745
O O1 0.500000 0.500000 0.660071
O O2 0.500000 0.777951 0.500000
O O3 0.538955 0.775812 0.745735
O O4 0.225500 0.760630 0.236540
O O5 0.147400 0.721377 0.249044
O O6 0.178581 0.000000 0.147726
O O7 0.185080 0.712529 0.000000
O O8 0.423710 0.500000 0.839123
O O9 0.383231 0.221127 0.765119
O O10 0.426841 0.222860 0.000000
O O11 0.957468 0.500000 0.500000
O O12 0.929336 0.673671 0.709064
O O13 0.000000 0.500000 0.723546
O O14 0.748122 0.780370 0.500000
O O15 0.737735 0.500000 0.652461
O O16 0.695579 0.777653 0.698971
O O17 0.115957 0.756675 0.500000
O O18 0.103421 0.000000 0.313681
O O19 0.356581 0.228824 0.500000
O O20 0.349158 0.500000 0.664107
#
# Coordination Sequence:
#
# PCOD9387009 Si02
#       7
#     4   8   8   4   8   8   8
#     4   9  15  21  29  41  59  91 136 181 226 277
#     4  10  21  35  50  71 100 132 166 206 250 295
#     4   9  15  21  30  45  67  96 133 179 226 275
#     4   9  18  32  53  83 111 135 173 223 267 312
#     4   9  18  31  48  70  94 122 159 201 243 292
#     4   9  18  33  53  76 104 139 175 214 263 314
#     4   8  14  25  38  53  76 106 139 177 225 280
#
# _framework density 19.950348000000002
#
# number of rings (size 3 to 8) (size 9 to 14) (size 15 to 20)
#    0.000    3.000    0.000    2.250    1.167    5.333 
#    0.000    3.333    0.000    1.000    0.000    2.333 
#    0.000    0.000    0.000    0.750    0.000   14.833 
#
# Total GULP energy -267839.248921 kJ/mol
# GULP energy per Si atom -5579.984353 kJ/mol
# Density = 1.990494 g / cm^3
# Si number density = 19.950348 Si / 1000 Ang^3
#
#
#
# Elastic Constant Matrix: (Units=GPa)
#
#
# Indices 1 2 3 4 5 6 
#
# 1 210.7005 28.1488 128.8850 0.0000 0.0000 0.0000
# 2 28.1488 64.4787 26.1746 0.0000 0.0000 0.0000
# 3 128.8850 26.1746 141.6041 0.0000 0.0000 0.0000
# 4 0.0000 0.0000 0.0000 3.8983 0.0000 0.0000
# 5 0.0000 0.0000 0.0000 0.0000 -5.4084 0.0000
# 6 0.0000 0.0000 0.0000 0.0000 0.0000 112.1895
#
#
#
# Elastic Compliance Matrix: (Units=1/GPa)
#
#
# Indices 1 2 3 4 5 6 
#
# 1 0.010744 -0.000779 -0.009635 0.000000 0.000000 0.000000
# 2 -0.000779 0.016824 -0.002401 0.000000 0.000000 0.000000
# 3 -0.009635 -0.002401 0.016275 0.000000 0.000000 0.000000
# 4 0.000000 0.000000 0.000000 0.256522 0.000000 0.000000
# 5 0.000000 0.000000 0.000000 0.000000 -0.184898 0.000000
# 6 0.000000 0.000000 0.000000 0.000000 0.000000 0.008913
#
#
# Mechanical properties :
#
#
# Convention : Reuss Voigt Hill
#
# Bulk Modulus (GPa) = 54.90434 87.02225 70.96330
# Shear Modulus (GPa) = 32.03492 37.70754 34.87123
#
# Velocity S-wave (km/s) = 4.01151 4.35221 4.18533
# Velocity P-wave (km/s) = 7.00261 8.30480 7.68135
#
# Compressibility (1/GPa) = 0.01821350
#
# Stress axis : x y z
#
# Youngs Moduli (GPa) = 93.07838 59.44019 61.44437
#
# Poissons Ratio (x) = 0.04631 0.59199
# Poissons Ratio (y) = 0.07252 0.14750
# Poissons Ratio (z) = 0.89677 0.14269
#
# Static dielectric constant tensor:
#      x y z
#    x 1.675080 0.000000 0.000000 
#    y 0.000000 1.323290 0.000000 
#    z 0.000000 0.000000 1.680090 
# 
# From -- ./inp_files/13980.got.cif
#   From: 2010.05.17/outbox.cif.g08.bks.cpg/sg47_7_cif.got.tgz:13980.got - 2010.06.03 20:15:42.
