data_PCOD9387980
_publ_section_title
;
Structure prediction by ZEFSAII (Michael W. Deem and Ramdas Pophale) SiO2 
 PCOD9387980
Probable space group: P M M M
;
_chemical_formula_sum "Si O2"
_cell_formula_units_Z 34
_cell_length_a 7.510903
_cell_length_b 10.078117
_cell_length_c 20.423004
_cell_angle_alpha 90.000000
_cell_angle_beta 90.000000
_cell_angle_gamma 90.000000
_cell_volume 1545.934793
_symmetry_space_group_name_H-M "P M M M"
_symmetry_group_IT_number 47
_symmetry_cell_setting 'orthorhombic'
loop_
_space_group_symop_operation_xyz
x,y,z
-x,-y,z
x,-y,-z
-x,y,-z
-x,-y,-z
x,y,-z
-x,y,z
x,-y,z
loop_
_atom_site_type_symbol
_atom_site_label
_atom_site_fract_x
_atom_site_fract_y
_atom_site_fract_z
Si Si1 0.214390 0.758632 0.500000
Si Si2 0.290166 0.850629 0.246857
Si Si3 0.786958 0.354303 0.358551
Si Si4 0.500000 0.000000 0.500000
Si Si5 0.716123 0.647875 0.138170
Si Si6 0.800351 0.769525 0.000000
Si Si7 0.500000 0.000000 0.000000
O O1 0.251972 0.676236 0.434112
O O2 0.000000 0.790467 0.500000
O O3 0.342724 0.884667 0.500000
O O4 0.500000 0.864232 0.233483
O O5 0.274522 0.765853 0.312953
O O6 0.217019 0.760084 0.188214
O O7 0.216503 0.000000 0.251562
O O8 0.717181 0.500000 0.339069
O O9 0.000000 0.357699 0.352018
O O10 0.500000 0.649483 0.139593
O O11 0.773855 0.500000 0.157541
O O12 0.773990 0.682433 0.065072
O O13 0.654522 0.884276 0.000000
O O14 0.000000 0.823811 0.000000
#
# Coordination Sequence:
#
# PCOD9387980 Si02
#       7
#     4   8   8   1   8   4   1
#     4  10  24  43  67  97 134 171 218 272 326 394
#     4  10  23  39  63  95 133 174 222 272 328 393
#     4  10  22  42  65  90 127 174 219 274 335 390
#     4  12  26  40  66 100 136 176 212 266 336 398
#     4  10  21  41  67  96 134 181 223 276 338 392
#     4  12  26  42  72 103 132 177 225 272 333 397
#     4  12  26  48  66  96 152 176 208 282 332 406
#
# _framework density 21.993165999999999
#
# number of rings (size 3 to 8) (size 9 to 14) (size 15 to 20)
#    0.000    1.647    1.176    1.765    4.941    6.118 
#    0.000    0.588    0.000    0.000    0.000    0.000 
#    0.000    0.000    0.000    0.000    0.000    0.000 
#
# Total GULP energy -189526.224292 kJ/mol
# GULP energy per Si atom -5574.300714 kJ/mol
# Density = 2.194311 g / cm^3
# Si number density = 21.993166 Si / 1000 Ang^3
#
#
#
# Elastic Constant Matrix: (Units=GPa)
#
#
# Indices 1 2 3 4 5 6 
#
# 1 95.1873 39.9363 -2.3413 0.0000 0.0000 0.0000
# 2 39.9363 226.5135 84.9509 0.0000 0.0000 0.0000
# 3 -2.3413 84.9509 144.8710 0.0000 0.0000 0.0000
# 4 0.0000 0.0000 0.0000 -46.6611 0.0000 0.0000
# 5 0.0000 0.0000 0.0000 0.0000 18.6314 0.0000
# 6 0.0000 0.0000 0.0000 0.0000 0.0000 -0.0261
#
#
#
# Elastic Compliance Matrix: (Units=1/GPa)
#
#
# Indices 1 2 3 4 5 6 
#
# 1 0.011697 -0.002735 0.001793 0.000000 0.000000 0.000000
# 2 -0.002735 0.006299 -0.003738 0.000000 0.000000 0.000000
# 3 0.001793 -0.003738 0.009123 0.000000 0.000000 0.000000
# 4 0.000000 0.000000 0.000000 -0.021431 0.000000 0.000000
# 5 0.000000 0.000000 0.000000 0.000000 0.053673 0.000000
# 6 0.000000 0.000000 0.000000 0.000000 0.000000-38.286178
#
#
# Mechanical properties :
#
#
# Convention : Reuss Voigt Hill
#
# Bulk Modulus (GPa) = 56.30723 79.07374 67.69048
# Shear Modulus (GPa) = -0.13085 17.32391 8.59653
#
# Velocity S-wave (km/s) = -0.24418 2.80964 1.97919
# Velocity P-wave (km/s) = 5.05749 6.82329 6.00564
#
# Compressibility (1/GPa) = 0.01775971
#
# Stress axis : x y z
#
# Youngs Moduli (GPa) = 85.49205 158.76474 109.60849
#
# Poissons Ratio (x) = 0.43415 -0.19648
# Poissons Ratio (y) = 0.23378 0.40968
# Poissons Ratio (z) = -0.15325 0.59341
#
# Static dielectric constant tensor:
#      x y z
#    x 1.829720 0.000000 0.000000 
#    y 0.000000 1.797860 0.000000 
#    z 0.000000 0.000000 1.775390 
# 
# From -- ./inp_files/29192.got.cif
#   From: 2010.05.17/outbox.cif.g08.bks.cpg/sg47_15_cif.got.tgz:29192.got - 2010.06.03 20:15:42.
