data_PCOD9387388
_publ_section_title
;
Structure prediction by ZEFSAII (Michael W. Deem and Ramdas Pophale) SiO2 
 PCOD9387388
Probable space group: P M M M
;
_chemical_formula_sum "Si O2"
_cell_formula_units_Z 48
_cell_length_a 8.657586
_cell_length_b 21.015823
_cell_length_c 14.512096
_cell_angle_alpha 90.000000
_cell_angle_beta 90.000000
_cell_angle_gamma 90.000000
_cell_volume 2640.422100
_symmetry_space_group_name_H-M "P M M M"
_symmetry_group_IT_number 47
_symmetry_cell_setting 'orthorhombic'
loop_
_space_group_symop_operation_xyz
x,y,z
-x,-y,z
x,-y,-z
-x,y,-z
-x,-y,-z
x,y,-z
-x,y,z
x,-y,z
loop_
_atom_site_type_symbol
_atom_site_label
_atom_site_fract_x
_atom_site_fract_y
_atom_site_fract_z
Si Si1 0.684880 0.000000 0.606554
Si Si2 0.184638 0.876329 0.292949
Si Si3 0.186158 0.672222 0.105217
Si Si4 0.812048 0.820264 0.103024
Si Si5 0.685262 0.247508 0.391503
Si Si6 0.814997 0.500000 0.393391
Si Si7 0.315398 0.377680 0.289006
O O1 0.742887 0.062549 0.658965
O O2 0.500000 0.000000 0.605474
O O3 0.739267 0.000000 0.500000
O O4 0.238624 0.863876 0.187690
O O5 0.230747 0.813077 0.348562
O O6 0.000000 0.883315 0.292530
O O7 0.232657 0.746433 0.119257
O O8 0.260374 0.629562 0.183920
O O9 0.000000 0.669500 0.112916
O O10 0.227249 0.655067 0.000000
O O11 0.000000 0.820780 0.102638
O O12 0.760874 0.838720 0.000000
O O13 0.717041 0.252495 0.500000
O O14 0.500000 0.239391 0.379846
O O15 0.731803 0.312399 0.340536
O O16 0.761682 0.500000 0.500000
O O17 0.755486 0.562290 0.340835
O O18 0.000000 0.500000 0.392973
O O19 0.500000 0.382230 0.292703
#
# Coordination Sequence:
#
# PCOD9387388 Si02
#       7
#     4   8   8   8   8   4   8
#     4  11  25  43  58  73 108 158 193 225 284 353
#     4  11  21  35  59  87 111 140 188 241 279 323
#     4   9  17  33  58  86 118 154 190 231 282 340
#     4   8  15  30  54  84 116 147 179 222 279 335
#     4  10  21  36  54  79 113 150 185 225 281 344
#     4  11  25  43  62  83 112 153 199 244 290 343
#     4  11  22  37  59  86 118 153 191 236 287 346
#
# _framework density 18.178912
#
# number of rings (size 3 to 8) (size 9 to 14) (size 15 to 20)
#    0.000    2.000    1.667    3.500    0.000    5.333 
#    0.000    0.833    0.000    7.000    0.000    0.000 
#    0.000    0.000    0.000    0.000    0.000    0.000 
#
# Total GULP energy -268006.236447 kJ/mol
# GULP energy per Si atom -5583.463259 kJ/mol
# Density = 1.813754 g / cm^3
# Si number density = 18.178912 Si / 1000 Ang^3
#
#
#
# Elastic Constant Matrix: (Units=GPa)
#
#
# Indices 1 2 3 4 5 6 
#
# 1 32.8949 41.6249 43.1220 0.0000 0.0000 0.0000
# 2 41.6249 141.4954 93.4878 0.0000 0.0000 0.0000
# 3 43.1220 93.4878 177.0339 0.0000 0.0000 0.0000
# 4 0.0000 0.0000 0.0000 29.5432 0.0000 0.0000
# 5 0.0000 0.0000 0.0000 0.0000 16.6590 0.0000
# 6 0.0000 0.0000 0.0000 0.0000 0.0000 4.6340
#
#
#
# Elastic Compliance Matrix: (Units=1/GPa)
#
#
# Indices 1 2 3 4 5 6 
#
# 1 0.053958 -0.011042 -0.007312 0.000000 0.000000 0.000000
# 2 -0.011042 0.013114 -0.004236 0.000000 0.000000 0.000000
# 3 -0.007312 -0.004236 0.009667 0.000000 0.000000 0.000000
# 4 0.000000 0.000000 0.000000 0.033849 0.000000 0.000000
# 5 0.000000 0.000000 0.000000 0.000000 0.060028 0.000000
# 6 0.000000 0.000000 0.000000 0.000000 0.000000 0.215797
#
#
# Mechanical properties :
#
#
# Convention : Reuss Voigt Hill
#
# Bulk Modulus (GPa) = 31.68673 78.65486 55.17079
# Shear Modulus (GPa) = 11.30937 21.71318 16.51128
#
# Velocity S-wave (km/s) = 2.49693 3.45978 3.01701
# Velocity P-wave (km/s) = 5.07752 7.70202 6.52313
#
# Compressibility (1/GPa) = 0.03155896
#
# Stress axis : x y z
#
# Youngs Moduli (GPa) = 18.53300 76.25243 103.45004
#
# Poissons Ratio (x) = 0.84199 0.75642
# Poissons Ratio (y) = 0.20464 0.43819
# Poissons Ratio (z) = 0.13551 0.32299
#
# Static dielectric constant tensor:
#      x y z
#    x 1.613550 0.000000 0.000000 
#    y 0.000000 1.585830 0.000000 
#    z 0.000000 0.000000 1.634810 
# 
# From -- ./inp_files/9216.got.cif
#   From: 2010.05.17/outbox.cif.g08.bks.cpg/sg47_5_cif.got.tgz:9216.got - 2010.06.03 20:15:42.
