data_PCOD9387946
_publ_section_title
;
Structure prediction by ZEFSAII (Michael W. Deem and Ramdas Pophale) SiO2 
 PCOD9387946
Probable space group: P M M M
;
_chemical_formula_sum "Si O2"
_cell_formula_units_Z 44
_cell_length_a 7.536688
_cell_length_b 30.404375
_cell_length_c 9.922203
_cell_angle_alpha 90.000000
_cell_angle_beta 90.000000
_cell_angle_gamma 90.000000
_cell_volume 2273.655833
_symmetry_space_group_name_H-M "P M M M"
_symmetry_group_IT_number 47
_symmetry_cell_setting 'orthorhombic'
loop_
_space_group_symop_operation_xyz
x,y,z
-x,-y,z
x,-y,-z
-x,y,-z
-x,-y,-z
x,y,-z
-x,y,z
x,-y,z
loop_
_atom_site_type_symbol
_atom_site_label
_atom_site_fract_x
_atom_site_fract_y
_atom_site_fract_z
Si Si1 0.000000 0.947295 0.157582
Si Si2 0.787188 0.274559 0.153327
Si Si3 0.716633 0.450600 0.344799
Si Si4 0.295872 0.095850 0.342342
Si Si5 0.712567 0.627121 0.153471
Si Si6 0.784794 0.802994 0.653855
O O1 0.168684 0.928852 0.239220
O O2 0.000000 0.000000 0.161647
O O3 0.000000 0.933545 0.000000
O O4 0.748697 0.323644 0.205087
O O5 0.721879 0.235019 0.246220
O O6 0.000000 0.270471 0.147827
O O7 0.718549 0.271725 0.000000
O O8 0.770385 0.443773 0.500000
O O9 0.500000 0.450045 0.343481
O O10 0.770261 0.500000 0.303368
O O11 0.779948 0.411837 0.248076
O O12 0.241564 0.089593 0.500000
O O13 0.500000 0.081866 0.329445
O O14 0.282672 0.148155 0.315258
O O15 0.500000 0.622433 0.146984
O O16 0.781615 0.624329 0.000000
O O17 0.735058 0.792484 0.500000
O O18 0.000000 0.805107 0.659932
#
# Coordination Sequence:
#
# PCOD9387946 Si02
#       6
#     4   8   8   8   8   8
#     4  11  25  43  63  89 125 165 201 245 298 349
#     4   9  18  31  46  66  95 133 170 203 247 309
#     4   8  14  25  41  61  84 110 143 187 241 298
#     4  10  21  39  64  92 121 156 200 248 296 348
#     4   9  17  28  42  62  88 116 150 196 244 291
#     4   9  17  32  53  77 106 139 177 224 273 322
#
# _framework density 19.352094999999998
#
# number of rings (size 3 to 8) (size 9 to 14) (size 15 to 20)
#    0.000    2.818    0.909    0.818    0.000    4.000 
#    0.000    3.636    0.000    0.545    0.000    3.818 
#    0.000    0.000    0.000    0.000    0.000    0.000 
#
# Total GULP energy -245486.192303 kJ/mol
# GULP energy per Si atom -5579.231643 kJ/mol
# Density = 1.930805 g / cm^3
# Si number density = 19.352095 Si / 1000 Ang^3
#
#
#
# Elastic Constant Matrix: (Units=GPa)
#
#
# Indices 1 2 3 4 5 6 
#
# 1 69.3833 30.0916 38.7429 0.0000 0.0000 0.0000
# 2 30.0916 119.5477 95.5118 0.0000 0.0000 0.0000
# 3 38.7429 95.5118 109.9644 0.0000 0.0000 0.0000
# 4 0.0000 0.0000 0.0000 41.9739 0.0000 0.0000
# 5 0.0000 0.0000 0.0000 0.0000 7.5288 0.0000
# 6 0.0000 0.0000 0.0000 0.0000 0.0000 14.3643
#
#
#
# Elastic Compliance Matrix: (Units=1/GPa)
#
#
# Indices 1 2 3 4 5 6 
#
# 1 0.018055 0.001756 -0.007887 0.000000 0.000000 0.000000
# 2 0.001756 0.027501 -0.024506 0.000000 0.000000 0.000000
# 3 -0.007887 -0.024506 0.033157 0.000000 0.000000 0.000000
# 4 0.000000 0.000000 0.000000 0.023824 0.000000 0.000000
# 5 0.000000 0.000000 0.000000 0.000000 0.132823 0.000000
# 6 0.000000 0.000000 0.000000 0.000000 0.000000 0.069617
#
#
# Mechanical properties :
#
#
# Convention : Reuss Voigt Hill
#
# Bulk Modulus (GPa) = 57.33404 69.73199 63.53301
# Shear Modulus (GPa) = 13.43857 21.74336 17.59096
#
# Velocity S-wave (km/s) = 2.63805 3.35560 3.01823
# Velocity P-wave (km/s) = 6.24261 7.15017 6.71175
#
# Compressibility (1/GPa) = 0.01744165
#
# Stress axis : x y z
#
# Youngs Moduli (GPa) = 55.38712 36.36175 30.15922
#
# Poissons Ratio (x) = -0.06386 0.23785
# Poissons Ratio (y) = -0.09728 0.73907
# Poissons Ratio (z) = 0.43681 0.89107
#
# Static dielectric constant tensor:
#      x y z
#    x 1.731830 0.000000 0.000000 
#    y 0.000000 1.648150 0.000000 
#    z 0.000000 0.000000 1.662340 
# 
# From -- ./inp_files/2244.got.cif
#   From: 2010.05.17/outbox.cif.g08.bks.cpg/sg47_2_cif.got.tgz:2244.got - 2010.06.03 20:15:42.
