data_PCOD9387025
_publ_section_title
;
Structure prediction by ZEFSAII (Michael W. Deem and Ramdas Pophale) SiO2 
 PCOD9387025
Probable space group: P M M M
;
_chemical_formula_sum "Si O2"
_cell_formula_units_Z 64
_cell_length_a 8.963795
_cell_length_b 9.997628
_cell_length_c 41.788946
_cell_angle_alpha 90.000000
_cell_angle_beta 90.000000
_cell_angle_gamma 90.000000
_cell_volume 3744.986930
_symmetry_space_group_name_H-M "P M M M"
_symmetry_group_IT_number 47
_symmetry_cell_setting 'orthorhombic'
loop_
_space_group_symop_operation_xyz
x,y,z
-x,-y,z
x,-y,-z
-x,y,-z
-x,-y,-z
x,y,-z
-x,y,z
x,-y,z
loop_
_atom_site_type_symbol
_atom_site_label
_atom_site_fract_x
_atom_site_fract_y
_atom_site_fract_z
Si Si1 0.320664 0.656087 0.036870
Si Si2 0.681595 0.653162 0.784626
Si Si3 0.820799 0.343662 0.536898
Si Si4 0.679180 0.657827 0.288073
Si Si5 0.821836 0.843588 0.341637
Si Si6 0.320388 0.156254 0.842044
Si Si7 0.178205 0.843534 0.090044
Si Si8 0.677974 0.843475 0.590057
O O1 0.500000 0.668688 0.039590
O O2 0.283478 0.500000 0.042692
O O3 0.242936 0.752152 0.062057
O O4 0.280322 0.687352 0.000000
O O5 0.500000 0.653783 0.784622
O O6 0.728338 0.500000 0.790745
O O7 0.725840 0.690771 0.748459
O O8 0.730479 0.752788 0.812456
O O9 0.780950 0.312477 0.500000
O O10 0.784682 0.500000 0.542618
O O11 0.741307 0.248505 0.562031
O O12 0.000000 0.329883 0.539793
O O13 0.500000 0.675046 0.290331
O O14 0.710209 0.500000 0.293177
O O15 0.758021 0.750068 0.313929
O O16 0.750823 0.807400 0.375881
O O17 0.000000 0.831491 0.343499
O O18 0.784777 0.000000 0.335451
O O19 0.500000 0.168398 0.844997
O O20 0.246764 0.195599 0.875631
O O21 0.286039 0.000000 0.836121
O O22 0.000000 0.832903 0.091196
O O23 0.217560 0.000000 0.084686
O O24 0.500000 0.830101 0.592262
O O25 0.713431 0.000000 0.583905
#
# Coordination Sequence:
#
# PCOD9387025 Si02
#       8
#     8   8   8   8   8   8   8   8
#     4   9  19  36  56  77 100 127 163 207 252 298
#     4   8  15  29  49  73  99 126 160 204 250 295
#     4   9  19  36  56  78 105 137 172 208 248 298
#     4   9  18  33  53  77 104 133 166 205 251 303
#     4  10  21  36  53  74 101 134 172 211 252 300
#     4   9  17  30  49  72  97 128 168 209 247 290
#     4  10  21  35  50  72 104 138 169 203 246 296
#     4  10  21  36  54  77 104 134 170 212 256 301
#
# _framework density 17.089511999999999
#
# number of rings (size 3 to 8) (size 9 to 14) (size 15 to 20)
#    0.000    2.750    0.000    2.625    0.000    5.500 
#    0.000    6.875    0.000    2.250    0.000    0.000 
#    0.000    0.000    0.000    0.000    0.000    0.000 
#
# Total GULP energy -356943.288385 kJ/mol
# GULP energy per Si atom -5577.238881 kJ/mol
# Density = 1.705062 g / cm^3
# Si number density = 17.089512 Si / 1000 Ang^3
#
#
#
# Elastic Constant Matrix: (Units=GPa)
#
#
# Indices 1 2 3 4 5 6 
#
# 1 33.0814 48.0044 62.8187 0.0000 0.0000 0.0000
# 2 48.0044 94.1292 121.6575 0.0000 0.0000 0.0000
# 3 62.8187 121.6575 191.2169 0.0000 0.0000 0.0000
# 4 0.0000 0.0000 0.0000 42.9491 0.0000 0.0000
# 5 0.0000 0.0000 0.0000 0.0000 -172.6277 0.0000
# 6 0.0000 0.0000 0.0000 0.0000 0.0000 26.4709
#
#
#
# Elastic Compliance Matrix: (Units=1/GPa)
#
#
# Indices 1 2 3 4 5 6 
#
# 1 0.116520 -0.055988 -0.002658 0.000000 0.000000 0.000000
# 2 -0.055988 0.086685 -0.036758 0.000000 0.000000 0.000000
# 3 -0.002658 -0.036758 0.029489 0.000000 0.000000 0.000000
# 4 0.000000 0.000000 0.000000 0.023283 0.000000 0.000000
# 5 0.000000 0.000000 0.000000 0.000000 -0.005793 0.000000
# 6 0.000000 0.000000 0.000000 0.000000 0.000000 0.037777
#
#
# Mechanical properties :
#
#
# Convention : Reuss Voigt Hill
#
# Bulk Modulus (GPa) = 23.87432 87.04319 55.45876
# Shear Modulus (GPa) = 10.14748 -14.91177 -2.38214
#
# Velocity S-wave (km/s) = 2.43941 -2.95713 -1.18192
# Velocity P-wave (km/s) = 4.68346 6.27573 5.53713
#
# Compressibility (1/GPa) = 0.04188601
#
# Stress axis : x y z
#
# Youngs Moduli (GPa) = 8.58220 11.53604 33.91038
#
# Poissons Ratio (x) = 0.64588 0.09014
# Poissons Ratio (y) = 0.48050 1.24648
# Poissons Ratio (z) = 0.02281 0.42404
#
# Static dielectric constant tensor:
#      x y z
#    x 1.568560 0.000000 0.000000 
#    y 0.000000 1.565720 0.000000 
#    z 0.000000 0.000000 1.553530 
# 
# From -- ./inp_files/34363.got.cif
#   From: 2010.05.17/outbox.cif.g08.bks.cpg/sg47_18_cif.got.tgz:34363.got - 2010.06.03 20:15:42.
