data_PCOD9387870
_publ_section_title
;
Structure prediction by ZEFSAII (Michael W. Deem and Ramdas Pophale) SiO2 
 PCOD9387870
Probable space group: P M M M
;
_chemical_formula_sum "Si O2"
_cell_formula_units_Z 48
_cell_length_a 36.377393
_cell_length_b 9.001467
_cell_length_c 7.540645
_cell_angle_alpha 90.000000
_cell_angle_beta 90.000000
_cell_angle_gamma 90.000000
_cell_volume 2469.183471
_symmetry_space_group_name_H-M "P M M M"
_symmetry_group_IT_number 47
_symmetry_cell_setting 'orthorhombic'
loop_
_space_group_symop_operation_xyz
x,y,z
-x,-y,z
x,-y,-z
-x,y,-z
-x,-y,-z
x,y,-z
-x,y,z
x,-y,z
loop_
_atom_site_type_symbol
_atom_site_label
_atom_site_fract_x
_atom_site_fract_y
_atom_site_fract_z
Si Si1 0.539482 0.827455 0.287311
Si Si2 0.752497 0.320559 0.500000
Si Si3 0.167510 0.177187 0.500000
Si Si4 0.040748 0.827888 0.215537
Si Si5 0.306313 0.678034 0.206082
Si Si6 0.619184 0.168676 0.211369
Si Si7 0.116154 0.323921 0.788767
O O1 0.538241 0.830781 0.500000
O O2 0.500000 0.764045 0.225912
O O3 0.579040 0.760309 0.242244
O O4 0.540554 0.000000 0.224325
O O5 0.757676 0.500000 0.500000
O O6 0.791428 0.241249 0.500000
O O7 0.727771 0.279971 0.329438
O O8 0.145764 0.238509 0.671304
O O9 0.167519 0.000000 0.500000
O O10 0.075476 0.730199 0.267955
O O11 0.000000 0.779642 0.275036
O O12 0.046043 0.000000 0.269021
O O13 0.040084 0.825993 0.000000
O O14 0.309729 0.500000 0.212620
O O15 0.344699 0.746221 0.273731
O O16 0.300546 0.720860 0.000000
O O17 0.618753 0.000000 0.283632
O O18 0.622843 0.159931 0.000000
O O19 0.119752 0.500000 0.761776
O O20 0.120262 0.293810 0.000000
#
# Coordination Sequence:
#
# PCOD9387870 Si02
#       7
#     8   4   4   8   8   8   8
#     4   8  14  24  38  60  92 129 166 203 245 293
#     4  10  22  40  60  81 104 135 176 217 264 329
#     4  12  26  42  61  87 118 149 187 237 288 347
#     4   8  14  27  50  81 117 156 197 241 290 342
#     4   9  19  36  56  78 105 135 166 206 260 320
#     4   9  17  28  45  71  98 125 162 208 252 298
#     4  10  21  38  61  87 118 158 199 241 288 338
#
# _framework density 19.439623999999998
#
# number of rings (size 3 to 8) (size 9 to 14) (size 15 to 20)
#    0.000    2.833    0.000    2.250    1.167    3.000 
#    0.000    5.417    0.000    3.000    0.000    3.500 
#    0.000    0.000    0.000    0.000    0.000    0.000 
#
# Total GULP energy -267585.671669 kJ/mol
# GULP energy per Si atom -5574.701493 kJ/mol
# Density = 1.939538 g / cm^3
# Si number density = 19.439624 Si / 1000 Ang^3
#
#
#
# Elastic Constant Matrix: (Units=GPa)
#
#
# Indices 1 2 3 4 5 6 
#
# 1 225.4269 77.8681 66.3635 0.0000 0.0000 0.0000
# 2 77.8681 53.8133 38.0368 0.0000 0.0000 0.0000
# 3 66.3635 38.0368 78.0112 0.0000 0.0000 0.0000
# 4 0.0000 0.0000 0.0000 13.9919 0.0000 0.0000
# 5 0.0000 0.0000 0.0000 0.0000 40.9819 0.0000
# 6 0.0000 0.0000 0.0000 0.0000 0.0000 64.2039
#
#
#
# Elastic Compliance Matrix: (Units=1/GPa)
#
#
# Indices 1 2 3 4 5 6 
#
# 1 0.009071 -0.011705 -0.002009 0.000000 0.000000 0.000000
# 2 -0.011705 0.043460 -0.011233 0.000000 0.000000 0.000000
# 3 -0.002009 -0.011233 0.020005 0.000000 0.000000 0.000000
# 4 0.000000 0.000000 0.000000 0.071470 0.000000 0.000000
# 5 0.000000 0.000000 0.000000 0.000000 0.024401 0.000000
# 6 0.000000 0.000000 0.000000 0.000000 0.000000 0.015575
#
#
# Mechanical properties :
#
#
# Convention : Reuss Voigt Hill
#
# Bulk Modulus (GPa) = 44.16723 80.19868 62.18295
# Shear Modulus (GPa) = 20.71050 35.50108 28.10579
#
# Velocity S-wave (km/s) = 3.26755 4.27807 3.80649
# Velocity P-wave (km/s) = 6.08320 8.10847 7.16773
#
# Compressibility (1/GPa) = 0.02264122
#
# Stress axis : x y z
#
# Youngs Moduli (GPa) = 110.24323 23.00961 49.98840
#
# Poissons Ratio (x) = 0.26934 0.10043
# Poissons Ratio (y) = 1.29045 0.56150
# Poissons Ratio (z) = 0.22150 0.25846
#
# Static dielectric constant tensor:
#      x y z
#    x 1.687110 0.000000 0.000000 
#    y 0.000000 1.660610 0.000000 
#    z 0.000000 0.000000 1.711980 
# 
# From -- ./inp_files/13914.got.cif
#   From: 2010.05.17/outbox.cif.g08.bks.cpg/sg47_7_cif.got.tgz:13914.got - 2010.06.03 20:15:42.
