data_PCOD9387750
_publ_section_title
;
Structure prediction by ZEFSAII (Michael W. Deem and Ramdas Pophale) SiO2 
 PCOD9387750
Probable space group: P M M M
;
_chemical_formula_sum "Si O2"
_cell_formula_units_Z 58
_cell_length_a 18.382747
_cell_length_b 18.555673
_cell_length_c 8.816373
_cell_angle_alpha 90.000000
_cell_angle_beta 90.000000
_cell_angle_gamma 90.000000
_cell_volume 3007.302231
_symmetry_space_group_name_H-M "P M M M"
_symmetry_group_IT_number 47
_symmetry_cell_setting 'orthorhombic'
loop_
_space_group_symop_operation_xyz
x,y,z
-x,-y,z
x,-y,-z
-x,y,-z
-x,-y,-z
x,y,-z
-x,y,z
x,-y,z
loop_
_atom_site_type_symbol
_atom_site_label
_atom_site_fract_x
_atom_site_fract_y
_atom_site_fract_z
Si Si1 0.174589 0.580846 0.820249
Si Si2 0.666606 0.579998 0.679125
Si Si3 0.414022 0.287991 0.826420
Si Si4 0.229827 0.085409 0.671492
Si Si5 0.915657 0.292782 0.326319
Si Si6 0.917387 0.138709 0.180092
Si Si7 0.381459 0.876437 0.817540
Si Si8 0.500000 0.000000 0.260218
O O1 0.147497 0.500000 0.784480
O O2 0.258454 0.583291 0.771331
O O3 0.132643 0.642161 0.730990
O O4 0.167689 0.592186 0.000000
O O5 0.682221 0.583689 0.500000
O O6 0.633459 0.500000 0.708734
O O7 0.620157 0.648573 0.728224
O O8 0.500000 0.298446 0.829964
O O9 0.400502 0.205823 0.774651
O O10 0.385634 0.293289 0.000000
O O11 0.234558 0.115164 0.500000
O O12 0.150450 0.100975 0.739857
O O13 0.297691 0.112544 0.770525
O O14 0.238537 0.000000 0.664264
O O15 0.897687 0.272748 0.500000
O O16 0.908408 0.222846 0.221080
O O17 0.000000 0.314691 0.321827
O O18 0.000000 0.117768 0.230003
O O19 0.913305 0.127416 0.000000
O O20 0.435697 0.936133 0.746817
O O21 0.390694 0.884001 0.000000
#
# Coordination Sequence:
#
# PCOD9387750 Si02
#       8
#     8   8   8   8   8   8   8   2
#     4  10  21  37  58  84 115 154 200 248 298 353
#     4  10  22  40  61  85 116 157 202 249 306 367
#     4  10  22  39  60  90 122 154 199 250 305 370
#     4  11  25  42  60  89 126 163 204 248 304 371
#     4  10  21  37  58  85 118 156 196 241 298 361
#     4  10  22  41  65  91 119 156 203 254 307 362
#     4  11  22  39  65  94 124 163 209 257 310 369
#     4  12  21  40  73  98 125 168 213 264 317 368
#
# _framework density 19.286390000000001
#
# number of rings (size 3 to 8) (size 9 to 14) (size 15 to 20)
#    0.000    1.655    1.379    2.690    1.931    5.793 
#    0.000    4.828    0.000    0.000    0.000    0.000 
#    0.000    0.000    0.000    0.000    0.000    0.000 
#
# Total GULP energy -323224.146651 kJ/mol
# GULP energy per Si atom -5572.830115 kJ/mol
# Density = 1.924249 g / cm^3
# Si number density = 19.286390 Si / 1000 Ang^3
#
#
#
# Elastic Constant Matrix: (Units=GPa)
#
#
# Indices 1 2 3 4 5 6 
#
# 1 51.2456 10.2569 0.1681 0.0000 0.0000 0.0000
# 2 10.2569 64.8072 3.2142 0.0000 0.0000 0.0000
# 3 0.1681 3.2142 18.8277 0.0000 0.0000 0.0000
# 4 0.0000 0.0000 0.0000 34.6474 0.0000 0.0000
# 5 0.0000 0.0000 0.0000 0.0000 13.2901 0.0000
# 6 0.0000 0.0000 0.0000 0.0000 0.0000 61.6496
#
#
#
# Elastic Compliance Matrix: (Units=1/GPa)
#
#
# Indices 1 2 3 4 5 6 
#
# 1 0.020155 -0.003208 0.000368 0.000000 0.000000 0.000000
# 2 -0.003208 0.016073 -0.002715 0.000000 0.000000 0.000000
# 3 0.000368 -0.002715 0.053574 0.000000 0.000000 0.000000
# 4 0.000000 0.000000 0.000000 0.028862 0.000000 0.000000
# 5 0.000000 0.000000 0.000000 0.000000 0.075244 0.000000
# 6 0.000000 0.000000 0.000000 0.000000 0.000000 0.016221
#
#
# Mechanical properties :
#
#
# Convention : Reuss Voigt Hill
#
# Bulk Modulus (GPa) = 12.70812 18.01766 15.36289
# Shear Modulus (GPa) = 20.20454 30.00018 25.10236
#
# Velocity S-wave (km/s) = 3.24019 3.94827 3.61163
# Velocity P-wave (km/s) = 4.53893 5.49068 5.03733
#
# Compressibility (1/GPa) = 0.07868983
#
# Stress axis : x y z
#
# Youngs Moduli (GPa) = 49.61608 62.21694 18.66592
#
# Poissons Ratio (x) = 0.19960 -0.00686
# Poissons Ratio (y) = 0.15917 0.05068
# Poissons Ratio (z) = -0.01824 0.16894
#
# Static dielectric constant tensor:
#      x y z
#    x 1.655270 0.000000 0.000000 
#    y 0.000000 1.666800 0.000000 
#    z 0.000000 0.000000 1.697390 
# 
# From -- ./inp_files/9665.got.cif
#   From: 2010.05.17/outbox.cif.g08.bks.cpg/sg47_5_cif.got.tgz:9665.got - 2010.06.03 20:15:42.
