data_PCOD9387260
_publ_section_title
;
Structure prediction by ZEFSAII (Michael W. Deem and Ramdas Pophale) SiO2 
 PCOD9387260
Probable space group: P M M M
;
_chemical_formula_sum "Si O2"
_cell_formula_units_Z 44
_cell_length_a 9.703505
_cell_length_b 7.934464
_cell_length_c 29.503323
_cell_angle_alpha 90.000000
_cell_angle_beta 90.000000
_cell_angle_gamma 90.000000
_cell_volume 2271.523122
_symmetry_space_group_name_H-M "P M M M"
_symmetry_group_IT_number 47
_symmetry_cell_setting 'orthorhombic'
loop_
_space_group_symop_operation_xyz
x,y,z
-x,-y,z
x,-y,-z
-x,y,-z
-x,-y,-z
x,y,-z
-x,y,z
x,-y,z
loop_
_atom_site_type_symbol
_atom_site_label
_atom_site_fract_x
_atom_site_fract_y
_atom_site_fract_z
Si Si1 0.658340 0.297888 0.401856
Si Si2 0.840406 0.705788 0.050361
Si Si3 0.657609 0.703536 0.133966
Si Si4 0.657847 0.200757 0.234880
Si Si5 0.658433 0.798945 0.500000
Si Si6 0.843618 0.701836 0.680821
O O1 0.500000 0.232449 0.398656
O O2 0.650536 0.500000 0.397596
O O3 0.716689 0.259053 0.451867
O O4 0.754378 0.231821 0.361613
O O5 0.837194 0.500000 0.050789
O O6 0.749884 0.765551 0.092401
O O7 0.000000 0.755154 0.055479
O O8 0.792780 0.758152 0.000000
O O9 0.500000 0.763110 0.129168
O O10 0.656839 0.500000 0.132245
O O11 0.705226 0.753628 0.184148
O O12 0.500000 0.266503 0.240600
O O13 0.759324 0.265846 0.273356
O O14 0.652532 0.000000 0.238534
O O15 0.500000 0.733358 0.500000
O O16 0.655946 0.000000 0.500000
O O17 0.852487 0.500000 0.675243
O O18 0.000000 0.768181 0.682400
#
# Coordination Sequence:
#
# PCOD9387260 Si02
#       6
#     8   8   8   8   4   8
#     4   9  17  31  52  75  99 129 164 202 245 292
#     4   8  14  25  42  66  95 124 155 194 240 288
#     4   9  17  29  47  71  96 122 156 200 246 291
#     4  10  21  36  53  73  99 132 168 206 250 300
#     4   9  17  29  48  75 102 128 164 207 244 283
#     4  10  21  36  54  77 103 131 166 208 253 300
#
# _framework density 19.370263000000001
#
# number of rings (size 3 to 8) (size 9 to 14) (size 15 to 20)
#    0.000    2.818    0.000    1.909    0.000    5.091 
#    0.000    5.909    0.000    3.273    0.000    3.818 
#    0.000    0.000    0.000    0.000    0.000    0.000 
#
# Total GULP energy -245340.155584 kJ/mol
# GULP energy per Si atom -5575.912627 kJ/mol
# Density = 1.932618 g / cm^3
# Si number density = 19.370263 Si / 1000 Ang^3
#
#
#
# Elastic Constant Matrix: (Units=GPa)
#
#
# Indices 1 2 3 4 5 6 
#
# 1 96.5799 7.8452 111.7365 0.0000 0.0000 0.0000
# 2 7.8452 15.7324 1.3456 0.0000 0.0000 0.0000
# 3 111.7365 1.3456 215.1171 0.0000 0.0000 0.0000
# 4 0.0000 0.0000 0.0000 -70.8347 0.0000 0.0000
# 5 0.0000 0.0000 0.0000 0.0000 -56.3989 0.0000
# 6 0.0000 0.0000 0.0000 0.0000 0.0000 8.0979
#
#
#
# Elastic Compliance Matrix: (Units=1/GPa)
#
#
# Indices 1 2 3 4 5 6 
#
# 1 0.028334 -0.012877 -0.014637 0.000000 0.000000 0.000000
# 2 -0.012877 0.069449 0.006254 0.000000 0.000000 0.000000
# 3 -0.014637 0.006254 0.012212 0.000000 0.000000 0.000000
# 4 0.000000 0.000000 0.000000 -0.014117 0.000000 0.000000
# 5 0.000000 0.000000 0.000000 0.000000 -0.017731 0.000000
# 6 0.000000 0.000000 0.000000 0.000000 0.000000 0.123488
#
#
# Mechanical properties :
#
#
# Convention : Reuss Voigt Hill
#
# Bulk Modulus (GPa) = 14.82005 63.25377 39.03691
# Shear Modulus (GPa) = 18.75145 -10.06032 4.34556
#
# Velocity S-wave (km/s) = 3.11473 -2.28144 1.49943
# Velocity P-wave (km/s) = 4.53905 5.07799 4.81606
#
# Compressibility (1/GPa) = 0.06747617
#
# Stress axis : x y z
#
# Youngs Moduli (GPa) = 35.29363 14.39900 81.88608
#
# Poissons Ratio (x) = 0.18542 1.19853
# Poissons Ratio (y) = 0.45448 -0.51213
# Poissons Ratio (z) = 0.51658 -0.09005
#
# Static dielectric constant tensor:
#      x y z
#    x 1.677330 0.000000 0.000000 
#    y 0.000000 1.687740 0.000000 
#    z 0.000000 0.000000 1.671290 
# 
# From -- ./inp_files/13577.got.cif
#   From: 2010.05.17/outbox.cif.g08.bks.cpg/sg47_7_cif.got.tgz:13577.got - 2010.06.03 20:15:42.
