data_PCOD9387390
_publ_section_title
;
Structure prediction by ZEFSAII (Michael W. Deem and Ramdas Pophale) SiO2 
 PCOD9387390
Probable space group: P M M M
;
_chemical_formula_sum "Si O2"
_cell_formula_units_Z 56
_cell_length_a 9.044217
_cell_length_b 15.332169
_cell_length_c 21.020961
_cell_angle_alpha 90.000000
_cell_angle_beta 90.000000
_cell_angle_gamma 90.000000
_cell_volume 2914.923343
_symmetry_space_group_name_H-M "P M M M"
_symmetry_group_IT_number 47
_symmetry_cell_setting 'orthorhombic'
loop_
_space_group_symop_operation_xyz
x,y,z
-x,-y,z
x,-y,-z
-x,y,-z
-x,-y,-z
x,y,-z
-x,y,z
x,-y,z
loop_
_atom_site_type_symbol
_atom_site_label
_atom_site_fract_x
_atom_site_fract_y
_atom_site_fract_z
Si Si1 0.674421 0.500000 0.071028
Si Si2 0.176002 0.856127 0.071982
Si Si3 0.172716 0.097950 0.423060
Si Si4 0.327910 0.901004 0.797550
Si Si5 0.168839 0.335238 0.877689
Si Si6 0.828009 0.740758 0.737093
Si Si7 0.177991 0.395733 0.500000
Si Si8 0.676180 0.279984 0.610449
O O1 0.500000 0.500000 0.067173
O O2 0.726180 0.413283 0.105371
O O3 0.739068 0.500000 0.000000
O O4 0.266172 0.896792 0.130182
O O5 0.196226 0.752142 0.081510
O O6 0.000000 0.873880 0.080507
O O7 0.216928 0.881898 0.000000
O O8 0.177115 0.098533 0.500000
O O9 0.267467 0.180565 0.401120
O O10 0.000000 0.109470 0.404658
O O11 0.219948 0.000000 0.402511
O O12 0.500000 0.873832 0.797088
O O13 0.232561 0.836628 0.754324
O O14 0.317462 0.000000 0.775019
O O15 0.182940 0.309161 0.803999
O O16 0.000000 0.362221 0.889634
O O17 0.731154 0.699505 0.681519
O O18 0.000000 0.743699 0.718333
O O19 0.210417 0.500000 0.500000
O O20 0.246536 0.345177 0.439449
O O21 0.000000 0.385365 0.500000
O O22 0.500000 0.284296 0.603911
#
# Coordination Sequence:
#
# PCOD9387390 Si02
#       8
#     4   8   8   8   8   8   4   8
#     4  11  23  35  53  85 119 148 179 222 285 353
#     4   9  18  33  54  79 107 145 194 243 291 346
#     4   9  18  34  58  87 121 162 203 241 286 347
#     4  10  21  36  54  80 116 154 194 243 296 348
#     4   9  19  37  58  79 105 143 190 237 283 336
#     4  10  22  41  63  84 111 153 200 241 286 346
#     4  11  25  47  72  95 122 161 205 248 292 347
#     4  12  24  39  64  96 128 160 195 246 307 359
#
# _framework density 19.211483000000001
#
# number of rings (size 3 to 8) (size 9 to 14) (size 15 to 20)
#    0.000    2.000    0.714    4.286    0.000    7.143 
#    1.286    2.143    0.000    0.000    0.000    0.000 
#    0.000    0.000    0.000    0.000    0.000    0.000 
#
# Total GULP energy -312727.538057 kJ/mol
# GULP energy per Si atom -5584.420322 kJ/mol
# Density = 1.916776 g / cm^3
# Si number density = 19.211483 Si / 1000 Ang^3
#
#
#
# Elastic Constant Matrix: (Units=GPa)
#
#
# Indices 1 2 3 4 5 6 
#
# 1 98.5180 58.2858 26.5460 0.0000 0.0000 0.0000
# 2 58.2858 85.9180 22.1767 0.0000 0.0000 0.0000
# 3 26.5460 22.1767 73.4711 0.0000 0.0000 0.0000
# 4 0.0000 0.0000 0.0000 -3.1809 0.0000 0.0000
# 5 0.0000 0.0000 0.0000 0.0000 27.0260 0.0000
# 6 0.0000 0.0000 0.0000 0.0000 0.0000 30.4027
#
#
#
# Elastic Compliance Matrix: (Units=1/GPa)
#
#
# Indices 1 2 3 4 5 6 
#
# 1 0.017536 -0.011128 -0.002977 0.000000 0.000000 0.000000
# 2 -0.011128 0.019684 -0.001921 0.000000 0.000000 0.000000
# 3 -0.002977 -0.001921 0.015266 0.000000 0.000000 0.000000
# 4 0.000000 0.000000 0.000000 -0.314375 0.000000 0.000000
# 5 0.000000 0.000000 0.000000 0.000000 0.037001 0.000000
# 6 0.000000 0.000000 0.000000 0.000000 0.000000 0.032892
#
#
# Mechanical properties :
#
#
# Convention : Reuss Voigt Hill
#
# Bulk Modulus (GPa) = 48.93660 52.43600 50.68630
# Shear Modulus (GPa) = -32.65144 20.90944 -5.87100
#
# Velocity S-wave (km/s) = -4.12707 3.30264 -1.75003
# Velocity P-wave (km/s) = 1.67858 6.47276 4.72833
#
# Compressibility (1/GPa) = 0.02043460
#
# Stress axis : x y z
#
# Youngs Moduli (GPa) = 57.02487 50.80307 65.50393
#
# Poissons Ratio (x) = 0.56533 0.19502
# Poissons Ratio (y) = 0.63457 0.12582
# Poissons Ratio (z) = 0.16977 0.09758
#
# Static dielectric constant tensor:
#      x y z
#    x 1.647240 0.000000 0.000000 
#    y 0.000000 1.658740 0.000000 
#    z 0.000000 0.000000 1.675220 
# 
# From -- ./inp_files/7436.got.cif
#   From: 2010.05.17/outbox.cif.g08.bks.cpg/sg47_4_cif.got.tgz:7436.got - 2010.06.03 20:15:42.
