data_PCOD9387975
_publ_section_title
;
Structure prediction by ZEFSAII (Michael W. Deem and Ramdas Pophale) SiO2 
 PCOD9387975
Probable space group: P M M M
;
_chemical_formula_sum "Si O2"
_cell_formula_units_Z 45
_cell_length_a 7.463150
_cell_length_b 13.035839
_cell_length_c 22.202310
_cell_angle_alpha 90.000000
_cell_angle_beta 90.000000
_cell_angle_gamma 90.000000
_cell_volume 2160.027701
_symmetry_space_group_name_H-M "P M M M"
_symmetry_group_IT_number 47
_symmetry_cell_setting 'orthorhombic'
loop_
_space_group_symop_operation_xyz
x,y,z
-x,-y,z
x,-y,-z
-x,y,-z
-x,-y,-z
x,y,-z
-x,y,z
x,-y,z
loop_
_atom_site_type_symbol
_atom_site_label
_atom_site_fract_x
_atom_site_fract_y
_atom_site_fract_z
Si Si1 0.500000 0.500000 0.500000
Si Si2 0.713730 0.882541 0.500000
Si Si3 0.782941 0.500000 0.389022
Si Si4 0.789043 0.883299 0.367531
Si Si5 0.782192 0.687891 0.299600
Si Si6 0.713069 0.000000 0.931327
Si Si7 0.780500 0.382459 0.832495
Si Si8 0.788488 0.775784 0.931511
O O1 0.658249 0.500000 0.447208
O O2 0.500000 0.883541 0.500000
O O3 0.771075 0.839671 0.435729
O O4 0.782642 0.000000 0.500000
O O5 0.741181 0.599575 0.347872
O O6 0.000000 0.500000 0.401280
O O7 0.715412 0.798456 0.322303
O O8 0.000000 0.892515 0.355684
O O9 0.713915 0.000000 0.365700
O O10 0.722224 0.656984 0.233013
O O11 0.000000 0.692661 0.297595
O O12 0.767990 0.109308 0.905192
O O13 0.500000 0.000000 0.933857
O O14 0.786399 0.000000 0.000000
O O15 0.726830 0.500000 0.841297
O O16 0.716731 0.308642 0.885870
O O17 0.000000 0.380441 0.832323
O O18 0.000000 0.756997 0.936738
O O19 0.713913 0.773714 0.000000
#
# Coordination Sequence:
#
# PCOD9387975 Si02
#       8
#     1   4   4   8   8   4   8   8
#     4  12  26  40  60  98 122 136 196 248 284 352
#     4   9  17  30  47  68  94 125 157 189 246 318
#     4  10  21  41  63  82 114 153 188 238 295 341
#     4   9  17  30  49  73  98 124 163 215 263 312
#     4   9  17  33  56  76 102 144 184 220 272 335
#     4   9  17  31  51  71 103 149 185 215 270 341
#     4   9  16  29  52  78 104 142 188 225 269 336
#     4   9  17  29  49  81 114 140 176 232 285 327
#
# _framework density 20.833067
#
# number of rings (size 3 to 8) (size 9 to 14) (size 15 to 20)
#    0.000    2.844    0.889    0.667    0.000    3.200 
#    4.800    4.444    1.956    0.533    0.000    2.489 
#    0.000    0.000    0.000    0.000    0.000    0.000 
#
# Total GULP energy -250674.392807 kJ/mol
# GULP energy per Si atom -5570.542062 kJ/mol
# Density = 2.078565 g / cm^3
# Si number density = 20.833067 Si / 1000 Ang^3
#
#
#
# Elastic Constant Matrix: (Units=GPa)
#
#
# Indices 1 2 3 4 5 6 
#
# 1 75.5542 10.9448 20.1810 0.0000 0.0000 0.0000
# 2 10.9448 175.8241 107.6542 0.0000 0.0000 0.0000
# 3 20.1810 107.6542 147.0716 0.0000 0.0000 0.0000
# 4 0.0000 0.0000 0.0000 11.0383 0.0000 0.0000
# 5 0.0000 0.0000 0.0000 0.0000 -28.1681 0.0000
# 6 0.0000 0.0000 0.0000 0.0000 0.0000 -24.3395
#
#
#
# Elastic Compliance Matrix: (Units=1/GPa)
#
#
# Indices 1 2 3 4 5 6 
#
# 1 0.013768 0.000543 -0.002287 0.000000 0.000000 0.000000
# 2 0.000543 0.010328 -0.007635 0.000000 0.000000 0.000000
# 3 -0.002287 -0.007635 0.012702 0.000000 0.000000 0.000000
# 4 0.000000 0.000000 0.000000 0.090594 0.000000 0.000000
# 5 0.000000 0.000000 0.000000 0.000000 -0.035501 0.000000
# 6 0.000000 0.000000 0.000000 0.000000 0.000000 -0.041086
#
#
# Mechanical properties :
#
#
# Convention : Reuss Voigt Hill
#
# Bulk Modulus (GPa) = 55.42928 75.11222 65.27075
# Shear Modulus (GPa) = 66.15924 9.01746 37.58835
#
# Velocity S-wave (km/s) = 5.64143 2.08275 4.25227
# Velocity P-wave (km/s) = 8.31255 6.47429 7.45033
#
# Compressibility (1/GPa) = 0.01804101
#
# Stress axis : x y z
#
# Youngs Moduli (GPa) = 72.63399 96.82146 78.72979
#
# Poissons Ratio (x) = -0.05259 0.18003
# Poissons Ratio (y) = -0.03945 0.60108
# Poissons Ratio (z) = 0.16610 0.73920
#
# Static dielectric constant tensor:
#      x y z
#    x 1.761690 0.000000 0.000000 
#    y 0.000000 1.758150 0.000000 
#    z 0.000000 0.000000 1.729120 
# 
# From -- ./inp_files/31904.got.cif
#   From: 2010.05.17/outbox.cif.g08.bks.cpg/sg47_16_cif.got.tgz:31904.got - 2010.06.03 20:15:42.
