data_PCOD9387133
_publ_section_title
;
Structure prediction by ZEFSAII (Michael W. Deem and Ramdas Pophale) SiO2 
 PCOD9387133
Probable space group: P M M M
;
_chemical_formula_sum "Si O2"
_cell_formula_units_Z 48
_cell_length_a 33.957199
_cell_length_b 7.850696
_cell_length_c 9.183453
_cell_angle_alpha 90.000000
_cell_angle_beta 90.000000
_cell_angle_gamma 90.000000
_cell_volume 2448.195121
_symmetry_space_group_name_H-M "P M M M"
_symmetry_group_IT_number 47
_symmetry_cell_setting 'orthorhombic'
loop_
_space_group_symop_operation_xyz
x,y,z
-x,-y,z
x,-y,-z
-x,y,-z
-x,-y,-z
x,y,-z
-x,y,z
x,-y,z
loop_
_atom_site_type_symbol
_atom_site_label
_atom_site_fract_x
_atom_site_fract_y
_atom_site_fract_z
Si Si1 0.000000 0.702425 0.833132
Si Si2 0.246574 0.702524 0.334023
Si Si3 0.674932 0.796235 0.164360
Si Si4 0.915590 0.204511 0.165690
Si Si5 0.452888 0.500000 0.171742
Si Si6 0.160815 0.795326 0.334473
Si Si7 0.594905 0.203035 0.674374
O O1 0.041699 0.756249 0.766333
O O2 0.000000 0.500000 0.840849
O O3 0.000000 0.774055 0.000000
O O4 0.250063 0.772780 0.500000
O O5 0.246639 0.500000 0.343328
O O6 0.283647 0.754362 0.238313
O O7 0.203979 0.755616 0.272609
O O8 0.637909 0.745741 0.263724
O O9 0.672764 0.000000 0.155053
O O10 0.671999 0.726500 0.000000
O O11 0.877192 0.269780 0.248839
O O12 0.912541 0.000000 0.159155
O O13 0.915636 0.271518 0.000000
O O14 0.500000 0.500000 0.184328
O O15 0.435335 0.331219 0.248499
O O16 0.442404 0.500000 0.000000
O O17 0.160356 0.729153 0.500000
O O18 0.157617 0.000000 0.339889
O O19 0.593727 0.223066 0.500000
O O20 0.588291 0.000000 0.706011
#
# Coordination Sequence:
#
# PCOD9387133 Si02
#       7
#     4   8   8   8   4   8   8
#     4   9  17  29  46  69  94 120 152 193 246 306
#     4  10  21  35  52  76 107 144 183 223 271 330
#     4  10  21  37  58  84 114 149 190 238 290 342
#     4   9  17  30  49  70  91 119 158 203 249 302
#     4  11  25  43  65  95 131 171 211 257 315 372
#     4   9  18  33  51  70  96 132 171 212 260 314
#     4  10  22  41  66  94 125 165 212 260 310 367
#
# _framework density 19.606280999999999
#
# number of rings (size 3 to 8) (size 9 to 14) (size 15 to 20)
#    0.000    2.333    0.000    2.000    1.167    6.333 
#    0.000    3.750    0.000    2.500    0.000    0.000 
#    0.000    0.000    0.000    0.000    0.000    0.000 
#
# Total GULP energy -267747.602245 kJ/mol
# GULP energy per Si atom -5578.075047 kJ/mol
# Density = 1.956166 g / cm^3
# Si number density = 19.606281 Si / 1000 Ang^3
#
#
#
# Elastic Constant Matrix: (Units=GPa)
#
#
# Indices 1 2 3 4 5 6 
#
# 1 174.0429 40.0332 78.9605 0.0000 0.0000 0.0000
# 2 40.0332 49.2172 36.3552 0.0000 0.0000 0.0000
# 3 78.9605 36.3552 92.9305 0.0000 0.0000 0.0000
# 4 0.0000 0.0000 0.0000 17.5947 0.0000 0.0000
# 5 0.0000 0.0000 0.0000 0.0000 37.9322 0.0000
# 6 0.0000 0.0000 0.0000 0.0000 0.0000 52.2770
#
#
#
# Elastic Compliance Matrix: (Units=1/GPa)
#
#
# Indices 1 2 3 4 5 6 
#
# 1 0.009564 -0.002499 -0.007148 0.000000 0.000000 0.000000
# 2 -0.002499 0.029229 -0.009311 0.000000 0.000000 0.000000
# 3 -0.007148 -0.009311 0.020477 0.000000 0.000000 0.000000
# 4 0.000000 0.000000 0.000000 0.056835 0.000000 0.000000
# 5 0.000000 0.000000 0.000000 0.000000 0.026363 0.000000
# 6 0.000000 0.000000 0.000000 0.000000 0.000000 0.019129
#
#
# Mechanical properties :
#
#
# Convention : Reuss Voigt Hill
#
# Bulk Modulus (GPa) = 46.83314 69.65429 58.24372
# Shear Modulus (GPa) = 24.19773 32.28356 28.24065
#
# Velocity S-wave (km/s) = 3.51690 4.06223 3.79936
# Velocity P-wave (km/s) = 6.35847 7.58985 7.00129
#
# Compressibility (1/GPa) = 0.02135240
#
# Stress axis : x y z
#
# Youngs Moduli (GPa) = 104.56344 34.21305 48.83478
#
# Poissons Ratio (x) = 0.08549 0.34909
# Poissons Ratio (y) = 0.26127 0.45472
# Poissons Ratio (z) = 0.74746 0.31857
#
# Static dielectric constant tensor:
#      x y z
#    x 1.689150 0.000000 0.000000 
#    y 0.000000 1.688690 0.000000 
#    z 0.000000 0.000000 1.333620 
# 
# From -- ./inp_files/13882.got.cif
#   From: 2010.05.17/outbox.cif.g08.bks.cpg/sg47_7_cif.got.tgz:13882.got - 2010.06.03 20:15:42.
