data_PCOD9387317
_publ_section_title
;
Structure prediction by ZEFSAII (Michael W. Deem and Ramdas Pophale) SiO2 
 PCOD9387317
Probable space group: P M M M
;
_chemical_formula_sum "Si O2"
_cell_formula_units_Z 48
_cell_length_a 7.698383
_cell_length_b 19.766190
_cell_length_c 15.425541
_cell_angle_alpha 90.000000
_cell_angle_beta 90.000000
_cell_angle_gamma 90.000000
_cell_volume 2347.269112
_symmetry_space_group_name_H-M "P M M M"
_symmetry_group_IT_number 47
_symmetry_cell_setting 'orthorhombic'
loop_
_space_group_symop_operation_xyz
x,y,z
-x,-y,z
x,-y,-z
-x,y,-z
-x,-y,-z
x,y,-z
-x,y,z
x,-y,z
loop_
_atom_site_type_symbol
_atom_site_label
_atom_site_fract_x
_atom_site_fract_y
_atom_site_fract_z
Si Si1 0.707904 0.774087 0.096097
Si Si2 0.291233 0.422032 0.597390
Si Si3 0.789476 0.927869 0.347065
Si Si4 0.206053 0.689564 0.737810
Si Si5 0.296019 0.075256 0.855074
Si Si6 0.787553 0.213932 0.591278
O O1 0.500000 0.781113 0.094942
O O2 0.742234 0.715531 0.166890
O O3 0.775637 0.851128 0.115460
O O4 0.768611 0.754640 0.000000
O O5 0.228153 0.399774 0.500000
O O6 0.500000 0.421322 0.593201
O O7 0.234498 0.500000 0.607960
O O8 0.245248 0.378329 0.682639
O O9 0.722638 0.923137 0.248932
O O10 0.734497 0.863345 0.400275
O O11 0.000000 0.926240 0.342349
O O12 0.736780 0.000000 0.383950
O O13 0.279748 0.746546 0.673398
O O14 0.000000 0.693568 0.739279
O O15 0.500000 0.074129 0.878782
O O16 0.225260 0.000000 0.882258
O O17 0.729265 0.243142 0.500000
O O18 0.000000 0.216562 0.592890
#
# Coordination Sequence:
#
# PCOD9387317 Si02
#       6
#     8   8   8   8   8   8
#     4  10  21  36  54  76 103 139 185 233 281 336
#     4   9  19  37  61  89 120 152 183 213 250 304
#     4   9  16  27  44  64  90 128 172 215 259 309
#     4  11  21  34  54  80 112 146 178 220 270 319
#     4   9  17  30  49  71  96 128 171 228 288 335
#     4   9  17  28  43  68 100 132 169 211 255 305
#
# _framework density 20.449294999999999
#
# number of rings (size 3 to 8) (size 9 to 14) (size 15 to 20)
#    0.000    2.500    1.667    1.500    0.000    2.333 
#    0.000    4.167    0.000    2.000    0.000    9.333 
#    0.000    0.000    0.000    0.000    0.000    0.000 
#
# Total GULP energy -267257.369937 kJ/mol
# GULP energy per Si atom -5567.861874 kJ/mol
# Density = 2.040275 g / cm^3
# Si number density = 20.449295 Si / 1000 Ang^3
#
#
#
# Elastic Constant Matrix: (Units=GPa)
#
#
# Indices 1 2 3 4 5 6 
#
# 1 37.8658 8.1412 4.7796 0.0000 0.0000 0.0000
# 2 8.1412 135.2441 79.4932 0.0000 0.0000 0.0000
# 3 4.7796 79.4932 154.1442 0.0000 0.0000 0.0000
# 4 0.0000 0.0000 0.0000 29.0311 0.0000 0.0000
# 5 0.0000 0.0000 0.0000 0.0000 6.3383 0.0000
# 6 0.0000 0.0000 0.0000 0.0000 0.0000 9.3878
#
#
#
# Elastic Compliance Matrix: (Units=1/GPa)
#
#
# Indices 1 2 3 4 5 6 
#
# 1 0.026755 -0.001611 0.000001 0.000000 0.000000 0.000000
# 2 -0.001611 0.010707 -0.005472 0.000000 0.000000 0.000000
# 3 0.000001 -0.005472 0.009309 0.000000 0.000000 0.000000
# 4 0.000000 0.000000 0.000000 0.034446 0.000000 0.000000
# 5 0.000000 0.000000 0.000000 0.000000 0.157770 0.000000
# 6 0.000000 0.000000 0.000000 0.000000 0.000000 0.106522
#
#
# Mechanical properties :
#
#
# Convention : Reuss Voigt Hill
#
# Bulk Modulus (GPa) = 30.66719 56.89801 43.78260
# Shear Modulus (GPa) = 13.49374 24.60745 19.05060
#
# Velocity S-wave (km/s) = 2.57157 3.47268 3.05553
# Velocity P-wave (km/s) = 4.88329 6.63051 5.82281
#
# Compressibility (1/GPa) = 0.03260813
#
# Stress axis : x y z
#
# Youngs Moduli (GPa) = 37.37578 93.39473 107.42014
#
# Poissons Ratio (x) = 0.15050 -0.00015
# Poissons Ratio (y) = 0.06023 0.58778
# Poissons Ratio (z) = -0.00005 0.51104
#
# Static dielectric constant tensor:
#      x y z
#    x 1.766170 0.000000 0.000000 
#    y 0.000000 1.776410 0.000000 
#    z 0.000000 0.000000 1.738320 
# 
# From -- ./inp_files/21024.got.cif
#   From: 2010.05.17/outbox.cif.g08.bks.cpg/sg47_11_cif.got.tgz:21024.got - 2010.06.03 20:15:42.
