data_PCOD9387215
_publ_section_title
;
Structure prediction by ZEFSAII (Michael W. Deem and Ramdas Pophale) SiO2 
 PCOD9387215
Probable space group: P M M M
;
_chemical_formula_sum "Si O2"
_cell_formula_units_Z 52
_cell_length_a 9.241138
_cell_length_b 26.822547
_cell_length_c 14.243211
_cell_angle_alpha 90.000000
_cell_angle_beta 90.000000
_cell_angle_gamma 90.000000
_cell_volume 3530.476936
_symmetry_space_group_name_H-M "P M M M"
_symmetry_group_IT_number 47
_symmetry_cell_setting 'orthorhombic'
loop_
_space_group_symop_operation_xyz
x,y,z
-x,-y,z
x,-y,-z
-x,y,-z
-x,-y,-z
x,y,-z
-x,y,z
x,-y,z
loop_
_atom_site_type_symbol
_atom_site_label
_atom_site_fract_x
_atom_site_fract_y
_atom_site_fract_z
Si Si1 0.172845 0.754426 0.109583
Si Si2 0.671884 0.897870 0.611136
Si Si3 0.834472 0.000000 0.613798
Si Si4 0.329026 0.056888 0.112893
Si Si5 0.666601 0.346088 0.114370
Si Si6 0.830916 0.444799 0.885939
Si Si7 0.826745 0.145359 0.222550
O O1 0.250961 0.704173 0.142695
O O2 0.208136 0.803294 0.169278
O O3 0.000000 0.746728 0.113417
O O4 0.211463 0.763123 0.000000
O O5 0.695491 0.889880 0.500000
O O6 0.500000 0.899980 0.627363
O O7 0.745939 0.950509 0.638229
O O8 0.749336 0.857816 0.676807
O O9 0.842657 0.000000 0.500000
O O10 0.000000 0.000000 0.649566
O O11 0.500000 0.063423 0.134892
O O12 0.235767 0.099109 0.162717
O O13 0.288414 0.000000 0.139299
O O14 0.314198 0.060842 0.000000
O O15 0.500000 0.344473 0.142641
O O16 0.741825 0.397098 0.147234
O O17 0.672062 0.346863 0.000000
O O18 0.780384 0.500000 0.855500
O O19 0.000000 0.439558 0.861311
O O20 0.824177 0.444696 0.000000
O O21 0.000000 0.141115 0.231516
#
# Coordination Sequence:
#
# PCOD9387215 Si02
#       7
#     8   8   4   8   8   8   8
#     4   9  18  32  46  60  82 112 145 179 215 256
#     4  10  21  36  52  69  90 115 139 166 207 260
#     4   9  17  31  51  71  88 105 128 161 199 241
#     4   9  19  35  51  66  87 115 143 172 210 257
#     4   9  16  24  36  55  77 103 137 178 219 251
#     4   8  13  21  33  49  71 102 138 173 211 254
#     4  11  22  33  49  70  89 111 142 180 219 256
#
# _framework density 14.728888
#
# number of rings (size 3 to 8) (size 9 to 14) (size 15 to 20)
#    0.000    2.692    0.000    3.000    1.077    6.462 
#    0.000    3.846    0.000    0.000    0.000    0.000 
#    0.000    0.000    0.000    0.000    0.000    0.769 
#
# Total GULP energy -289871.128136 kJ/mol
# GULP energy per Si atom -5574.444772 kJ/mol
# Density = 1.469536 g / cm^3
# Si number density = 14.728888 Si / 1000 Ang^3
#
#
#
# Elastic Constant Matrix: (Units=GPa)
#
#
# Indices 1 2 3 4 5 6 
#
# 1 78.1374 77.8254 33.6394 0.0000 0.0000 0.0000
# 2 77.8254 143.1641 46.1966 0.0000 0.0000 0.0000
# 3 33.6394 46.1966 45.9821 0.0000 0.0000 0.0000
# 4 0.0000 0.0000 0.0000 5.8553 0.0000 0.0000
# 5 0.0000 0.0000 0.0000 0.0000 17.4172 0.0000
# 6 0.0000 0.0000 0.0000 0.0000 0.0000 -51.9016
#
#
#
# Elastic Compliance Matrix: (Units=1/GPa)
#
#
# Indices 1 2 3 4 5 6 
#
# 1 0.029859 -0.013588 -0.008193 0.000000 0.000000 0.000000
# 2 -0.013588 0.016519 -0.006656 0.000000 0.000000 0.000000
# 3 -0.008193 -0.006656 0.034428 0.000000 0.000000 0.000000
# 4 0.000000 0.000000 0.000000 0.170787 0.000000 0.000000
# 5 0.000000 0.000000 0.000000 0.000000 0.057414 0.000000
# 6 0.000000 0.000000 0.000000 0.000000 0.000000 -0.019267
#
#
# Mechanical properties :
#
#
# Convention : Reuss Voigt Hill
#
# Bulk Modulus (GPa) = 41.78275 64.73405 53.25840
# Shear Modulus (GPa) = 14.10081 1.58232 7.84157
#
# Velocity S-wave (km/s) = 3.09748 1.03761 2.30987
# Velocity P-wave (km/s) = 6.42043 6.74398 6.58420
#
# Compressibility (1/GPa) = 0.02393332
#
# Stress axis : x y z
#
# Youngs Moduli (GPa) = 33.49125 60.53592 29.04632
#
# Poissons Ratio (x) = 0.82255 0.23796
# Poissons Ratio (y) = 0.45507 0.19332
# Poissons Ratio (z) = 0.27438 0.40291
#
# Static dielectric constant tensor:
#      x y z
#    x 1.491230 0.000000 0.000000 
#    y 0.000000 1.483780 0.000000 
#    z 0.000000 0.000000 1.486750 
# 
# From -- ./inp_files/13406.got.cif
#   From: 2010.05.17/outbox.cif.g08.bks.cpg/sg47_7_cif.got.tgz:13406.got - 2010.06.03 20:15:42.
