data_PCOD9387709
_publ_section_title
;
Structure prediction by ZEFSAII (Michael W. Deem and Ramdas Pophale) SiO2 
 PCOD9387709
Probable space group: P M M M
;
_chemical_formula_sum "Si O2"
_cell_formula_units_Z 48
_cell_length_a 9.855345
_cell_length_b 8.634095
_cell_length_c 29.726407
_cell_angle_alpha 90.000000
_cell_angle_beta 90.000000
_cell_angle_gamma 90.000000
_cell_volume 2529.478978
_symmetry_space_group_name_H-M "P M M M"
_symmetry_group_IT_number 47
_symmetry_cell_setting 'orthorhombic'
loop_
_space_group_symop_operation_xyz
x,y,z
-x,-y,z
x,-y,-z
-x,y,-z
-x,-y,-z
x,y,-z
-x,y,z
x,-y,z
loop_
_atom_site_type_symbol
_atom_site_label
_atom_site_fract_x
_atom_site_fract_y
_atom_site_fract_z
Si Si1 0.657162 0.313086 0.129235
Si Si2 0.748962 0.183822 0.605432
Si Si3 0.841593 0.687426 0.786031
Si Si4 0.846009 0.186772 0.052460
Si Si5 0.000000 0.315858 0.551757
Si Si6 0.658106 0.812496 0.294604
Si Si7 0.500000 0.680716 0.553524
O O1 0.500000 0.260202 0.133144
O O2 0.654938 0.500000 0.129528
O O3 0.753419 0.262152 0.170589
O O4 0.731563 0.256793 0.084194
O O5 0.874359 0.262145 0.581329
O O6 0.711972 0.234677 0.656080
O O7 0.625999 0.230446 0.573828
O O8 0.769322 0.000000 0.606853
O O9 0.842373 0.500000 0.785365
O O10 0.759035 0.747252 0.742922
O O11 0.000000 0.738140 0.787358
O O12 0.000000 0.235154 0.065843
O O13 0.841127 0.000000 0.055352
O O14 0.827455 0.228644 0.000000
O O15 0.000000 0.500000 0.548369
O O16 0.000000 0.254695 0.500000
O O17 0.500000 0.763564 0.288600
O O18 0.659365 0.000000 0.292681
O O19 0.500000 0.500000 0.567426
O O20 0.500000 0.684742 0.500000
#
# Coordination Sequence:
#
# PCOD9387709 Si02
#       7
#     8   8   8   8   4   8   4
#     4  10  21  37  57  83 117 154 194 241 291 346
#     4  11  23  41  63  88 119 157 199 242 291 352
#     4  10  22  39  60  87 115 148 192 238 286 344
#     4   9  19  36  57  82 114 153 198 245 292 346
#     4  11  25  43  61  87 123 157 195 245 296 349
#     4  10  22  41  61  85 117 150 187 234 286 341
#     4  11  23  39  61  91 123 155 195 243 294 347
#
# _framework density 18.976240000000001
#
# number of rings (size 3 to 8) (size 9 to 14) (size 15 to 20)
#    0.000    1.833    0.833    3.000    1.167    8.667 
#    0.000    2.500    0.000    0.000    0.000    0.000 
#    0.000    0.000    0.000    0.000    0.000    0.000 
#
# Total GULP energy -267958.572378 kJ/mol
# GULP energy per Si atom -5582.470258 kJ/mol
# Density = 1.893305 g / cm^3
# Si number density = 18.976240 Si / 1000 Ang^3
#
#
#
# Elastic Constant Matrix: (Units=GPa)
#
#
# Indices 1 2 3 4 5 6 
#
# 1 214.6470 28.1572 99.2156 0.0000 0.0000 0.0000
# 2 28.1572 13.5356 25.5069 0.0000 0.0000 0.0000
# 3 99.2156 25.5069 127.2527 0.0000 0.0000 0.0000
# 4 0.0000 0.0000 0.0000 35.2324 0.0000 0.0000
# 5 0.0000 0.0000 0.0000 0.0000 31.1819 0.0000
# 6 0.0000 0.0000 0.0000 0.0000 0.0000 36.9880
#
#
#
# Elastic Compliance Matrix: (Units=1/GPa)
#
#
# Indices 1 2 3 4 5 6 
#
# 1 0.007742 -0.007601 -0.004512 0.000000 0.000000 0.000000
# 2 -0.007601 0.126186 -0.019367 0.000000 0.000000 0.000000
# 3 -0.004512 -0.019367 0.015258 0.000000 0.000000 0.000000
# 4 0.000000 0.000000 0.000000 0.028383 0.000000 0.000000
# 5 0.000000 0.000000 0.000000 0.000000 0.032070 0.000000
# 6 0.000000 0.000000 0.000000 0.000000 0.000000 0.027036
#
#
# Mechanical properties :
#
#
# Convention : Reuss Voigt Hill
#
# Bulk Modulus (GPa) = 11.59742 73.46608 42.53175
# Shear Modulus (GPa) = 15.22636 34.18415 24.70526
#
# Velocity S-wave (km/s) = 2.83572 4.24892 3.61211
# Velocity P-wave (km/s) = 4.10446 7.92905 6.31334
#
# Compressibility (1/GPa) = 0.08622606
#
# Stress axis : x y z
#
# Youngs Moduli (GPa) = 129.17101 7.92478 65.53746
#
# Poissons Ratio (x) = 0.06024 0.29573
# Poissons Ratio (y) = 0.98186 1.26924
# Poissons Ratio (z) = 0.58287 0.15348
#
# Static dielectric constant tensor:
#      x y z
#    x 1.066380 0.000000 0.000000 
#    y 0.000000 1.650320 0.000000 
#    z 0.000000 0.000000 1.644630 
# 
# From -- ./inp_files/13874.got.cif
#   From: 2010.05.17/outbox.cif.g08.bks.cpg/sg47_7_cif.got.tgz:13874.got - 2010.06.03 20:15:42.
