data_PCOD9387624
_publ_section_title
;
Structure prediction by ZEFSAII (Michael W. Deem and Ramdas Pophale) SiO2 
 PCOD9387624
Probable space group: P M M M
;
_chemical_formula_sum "Si O2"
_cell_formula_units_Z 48
_cell_length_a 7.825923
_cell_length_b 9.656257
_cell_length_c 31.766910
_cell_angle_alpha 90.000000
_cell_angle_beta 90.000000
_cell_angle_gamma 90.000000
_cell_volume 2400.597553
_symmetry_space_group_name_H-M "P M M M"
_symmetry_group_IT_number 47
_symmetry_cell_setting 'orthorhombic'
loop_
_space_group_symop_operation_xyz
x,y,z
-x,-y,z
x,-y,-z
-x,y,-z
-x,-y,-z
x,y,-z
-x,y,z
x,-y,z
loop_
_atom_site_type_symbol
_atom_site_label
_atom_site_fract_x
_atom_site_fract_y
_atom_site_fract_z
Si Si1 0.796365 0.656363 0.294977
Si Si2 0.794601 0.841386 0.781627
Si Si3 0.293848 0.158360 0.124835
Si Si4 0.702153 0.843088 0.373852
Si Si5 0.291349 0.339612 0.046732
Si Si6 0.793528 0.342706 0.548039
O O1 0.727329 0.500000 0.298591
O O2 0.727374 0.742031 0.255028
O O3 0.771240 0.745581 0.336951
O O4 0.000000 0.644683 0.288811
O O5 0.754045 0.790578 0.828652
O O6 0.000000 0.847755 0.777749
O O7 0.729640 0.000000 0.777409
O O8 0.500000 0.156248 0.122753
O O9 0.230610 0.249243 0.085889
O O10 0.231993 0.000000 0.121403
O O11 0.500000 0.851156 0.367688
O O12 0.735246 0.769054 0.418312
O O13 0.772326 0.000000 0.372331
O O14 0.500000 0.336466 0.047141
O O15 0.241230 0.500000 0.051350
O O16 0.238333 0.291334 0.000000
O O17 0.738081 0.314409 0.500000
O O18 0.738054 0.500000 0.559180
O O19 0.000000 0.343225 0.548261
#
# Coordination Sequence:
#
# PCOD9387624 Si02
#       6
#     8   8   8   8   8   8
#     4  10  21  37  57  79 101 129 170 215 255 301
#     4   9  18  33  51  70  96 130 162 194 241 299
#     4   9  17  28  44  68  94 119 152 196 240 281
#     4  11  24  38  53  78 111 143 174 211 256 304
#     4   8  14  25  41  62  89 120 153 190 234 284
#     4   9  19  37  60  84 109 139 177 218 257 300
#
# _framework density 19.995021999999999
#
# number of rings (size 3 to 8) (size 9 to 14) (size 15 to 20)
#    0.000    2.667    0.000    2.500    0.000    7.000 
#    0.000    5.833    0.000    0.500    0.000    3.500 
#    0.000    0.000    0.000    0.000    0.000    0.000 
#
# Total GULP energy -267825.235885 kJ/mol
# GULP energy per Si atom -5579.692414 kJ/mol
# Density = 1.994951 g / cm^3
# Si number density = 19.995022 Si / 1000 Ang^3
#
#
#
# Elastic Constant Matrix: (Units=GPa)
#
#
# Indices 1 2 3 4 5 6 
#
# 1 21.6479 5.1758 -2.8139 0.0000 0.0000 0.0000
# 2 5.1758 137.6418 110.2997 0.0000 0.0000 0.0000
# 3 -2.8139 110.2997 162.8875 0.0000 0.0000 0.0000
# 4 0.0000 0.0000 0.0000 41.9598 0.0000 0.0000
# 5 0.0000 0.0000 0.0000 0.0000 24.0570 0.0000
# 6 0.0000 0.0000 0.0000 0.0000 0.0000 1.5998
#
#
#
# Elastic Compliance Matrix: (Units=1/GPa)
#
#
# Indices 1 2 3 4 5 6 
#
# 1 0.048071 -0.005407 0.004492 0.000000 0.000000 0.000000
# 2 -0.005407 0.016493 -0.011262 0.000000 0.000000 0.000000
# 3 0.004492 -0.011262 0.013843 0.000000 0.000000 0.000000
# 4 0.000000 0.000000 0.000000 0.023832 0.000000 0.000000
# 5 0.000000 0.000000 0.000000 0.000000 0.041568 0.000000
# 6 0.000000 0.000000 0.000000 0.000000 0.000000 0.625070
#
#
# Mechanical properties :
#
#
# Convention : Reuss Voigt Hill
#
# Bulk Modulus (GPa) = 18.50058 60.83339 39.66698
# Shear Modulus (GPa) = 6.16334 27.49104 16.82719
#
# Velocity S-wave (km/s) = 1.75759 3.71198 2.90413
# Velocity P-wave (km/s) = 3.65944 6.99014 5.57914
#
# Compressibility (1/GPa) = 0.05405236
#
# Stress axis : x y z
#
# Youngs Moduli (GPa) = 20.80273 60.63055 72.23951
#
# Poissons Ratio (x) = 0.32785 -0.32450
# Poissons Ratio (y) = 0.11249 0.81356
# Poissons Ratio (z) = -0.09345 0.68282
#
# Static dielectric constant tensor:
#      x y z
#    x 1.740540 0.000000 0.000000 
#    y 0.000000 1.705920 0.000000 
#    z 0.000000 0.000000 1.684300 
# 
# From -- ./inp_files/2428.got.cif
#   From: 2010.05.17/outbox.cif.g08.bks.cpg/sg47_2_cif.got.tgz:2428.got - 2010.06.03 20:15:42.
