data_PCOD9387819
_publ_section_title
;
Structure prediction by ZEFSAII (Michael W. Deem and Ramdas Pophale) SiO2 
 PCOD9387819
Probable space group: P M M M
;
_chemical_formula_sum "Si O2"
_cell_formula_units_Z 44
_cell_length_a 8.905882
_cell_length_b 33.438993
_cell_length_c 7.688048
_cell_angle_alpha 90.000000
_cell_angle_beta 90.000000
_cell_angle_gamma 90.000000
_cell_volume 2289.529339
_symmetry_space_group_name_H-M "P M M M"
_symmetry_group_IT_number 47
_symmetry_cell_setting 'orthorhombic'
loop_
_space_group_symop_operation_xyz
x,y,z
-x,-y,z
x,-y,-z
-x,y,-z
-x,-y,-z
x,y,-z
-x,y,z
x,-y,z
loop_
_atom_site_type_symbol
_atom_site_label
_atom_site_fract_x
_atom_site_fract_y
_atom_site_fract_z
Si Si1 0.821114 0.708178 0.204566
Si Si2 0.683348 0.854525 0.500000
Si Si3 0.683051 0.912479 0.194168
Si Si4 0.824712 0.455971 0.787858
Si Si5 0.670816 0.374895 0.788102
Si Si6 0.680449 0.237700 0.500000
Si Si7 0.324760 0.000000 0.291511
O O1 0.769299 0.663566 0.257956
O O2 0.741892 0.739623 0.330285
O O3 0.000000 0.711361 0.220623
O O4 0.781228 0.713722 0.000000
O O5 0.500000 0.854242 0.500000
O O6 0.733512 0.880206 0.334014
O O7 0.730273 0.808584 0.500000
O O8 0.500000 0.914298 0.208293
O O9 0.739008 0.957682 0.228794
O O10 0.721672 0.900286 0.000000
O O11 0.770334 0.500000 0.731620
O O12 0.735455 0.417256 0.726196
O O13 0.000000 0.452353 0.740470
O O14 0.818949 0.455805 0.000000
O O15 0.500000 0.369060 0.730771
O O16 0.671328 0.376557 0.000000
O O17 0.500000 0.239158 0.500000
O O18 0.500000 0.000000 0.234759
O O19 0.322356 0.000000 0.500000
#
# Coordination Sequence:
#
# PCOD9387819 Si02
#       7
#     8   4   8   8   8   4   4
#     4  10  21  38  59  80 104 137 178 224 274 331
#     4   9  18  30  41  60  91 127 165 210 262 319
#     4   9  15  23  36  55  83 124 172 215 256 304
#     4   8  13  21  34  56  91 135 178 216 256 308
#     4   9  16  26  43  69 100 132 169 217 271 323
#     4  11  23  37  56  81 109 139 176 224 280 337
#     4   9  13  19  33  52  81 121 170 223 258 290
#
# _framework density 19.217922000000002
#
# number of rings (size 3 to 8) (size 9 to 14) (size 15 to 20)
#    0.000    2.818    0.909    2.182    0.000    5.455 
#    0.000    3.636    0.000    0.000    0.000    0.636 
#    0.000    5.091    0.000    7.091    0.000   32.364 
#
# Total GULP energy -245392.108388 kJ/mol
# GULP energy per Si atom -5577.093372 kJ/mol
# Density = 1.917418 g / cm^3
# Si number density = 19.217922 Si / 1000 Ang^3
#
#
#
# Elastic Constant Matrix: (Units=GPa)
#
#
# Indices 1 2 3 4 5 6 
#
# 1 40.3383 44.0483 29.9762 0.0000 0.0000 0.0000
# 2 44.0483 192.4456 83.7221 0.0000 0.0000 0.0000
# 3 29.9762 83.7221 91.9562 0.0000 0.0000 0.0000
# 4 0.0000 0.0000 0.0000 -13.1120 0.0000 0.0000
# 5 0.0000 0.0000 0.0000 0.0000 11.2665 0.0000
# 6 0.0000 0.0000 0.0000 0.0000 0.0000 -21.9316
#
#
#
# Elastic Compliance Matrix: (Units=1/GPa)
#
#
# Indices 1 2 3 4 5 6 
#
# 1 0.035523 -0.005122 -0.006917 0.000000 0.000000 0.000000
# 2 -0.005122 0.009343 -0.006837 0.000000 0.000000 0.000000
# 3 -0.006917 -0.006837 0.019354 0.000000 0.000000 0.000000
# 4 0.000000 0.000000 0.000000 -0.076266 0.000000 0.000000
# 5 0.000000 0.000000 0.000000 0.000000 0.088758 0.000000
# 6 0.000000 0.000000 0.000000 0.000000 0.000000 -0.045596
#
#
# Mechanical properties :
#
#
# Convention : Reuss Voigt Hill
#
# Bulk Modulus (GPa) = 37.77927 71.13704 54.45815
# Shear Modulus (GPa) = 64.35876 6.37749 35.36812
#
# Velocity S-wave (km/s) = 5.79324 1.82365 4.29461
# Velocity P-wave (km/s) = 8.02807 6.44443 7.27944
#
# Compressibility (1/GPa) = 0.02646954
#
# Stress axis : x y z
#
# Youngs Moduli (GPa) = 28.15069 107.03453 51.66893
#
# Poissons Ratio (x) = 0.54819 0.35739
# Poissons Ratio (y) = 0.14418 0.35324
# Poissons Ratio (z) = 0.19472 0.73176
#
# Static dielectric constant tensor:
#      x y z
#    x 1.650970 0.000000 0.000000 
#    y 0.000000 1.658650 0.000000 
#    z 0.000000 0.000000 1.697720 
# 
# From -- ./inp_files/2354.got.cif
#   From: 2010.05.17/outbox.cif.g08.bks.cpg/sg47_2_cif.got.tgz:2354.got - 2010.06.03 20:15:42.
