data_PCOD9387800
_publ_section_title
;
Structure prediction by ZEFSAII (Michael W. Deem and Ramdas Pophale) SiO2 
 PCOD9387800
Probable space group: P M M M
;
_chemical_formula_sum "Si O2"
_cell_formula_units_Z 52
_cell_length_a 9.261425
_cell_length_b 10.938441
_cell_length_c 30.032959
_cell_angle_alpha 90.000000
_cell_angle_beta 90.000000
_cell_angle_gamma 90.000000
_cell_volume 3042.505458
_symmetry_space_group_name_H-M "P M M M"
_symmetry_group_IT_number 47
_symmetry_cell_setting 'orthorhombic'
loop_
_space_group_symop_operation_xyz
x,y,z
-x,-y,z
x,-y,-z
-x,y,-z
-x,-y,-z
x,y,-z
-x,y,z
x,-y,z
loop_
_atom_site_type_symbol
_atom_site_label
_atom_site_fract_x
_atom_site_fract_y
_atom_site_fract_z
Si Si1 0.328438 0.301043 0.109836
Si Si2 0.836267 0.145140 0.050070
Si Si3 0.833003 0.500000 0.947045
Si Si4 0.168301 0.148699 0.549500
Si Si5 0.827171 0.358758 0.202365
Si Si6 0.335835 0.851875 0.636665
Si Si7 0.173360 0.857834 0.728331
O O1 0.500000 0.312659 0.110766
O O2 0.272245 0.173938 0.090025
O O3 0.253268 0.387585 0.073465
O O4 0.260229 0.334669 0.157172
O O5 0.000000 0.193116 0.058680
O O6 0.847062 0.000000 0.047460
O O7 0.793256 0.187436 0.000000
O O8 0.000000 0.500000 0.932113
O O9 0.830986 0.500000 0.000000
O O10 0.217329 0.187377 0.500000
O O11 0.260361 0.192683 0.591383
O O12 0.000000 0.182027 0.554755
O O13 0.173265 0.000000 0.549803
O O14 0.799210 0.500000 0.217278
O O15 0.789808 0.249175 0.236580
O O16 0.000000 0.350515 0.193872
O O17 0.500000 0.808183 0.640326
O O18 0.246031 0.826340 0.681174
O O19 0.339528 0.000000 0.633623
O O20 0.000000 0.857494 0.723412
O O21 0.214136 0.000000 0.740303
#
# Coordination Sequence:
#
# PCOD9387800 Si02
#       7
#     8   8   4   8   8   8   8
#     4  12  24  36  54  81 109 134 162 203 257 307
#     4   9  19  37  59  80 104 138 176 207 239 290
#     4  11  23  39  59  79 101 133 171 205 238 289
#     4   8  13  21  34  54  84 125 169 209 250 298
#     4  10  21  38  58  76 100 136 176 215 257 309
#     4   9  16  25  39  62  93 128 164 206 257 309
#     4   9  18  33  53  75  97 127 171 218 260 304
#
# _framework density 17.091176999999998
#
# number of rings (size 3 to 8) (size 9 to 14) (size 15 to 20)
#    0.000    2.385    0.769    3.462    0.000    6.462 
#    0.000    3.846    0.000    0.000    0.000    0.000 
#    0.000    0.615    0.000    7.077    0.000    9.077 
#
# Total GULP energy -289586.024920 kJ/mol
# GULP energy per Si atom -5568.962018 kJ/mol
# Density = 1.705228 g / cm^3
# Si number density = 17.091177 Si / 1000 Ang^3
#
#
#
# Elastic Constant Matrix: (Units=GPa)
#
#
# Indices 1 2 3 4 5 6 
#
# 1 72.0620 33.9451 65.8679 0.0000 0.0000 0.0000
# 2 33.9451 65.9222 51.4577 0.0000 0.0000 0.0000
# 3 65.8679 51.4577 124.8189 0.0000 0.0000 0.0000
# 4 0.0000 0.0000 0.0000 5.8542 0.0000 0.0000
# 5 0.0000 0.0000 0.0000 0.0000 -7.1694 0.0000
# 6 0.0000 0.0000 0.0000 0.0000 0.0000 -0.6753
#
#
#
# Elastic Compliance Matrix: (Units=1/GPa)
#
#
# Indices 1 2 3 4 5 6 
#
# 1 0.027570 -0.004187 -0.012822 0.000000 0.000000 0.000000
# 2 -0.004187 0.023003 -0.007274 0.000000 0.000000 0.000000
# 3 -0.012822 -0.007274 0.017777 0.000000 0.000000 0.000000
# 4 0.000000 0.000000 0.000000 0.170818 0.000000 0.000000
# 5 0.000000 0.000000 0.000000 0.000000 -0.139482 0.000000
# 6 0.000000 0.000000 0.000000 0.000000 0.000000 -1.480801
#
#
# Mechanical properties :
#
#
# Convention : Reuss Voigt Hill
#
# Bulk Modulus (GPa) = 50.54893 62.81605 56.68249
# Shear Modulus (GPa) = -3.77087 7.03738 1.63325
#
# Velocity S-wave (km/s) = -1.48698 2.03138 0.97861
# Velocity P-wave (km/s) = 5.16644 6.50656 5.87483
#
# Compressibility (1/GPa) = 0.01978281
#
# Stress axis : x y z
#
# Youngs Moduli (GPa) = 36.27157 43.47213 56.25331
#
# Poissons Ratio (x) = 0.18204 0.72131
# Poissons Ratio (y) = 0.15188 0.40916
# Poissons Ratio (z) = 0.46509 0.31620
#
# Static dielectric constant tensor:
#      x y z
#    x 1.573160 0.000000 0.000000 
#    y 0.000000 1.806370 0.000000 
#    z 0.000000 0.000000 1.570690 
# 
# From -- ./inp_files/13260.got.cif
#   From: 2010.05.17/outbox.cif.g08.bks.cpg/sg47_7_cif.got.tgz:13260.got - 2010.06.03 20:15:42.
