data_PCOD9387848
_publ_section_title
;
Structure prediction by ZEFSAII (Michael W. Deem and Ramdas Pophale) SiO2 
 PCOD9387848
Probable space group: P M M M
;
_chemical_formula_sum "Si O2"
_cell_formula_units_Z 56
_cell_length_a 14.279689
_cell_length_b 8.815991
_cell_length_c 23.704350
_cell_angle_alpha 90.000000
_cell_angle_beta 90.000000
_cell_angle_gamma 90.000000
_cell_volume 2984.131370
_symmetry_space_group_name_H-M "P M M M"
_symmetry_group_IT_number 47
_symmetry_cell_setting 'orthorhombic'
loop_
_space_group_symop_operation_xyz
x,y,z
-x,-y,z
x,-y,-z
-x,y,-z
-x,-y,-z
x,y,-z
-x,y,z
x,-y,z
loop_
_atom_site_type_symbol
_atom_site_label
_atom_site_fract_x
_atom_site_fract_y
_atom_site_fract_z
Si Si1 0.887270 0.679053 0.063905
Si Si2 0.892935 0.184457 0.500000
Si Si3 0.109586 0.318007 0.722736
Si Si4 0.386363 0.826757 0.000000
Si Si5 0.214682 0.820285 0.830003
Si Si6 0.391825 0.317853 0.565803
Si Si7 0.211899 0.818168 0.614283
Si Si8 0.390637 0.318778 0.880411
O O1 0.864635 0.500000 0.071140
O O2 0.838592 0.773449 0.112612
O O3 0.000000 0.692691 0.068145
O O4 0.860384 0.723459 0.000000
O O5 0.841118 0.232098 0.556981
O O6 0.000000 0.236124 0.500000
O O7 0.892718 0.000000 0.500000
O O8 0.114546 0.500000 0.723191
O O9 0.159934 0.253842 0.778108
O O10 0.161701 0.253983 0.667900
O O11 0.000000 0.273645 0.722084
O O12 0.361786 0.740283 0.942641
O O13 0.500000 0.832474 0.000000
O O14 0.351484 0.000000 0.000000
O O15 0.319543 0.755423 0.836548
O O16 0.216882 0.000000 0.823789
O O17 0.374817 0.275320 0.500000
O O18 0.500000 0.281843 0.578522
O O19 0.380771 0.500000 0.569744
O O20 0.318108 0.236079 0.605665
O O21 0.207480 0.000000 0.618247
O O22 0.500000 0.278257 0.871426
O O23 0.382838 0.500000 0.878994
#
# Coordination Sequence:
#
# PCOD9387848 Si02
#       8
#     8   4   8   4   8   8   8   8
#     4   9  19  37  60  85 115 152 194 242 296 355
#     4   9  18  32  52  83 122 158 189 233 298 361
#     4  11  25  45  66  87 116 158 206 251 297 357
#     4   9  17  31  53  83 118 151 188 239 295 349
#     4  12  25  39  60  88 119 155 196 248 305 359
#     4   9  18  34  57  86 124 168 208 248 295 350
#     4  11  21  36  60  91 125 160 199 249 304 358
#     4  10  21  38  60  85 116 157 200 242 294 358
#
# _framework density 18.765927999999999
#
# number of rings (size 3 to 8) (size 9 to 14) (size 15 to 20)
#    0.000    1.857    0.714    4.500    1.000    6.000 
#    0.000    2.143    0.000    6.000    0.000    0.000 
#    0.000    0.000    0.000    0.000    0.000    0.000 
#
# Total GULP energy -312952.411851 kJ/mol
# GULP energy per Si atom -5588.435926 kJ/mol
# Density = 1.872322 g / cm^3
# Si number density = 18.765928 Si / 1000 Ang^3
#
#
#
# Elastic Constant Matrix: (Units=GPa)
#
#
# Indices 1 2 3 4 5 6 
#
# 1 139.4998 59.2742 86.3190 0.0000 0.0000 0.0000
# 2 59.2742 77.4303 55.3603 0.0000 0.0000 0.0000
# 3 86.3190 55.3603 131.3595 0.0000 0.0000 0.0000
# 4 0.0000 0.0000 0.0000 28.8663 0.0000 0.0000
# 5 0.0000 0.0000 0.0000 0.0000 33.1329 0.0000
# 6 0.0000 0.0000 0.0000 0.0000 0.0000 22.2719
#
#
#
# Elastic Compliance Matrix: (Units=1/GPa)
#
#
# Indices 1 2 3 4 5 6 
#
# 1 0.013682 -0.005791 -0.006550 0.000000 0.000000 0.000000
# 2 -0.005791 0.020935 -0.005018 0.000000 0.000000 0.000000
# 3 -0.006550 -0.005018 0.014032 0.000000 0.000000 0.000000
# 4 0.000000 0.000000 0.000000 0.034642 0.000000 0.000000
# 5 0.000000 0.000000 0.000000 0.000000 0.030182 0.000000
# 6 0.000000 0.000000 0.000000 0.000000 0.000000 0.044900
#
#
# Mechanical properties :
#
#
# Convention : Reuss Voigt Hill
#
# Bulk Modulus (GPa) = 71.77977 83.35519 77.56748
# Shear Modulus (GPa) = 25.28644 26.67662 25.98153
#
# Velocity S-wave (km/s) = 3.67477 3.77443 3.72493
# Velocity P-wave (km/s) = 7.50588 7.96931 7.74107
#
# Compressibility (1/GPa) = 0.01393150
#
# Stress axis : x y z
#
# Youngs Moduli (GPa) = 73.08783 47.76636 71.26631
#
# Poissons Ratio (x) = 0.27659 0.46683
# Poissons Ratio (y) = 0.42322 0.35761
# Poissons Ratio (z) = 0.47876 0.23969
#
# Static dielectric constant tensor:
#      x y z
#    x 1.667160 0.000000 0.000000 
#    y 0.000000 1.628450 0.000000 
#    z 0.000000 0.000000 1.617410 
# 
# From -- ./inp_files/30987.got.cif
#   From: 2010.05.17/outbox.cif.g08.bks.cpg/sg47_16_cif.got.tgz:30987.got - 2010.06.03 20:15:42.
