data_PCOD9387593
_publ_section_title
;
Structure prediction by ZEFSAII (Michael W. Deem and Ramdas Pophale) SiO2 
 PCOD9387593
Probable space group: P M M M
;
_chemical_formula_sum "Si O2"
_cell_formula_units_Z 40
_cell_length_a 28.470736
_cell_length_b 9.481702
_cell_length_c 7.856313
_cell_angle_alpha 90.000000
_cell_angle_beta 90.000000
_cell_angle_gamma 90.000000
_cell_volume 2120.819821
_symmetry_space_group_name_H-M "P M M M"
_symmetry_group_IT_number 47
_symmetry_cell_setting 'orthorhombic'
loop_
_space_group_symop_operation_xyz
x,y,z
-x,-y,z
x,-y,-z
-x,y,-z
-x,-y,-z
x,y,-z
-x,y,z
x,-y,z
loop_
_atom_site_type_symbol
_atom_site_label
_atom_site_fract_x
_atom_site_fract_y
_atom_site_fract_z
Si Si1 0.123490 0.669140 0.300205
Si Si2 0.590245 0.660066 0.797511
Si Si3 0.500000 0.841779 0.702217
Si Si4 0.946518 0.671194 0.000000
Si Si5 0.782447 0.838786 0.292450
Si Si6 0.306096 0.339136 0.703778
O O1 0.112906 0.698756 0.500000
O O2 0.130915 0.500000 0.286384
O O3 0.171083 0.750033 0.250931
O O4 0.082434 0.710518 0.169518
O O5 0.584050 0.500000 0.728562
O O6 0.546599 0.756823 0.751164
O O7 0.641231 0.713090 0.738837
O O8 0.591781 0.651168 0.000000
O O9 0.500000 0.852026 0.500000
O O10 0.500000 0.000000 0.775270
O O11 0.948324 0.500000 0.000000
O O12 0.000000 0.723415 0.000000
O O13 0.780491 0.841918 0.500000
O O14 0.735591 0.759452 0.231109
O O15 0.784987 0.000000 0.233253
O O16 0.300718 0.346634 0.500000
O O17 0.302552 0.500000 0.770673
#
# Coordination Sequence:
#
# PCOD9387593 Si02
#       6
#     8   8   4   4   8   8
#     4   9  17  31  52  76 103 138 177 217 265 317
#     4  10  21  37  56  79 106 136 171 212 260 314
#     4  11  24  39  56  78 102 133 174 217 262 312
#     4   9  18  32  51  79 109 135 173 224 269 310
#     4   9  17  30  50  75 103 136 173 213 256 304
#     4   9  17  31  52  76 103 136 173 213 256 305
#
# _framework density 18.86063
#
# number of rings (size 3 to 8) (size 9 to 14) (size 15 to 20)
#    0.000    2.600    0.000    1.800    0.000    6.800 
#    1.800    4.500    0.000    1.200    0.000    2.800 
#    0.000    0.000    0.000    0.000    0.000    0.000 
#
# Total GULP energy -223119.026003 kJ/mol
# GULP energy per Si atom -5577.975650 kJ/mol
# Density = 1.881770 g / cm^3
# Si number density = 18.860630 Si / 1000 Ang^3
#
#
#
# Elastic Constant Matrix: (Units=GPa)
#
#
# Indices 1 2 3 4 5 6 
#
# 1 209.8094 91.5936 50.5031 0.0000 0.0000 0.0000
# 2 91.5936 76.1145 28.9889 0.0000 0.0000 0.0000
# 3 50.5031 28.9889 54.2323 0.0000 0.0000 0.0000
# 4 0.0000 0.0000 0.0000 8.9717 0.0000 0.0000
# 5 0.0000 0.0000 0.0000 0.0000 53.0885 0.0000
# 6 0.0000 0.0000 0.0000 0.0000 0.0000 -5.1419
#
#
#
# Elastic Compliance Matrix: (Units=1/GPa)
#
#
# Indices 1 2 3 4 5 6 
#
# 1 0.010645 -0.011344 -0.003849 0.000000 0.000000 0.000000
# 2 -0.011344 0.028585 -0.004716 0.000000 0.000000 0.000000
# 3 -0.003849 -0.004716 0.024545 0.000000 0.000000 0.000000
# 4 0.000000 0.000000 0.000000 0.111461 0.000000 0.000000
# 5 0.000000 0.000000 0.000000 0.000000 0.018836 0.000000
# 6 0.000000 0.000000 0.000000 0.000000 0.000000 -0.194479
#
#
# Mechanical properties :
#
#
# Convention : Reuss Voigt Hill
#
# Bulk Modulus (GPa) = 41.74220 75.81416 58.77818
# Shear Modulus (GPa) = 105.49289 22.65503 64.07396
#
# Velocity S-wave (km/s) = 7.48694 3.46957 5.83490
# Velocity P-wave (km/s) = 9.84475 7.50565 8.75368
#
# Compressibility (1/GPa) = 0.02395657
#
# Stress axis : x y z
#
# Youngs Moduli (GPa) = 93.94073 34.98353 40.74201
#
# Poissons Ratio (x) = 0.39684 0.15683
# Poissons Ratio (y) = 1.06564 0.19213
# Poissons Ratio (z) = 0.36162 0.16498
#
# Static dielectric constant tensor:
#      x y z
#    x 1.689040 0.000000 0.000000 
#    y 0.000000 1.658620 0.000000 
#    z 0.000000 0.000000 1.669290 
# 
# From -- ./inp_files/1831.got.cif
#   From: 2010.05.17/outbox.cif.g08.bks.cpg/sg47_1_cif.got.tgz:1831.got - 2010.06.03 20:15:42.
