data_PCOD9387020
_publ_section_title
;
Structure prediction by ZEFSAII (Michael W. Deem and Ramdas Pophale) SiO2 
 PCOD9387020
Probable space group: P M M M
;
_chemical_formula_sum "Si O2"
_cell_formula_units_Z 40
_cell_length_a 9.861008
_cell_length_b 7.731975
_cell_length_c 26.507979
_cell_angle_alpha 90.000000
_cell_angle_beta 90.000000
_cell_angle_gamma 90.000000
_cell_volume 2021.102644
_symmetry_space_group_name_H-M "P M M M"
_symmetry_group_IT_number 47
_symmetry_cell_setting 'orthorhombic'
loop_
_space_group_symop_operation_xyz
x,y,z
-x,-y,z
x,-y,-z
-x,y,-z
-x,-y,-z
x,y,-z
-x,y,z
x,-y,z
loop_
_atom_site_type_symbol
_atom_site_label
_atom_site_fract_x
_atom_site_fract_y
_atom_site_fract_z
Si Si1 0.843572 0.788933 0.907822
Si Si2 0.652745 0.294738 0.297483
Si Si3 0.654321 0.205031 0.590481
Si Si4 0.156097 0.212505 0.500000
Si Si5 0.153331 0.207952 0.205488
Si Si6 0.656295 0.788056 0.000000
O O1 0.807065 0.732878 0.850918
O O2 0.739583 0.731497 0.950591
O O3 0.000000 0.737702 0.918021
O O4 0.842558 0.000000 0.908477
O O5 0.500000 0.224775 0.289735
O O6 0.644826 0.500000 0.301660
O O7 0.701429 0.229793 0.351989
O O8 0.746895 0.254067 0.250347
O O9 0.500000 0.276253 0.586003
O O10 0.759508 0.271114 0.549086
O O11 0.644094 0.000000 0.581619
O O12 0.000000 0.269150 0.500000
O O13 0.153432 0.000000 0.500000
O O14 0.000000 0.270264 0.215414
O O15 0.148562 0.000000 0.203205
O O16 0.500000 0.732492 0.000000
O O17 0.656074 0.000000 0.000000
#
# Coordination Sequence:
#
# PCOD9387020 Si02
#       6
#     8   8   8   4   8   4
#     4   8  14  25  40  59  87 122 155 188 231 283
#     4  10  21  35  50  71  99 130 164 201 243 290
#     4   9  17  31  51  72  95 126 161 194 232 281
#     4   9  17  29  48  75 100 120 150 195 240 279
#     4   9  18  32  50  72  96 125 164 205 243 286
#     4   9  15  21  33  59  92 121 150 187 232 280
#
# _framework density 19.791177000000001
#
# number of rings (size 3 to 8) (size 9 to 14) (size 15 to 20)
#    0.000    3.000    0.000    2.400    0.000    5.600 
#    0.000    4.500    0.000    3.000    0.000    0.700 
#    0.000    5.600    0.000    0.000    0.000    0.000 
#
# Total GULP energy -223069.588323 kJ/mol
# GULP energy per Si atom -5576.739708 kJ/mol
# Density = 1.974613 g / cm^3
# Si number density = 19.791177 Si / 1000 Ang^3
#
#
#
# Elastic Constant Matrix: (Units=GPa)
#
#
# Indices 1 2 3 4 5 6 
#
# 1 139.9760 5.4166 143.3030 0.0000 0.0000 0.0000
# 2 5.4166 27.3576 1.4036 0.0000 0.0000 0.0000
# 3 143.3030 1.4036 207.3212 0.0000 0.0000 0.0000
# 4 0.0000 0.0000 0.0000 -43.8534 0.0000 0.0000
# 5 0.0000 0.0000 0.0000 0.0000 36.4979 0.0000
# 6 0.0000 0.0000 0.0000 0.0000 0.0000 3.7830
#
#
#
# Elastic Compliance Matrix: (Units=1/GPa)
#
#
# Indices 1 2 3 4 5 6 
#
# 1 0.024876 -0.004044 -0.017167 0.000000 0.000000 0.000000
# 2 -0.004044 0.037223 0.002544 0.000000 0.000000 0.000000
# 3 -0.017167 0.002544 0.016672 0.000000 0.000000 0.000000
# 4 0.000000 0.000000 0.000000 -0.022803 0.000000 0.000000
# 5 0.000000 0.000000 0.000000 0.000000 0.027399 0.000000
# 6 0.000000 0.000000 0.000000 0.000000 0.000000 0.264341
#
#
# Mechanical properties :
#
#
# Convention : Reuss Voigt Hill
#
# Bulk Modulus (GPa) = 24.13396 74.98903 49.56150
# Shear Modulus (GPa) = 12.53590 14.25426 13.39508
#
# Velocity S-wave (km/s) = 2.51949 2.68663 2.60440
# Velocity P-wave (km/s) = 4.54803 6.89901 5.84298
#
# Compressibility (1/GPa) = 0.04143539
#
# Stress axis : x y z
#
# Youngs Moduli (GPa) = 40.20012 26.86495 59.98006
#
# Poissons Ratio (x) = 0.10865 1.02967
# Poissons Ratio (y) = 0.16259 -0.15256
# Poissons Ratio (z) = 0.69011 -0.06833
#
# Static dielectric constant tensor:
#      x y z
#    x 1.699500 0.000000 0.000000 
#    y 0.000000 1.718870 0.000000 
#    z 0.000000 0.000000 1.682510 
# 
# From -- ./inp_files/33068.got.cif
#   From: 2010.05.17/outbox.cif.g08.bks.cpg/sg47_17_cif.got.tgz:33068.got - 2010.06.03 20:15:42.
