data_PCOD9387737
_publ_section_title
;
Structure prediction by ZEFSAII (Michael W. Deem and Ramdas Pophale) SiO2 
 PCOD9387737
Probable space group: P M M M
;
_chemical_formula_sum "Si O2"
_cell_formula_units_Z 52
_cell_length_a 30.072977
_cell_length_b 10.887432
_cell_length_c 8.965825
_cell_angle_alpha 90.000000
_cell_angle_beta 90.000000
_cell_angle_gamma 90.000000
_cell_volume 2935.567936
_symmetry_space_group_name_H-M "P M M M"
_symmetry_group_IT_number 47
_symmetry_cell_setting 'orthorhombic'
loop_
_space_group_symop_operation_xyz
x,y,z
-x,-y,z
x,-y,-z
-x,y,-z
-x,-y,-z
x,y,-z
-x,y,z
x,-y,z
loop_
_atom_site_type_symbol
_atom_site_label
_atom_site_fract_x
_atom_site_fract_y
_atom_site_fract_z
Si Si1 0.450769 0.649340 0.825446
Si Si2 0.361375 0.648454 0.331324
Si Si3 0.731658 0.355763 0.821551
Si Si4 0.052787 0.000000 0.673377
Si Si5 0.112977 0.800857 0.823873
Si Si6 0.049596 0.354349 0.330351
Si Si7 0.207898 0.141927 0.679230
O O1 0.500000 0.689027 0.773556
O O2 0.450572 0.500000 0.818582
O O3 0.408225 0.694004 0.734061
O O4 0.446081 0.681232 0.000000
O O5 0.353715 0.692514 0.500000
O O6 0.364789 0.500000 0.336969
O O7 0.318929 0.672630 0.228148
O O8 0.741019 0.500000 0.777761
O O9 0.762091 0.251481 0.746378
O O10 0.736115 0.349372 0.000000
O O11 0.074352 0.112992 0.759178
O O12 0.066472 0.000000 0.500000
O O13 0.000000 0.000000 0.679849
O O14 0.091599 0.673066 0.773618
O O15 0.158532 0.835545 0.743034
O O16 0.118448 0.812575 0.000000
O O17 0.056511 0.305474 0.500000
O O18 0.046700 0.500000 0.341556
O O19 0.000000 0.311920 0.280331
O O20 0.207815 0.150774 0.500000
O O21 0.221083 0.000000 0.717962
#
# Coordination Sequence:
#
# PCOD9387737 Si02
#       7
#     8   8   8   4   8   8   8
#     4   8  13  21  34  55  88 132 178 222 272 329
#     4   9  16  26  42  66  98 136 179 226 274 327
#     4  10  21  37  58  83 111 144 184 231 282 334
#     4  11  23  39  59  81 107 139 173 207 246 301
#     4  12  24  37  57  83 110 138 170 212 262 312
#     4   9  19  37  59  81 108 144 181 214 253 306
#     4  11  24  42  63  83 109 145 184 227 278 333
#
# _framework density 17.71378
#
# number of rings (size 3 to 8) (size 9 to 14) (size 15 to 20)
#    0.000    2.077    0.769    4.385    0.000    7.692 
#    0.000    2.308    0.000    0.000    0.000    0.000 
#    0.000    0.615    0.000    6.462    0.000    8.923 
#
# Total GULP energy -289730.017263 kJ/mol
# GULP energy per Si atom -5571.731101 kJ/mol
# Density = 1.767346 g / cm^3
# Si number density = 17.713780 Si / 1000 Ang^3
#
#
#
# Elastic Constant Matrix: (Units=GPa)
#
#
# Indices 1 2 3 4 5 6 
#
# 1 106.7301 47.7048 51.1741 0.0000 0.0000 0.0000
# 2 47.7048 71.5401 38.7858 0.0000 0.0000 0.0000
# 3 51.1741 38.7858 88.6527 0.0000 0.0000 0.0000
# 4 0.0000 0.0000 0.0000 -1.1248 0.0000 0.0000
# 5 0.0000 0.0000 0.0000 0.0000 33.5183 0.0000
# 6 0.0000 0.0000 0.0000 0.0000 0.0000 3.2434
#
#
#
# Elastic Compliance Matrix: (Units=1/GPa)
#
#
# Indices 1 2 3 4 5 6 
#
# 1 0.015280 -0.007088 -0.005719 0.000000 0.000000 0.000000
# 2 -0.007088 0.021613 -0.005364 0.000000 0.000000 0.000000
# 3 -0.005719 -0.005364 0.016928 0.000000 0.000000 0.000000
# 4 0.000000 0.000000 0.000000 -0.889070 0.000000 0.000000
# 5 0.000000 0.000000 0.000000 0.000000 0.029834 0.000000
# 6 0.000000 0.000000 0.000000 0.000000 0.000000 0.308322
#
#
# Mechanical properties :
#
#
# Convention : Reuss Voigt Hill
#
# Bulk Modulus (GPa) = 57.21471 60.25026 58.73249
# Shear Modulus (GPa) = -10.99086 15.74459 2.37687
#
# Velocity S-wave (km/s) = -2.49362 2.98456 1.15963
# Velocity P-wave (km/s) = 4.90701 6.77967 5.91788
#
# Compressibility (1/GPa) = 0.01747802
#
# Stress axis : x y z
#
# Youngs Moduli (GPa) = 65.44593 46.26835 59.07384
#
# Poissons Ratio (x) = 0.32797 0.33784
# Poissons Ratio (y) = 0.46391 0.31687
# Poissons Ratio (z) = 0.37428 0.24819
#
# Static dielectric constant tensor:
#      x y z
#    x 1.601050 0.000000 0.000000 
#    y 0.000000 2.122560 0.000000 
#    z 0.000000 0.000000 1.604270 
# 
# From -- ./inp_files/13259.got.cif
#   From: 2010.05.17/outbox.cif.g08.bks.cpg/sg47_7_cif.got.tgz:13259.got - 2010.06.03 20:15:42.
