data_PCOD9387216
_publ_section_title
;
Structure prediction by ZEFSAII (Michael W. Deem and Ramdas Pophale) SiO2 
 PCOD9387216
Probable space group: P M M M
;
_chemical_formula_sum "Si O2"
_cell_formula_units_Z 52
_cell_length_a 14.085460
_cell_length_b 9.143177
_cell_length_c 24.553895
_cell_angle_alpha 90.000000
_cell_angle_beta 90.000000
_cell_angle_gamma 90.000000
_cell_volume 3162.194334
_symmetry_space_group_name_H-M "P M M M"
_symmetry_group_IT_number 47
_symmetry_cell_setting 'orthorhombic'
loop_
_space_group_symop_operation_xyz
x,y,z
-x,-y,z
x,-y,-z
-x,y,-z
-x,-y,-z
x,y,-z
-x,y,z
x,-y,z
loop_
_atom_site_type_symbol
_atom_site_label
_atom_site_fract_x
_atom_site_fract_y
_atom_site_fract_z
Si Si1 0.383764 0.330860 0.000000
Si Si2 0.112728 0.672076 0.171066
Si Si3 0.115367 0.168086 0.939496
Si Si4 0.720005 0.174960 0.778009
Si Si5 0.613682 0.324019 0.441470
Si Si6 0.386544 0.324168 0.321626
Si Si7 0.611940 0.825634 0.110645
O O1 0.353179 0.252349 0.055731
O O2 0.355969 0.500000 0.000000
O O3 0.500000 0.323403 0.000000
O O4 0.131650 0.500000 0.175087
O O5 0.140303 0.730886 0.111025
O O6 0.175125 0.760786 0.213916
O O7 0.000000 0.696165 0.177778
O O8 0.000000 0.164919 0.940665
O O9 0.146915 0.000000 0.930131
O O10 0.146033 0.214841 0.000000
O O11 0.667752 0.244296 0.726537
O O12 0.664193 0.215704 0.833689
O O13 0.721067 0.000000 0.774148
O O14 0.650972 0.267797 0.500000
O O15 0.500000 0.299682 0.441634
O O16 0.626487 0.500000 0.441634
O O17 0.647020 0.273420 0.382028
O O18 0.500000 0.297510 0.317420
O O19 0.373398 0.500000 0.317857
O O20 0.500000 0.792646 0.117006
O O21 0.621315 0.000000 0.103200
#
# Coordination Sequence:
#
# PCOD9387216 Si02
#       7
#     4   8   8   8   8   8   8
#     4   9  17  29  47  69  88 109 142 187 235 274
#     4  10  21  36  52  69  90 116 149 194 245 291
#     4   8  14  27  48  70  89 110 137 171 218 281
#     4  11  22  34  49  69  93 125 161 195 234 285
#     4   7  10  19  38  65  96 130 166 197 225 262
#     4   9  17  29  47  72 102 134 165 200 237 269
#     4   9  18  33  50  66  87 117 151 185 223 271
#
# _framework density 16.444275999999999
#
# number of rings (size 3 to 8) (size 9 to 14) (size 15 to 20)
#    0.000    3.000    0.000    3.462    0.000    4.308 
#    1.385    3.077    0.000    0.462    0.000    2.154 
#    0.000    0.615    0.000    7.077    0.000    2.308 
#
# Total GULP energy -289839.296978 kJ/mol
# GULP energy per Si atom -5573.832634 kJ/mol
# Density = 1.640685 g / cm^3
# Si number density = 16.444276 Si / 1000 Ang^3
#
#
#
# Elastic Constant Matrix: (Units=GPa)
#
#
# Indices 1 2 3 4 5 6 
#
# 1 49.8385 27.8711 47.1393 0.0000 0.0000 0.0000
# 2 27.8711 40.3542 59.9724 0.0000 0.0000 0.0000
# 3 47.1393 59.9724 163.3670 0.0000 0.0000 0.0000
# 4 0.0000 0.0000 0.0000 -95.3541 0.0000 0.0000
# 5 0.0000 0.0000 0.0000 0.0000 12.9990 0.0000
# 6 0.0000 0.0000 0.0000 0.0000 0.0000 13.3788
#
#
#
# Elastic Compliance Matrix: (Units=1/GPa)
#
#
# Indices 1 2 3 4 5 6 
#
# 1 0.033169 -0.019111 -0.002555 0.000000 0.000000 0.000000
# 2 -0.019111 0.065542 -0.018546 0.000000 0.000000 0.000000
# 3 -0.002555 -0.018546 0.013667 0.000000 0.000000 0.000000
# 4 0.000000 0.000000 0.000000 -0.010487 0.000000 0.000000
# 5 0.000000 0.000000 0.000000 0.000000 0.076929 0.000000
# 6 0.000000 0.000000 0.000000 0.000000 0.000000 0.074745
#
#
# Mechanical properties :
#
#
# Convention : Reuss Voigt Hill
#
# Bulk Modulus (GPa) = 31.29592 58.16948 44.73270
# Shear Modulus (GPa) = 14.50783 -5.89012 4.30886
#
# Velocity S-wave (km/s) = 2.97348 -1.89463 1.62048
# Velocity P-wave (km/s) = 5.55532 5.53754 5.54643
#
# Compressibility (1/GPa) = 0.03195304
#
# Stress axis : x y z
#
# Youngs Moduli (GPa) = 30.14854 15.25729 73.17005
#
# Poissons Ratio (x) = 0.29159 0.18696
# Poissons Ratio (y) = 0.57618 1.35703
# Poissons Ratio (z) = 0.07703 0.28296
#
# Static dielectric constant tensor:
#      x y z
#    x 1.572680 0.000000 0.000000 
#    y 0.000000 1.548250 0.000000 
#    z 0.000000 0.000000 1.565690 
# 
# From -- ./inp_files/32631.got.cif
#   From: 2010.05.17/outbox.cif.g08.bks.cpg/sg47_17_cif.got.tgz:32631.got - 2010.06.03 20:15:42.
