data_PCOD9387397
_publ_section_title
;
Structure prediction by ZEFSAII (Michael W. Deem and Ramdas Pophale) SiO2 
 PCOD9387397
Probable space group: P M M M
;
_chemical_formula_sum "Si O2"
_cell_formula_units_Z 52
_cell_length_a 7.613562
_cell_length_b 20.341924
_cell_length_c 15.299692
_cell_angle_alpha 90.000000
_cell_angle_beta 90.000000
_cell_angle_gamma 90.000000
_cell_volume 2369.532142
_symmetry_space_group_name_H-M "P M M M"
_symmetry_group_IT_number 47
_symmetry_cell_setting 'orthorhombic'
loop_
_space_group_symop_operation_xyz
x,y,z
-x,-y,z
x,-y,-z
-x,y,-z
-x,-y,-z
x,y,-z
-x,y,z
x,-y,z
loop_
_atom_site_type_symbol
_atom_site_label
_atom_site_fract_x
_atom_site_fract_y
_atom_site_fract_z
Si Si1 0.210128 0.420544 0.093710
Si Si2 0.212451 0.575420 0.716655
Si Si3 0.707726 0.195346 0.724329
Si Si4 0.705728 0.146243 0.901951
Si Si5 0.291444 0.306316 0.402489
Si Si6 0.212272 0.074839 0.399784
Si Si7 0.197253 0.000000 0.105648
O O1 0.232479 0.500000 0.094680
O O2 0.276629 0.398082 0.188358
O O3 0.000000 0.408852 0.092396
O O4 0.281286 0.396284 0.000000
O O5 0.270900 0.500000 0.705987
O O6 0.267305 0.622217 0.638781
O O7 0.000000 0.574498 0.720104
O O8 0.500000 0.207876 0.735657
O O9 0.783879 0.186909 0.821591
O O10 0.784065 0.253457 0.665365
O O11 0.725534 0.128492 0.668869
O O12 0.500000 0.161971 0.908980
O O13 0.717104 0.069545 0.873497
O O14 0.782299 0.153315 0.000000
O O15 0.218077 0.300664 0.500000
O O16 0.500000 0.293633 0.408393
O O17 0.267427 0.090288 0.500000
O O18 0.000000 0.075443 0.398827
O O19 0.268559 0.000000 0.379617
O O20 0.000000 0.000000 0.141685
O O21 0.190451 0.000000 0.000000
#
# Coordination Sequence:
#
# PCOD9387397 Si02
#       7
#     8   8   8   8   8   8   4
#     4   7  10  20  42  72 104 134 161 193 238 291
#     4   9  18  33  55  83 109 133 170 218 260 307
#     4  10  21  36  55  76 100 135 179 218 253 303
#     4   9  18  33  52  74 103 138 175 215 258 306
#     4  10  22  39  55  73 102 138 174 216 269 323
#     4   9  19  35  53  76 106 135 165 209 265 314
#     4   9  17  29  47  73 104 137 172 211 255 300
#
# _framework density 21.945260000000001
#
# number of rings (size 3 to 8) (size 9 to 14) (size 15 to 20)
#    0.000    3.000    0.000    2.538    1.077    4.308 
#    0.000    3.077    0.000    1.385    0.000    2.154 
#    0.000    0.000    0.000    0.000    0.000    0.000 
#
# Total GULP energy -289977.144776 kJ/mol
# GULP energy per Si atom -5576.483553 kJ/mol
# Density = 2.189531 g / cm^3
# Si number density = 21.945260 Si / 1000 Ang^3
#
#
#
# Elastic Constant Matrix: (Units=GPa)
#
#
# Indices 1 2 3 4 5 6 
#
# 1 46.5748 -3.5947 8.7563 0.0000 0.0000 0.0000
# 2 -3.5947 67.8646 80.9298 0.0000 0.0000 0.0000
# 3 8.7563 80.9298 184.8601 0.0000 0.0000 0.0000
# 4 0.0000 0.0000 0.0000 38.8555 0.0000 0.0000
# 5 0.0000 0.0000 0.0000 0.0000 7.2267 0.0000
# 6 0.0000 0.0000 0.0000 0.0000 0.0000 16.5566
#
#
#
# Elastic Compliance Matrix: (Units=1/GPa)
#
#
# Indices 1 2 3 4 5 6 
#
# 1 0.022493 0.005151 -0.003321 0.000000 0.000000 0.000000
# 2 0.005151 0.032011 -0.014258 0.000000 0.000000 0.000000
# 3 -0.003321 -0.014258 0.011809 0.000000 0.000000 0.000000
# 4 0.000000 0.000000 0.000000 0.025736 0.000000 0.000000
# 5 0.000000 0.000000 0.000000 0.000000 0.138375 0.000000
# 6 0.000000 0.000000 0.000000 0.000000 0.000000 0.060399
#
#
# Mechanical properties :
#
#
# Convention : Reuss Voigt Hill
#
# Bulk Modulus (GPa) = 24.12089 52.38692 38.25391
# Shear Modulus (GPa) = 15.17462 26.74163 20.95812
#
# Velocity S-wave (km/s) = 2.63245 3.49458 3.09369
# Velocity P-wave (km/s) = 4.50055 6.34084 5.49823
#
# Compressibility (1/GPa) = 0.04145783
#
# Stress axis : x y z
#
# Youngs Moduli (GPa) = 44.45881 31.23908 84.68224
#
# Poissons Ratio (x) = -0.16092 0.28120
# Poissons Ratio (y) = -0.22902 1.20741
# Poissons Ratio (z) = 0.14763 0.44541
#
# Static dielectric constant tensor:
#      x y z
#    x 1.843540 0.000000 0.000000 
#    y 0.000000 1.783050 0.000000 
#    z 0.000000 0.000000 1.856100 
# 
# From -- ./inp_files/21396.got.cif
#   From: 2010.05.17/outbox.cif.g08.bks.cpg/sg47_11_cif.got.tgz:21396.got - 2010.06.03 20:15:42.
