data_PCOD9387664
_publ_section_title
;
Structure prediction by ZEFSAII (Michael W. Deem and Ramdas Pophale) SiO2 
 PCOD9387664
Probable space group: P M M M
;
_chemical_formula_sum "Si O2"
_cell_formula_units_Z 64
_cell_length_a 8.902098
_cell_length_b 19.024575
_cell_length_c 20.642319
_cell_angle_alpha 90.000000
_cell_angle_beta 90.000000
_cell_angle_gamma 90.000000
_cell_volume 3495.954888
_symmetry_space_group_name_H-M "P M M M"
_symmetry_group_IT_number 47
_symmetry_cell_setting 'orthorhombic'
loop_
_space_group_symop_operation_xyz
x,y,z
-x,-y,z
x,-y,-z
-x,y,-z
-x,-y,-z
x,y,-z
-x,y,z
x,-y,z
loop_
_atom_site_type_symbol
_atom_site_label
_atom_site_fract_x
_atom_site_fract_y
_atom_site_fract_z
Si Si1 0.819979 0.333544 0.692199
Si Si2 0.181061 0.081831 0.184752
Si Si3 0.679015 0.824065 0.075708
Si Si4 0.820737 0.672368 0.075963
Si Si5 0.180913 0.170324 0.688664
Si Si6 0.679892 0.417755 0.811990
Si Si7 0.679989 0.582498 0.575225
Si Si8 0.680943 0.080999 0.425438
O O1 0.774580 0.251711 0.694471
O O2 0.747115 0.375675 0.751425
O O3 0.765397 0.368921 0.625665
O O4 0.000000 0.337359 0.697263
O O5 0.256081 0.116617 0.122295
O O6 0.226940 0.126144 0.248018
O O7 0.000000 0.086815 0.178769
O O8 0.220618 0.000000 0.191930
O O9 0.500000 0.817820 0.083406
O O10 0.755716 0.749457 0.091885
O O11 0.711043 0.838911 0.000000
O O12 0.745970 0.615946 0.122819
O O13 0.000000 0.672788 0.085018
O O14 0.788704 0.658829 0.000000
O O15 0.247935 0.133779 0.625381
O O16 0.000000 0.167679 0.684821
O O17 0.500000 0.411264 0.811827
O O18 0.718673 0.500000 0.807038
O O19 0.716013 0.597663 0.500000
O O20 0.500000 0.590966 0.583221
O O21 0.713863 0.500000 0.587233
O O22 0.723756 0.095974 0.500000
O O23 0.500000 0.084640 0.421761
O O24 0.724669 0.000000 0.410953
#
# Coordination Sequence:
#
# PCOD9387664 Si02
#       8
#     8   8   8   8   8   8   8   8
#     4  11  23  37  56  83 114 147 185 232 281 330
#     4  10  21  37  57  80 108 145 189 235 281 331
#     4  10  21  37  58  84 114 148 185 226 275 332
#     4  10  21  38  61  87 115 148 186 228 274 327
#     4  10  22  38  55  79 110 143 182 226 271 323
#     4  11  24  40  59  84 114 148 187 231 277 329
#     4   9  19  37  59  81 108 145 187 229 276 333
#     4   9  19  36  57  82 111 142 179 223 270 323
#
# _framework density 18.306871999999998
#
# number of rings (size 3 to 8) (size 9 to 14) (size 15 to 20)
#    0.000    2.000    0.000    3.750    0.000    9.250 
#    0.000    6.250    0.000    0.000    0.000    0.000 
#    0.000    0.000    0.000    0.000    0.000    0.000 
#
# Total GULP energy -357584.186960 kJ/mol
# GULP energy per Si atom -5587.252921 kJ/mol
# Density = 1.826520 g / cm^3
# Si number density = 18.306872 Si / 1000 Ang^3
#
#
#
# Elastic Constant Matrix: (Units=GPa)
#
#
# Indices 1 2 3 4 5 6 
#
# 1 40.6269 67.5039 52.6745 0.0000 0.0000 0.0000
# 2 67.5039 179.7455 115.4240 0.0000 0.0000 0.0000
# 3 52.6745 115.4240 115.6112 0.0000 0.0000 0.0000
# 4 0.0000 0.0000 0.0000 42.7062 0.0000 0.0000
# 5 0.0000 0.0000 0.0000 0.0000 45.0801 0.0000
# 6 0.0000 0.0000 0.0000 0.0000 0.0000 33.0098
#
#
#
# Elastic Compliance Matrix: (Units=1/GPa)
#
#
# Indices 1 2 3 4 5 6 
#
# 1 0.075878 -0.017543 -0.017056 0.000000 0.000000 0.000000
# 2 -0.017543 0.019558 -0.011533 0.000000 0.000000 0.000000
# 3 -0.017056 -0.011533 0.027935 0.000000 0.000000 0.000000
# 4 0.000000 0.000000 0.000000 0.023416 0.000000 0.000000
# 5 0.000000 0.000000 0.000000 0.000000 0.022183 0.000000
# 6 0.000000 0.000000 0.000000 0.000000 0.000000 0.030294
#
#
# Mechanical properties :
#
#
# Convention : Reuss Voigt Hill
#
# Bulk Modulus (GPa) = 32.14885 89.68760 60.91823
# Shear Modulus (GPa) = 16.56190 30.85129 23.70660
#
# Velocity S-wave (km/s) = 3.01106 4.10961 3.60245
# Velocity P-wave (km/s) = 5.44865 8.46263 7.11702
#
# Compressibility (1/GPa) = 0.03110531
#
# Stress axis : x y z
#
# Youngs Moduli (GPa) = 13.17913 51.12997 35.79688
#
# Poissons Ratio (x) = 0.89699 0.61056
# Poissons Ratio (y) = 0.23121 0.41286
# Poissons Ratio (z) = 0.22479 0.58970
#
# Static dielectric constant tensor:
#      x y z
#    x 1.612820 0.000000 0.000000 
#    y 0.000000 1.604920 0.000000 
#    z 0.000000 0.000000 1.608910 
# 
# From -- ./inp_files/10053.got.cif
#   From: 2010.05.17/outbox.cif.g08.bks.cpg/sg47_6_cif.got.tgz:10053.got - 2010.06.03 20:15:42.
