data_PCOD9387623
_publ_section_title
;
Structure prediction by ZEFSAII (Michael W. Deem and Ramdas Pophale) SiO2 
 PCOD9387623
Probable space group: P M M M
;
_chemical_formula_sum "Si O2"
_cell_formula_units_Z 48
_cell_length_a 32.120695
_cell_length_b 9.528226
_cell_length_c 7.837275
_cell_angle_alpha 90.000000
_cell_angle_beta 90.000000
_cell_angle_gamma 90.000000
_cell_volume 2398.623416
_symmetry_space_group_name_H-M "P M M M"
_symmetry_group_IT_number 47
_symmetry_cell_setting 'orthorhombic'
loop_
_space_group_symop_operation_xyz
x,y,z
-x,-y,z
x,-y,-z
-x,y,-z
-x,-y,-z
x,y,-z
-x,y,z
x,-y,z
loop_
_atom_site_type_symbol
_atom_site_label
_atom_site_fract_x
_atom_site_fract_y
_atom_site_fract_z
Si Si1 0.750823 0.841450 0.795651
Si Si2 0.920928 0.339407 0.294546
Si Si3 0.500000 0.829249 0.196999
Si Si4 0.828173 0.339438 0.794707
Si Si5 0.000000 0.161042 0.709259
Si Si6 0.409444 0.161117 0.793616
Si Si7 0.670796 0.659125 0.296805
O O1 0.791376 0.759329 0.728822
O O2 0.709616 0.751180 0.764402
O O3 0.747131 0.000000 0.728105
O O4 0.755641 0.851416 0.000000
O O5 0.923320 0.343716 0.500000
O O6 0.925405 0.500000 0.231561
O O7 0.874679 0.289607 0.247891
O O8 0.958582 0.242626 0.233981
O O9 0.455044 0.790917 0.272151
O O10 0.500000 0.000000 0.193839
O O11 0.500000 0.780074 0.000000
O O12 0.823792 0.500000 0.730529
O O13 0.824859 0.344785 0.000000
O O14 0.000000 0.162182 0.500000
O O15 0.000000 0.000000 0.763827
O O16 0.372032 0.262684 0.747315
O O17 0.401573 0.000000 0.736385
O O18 0.412233 0.156317 0.000000
O O19 0.673700 0.651659 0.500000
O O20 0.672110 0.500000 0.227733
#
# Coordination Sequence:
#
# PCOD9387623 Si02
#       7
#     8   8   4   8   4   8   8
#     4  10  21  37  57  79 101 129 167 209 254 305
#     4   9  17  30  49  71  95 126 164 202 239 284
#     4   7  12  26  50  79 106 130 162 207 252 295
#     4   9  18  33  52  74 101 131 161 197 245 299
#     4   9  17  29  46  69  96 126 162 203 244 286
#     4   9  17  32  56  82 105 132 169 211 254 301
#     4  11  24  38  51  72 104 139 173 210 253 300
#
# _framework density 20.011475999999998
#
# number of rings (size 3 to 8) (size 9 to 14) (size 15 to 20)
#    0.000    2.667    0.000    2.750    0.000    7.000 
#    0.000    2.917    0.000    6.500    0.000    0.000 
#    0.000    0.000    0.000    0.000    0.000    0.000 
#
# Total GULP energy -267793.538749 kJ/mol
# GULP energy per Si atom -5579.032057 kJ/mol
# Density = 1.996593 g / cm^3
# Si number density = 20.011476 Si / 1000 Ang^3
#
#
#
# Elastic Constant Matrix: (Units=GPa)
#
#
# Indices 1 2 3 4 5 6 
#
# 1 222.8512 126.0872 0.3586 0.0000 0.0000 0.0000
# 2 126.0872 139.6129 6.7307 0.0000 0.0000 0.0000
# 3 0.3586 6.7307 22.4550 0.0000 0.0000 0.0000
# 4 0.0000 0.0000 0.0000 28.3885 0.0000 0.0000
# 5 0.0000 0.0000 0.0000 0.0000 27.9481 0.0000
# 6 0.0000 0.0000 0.0000 0.0000 0.0000 36.4687
#
#
#
# Elastic Compliance Matrix: (Units=1/GPa)
#
#
# Indices 1 2 3 4 5 6 
#
# 1 0.009302 -0.008517 0.002404 0.000000 0.000000 0.000000
# 2 -0.008517 0.015066 -0.004380 0.000000 0.000000 0.000000
# 3 0.002404 -0.004380 0.045808 0.000000 0.000000 0.000000
# 4 0.000000 0.000000 0.000000 0.035226 0.000000 0.000000
# 5 0.000000 0.000000 0.000000 0.000000 0.035781 0.000000
# 6 0.000000 0.000000 0.000000 0.000000 0.000000 0.027421
#
#
# Mechanical properties :
#
#
# Convention : Reuss Voigt Hill
#
# Bulk Modulus (GPa) = 20.32889 72.36354 46.34622
# Shear Modulus (GPa) = 24.27366 35.34390 29.80878
#
# Velocity S-wave (km/s) = 3.48657 4.20716 3.86370
# Velocity P-wave (km/s) = 5.13702 7.73561 6.56615
#
# Compressibility (1/GPa) = 0.04919107
#
# Stress axis : x y z
#
# Youngs Moduli (GPa) = 107.50100 66.37628 21.83026
#
# Poissons Ratio (x) = 0.56532 -0.05249
# Poissons Ratio (y) = 0.91558 0.09561
# Poissons Ratio (z) = -0.25847 0.29071
#
# Static dielectric constant tensor:
#      x y z
#    x 1.698140 0.000000 0.000000 
#    y 0.000000 1.701470 0.000000 
#    z 0.000000 0.000000 1.737040 
# 
# From -- ./inp_files/13813.got.cif
#   From: 2010.05.17/outbox.cif.g08.bks.cpg/sg47_7_cif.got.tgz:13813.got - 2010.06.03 20:15:42.
