data_PCOD9387043
_publ_section_title
;
Structure prediction by ZEFSAII (Michael W. Deem and Ramdas Pophale) SiO2 
 PCOD9387043
Probable space group: P M M M
;
_chemical_formula_sum "Si O2"
_cell_formula_units_Z 56
_cell_length_a 19.757518
_cell_length_b 19.194696
_cell_length_c 7.430802
_cell_angle_alpha 90.000000
_cell_angle_beta 90.000000
_cell_angle_gamma 90.000000
_cell_volume 2818.054019
_symmetry_space_group_name_H-M "P M M M"
_symmetry_group_IT_number 47
_symmetry_cell_setting 'orthorhombic'
loop_
_space_group_symop_operation_xyz
x,y,z
-x,-y,z
x,-y,-z
-x,y,-z
-x,-y,-z
x,y,-z
-x,y,z
x,-y,z
loop_
_atom_site_type_symbol
_atom_site_label
_atom_site_fract_x
_atom_site_fract_y
_atom_site_fract_z
Si Si1 0.780470 0.853887 0.279824
Si Si2 0.644346 0.076373 0.717441
Si Si3 0.075058 0.820330 0.719106
Si Si4 0.424901 0.778047 0.210370
Si Si5 0.790435 0.578600 0.720129
Si Si6 0.713913 0.288800 0.291985
Si Si7 0.924878 0.342168 0.281371
O O1 0.780093 0.854379 0.500000
O O2 0.721666 0.907130 0.225016
O O3 0.858150 0.861915 0.222672
O O4 0.753793 0.778022 0.216474
O O5 0.643856 0.076180 0.500000
O O6 0.598380 0.141588 0.771084
O O7 0.622663 0.000000 0.779839
O O8 0.074331 0.821817 0.500000
O O9 0.084283 0.738908 0.770299
O O10 0.000000 0.842759 0.778869
O O11 0.500000 0.768528 0.286728
O O12 0.364817 0.730641 0.286150
O O13 0.427195 0.762123 0.000000
O O14 0.789816 0.575784 0.500000
O O15 0.779282 0.500000 0.782854
O O16 0.736033 0.636512 0.780601
O O17 0.863367 0.609329 0.775917
O O18 0.735280 0.290190 0.500000
O O19 0.924363 0.342597 0.500000
O O20 0.000000 0.364426 0.223547
#
# Coordination Sequence:
#
# PCOD9387043 Si02
#       7
#     8   8   8   8   8   8   8
#     4   8  12  21  37  55  80 115 152 184 213 246
#     4   9  18  31  48  71  97 124 150 174 206 257
#     4   8  11  15  27  48  76 113 153 187 218 252
#     4  10  21  35  51  71  92 114 141 177 221 265
#     4   9  15  22  35  58  89 123 156 190 228 268
#     4   9  16  28  46  66  89 118 152 186 221 264
#     4   8  12  17  26  46  82 124 157 183 219 268
#
# _framework density 19.871869
#
# number of rings (size 3 to 8) (size 9 to 14) (size 15 to 20)
#    0.000    3.286    1.429    2.143    0.000    2.000 
#    0.000    2.857    0.000    1.286    0.000    6.000 
#    0.000   14.286    0.000    6.429    0.000    7.143 
#
# Total GULP energy -312053.434737 kJ/mol
# GULP energy per Si atom -5572.382763 kJ/mol
# Density = 1.982664 g / cm^3
# Si number density = 19.871869 Si / 1000 Ang^3
#
#
#
# Elastic Constant Matrix: (Units=GPa)
#
#
# Indices 1 2 3 4 5 6 
#
# 1 114.7046 19.5531 -13.3235 0.0000 0.0000 0.0000
# 2 19.5531 46.1321 -4.7982 0.0000 0.0000 0.0000
# 3 -13.3235 -4.7982 57.5576 0.0000 0.0000 0.0000
# 4 0.0000 0.0000 0.0000 -38.8295 0.0000 0.0000
# 5 0.0000 0.0000 0.0000 0.0000 45.4220 0.0000
# 6 0.0000 0.0000 0.0000 0.0000 0.0000 16.4688
#
#
#
# Elastic Compliance Matrix: (Units=1/GPa)
#
#
# Indices 1 2 3 4 5 6 
#
# 1 0.009598 -0.003871 0.001899 0.000000 0.000000 0.000000
# 2 -0.003871 0.023427 0.001057 0.000000 0.000000 0.000000
# 3 0.001899 0.001057 0.017902 0.000000 0.000000 0.000000
# 4 0.000000 0.000000 0.000000 -0.025754 0.000000 0.000000
# 5 0.000000 0.000000 0.000000 0.000000 0.022016 0.000000
# 6 0.000000 0.000000 0.000000 0.000000 0.000000 0.060721
#
#
# Mechanical properties :
#
#
# Convention : Reuss Voigt Hill
#
# Bulk Modulus (GPa) = 20.36728 24.58411 22.47569
# Shear Modulus (GPa) = 39.64924 19.07645 29.36284
#
# Velocity S-wave (km/s) = 4.47166 3.10170 3.84814
# Velocity P-wave (km/s) = 6.07722 5.02251 5.57486
#
# Compressibility (1/GPa) = 0.04909836
#
# Stress axis : x y z
#
# Youngs Moduli (GPa) = 104.18315 42.68494 55.86079
#
# Poissons Ratio (x) = 0.16522 -0.10609
# Poissons Ratio (y) = 0.40327 -0.05904
# Poissons Ratio (z) = -0.19786 -0.04512
#
# Static dielectric constant tensor:
#      x y z
#    x 1.720970 0.000000 0.000000 
#    y 0.000000 1.676930 0.000000 
#    z 0.000000 0.000000 1.808290 
# 
# From -- ./inp_files/11481.got.cif
#   From: 2010.05.17/outbox.cif.g08.bks.cpg/sg47_6_cif.got.tgz:11481.got - 2010.06.03 20:15:42.
