data_PCOD9387300
_publ_section_title
;
Structure prediction by ZEFSAII (Michael W. Deem and Ramdas Pophale) SiO2 
 PCOD9387300
Probable space group: P M M M
;
_chemical_formula_sum "Si O2"
_cell_formula_units_Z 52
_cell_length_a 28.487898
_cell_length_b 8.094123
_cell_length_c 13.130320
_cell_angle_alpha 90.000000
_cell_angle_beta 90.000000
_cell_angle_gamma 90.000000
_cell_volume 3027.648934
_symmetry_space_group_name_H-M "P M M M"
_symmetry_group_IT_number 47
_symmetry_cell_setting 'orthorhombic'
loop_
_space_group_symop_operation_xyz
x,y,z
-x,-y,z
x,-y,-z
-x,y,-z
-x,-y,-z
x,y,-z
-x,y,z
x,-y,z
loop_
_atom_site_type_symbol
_atom_site_label
_atom_site_fract_x
_atom_site_fract_y
_atom_site_fract_z
Si Si1 0.211407 0.811942 0.000000
Si Si2 0.224370 0.199828 0.616389
Si Si3 0.892675 0.694753 0.000000
Si Si4 0.053553 0.699155 0.198456
Si Si5 0.381472 0.692187 0.876738
Si Si6 0.883164 0.800755 0.614862
Si Si7 0.276040 0.694866 0.183202
Si Si8 0.446077 0.000000 0.876146
O O1 0.242975 0.779102 0.900730
O O2 0.163247 0.711524 0.000000
O O3 0.195940 0.000000 0.000000
O O4 0.235801 0.249766 0.500000
O O5 0.170470 0.252113 0.637831
O O6 0.257880 0.266298 0.704033
O O7 0.225633 0.000000 0.619558
O O8 0.916658 0.763437 0.897906
O O9 0.903197 0.500000 0.000000
O O10 0.051923 0.500000 0.192555
O O11 0.080565 0.742754 0.301364
O O12 0.000000 0.760169 0.196606
O O13 0.392296 0.500000 0.848620
O O14 0.330363 0.739566 0.833710
O O15 0.418815 0.832219 0.845686
O O16 0.378114 0.695322 0.000000
O O17 0.894665 0.745145 0.500000
O O18 0.882856 0.000000 0.614490
O O19 0.272675 0.500000 0.163554
O O20 0.500000 0.000000 0.841635
O O21 0.446389 0.000000 0.000000
#
# Coordination Sequence:
#
# PCOD9387300 Si02
#       8
#     4   8   4   8   8   8   8   4
#     4  12  24  33  51  77 102 135 169 208 253 306
#     4   9  19  35  53  74 102 136 171 209 254 308
#     4  10  21  38  54  70  98 128 159 201 246 301
#     4  10  21  36  54  74  95 123 158 199 249 301
#     4   9  18  31  47  70 105 142 179 225 268 313
#     4   9  19  36  54  72  97 126 158 199 248 301
#     4  11  21  33  50  75 106 139 176 214 256 309
#     4   9  18  30  48  72 101 143 189 227 266 314
#
# _framework density 17.175042999999999
#
# number of rings (size 3 to 8) (size 9 to 14) (size 15 to 20)
#    0.000    2.231    0.769    3.231    2.154    6.154 
#    0.000    4.615    0.000    1.385    0.000    0.000 
#    0.000    1.231    0.000    3.385    0.000    0.154 
#
# Total GULP energy -290102.476869 kJ/mol
# GULP energy per Si atom -5578.893786 kJ/mol
# Density = 1.713595 g / cm^3
# Si number density = 17.175043 Si / 1000 Ang^3
#
#
#
# Elastic Constant Matrix: (Units=GPa)
#
#
# Indices 1 2 3 4 5 6 
#
# 1 126.7006 37.6460 62.1017 0.0000 0.0000 0.0000
# 2 37.6460 33.5926 19.8017 0.0000 0.0000 0.0000
# 3 62.1017 19.8017 79.1491 0.0000 0.0000 0.0000
# 4 0.0000 0.0000 0.0000 22.7491 0.0000 0.0000
# 5 0.0000 0.0000 0.0000 0.0000 -16.0287 0.0000
# 6 0.0000 0.0000 0.0000 0.0000 0.0000 23.3492
#
#
#
# Elastic Compliance Matrix: (Units=1/GPa)
#
#
# Indices 1 2 3 4 5 6 
#
# 1 0.016419 -0.012675 -0.009711 0.000000 0.000000 0.000000
# 2 -0.012675 0.044704 -0.001239 0.000000 0.000000 0.000000
# 3 -0.009711 -0.001239 0.020564 0.000000 0.000000 0.000000
# 4 0.000000 0.000000 0.000000 0.043958 0.000000 0.000000
# 5 0.000000 0.000000 0.000000 0.000000 -0.062388 0.000000
# 6 0.000000 0.000000 0.000000 0.000000 0.000000 0.042828
#
#
# Mechanical properties :
#
#
# Convention : Reuss Voigt Hill
#
# Bulk Modulus (GPa) = 29.03986 53.17123 41.10555
# Shear Modulus (GPa) = 30.33741 14.00677 22.17209
#
# Velocity S-wave (km/s) = 4.20738 2.85885 3.59687
# Velocity P-wave (km/s) = 6.36770 6.47480 6.42147
#
# Compressibility (1/GPa) = 0.03443542
#
# Stress axis : x y z
#
# Youngs Moduli (GPa) = 60.90609 22.36959 48.62898
#
# Poissons Ratio (x) = 0.28354 0.47225
# Poissons Ratio (y) = 0.77201 0.06024
# Poissons Ratio (z) = 0.59147 0.02771
#
# Static dielectric constant tensor:
#      x y z
#    x 1.565730 0.000000 0.000000 
#    y 0.000000 1.610610 0.000000 
#    z 0.000000 0.000000 1.566610 
# 
# From -- ./inp_files/15522.got.cif
#   From: 2010.05.17/outbox.cif.g08.bks.cpg/sg47_8_cif.got.tgz:15522.got - 2010.06.03 20:15:42.
