data_PCOD9387837
_publ_section_title
;
Structure prediction by ZEFSAII (Michael W. Deem and Ramdas Pophale) SiO2 
 PCOD9387837
Probable space group: P M M M
;
_chemical_formula_sum "Si O2"
_cell_formula_units_Z 48
_cell_length_a 9.902306
_cell_length_b 29.722086
_cell_length_c 7.988053
_cell_angle_alpha 90.000000
_cell_angle_beta 90.000000
_cell_angle_gamma 90.000000
_cell_volume 2351.021317
_symmetry_space_group_name_H-M "P M M M"
_symmetry_group_IT_number 47
_symmetry_cell_setting 'orthorhombic'
loop_
_space_group_symop_operation_xyz
x,y,z
-x,-y,z
x,-y,-z
-x,y,-z
-x,-y,-z
x,y,-z
-x,y,z
x,-y,z
loop_
_atom_site_type_symbol
_atom_site_label
_atom_site_fract_x
_atom_site_fract_y
_atom_site_fract_z
Si Si1 0.154571 0.213310 0.700326
Si Si2 0.000000 0.552107 0.205770
Si Si3 0.346066 0.292437 0.301073
Si Si4 0.750015 0.389590 0.194905
Si Si5 0.500000 0.553019 0.299843
Si Si6 0.847603 0.052134 0.297626
Si Si7 0.344914 0.868739 0.198495
O O1 0.143108 0.218846 0.500000
O O2 0.241484 0.255527 0.767891
O O3 0.245874 0.169463 0.730401
O O4 0.000000 0.210077 0.765347
O O5 0.873767 0.581547 0.263446
O O6 0.000000 0.500000 0.260600
O O7 0.000000 0.550746 0.000000
O O8 0.356232 0.284424 0.500000
O O9 0.500000 0.289492 0.232719
O O10 0.287382 0.342234 0.276394
O O11 0.626299 0.423047 0.217648
O O12 0.775596 0.380145 0.000000
O O13 0.500000 0.500000 0.271925
O O14 0.500000 0.561388 0.500000
O O15 0.845988 0.053852 0.500000
O O16 0.729909 0.084182 0.233562
O O17 0.000000 0.066422 0.244534
O O18 0.829773 0.000000 0.247960
O O19 0.500000 0.866898 0.263545
O O20 0.351377 0.862035 0.000000
#
# Coordination Sequence:
#
# PCOD9387837 Si02
#       7
#     8   4   8   8   4   8   8
#     4  10  22  40  63  89 114 149 196 241 289 348
#     4   9  20  38  57  81 115 151 189 233 280 335
#     4  10  21  38  59  84 118 153 186 231 285 343
#     4  11  22  37  60  87 115 151 191 234 284 340
#     4  11  23  39  59  85 117 151 191 237 284 337
#     4   9  19  37  61  88 118 155 201 250 297 351
#     4  11  24  39  56  84 122 160 198 245 297 348
#
# _framework density 20.416658000000002
#
# number of rings (size 3 to 8) (size 9 to 14) (size 15 to 20)
#    0.000    1.833    0.833    3.250    1.167    7.333 
#    0.000    3.750    0.000    3.000    0.000    0.000 
#    0.000    0.000    0.000    0.000    0.000    0.000 
#
# Total GULP energy -267976.792184 kJ/mol
# GULP energy per Si atom -5582.849837 kJ/mol
# Density = 2.037019 g / cm^3
# Si number density = 20.416658 Si / 1000 Ang^3
#
#
#
# Elastic Constant Matrix: (Units=GPa)
#
#
# Indices 1 2 3 4 5 6 
#
# 1 219.0048 91.9841 4.4548 0.0000 0.0000 0.0000
# 2 91.9841 112.3797 1.4682 0.0000 0.0000 0.0000
# 3 4.4548 1.4682 14.0019 0.0000 0.0000 0.0000
# 4 0.0000 0.0000 0.0000 69.3226 0.0000 0.0000
# 5 0.0000 0.0000 0.0000 0.0000 36.9453 0.0000
# 6 0.0000 0.0000 0.0000 0.0000 0.0000 45.4891
#
#
#
# Elastic Compliance Matrix: (Units=1/GPa)
#
#
# Indices 1 2 3 4 5 6 
#
# 1 0.006995 -0.005704 -0.001627 0.000000 0.000000 0.000000
# 2 -0.005704 0.013562 0.000393 0.000000 0.000000 0.000000
# 3 -0.001627 0.000393 0.071895 0.000000 0.000000 0.000000
# 4 0.000000 0.000000 0.000000 0.014425 0.000000 0.000000
# 5 0.000000 0.000000 0.000000 0.000000 0.027067 0.000000
# 6 0.000000 0.000000 0.000000 0.000000 0.000000 0.021983
#
#
# Mechanical properties :
#
#
# Convention : Reuss Voigt Hill
#
# Bulk Modulus (GPa) = 12.72673 60.13339 36.43006
# Shear Modulus (GPa) = 25.51051 46.85001 36.18026
#
# Velocity S-wave (km/s) = 3.53865 4.79549 4.21419
# Velocity P-wave (km/s) = 4.78990 7.75754 6.44680
#
# Compressibility (1/GPa) = 0.07857481
#
# Stress axis : x y z
#
# Youngs Moduli (GPa) = 142.95792 73.73381 13.90913
#
# Poissons Ratio (x) = 0.42060 0.02264
# Poissons Ratio (y) = 0.81547 -0.00546
# Poissons Ratio (z) = 0.23265 -0.02896
#
# Static dielectric constant tensor:
#      x y z
#    x 1.748150 0.000000 0.000000 
#    y 0.000000 1.693350 0.000000 
#    z 0.000000 0.000000 1.754970 
# 
# From -- ./inp_files/2800.got.cif
#   From: 2010.05.17/outbox.cif.g08.bks.cpg/sg47_2_cif.got.tgz:2800.got - 2010.06.03 20:15:42.
