data_PCOD9387572
_publ_section_title
;
Structure prediction by ZEFSAII (Michael W. Deem and Ramdas Pophale) SiO2 
 PCOD9387572
Probable space group: P M M M
;
_chemical_formula_sum "Si O2"
_cell_formula_units_Z 44
_cell_length_a 12.940216
_cell_length_b 21.439968
_cell_length_c 8.863496
_cell_angle_alpha 90.000000
_cell_angle_beta 90.000000
_cell_angle_gamma 90.000000
_cell_volume 2459.068981
_symmetry_space_group_name_H-M "P M M M"
_symmetry_group_IT_number 47
_symmetry_cell_setting 'orthorhombic'
loop_
_space_group_symop_operation_xyz
x,y,z
-x,-y,z
x,-y,-z
-x,y,-z
-x,-y,-z
x,y,-z
-x,y,z
x,-y,z
loop_
_atom_site_type_symbol
_atom_site_label
_atom_site_fract_x
_atom_site_fract_y
_atom_site_fract_z
Si Si1 0.381280 0.158855 0.680737
Si Si2 0.121938 0.500000 0.180742
Si Si3 0.196343 0.628983 0.680746
Si Si4 0.808714 0.072485 0.681918
Si Si5 0.000000 0.284454 0.681133
Si Si6 0.620540 0.293541 0.180171
Si Si7 0.000000 0.147150 0.179698
O O1 0.375249 0.169310 0.500000
O O2 0.500000 0.142334 0.717222
O O3 0.299886 0.105364 0.719582
O O4 0.355398 0.223688 0.762253
O O5 0.172846 0.437976 0.247850
O O6 0.000000 0.500000 0.220570
O O7 0.130742 0.500000 0.000000
O O8 0.199477 0.623839 0.500000
O O9 0.301474 0.658834 0.742172
O O10 0.101479 0.675385 0.720407
O O11 0.821386 0.075539 0.500000
O O12 0.900107 0.111095 0.757745
O O13 0.811190 0.000000 0.725924
O O14 0.000000 0.217805 0.760231
O O15 0.000000 0.274886 0.500000
O O16 0.500000 0.305628 0.218052
O O17 0.631832 0.296373 0.000000
O O18 0.000000 0.146860 0.000000
#
# Coordination Sequence:
#
# PCOD9387572 Si02
#       7
#     8   4   8   8   4   8   4
#     4   9  18  34  57  84 111 140 180 230 281 334
#     4  11  23  39  60  87 122 157 187 223 273 332
#     4  11  22  38  61  87 116 150 190 232 275 327
#     4  10  21  37  56  77 106 145 184 225 278 338
#     4  10  22  38  58  84 113 144 180 229 282 330
#     4  10  21  37  57  83 116 151 188 232 282 333
#     4  12  25  37  53  78 108 143 185 233 278 327
#
# _framework density 17.892949999999999
#
# number of rings (size 3 to 8) (size 9 to 14) (size 15 to 20)
#    0.000    1.727    0.909    3.545    0.000    9.818 
#    0.000    2.273    0.000    2.727    0.000    3.818 
#    0.000    0.000    0.000    0.000    0.000    0.000 
#
# Total GULP energy -245877.514141 kJ/mol
# GULP energy per Si atom -5588.125321 kJ/mol
# Density = 1.785223 g / cm^3
# Si number density = 17.892950 Si / 1000 Ang^3
#
#
#
# Elastic Constant Matrix: (Units=GPa)
#
#
# Indices 1 2 3 4 5 6 
#
# 1 106.4633 102.6367 51.5218 0.0000 0.0000 0.0000
# 2 102.6367 189.3671 68.5245 0.0000 0.0000 0.0000
# 3 51.5218 68.5245 45.3251 0.0000 0.0000 0.0000
# 4 0.0000 0.0000 0.0000 -138.6079 0.0000 0.0000
# 5 0.0000 0.0000 0.0000 0.0000 20.9038 0.0000
# 6 0.0000 0.0000 0.0000 0.0000 0.0000 -100.6936
#
#
#
# Elastic Compliance Matrix: (Units=1/GPa)
#
#
# Indices 1 2 3 4 5 6 
#
# 1 0.024534 -0.007078 -0.017188 0.000000 0.000000 0.000000
# 2 -0.007078 0.013701 -0.012668 0.000000 0.000000 0.000000
# 3 -0.017188 -0.012668 0.060753 0.000000 0.000000 0.000000
# 4 0.000000 0.000000 0.000000 -0.007215 0.000000 0.000000
# 5 0.000000 0.000000 0.000000 0.000000 0.047838 0.000000
# 6 0.000000 0.000000 0.000000 0.000000 0.000000 -0.009931
#
#
# Mechanical properties :
#
#
# Convention : Reuss Voigt Hill
#
# Bulk Modulus (GPa) = 39.80849 87.39128 63.59989
# Shear Modulus (GPa) = 23.59354 -35.78135 -6.09391
#
# Velocity S-wave (km/s) = 3.63518 -4.47670 -1.84747
# Velocity P-wave (km/s) = 6.31790 4.71445 5.57413
#
# Compressibility (1/GPa) = 0.02512027
#
# Stress axis : x y z
#
# Youngs Moduli (GPa) = 40.75925 72.98632 16.46011
#
# Poissons Ratio (x) = 0.51660 0.28291
# Poissons Ratio (y) = 0.28849 0.20852
# Poissons Ratio (z) = 0.70056 0.92462
#
# Static dielectric constant tensor:
#      x y z
#    x 1.603020 0.000000 0.000000 
#    y 0.000000 1.570680 0.000000 
#    z 0.000000 0.000000 1.595720 
# 
# From -- ./inp_files/6298.got.cif
#   From: 2010.05.17/outbox.cif.g08.bks.cpg/sg47_4_cif.got.tgz:6298.got - 2010.06.03 20:15:42.
