data_PCOD9387898
_publ_section_title
;
Structure prediction by ZEFSAII (Michael W. Deem and Ramdas Pophale) SiO2 
 PCOD9387898
Probable space group: P M M M
;
_chemical_formula_sum "Si O2"
_cell_formula_units_Z 40
_cell_length_a 19.413545
_cell_length_b 13.354443
_cell_length_c 8.082121
_cell_angle_alpha 90.000000
_cell_angle_beta 90.000000
_cell_angle_gamma 90.000000
_cell_volume 2095.347092
_symmetry_space_group_name_H-M "P M M M"
_symmetry_group_IT_number 47
_symmetry_cell_setting 'orthorhombic'
loop_
_space_group_symop_operation_xyz
x,y,z
-x,-y,z
x,-y,-z
-x,y,-z
-x,-y,-z
x,y,-z
-x,y,z
x,-y,z
loop_
_atom_site_type_symbol
_atom_site_label
_atom_site_fract_x
_atom_site_fract_y
_atom_site_fract_z
Si Si1 0.420947 0.000000 0.298105
Si Si2 0.918600 0.254989 0.315040
Si Si3 0.579552 0.386337 0.199949
Si Si4 0.334640 0.194485 0.303032
Si Si5 0.192544 0.885986 0.194336
Si Si6 0.916401 0.387059 0.000000
O O1 0.381522 0.899365 0.244919
O O2 0.500000 0.000000 0.242201
O O3 0.421510 0.000000 0.500000
O O4 0.908820 0.296984 0.500000
O O5 0.871924 0.157572 0.292897
O O6 0.000000 0.233487 0.295300
O O7 0.896970 0.328827 0.166878
O O8 0.500000 0.367964 0.251339
O O9 0.598064 0.500000 0.251987
O O10 0.628417 0.298823 0.263586
O O11 0.580985 0.384465 0.000000
O O12 0.326713 0.185406 0.500000
O O13 0.259659 0.181200 0.224693
O O14 0.209115 0.000000 0.243794
O O15 0.175466 0.885089 0.000000
O O16 0.890030 0.500000 0.000000
O O17 0.000000 0.390765 0.000000
#
# Coordination Sequence:
#
# PCOD9387898 Si02
#       6
#     4   8   8   8   8   4
#     4   9  18  32  51  79 114 149 184 233 297 357
#     4  10  21  38  62  92 124 160 204 250 300 360
#     4   9  19  37  59  82 112 151 193 240 295 354
#     4  11  21  35  56  83 117 152 192 243 297 359
#     4  11  23  39  60  84 117 159 200 246 302 361
#     4   9  18  36  61  89 123 157 194 247 304 353
#
# _framework density 19.089915000000001
#
# number of rings (size 3 to 8) (size 9 to 14) (size 15 to 20)
#    0.000    2.000    2.000    2.400    0.000    3.600 
#    0.000    6.000    0.000    4.800    0.000    0.000 
#    0.000    0.000    0.000    0.000    0.000    0.000 
#
# Total GULP energy -223280.149419 kJ/mol
# GULP energy per Si atom -5582.003735 kJ/mol
# Density = 1.904647 g / cm^3
# Si number density = 19.089915 Si / 1000 Ang^3
#
#
#
# Elastic Constant Matrix: (Units=GPa)
#
#
# Indices 1 2 3 4 5 6 
#
# 1 69.3014 44.7119 30.6038 0.0000 0.0000 0.0000
# 2 44.7119 113.6340 30.9805 0.0000 0.0000 0.0000
# 3 30.6038 30.9805 77.1766 0.0000 0.0000 0.0000
# 4 0.0000 0.0000 0.0000 15.8494 0.0000 0.0000
# 5 0.0000 0.0000 0.0000 0.0000 24.8636 0.0000
# 6 0.0000 0.0000 0.0000 0.0000 0.0000 26.0992
#
#
#
# Elastic Compliance Matrix: (Units=1/GPa)
#
#
# Indices 1 2 3 4 5 6 
#
# 1 0.021379 -0.006850 -0.005728 0.000000 0.000000 0.000000
# 2 -0.006850 0.012077 -0.002131 0.000000 0.000000 0.000000
# 3 -0.005728 -0.002131 0.016084 0.000000 0.000000 0.000000
# 4 0.000000 0.000000 0.000000 0.063094 0.000000 0.000000
# 5 0.000000 0.000000 0.000000 0.000000 0.040219 0.000000
# 6 0.000000 0.000000 0.000000 0.000000 0.000000 0.038315
#
#
# Mechanical properties :
#
#
# Convention : Reuss Voigt Hill
#
# Bulk Modulus (GPa) = 49.70006 52.52270 51.11138
# Shear Modulus (GPa) = 21.99791 23.61684 22.80738
#
# Velocity S-wave (km/s) = 3.39828 3.52111 3.46024
# Velocity P-wave (km/s) = 6.44120 6.64109 6.54190
#
# Compressibility (1/GPa) = 0.02012070
#
# Stress axis : x y z
#
# Youngs Moduli (GPa) = 46.77521 82.80387 62.17303
#
# Poissons Ratio (x) = 0.56724 0.35611
# Poissons Ratio (y) = 0.32043 0.13252
# Poissons Ratio (z) = 0.26791 0.17649
#
# Static dielectric constant tensor:
#      x y z
#    x 1.637780 0.000000 0.000000 
#    y 0.000000 1.657050 0.000000 
#    z 0.000000 0.000000 1.685740 
# 
# From -- ./inp_files/10708.got.cif
#   From: 2010.05.17/outbox.cif.g08.bks.cpg/sg47_6_cif.got.tgz:10708.got - 2010.06.03 20:15:42.
