data_PCOD9387584
_publ_section_title
;
Structure prediction by ZEFSAII (Michael W. Deem and Ramdas Pophale) SiO2 
 PCOD9387584
Probable space group: P M M M
;
_chemical_formula_sum "Si O2"
_cell_formula_units_Z 52
_cell_length_a 8.668676
_cell_length_b 21.603383
_cell_length_c 13.868388
_cell_angle_alpha 90.000000
_cell_angle_beta 90.000000
_cell_angle_gamma 90.000000
_cell_volume 2597.170850
_symmetry_space_group_name_H-M "P M M M"
_symmetry_group_IT_number 47
_symmetry_cell_setting 'orthorhombic'
loop_
_space_group_symop_operation_xyz
x,y,z
-x,-y,z
x,-y,-z
-x,y,-z
-x,-y,-z
x,y,-z
-x,y,z
x,-y,z
loop_
_atom_site_type_symbol
_atom_site_label
_atom_site_fract_x
_atom_site_fract_y
_atom_site_fract_z
Si Si1 0.324744 0.000000 0.614602
Si Si2 0.316192 0.073664 0.889283
Si Si3 0.686144 0.431679 0.196810
Si Si4 0.684317 0.746873 0.687746
Si Si5 0.312397 0.303467 0.106094
Si Si6 0.184603 0.378154 0.391984
Si Si7 0.181202 0.876281 0.699635
O O1 0.240066 0.938474 0.649123
O O2 0.500000 0.000000 0.653928
O O3 0.330940 0.000000 0.500000
O O4 0.500000 0.083835 0.876920
O O5 0.225586 0.112955 0.811387
O O6 0.287834 0.000000 0.874608
O O7 0.277420 0.088211 0.000000
O O8 0.500000 0.430945 0.196932
O O9 0.738011 0.500000 0.166316
O O10 0.735042 0.374222 0.130016
O O11 0.741994 0.417095 0.305091
O O12 0.500000 0.739612 0.681411
O O13 0.732603 0.735571 0.799820
O O14 0.762817 0.692560 0.626779
O O15 0.733856 0.815577 0.660488
O O16 0.500000 0.301791 0.103984
O O17 0.257746 0.284061 0.000000
O O18 0.231580 0.397323 0.500000
O O19 0.000000 0.382154 0.385265
O O20 0.000000 0.868995 0.687878
#
# Coordination Sequence:
#
# PCOD9387584 Si02
#       7
#     4   8   8   8   8   8   8
#     4  11  25  45  66  85 108 143 187 232 280 339
#     4   9  18  34  57  82 110 147 187 224 264 319
#     4   9  18  32  52  81 114 148 187 228 272 327
#     4  10  21  37  58  82 109 145 187 229 274 331
#     4   8  15  30  53  81 111 144 185 230 270 310
#     4  10  21  37  56  78 106 141 182 232 288 338
#     4  12  24  38  59  87 118 149 181 228 287 342
#
# _framework density 20.021785999999999
#
# number of rings (size 3 to 8) (size 9 to 14) (size 15 to 20)
#    0.000    2.231    0.769    3.923    0.000    4.308 
#    0.000    5.385    0.000   11.077    0.000    4.308 
#    0.000    0.000    0.000    0.000    0.000    0.000 
#
# Total GULP energy -290356.879363 kJ/mol
# GULP energy per Si atom -5583.786142 kJ/mol
# Density = 1.997622 g / cm^3
# Si number density = 20.021786 Si / 1000 Ang^3
#
#
#
# Elastic Constant Matrix: (Units=GPa)
#
#
# Indices 1 2 3 4 5 6 
#
# 1 14.3166 -5.7749 -4.1543 0.0000 0.0000 0.0000
# 2 -5.7749 64.6892 -19.8869 0.0000 0.0000 0.0000
# 3 -4.1543 -19.8869 43.3722 0.0000 0.0000 0.0000
# 4 0.0000 0.0000 0.0000 2.2210 0.0000 0.0000
# 5 0.0000 0.0000 0.0000 0.0000 4.7706 0.0000
# 6 0.0000 0.0000 0.0000 0.0000 0.0000 13.3266
#
#
#
# Elastic Compliance Matrix: (Units=1/GPa)
#
#
# Indices 1 2 3 4 5 6 
#
# 1 0.077777 0.010749 0.012378 0.000000 0.000000 0.000000
# 2 0.010749 0.019481 0.009962 0.000000 0.000000 0.000000
# 3 0.012378 0.009962 0.028809 0.000000 0.000000 0.000000
# 4 0.000000 0.000000 0.000000 0.450243 0.000000 0.000000
# 5 0.000000 0.000000 0.000000 0.000000 0.209616 0.000000
# 6 0.000000 0.000000 0.000000 0.000000 0.000000 0.075038
#
#
# Mechanical properties :
#
#
# Convention : Reuss Voigt Hill
#
# Bulk Modulus (GPa) = 5.20175 6.97176 6.08676
# Shear Modulus (GPa) = 5.82162 14.20993 10.01578
#
# Velocity S-wave (km/s) = 1.70703 2.66695 2.23904
# Velocity P-wave (km/s) = 2.54734 3.60183 3.11947
#
# Compressibility (1/GPa) = 0.19224283
#
# Stress axis : x y z
#
# Youngs Moduli (GPa) = 12.85734 51.33338 34.71090
#
# Poissons Ratio (x) = -0.55176 -0.42965
# Poissons Ratio (y) = -0.13820 -0.34578
# Poissons Ratio (z) = -0.15915 -0.51137
#
# Static dielectric constant tensor:
#      x y z
#    x 1.678920 0.000000 0.000000 
#    y 0.000000 1.712840 0.000000 
#    z 0.000000 0.000000 1.715360 
# 
# From -- ./inp_files/21406.got.cif
#   From: 2010.05.17/outbox.cif.g08.bks.cpg/sg47_11_cif.got.tgz:21406.got - 2010.06.03 20:15:42.
