data_PCOD9387847
_publ_section_title
;
Structure prediction by ZEFSAII (Michael W. Deem and Ramdas Pophale) SiO2 
 PCOD9387847
Probable space group: P M M M
;
_chemical_formula_sum "Si O2"
_cell_formula_units_Z 40
_cell_length_a 30.439400
_cell_length_b 7.339388
_cell_length_c 8.509726
_cell_angle_alpha 90.000000
_cell_angle_beta 90.000000
_cell_angle_gamma 90.000000
_cell_volume 1901.128673
_symmetry_space_group_name_H-M "P M M M"
_symmetry_group_IT_number 47
_symmetry_cell_setting 'orthorhombic'
loop_
_space_group_symop_operation_xyz
x,y,z
-x,-y,z
x,-y,-z
-x,y,-z
-x,-y,-z
x,y,-z
-x,y,z
x,-y,z
loop_
_atom_site_type_symbol
_atom_site_label
_atom_site_fract_x
_atom_site_fract_y
_atom_site_fract_z
Si Si1 0.102270 0.722289 0.316987
Si Si2 0.615910 0.708285 0.685669
Si Si3 0.450369 0.000000 0.813383
Si Si4 0.050903 0.721824 0.000000
Si Si5 0.798047 0.719421 0.316951
Si Si6 0.292803 0.278901 0.821216
O O1 0.091355 0.776846 0.500000
O O2 0.101201 0.500000 0.320210
O O3 0.073274 0.779089 0.166089
O O4 0.152509 0.781398 0.281930
O O5 0.609876 0.709109 0.500000
O O6 0.613694 0.500000 0.744047
O O7 0.665126 0.778518 0.721454
O O8 0.578114 0.827734 0.760726
O O9 0.500000 0.000000 0.748754
O O10 0.452940 0.000000 0.000000
O O11 0.053190 0.500000 0.000000
O O12 0.000000 0.774908 0.000000
O O13 0.790122 0.755607 0.500000
O O14 0.799586 0.500000 0.295737
O O15 0.755526 0.787916 0.225716
O O16 0.290575 0.500000 0.807069
O O17 0.302081 0.231472 0.000000
#
# Coordination Sequence:
#
# PCOD9387847 Si02
#       6
#     8   8   4   4   8   8
#     4   8  14  22  30  41  60  88 126 179 239 298
#     4  10  21  38  60  85 115 149 186 231 279 333
#     4  11  25  43  63  87 115 149 189 235 285 334
#     4   9  16  22  28  38  54  84 130 183 239 300
#     4   8  13  21  33  51  76 106 141 184 240 305
#     4   9  16  25  42  69  98 128 160 200 255 316
#
# _framework density 21.040133000000001
#
# number of rings (size 3 to 8) (size 9 to 14) (size 15 to 20)
#    0.000    3.000    0.000    2.700    1.400    5.200 
#    0.000    4.000    0.000    0.000    0.000    0.000 
#    0.000    0.000    0.000    0.000    0.000    0.000 
#
# Total GULP energy -223095.884859 kJ/mol
# GULP energy per Si atom -5577.397121 kJ/mol
# Density = 2.099224 g / cm^3
# Si number density = 21.040133 Si / 1000 Ang^3
#
#
#
# Elastic Constant Matrix: (Units=GPa)
#
#
# Indices 1 2 3 4 5 6 
#
# 1 150.7236 26.3885 99.0824 0.0000 0.0000 0.0000
# 2 26.3885 79.1556 28.4028 0.0000 0.0000 0.0000
# 3 99.0824 28.4028 95.6599 0.0000 0.0000 0.0000
# 4 0.0000 0.0000 0.0000 0.9901 0.0000 0.0000
# 5 0.0000 0.0000 0.0000 0.0000 56.9699 0.0000
# 6 0.0000 0.0000 0.0000 0.0000 0.0000 -4.7621
#
#
#
# Elastic Compliance Matrix: (Units=1/GPa)
#
#
# Indices 1 2 3 4 5 6 
#
# 1 0.020848 0.000893 -0.021859 0.000000 0.000000 0.000000
# 2 0.000893 0.014178 -0.005135 0.000000 0.000000 0.000000
# 3 -0.021859 -0.005135 0.034620 0.000000 0.000000 0.000000
# 4 0.000000 0.000000 0.000000 1.010002 0.000000 0.000000
# 5 0.000000 0.000000 0.000000 0.000000 0.017553 0.000000
# 6 0.000000 0.000000 0.000000 0.000000 0.000000 -0.209990
#
#
# Mechanical properties :
#
#
# Convention : Reuss Voigt Hill
#
# Bulk Modulus (GPa) = 57.32608 70.36520 63.84564
# Shear Modulus (GPa) = 5.28973 22.08393 13.68683
#
# Velocity S-wave (km/s) = 1.58732 3.24328 2.55328
# Velocity P-wave (km/s) = 5.53757 6.89501 6.25323
#
# Compressibility (1/GPa) = 0.01744407
#
# Stress axis : x y z
#
# Youngs Moduli (GPa) = 47.96637 70.53146 28.88545
#
# Poissons Ratio (x) = -0.06301 0.63141
# Poissons Ratio (y) = -0.04285 0.14833
# Poissons Ratio (z) = 1.04850 0.36218
#
# Static dielectric constant tensor:
#      x y z
#    x 1.740320 0.000000 0.000000 
#    y 0.000000 1.760870 0.000000 
#    z 0.000000 0.000000 1.721840 
# 
# From -- ./inp_files/13055.got.cif
#   From: 2010.05.17/outbox.cif.g08.bks.cpg/sg47_7_cif.got.tgz:13055.got - 2010.06.03 20:15:42.
