data_PCOD9387673
_publ_section_title
;
Structure prediction by ZEFSAII (Michael W. Deem and Ramdas Pophale) SiO2 
 PCOD9387673
Probable space group: P M M M
;
_chemical_formula_sum "Si O2"
_cell_formula_units_Z 40
_cell_length_a 29.742005
_cell_length_b 9.911845
_cell_length_c 7.617995
_cell_angle_alpha 90.000000
_cell_angle_beta 90.000000
_cell_angle_gamma 90.000000
_cell_volume 2245.770784
_symmetry_space_group_name_H-M "P M M M"
_symmetry_group_IT_number 47
_symmetry_cell_setting 'orthorhombic'
loop_
_space_group_symop_operation_xyz
x,y,z
-x,-y,z
x,-y,-z
-x,y,-z
-x,-y,-z
x,y,-z
-x,y,z
x,-y,z
loop_
_atom_site_type_symbol
_atom_site_label
_atom_site_fract_x
_atom_site_fract_y
_atom_site_fract_z
Si Si1 0.550345 0.344690 0.713701
Si Si2 0.949434 0.155886 0.212391
Si Si3 0.133454 0.343865 0.300388
Si Si4 0.795767 0.338578 0.000000
Si Si5 0.366751 0.840808 0.292914
Si Si6 0.706938 0.160053 0.000000
O O1 0.549857 0.343042 0.500000
O O2 0.500000 0.304841 0.771308
O O3 0.558092 0.500000 0.767269
O O4 0.590543 0.247022 0.766574
O O5 0.910177 0.251456 0.278279
O O6 0.000000 0.195552 0.267953
O O7 0.942269 0.000000 0.265185
O O8 0.948555 0.159603 0.000000
O O9 0.149492 0.335190 0.500000
O O10 0.121172 0.500000 0.262717
O O11 0.172914 0.306375 0.167154
O O12 0.786475 0.500000 0.000000
O O13 0.750800 0.251929 0.000000
O O14 0.358042 0.813792 0.500000
O O15 0.324091 0.812629 0.170332
O O16 0.377134 0.000000 0.275791
O O17 0.718167 0.000000 0.000000
#
# Coordination Sequence:
#
# PCOD9387673 Si02
#       6
#     8   8   8   4   8   4
#     4   8  14  26  46  73 104 136 169 205 245 292
#     4   9  18  33  54  81 113 147 181 216 255 303
#     4  10  21  37  57  81 108 139 177 218 261 313
#     4  10  22  40  57  76 103 133 168 217 269 314
#     4   9  18  33  52  74 101 132 167 207 251 301
#     4  10  22  38  55  76 101 129 166 215 263 310
#
# _framework density 17.811256
#
# number of rings (size 3 to 8) (size 9 to 14) (size 15 to 20)
#    0.000    2.800    1.000    1.200    0.000    4.000 
#    0.000    5.500    0.000    3.000    0.000    0.000 
#    0.000    0.000    0.000    0.000    0.000    0.000 
#
# Total GULP energy -223092.914029 kJ/mol
# GULP energy per Si atom -5577.322851 kJ/mol
# Density = 1.777072 g / cm^3
# Si number density = 17.811256 Si / 1000 Ang^3
#
#
#
# Elastic Constant Matrix: (Units=GPa)
#
#
# Indices 1 2 3 4 5 6 
#
# 1 181.3724 105.8762 67.7845 0.0000 0.0000 0.0000
# 2 105.8762 78.2734 46.6876 0.0000 0.0000 0.0000
# 3 67.7845 46.6876 79.4667 0.0000 0.0000 0.0000
# 4 0.0000 0.0000 0.0000 14.0979 0.0000 0.0000
# 5 0.0000 0.0000 0.0000 0.0000 -30.8425 0.0000
# 6 0.0000 0.0000 0.0000 0.0000 0.0000 43.1744
#
#
#
# Elastic Compliance Matrix: (Units=1/GPa)
#
#
# Indices 1 2 3 4 5 6 
#
# 1 0.026495 -0.034420 -0.002378 0.000000 0.000000 0.000000
# 2 -0.034420 0.064383 -0.008466 0.000000 0.000000 0.000000
# 3 -0.002378 -0.008466 0.019586 0.000000 0.000000 0.000000
# 4 0.000000 0.000000 0.000000 0.070932 0.000000 0.000000
# 5 0.000000 0.000000 0.000000 0.000000 -0.032423 0.000000
# 6 0.000000 0.000000 0.000000 0.000000 0.000000 0.023162
#
#
# Mechanical properties :
#
#
# Convention : Reuss Voigt Hill
#
# Bulk Modulus (GPa) = 50.15877 86.64547 68.40212
# Shear Modulus (GPa) = 18.56611 13.20358 15.88484
#
# Velocity S-wave (km/s) = 3.23209 2.72565 2.98961
# Velocity P-wave (km/s) = 6.49238 7.65883 7.09960
#
# Compressibility (1/GPa) = 0.01993669
#
# Stress axis : x y z
#
# Youngs Moduli (GPa) = 37.74350 15.53204 51.05657
#
# Poissons Ratio (x) = 0.53461 0.12140
# Poissons Ratio (y) = 1.29912 0.43225
# Poissons Ratio (z) = 0.08975 0.13150
#
# Static dielectric constant tensor:
#      x y z
#    x 1.565490 0.000000 0.000000 
#    y 0.000000 1.592510 0.000000 
#    z 0.000000 0.000000 1.648980 
# 
# From -- ./inp_files/13036.got.cif
#   From: 2010.05.17/outbox.cif.g08.bks.cpg/sg47_7_cif.got.tgz:13036.got - 2010.06.03 20:15:42.
