data_PCOD9387314
_publ_section_title
;
Structure prediction by ZEFSAII (Michael W. Deem and Ramdas Pophale) SiO2 
 PCOD9387314
Probable space group: P M M M
;
_chemical_formula_sum "Si O2"
_cell_formula_units_Z 52
_cell_length_a 8.756282
_cell_length_b 21.915725
_cell_length_c 13.995070
_cell_angle_alpha 90.000000
_cell_angle_beta 90.000000
_cell_angle_gamma 90.000000
_cell_volume 2685.657688
_symmetry_space_group_name_H-M "P M M M"
_symmetry_group_IT_number 47
_symmetry_cell_setting 'orthorhombic'
loop_
_space_group_symop_operation_xyz
x,y,z
-x,-y,z
x,-y,-z
-x,y,-z
-x,-y,-z
x,y,-z
-x,y,z
x,-y,z
loop_
_atom_site_type_symbol
_atom_site_label
_atom_site_fract_x
_atom_site_fract_y
_atom_site_fract_z
Si Si1 0.827624 0.000000 0.613697
Si Si2 0.315615 0.432194 0.202520
Si Si3 0.314570 0.692425 0.105749
Si Si4 0.182976 0.623778 0.607717
Si Si5 0.685089 0.745573 0.691387
Si Si6 0.816976 0.071966 0.108656
Si Si7 0.681713 0.119494 0.703182
O O1 0.748303 0.061475 0.648882
O O2 0.830396 0.000000 0.500000
O O3 0.000000 0.000000 0.652462
O O4 0.500000 0.430665 0.206069
O O5 0.267728 0.500000 0.172685
O O6 0.268388 0.376880 0.133150
O O7 0.254273 0.416778 0.308095
O O8 0.500000 0.693864 0.102947
O O9 0.270999 0.732629 0.197654
O O10 0.258995 0.709861 0.000000
O O11 0.227558 0.605715 0.500000
O O12 0.240341 0.692500 0.629048
O O13 0.000000 0.621561 0.614675
O O14 0.500000 0.740173 0.684736
O O15 0.731071 0.814253 0.665362
O O16 0.733882 0.111591 0.187497
O O17 0.000000 0.078391 0.117048
O O18 0.781781 0.000000 0.124656
O O19 0.773267 0.086993 0.000000
O O20 0.500000 0.117387 0.698165
#
# Coordination Sequence:
#
# PCOD9387314 Si02
#       7
#     4   8   8   8   8   8   8
#     4  11  25  43  60  77 102 139 179 220 270 333
#     4   9  18  32  51  78 110 143 179 217 262 315
#     4   8  14  28  51  77 107 141 175 212 251 296
#     4  10  21  36  54  76 102 135 177 224 270 316
#     4   9  20  36  54  79 108 138 173 215 265 319
#     4   9  18  33  53  77 108 145 178 208 251 313
#     4  11  22  36  57  84 111 138 173 224 278 323
#
# _framework density 19.362110000000001
#
# number of rings (size 3 to 8) (size 9 to 14) (size 15 to 20)
#    0.000    2.538    0.769    2.538    0.000    5.538 
#    0.000    8.462    0.000    7.385    0.000    4.308 
#    0.000    0.000    0.000    0.000    0.000    0.000 
#
# Total GULP energy -290101.814601 kJ/mol
# GULP energy per Si atom -5578.881050 kJ/mol
# Density = 1.931804 g / cm^3
# Si number density = 19.362110 Si / 1000 Ang^3
#
#
#
# Elastic Constant Matrix: (Units=GPa)
#
#
# Indices 1 2 3 4 5 6 
#
# 1 12.0378 6.8831 -4.6192 0.0000 0.0000 0.0000
# 2 6.8831 71.0430 -18.3206 0.0000 0.0000 0.0000
# 3 -4.6192 -18.3206 41.6361 0.0000 0.0000 0.0000
# 4 0.0000 0.0000 0.0000 3.9120 0.0000 0.0000
# 5 0.0000 0.0000 0.0000 0.0000 26.2690 0.0000
# 6 0.0000 0.0000 0.0000 0.0000 0.0000 5.1076
#
#
#
# Elastic Compliance Matrix: (Units=1/GPa)
#
#
# Indices 1 2 3 4 5 6 
#
# 1 0.089672 -0.006906 0.006910 0.000000 0.000000 0.000000
# 2 -0.006906 0.016410 0.006454 0.000000 0.000000 0.000000
# 3 0.006910 0.006454 0.027624 0.000000 0.000000 0.000000
# 4 0.000000 0.000000 0.000000 0.255624 0.000000 0.000000
# 5 0.000000 0.000000 0.000000 0.000000 0.038068 0.000000
# 6 0.000000 0.000000 0.000000 0.000000 0.000000 0.195785
#
#
# Mechanical properties :
#
#
# Convention : Reuss Voigt Hill
#
# Bulk Modulus (GPa) = 6.82030 10.28928 8.55479
# Shear Modulus (GPa) = 7.58563 16.44264 12.01413
#
# Velocity S-wave (km/s) = 1.98148 2.91729 2.49368
# Velocity P-wave (km/s) = 2.96060 4.08328 3.56639
#
# Compressibility (1/GPa) = 0.14662109
#
# Stress axis : x y z
#
# Youngs Moduli (GPa) = 11.15175 60.94018 36.20017
#
# Poissons Ratio (x) = 0.42086 -0.25013
# Poissons Ratio (y) = 0.07702 -0.23365
# Poissons Ratio (z) = -0.07705 -0.39333
#
# Static dielectric constant tensor:
#      x y z
#    x 1.650020 0.000000 0.000000 
#    y 0.000000 1.694710 0.000000 
#    z 0.000000 0.000000 1.676060 
# 
# From -- ./inp_files/21436.got.cif
#   From: 2010.05.17/outbox.cif.g08.bks.cpg/sg47_11_cif.got.tgz:21436.got - 2010.06.03 20:15:42.
