data_PCOD9387536
_publ_section_title
;
Structure prediction by ZEFSAII (Michael W. Deem and Ramdas Pophale) SiO2 
 PCOD9387536
Probable space group: P M M M
;
_chemical_formula_sum "Si O2"
_cell_formula_units_Z 56
_cell_length_a 21.680413
_cell_length_b 16.277715
_cell_length_c 7.866513
_cell_angle_alpha 90.000000
_cell_angle_beta 90.000000
_cell_angle_gamma 90.000000
_cell_volume 2776.152097
_symmetry_space_group_name_H-M "P M M M"
_symmetry_group_IT_number 47
_symmetry_cell_setting 'orthorhombic'
loop_
_space_group_symop_operation_xyz
x,y,z
-x,-y,z
x,-y,-z
-x,y,-z
-x,-y,-z
x,y,-z
-x,y,z
x,-y,z
loop_
_atom_site_type_symbol
_atom_site_label
_atom_site_fract_x
_atom_site_fract_y
_atom_site_fract_z
Si Si1 0.851894 0.660801 0.794744
Si Si2 0.069368 0.182472 0.204888
Si Si3 0.181251 0.087843 0.296468
Si Si4 0.401159 0.767304 0.802819
Si Si5 0.927575 0.500000 0.791956
Si Si6 0.261006 0.240244 0.296710
Si Si7 0.426267 0.588315 0.197045
Si Si8 0.500000 0.904400 0.299401
O O1 0.893578 0.737342 0.733647
O O2 0.887739 0.579235 0.738402
O O3 0.781398 0.679885 0.741173
O O4 0.851936 0.660166 0.000000
O O5 0.110308 0.105222 0.255713
O O6 0.000000 0.180638 0.269011
O O7 0.067586 0.186945 0.000000
O O8 0.188215 0.087956 0.500000
O O9 0.220292 0.164001 0.230359
O O10 0.201578 0.000000 0.229320
O O11 0.327802 0.771967 0.783414
O O12 0.413930 0.677176 0.721501
O O13 0.440567 0.846040 0.741712
O O14 0.419135 0.760383 0.000000
O O15 0.000000 0.500000 0.737876
O O16 0.929490 0.500000 0.000000
O O17 0.268353 0.235663 0.500000
O O18 0.500000 0.584024 0.190572
O O19 0.404528 0.500000 0.270867
O O20 0.403421 0.590288 0.000000
O O21 0.500000 0.913851 0.500000
O O22 0.500000 0.000000 0.228967
#
# Coordination Sequence:
#
# PCOD9387536 Si02
#       8
#     8   8   8   8   4   8   8   4
#     4   9  17  32  52  75 103 138 183 228 272 328
#     4   9  17  29  47  72 101 129 158 203 265 323
#     4   9  19  35  52  69  92 128 174 216 254 310
#     4  11  21  37  62  89 115 146 190 241 286 333
#     4   9  16  28  53  85 111 140 187 246 297 341
#     4  10  21  37  55  75 106 147 184 223 278 338
#     4   8  14  28  53  84 113 140 172 213 265 320
#     4  11  25  43  62  87 122 160 193 231 288 353
#
# _framework density 20.171804999999999
#
# number of rings (size 3 to 8) (size 9 to 14) (size 15 to 20)
#    0.000    2.571    0.714    1.929    0.000    4.286 
#    1.286    3.214    0.000    3.429    0.000    0.000 
#    0.000    0.000    0.000    0.000    0.000    0.000 
#
# Total GULP energy -311737.938694 kJ/mol
# GULP energy per Si atom -5566.748905 kJ/mol
# Density = 2.012589 g / cm^3
# Si number density = 20.171805 Si / 1000 Ang^3
#
#
#
# Elastic Constant Matrix: (Units=GPa)
#
#
# Indices 1 2 3 4 5 6 
#
# 1 126.2689 62.5251 -2.0606 0.0000 0.0000 0.0000
# 2 62.5251 163.1233 9.1842 0.0000 0.0000 0.0000
# 3 -2.0606 9.1842 28.0992 0.0000 0.0000 0.0000
# 4 0.0000 0.0000 0.0000 -22.2682 0.0000 0.0000
# 5 0.0000 0.0000 0.0000 0.0000 1.6412 0.0000
# 6 0.0000 0.0000 0.0000 0.0000 0.0000 13.6077
#
#
#
# Elastic Compliance Matrix: (Units=1/GPa)
#
#
# Indices 1 2 3 4 5 6 
#
# 1 0.009884 -0.003901 0.002000 0.000000 0.000000 0.000000
# 2 -0.003901 0.007785 -0.002831 0.000000 0.000000 0.000000
# 3 0.002000 -0.002831 0.036660 0.000000 0.000000 0.000000
# 4 0.000000 0.000000 0.000000 -0.044907 0.000000 0.000000
# 5 0.000000 0.000000 0.000000 0.000000 0.609305 0.000000
# 6 0.000000 0.000000 0.000000 0.000000 0.000000 0.073488
#
#
# Mechanical properties :
#
#
# Convention : Reuss Voigt Hill
#
# Bulk Modulus (GPa) = 22.28891 50.75429 36.52160
# Shear Modulus (GPa) = 6.97706 15.11900 11.04803
#
# Velocity S-wave (km/s) = 1.86181 2.74069 2.34283
# Velocity P-wave (km/s) = 3.96173 5.93555 5.04609
#
# Compressibility (1/GPa) = 0.04486535
#
# Stress axis : x y z
#
# Youngs Moduli (GPa) = 101.17383 128.45215 27.27768
#
# Poissons Ratio (x) = 0.50111 -0.05455
# Poissons Ratio (y) = 0.39469 0.07721
# Poissons Ratio (z) = -0.20234 0.36360
#
# Static dielectric constant tensor:
#      x y z
#    x 1.718740 0.000000 0.000000 
#    y 0.000000 1.785500 0.000000 
#    z 0.000000 0.000000 1.744160 
# 
# From -- ./inp_files/11301.got.cif
#   From: 2010.05.17/outbox.cif.g08.bks.cpg/sg47_6_cif.got.tgz:11301.got - 2010.06.03 20:15:42.
