data_PCOD9387908
_publ_section_title
;
Structure prediction by ZEFSAII (Michael W. Deem and Ramdas Pophale) SiO2 
 PCOD9387908
Probable space group: P M M M
;
_chemical_formula_sum "Si O2"
_cell_formula_units_Z 45
_cell_length_a 9.031496
_cell_length_b 14.232363
_cell_length_c 21.762800
_cell_angle_alpha 90.000000
_cell_angle_beta 90.000000
_cell_angle_gamma 90.000000
_cell_volume 2797.380073
_symmetry_space_group_name_H-M "P M M M"
_symmetry_group_IT_number 47
_symmetry_cell_setting 'orthorhombic'
loop_
_space_group_symop_operation_xyz
x,y,z
-x,-y,z
x,-y,-z
-x,y,-z
-x,-y,-z
x,y,-z
-x,y,z
x,-y,z
loop_
_atom_site_type_symbol
_atom_site_label
_atom_site_fract_x
_atom_site_fract_y
_atom_site_fract_z
Si Si1 0.664001 0.306542 0.000000
Si Si2 0.321324 0.609435 0.763403
Si Si3 0.175921 0.726713 0.871850
Si Si4 0.325270 0.222659 0.676465
Si Si5 0.325959 0.110081 0.800781
Si Si6 0.500000 0.500000 0.000000
Si Si7 0.821761 0.892846 0.571104
O O1 0.752717 0.283220 0.061345
O O2 0.625933 0.416856 0.000000
O O3 0.500000 0.259397 0.000000
O O4 0.500000 0.618109 0.770875
O O5 0.286220 0.500000 0.754050
O O6 0.245924 0.650719 0.824567
O O7 0.278924 0.677678 0.706669
O O8 0.224647 0.826894 0.844067
O O9 0.000000 0.716855 0.873567
O O10 0.500000 0.228351 0.663119
O O11 0.303837 0.147858 0.731627
O O12 0.242438 0.183713 0.617287
O O13 0.500000 0.127357 0.815474
O O14 0.296632 0.000000 0.805054
O O15 0.778968 0.876620 0.500000
O O16 0.000000 0.890993 0.574000
O O17 0.774503 0.000000 0.587596
#
# Coordination Sequence:
#
# PCOD9387908 Si02
#       7
#     4   8   8   8   8   1   8
#     4  10  21  39  56  74  96 130 171 201 244 300
#     4   9  19  35  54  71  96 132 168 202 244 298
#     4  11  22  34  51  78 108 131 158 205 255 295
#     4   9  17  30  49  75  98 123 160 208 249 281
#     4   9  18  34  54  75 100 135 173 204 239 292
#     4   8  24  36  62  76  86 136 178 200 242 304
#     4   9  18  31  46  67  98 134 165 193 235 294
#
# _framework density 16.086480000000002
#
# number of rings (size 3 to 8) (size 9 to 14) (size 15 to 20)
#    0.267    2.311    0.000    4.000    1.244    4.978 
#    0.000    1.778    0.000    3.200    0.000    3.733 
#    0.000    0.000    0.000    0.000    0.000    0.000 
#
# Total GULP energy -250529.198185 kJ/mol
# GULP energy per Si atom -5567.315515 kJ/mol
# Density = 1.604987 g / cm^3
# Si number density = 16.086480 Si / 1000 Ang^3
#
#
#
# Elastic Constant Matrix: (Units=GPa)
#
#
# Indices 1 2 3 4 5 6 
#
# 1 60.9838 49.1584 55.6305 0.0000 0.0000 0.0000
# 2 49.1584 117.7087 67.0226 0.0000 0.0000 0.0000
# 3 55.6305 67.0226 115.7600 0.0000 0.0000 0.0000
# 4 0.0000 0.0000 0.0000 1.7720 0.0000 0.0000
# 5 0.0000 0.0000 0.0000 0.0000 29.0718 0.0000
# 6 0.0000 0.0000 0.0000 0.0000 0.0000 15.2061
#
#
#
# Elastic Compliance Matrix: (Units=1/GPa)
#
#
# Indices 1 2 3 4 5 6 
#
# 1 0.032671 -0.007018 -0.011637 0.000000 0.000000 0.000000
# 2 -0.007018 0.014181 -0.004838 0.000000 0.000000 0.000000
# 3 -0.011637 -0.004838 0.017032 0.000000 0.000000 0.000000
# 4 0.000000 0.000000 0.000000 0.564327 0.000000 0.000000
# 5 0.000000 0.000000 0.000000 0.000000 0.034398 0.000000
# 6 0.000000 0.000000 0.000000 0.000000 0.000000 0.065763
#
#
# Mechanical properties :
#
#
# Convention : Reuss Voigt Hill
#
# Bulk Modulus (GPa) = 59.18013 70.89729 65.03871
# Shear Modulus (GPa) = 6.40212 17.38604 11.89408
#
# Velocity S-wave (km/s) = 1.99711 3.29110 2.72211
# Velocity P-wave (km/s) = 6.49512 7.65572 7.09918
#
# Compressibility (1/GPa) = 0.01689756
#
# Stress axis : x y z
#
# Youngs Moduli (GPa) = 30.60863 70.51603 58.71268
#
# Poissons Ratio (x) = 0.49488 0.68325
# Poissons Ratio (y) = 0.21481 0.28405
# Poissons Ratio (z) = 0.35620 0.34116
#
# Static dielectric constant tensor:
#      x y z
#    x 1.545270 0.000000 0.000000 
#    y 0.000000 1.533660 0.000000 
#    z 0.000000 0.000000 1.520210 
# 
# From -- ./inp_files/29503.got.cif
#   From: 2010.05.17/outbox.cif.g08.bks.cpg/sg47_15_cif.got.tgz:29503.got - 2010.06.03 20:15:42.
