data_PCOD9387694
_publ_section_title
;
Structure prediction by ZEFSAII (Michael W. Deem and Ramdas Pophale) SiO2 
 PCOD9387694
Probable space group: P M M M
;
_chemical_formula_sum "Si O2"
_cell_formula_units_Z 48
_cell_length_a 31.894115
_cell_length_b 8.809394
_cell_length_c 9.368064
_cell_angle_alpha 90.000000
_cell_angle_beta 90.000000
_cell_angle_gamma 90.000000
_cell_volume 2632.124570
_symmetry_space_group_name_H-M "P M M M"
_symmetry_group_IT_number 47
_symmetry_cell_setting 'orthorhombic'
loop_
_space_group_symop_operation_xyz
x,y,z
-x,-y,z
x,-y,-z
-x,y,-z
-x,-y,-z
x,y,-z
-x,y,z
x,-y,z
loop_
_atom_site_type_symbol
_atom_site_label
_atom_site_fract_x
_atom_site_fract_y
_atom_site_fract_z
Si Si1 0.000000 0.323328 0.826757
Si Si2 0.500000 0.682271 0.167124
Si Si3 0.747126 0.181365 0.168466
Si Si4 0.912584 0.182913 0.166698
Si Si5 0.169898 0.185294 0.664113
Si Si6 0.657357 0.318868 0.831919
Si Si7 0.579243 0.181922 0.332874
O O1 0.956775 0.246875 0.778244
O O2 0.000000 0.500000 0.791075
O O3 0.000000 0.308009 0.000000
O O4 0.500000 0.500000 0.174731
O O5 0.459118 0.746029 0.245992
O O6 0.500000 0.725905 0.000000
O O7 0.787583 0.232813 0.256682
O O8 0.703972 0.263724 0.207428
O O9 0.741668 0.000000 0.189380
O O10 0.754895 0.206286 0.000000
O O11 0.872100 0.234849 0.254512
O O12 0.914479 0.000000 0.172324
O O13 0.907588 0.226074 0.000000
O O14 0.169654 0.232950 0.500000
O O15 0.169741 0.000000 0.667829
O O16 0.654105 0.500000 0.818020
O O17 0.622291 0.239538 0.736773
O O18 0.650947 0.280093 0.000000
O O19 0.576859 0.224110 0.500000
O O20 0.576878 0.000000 0.322911
#
# Coordination Sequence:
#
# PCOD9387694 Si02
#       7
#     4   4   8   8   8   8   8
#     4   9  17  29  46  69  94 120 154 197 242 288
#     4  11  24  41  62  88 116 147 184 225 270 320
#     4   9  17  31  52  76 102 134 171 211 256 305
#     4   9  16  28  48  71  93 120 157 199 242 291
#     4   9  17  29  47  72  99 126 161 206 251 296
#     4  10  21  37  57  82 111 143 181 223 267 317
#     4  11  24  40  59  85 115 147 185 226 268 317
#
# _framework density 18.236219999999999
#
# number of rings (size 3 to 8) (size 9 to 14) (size 15 to 20)
#    0.000    2.333    0.000    2.750    0.000    9.667 
#    0.000    2.917    0.000    8.000    0.000    0.000 
#    0.000    0.000    0.000    0.000    0.000    0.000 
#
# Total GULP energy -267937.212948 kJ/mol
# GULP energy per Si atom -5582.025270 kJ/mol
# Density = 1.819471 g / cm^3
# Si number density = 18.236220 Si / 1000 Ang^3
#
#
#
# Elastic Constant Matrix: (Units=GPa)
#
#
# Indices 1 2 3 4 5 6 
#
# 1 191.3451 48.5230 109.5049 0.0000 0.0000 0.0000
# 2 48.5230 29.1545 44.9062 0.0000 0.0000 0.0000
# 3 109.5049 44.9062 114.4865 0.0000 0.0000 0.0000
# 4 0.0000 0.0000 0.0000 16.7092 0.0000 0.0000
# 5 0.0000 0.0000 0.0000 0.0000 -12.6219 0.0000
# 6 0.0000 0.0000 0.0000 0.0000 0.0000 -48.6490
#
#
#
# Elastic Compliance Matrix: (Units=1/GPa)
#
#
# Indices 1 2 3 4 5 6 
#
# 1 0.011917 -0.005752 -0.009142 0.000000 0.000000 0.000000
# 2 -0.005752 0.089428 -0.029575 0.000000 0.000000 0.000000
# 3 -0.009142 -0.029575 0.029079 0.000000 0.000000 0.000000
# 4 0.000000 0.000000 0.000000 0.059847 0.000000 0.000000
# 5 0.000000 0.000000 0.000000 0.000000 -0.079227 0.000000
# 6 0.000000 0.000000 0.000000 0.000000 0.000000 -0.020555
#
#
# Mechanical properties :
#
#
# Convention : Reuss Voigt Hill
#
# Bulk Modulus (GPa) = 24.10491 82.31715 53.21103
# Shear Modulus (GPa) = 25.87235 -0.10888 12.88173
#
# Velocity S-wave (km/s) = 3.77070 -0.24461 2.66067
# Velocity P-wave (km/s) = 5.67489 6.71994 6.21940
#
# Compressibility (1/GPa) = 0.04148533
#
# Stress axis : x y z
#
# Youngs Moduli (GPa) = 83.91583 11.18213 34.38870
#
# Poissons Ratio (x) = 0.06432 0.31438
# Poissons Ratio (y) = 0.48272 1.01706
# Poissons Ratio (z) = 0.76715 0.33071
#
# Static dielectric constant tensor:
#      x y z
#    x 1.602780 0.000000 0.000000 
#    y 0.000000 1.608460 0.000000 
#    z 0.000000 0.000000 1.613010 
# 
# From -- ./inp_files/13818.got.cif
#   From: 2010.05.17/outbox.cif.g08.bks.cpg/sg47_7_cif.got.tgz:13818.got - 2010.06.03 20:15:42.
