data_PCOD9387341
_publ_section_title
;
Structure prediction by ZEFSAII (Michael W. Deem and Ramdas Pophale) SiO2 
 PCOD9387341
Probable space group: P M M M
;
_chemical_formula_sum "Si O2"
_cell_formula_units_Z 64
_cell_length_a 8.006163
_cell_length_b 15.199751
_cell_length_c 24.903950
_cell_angle_alpha 90.000000
_cell_angle_beta 90.000000
_cell_angle_gamma 90.000000
_cell_volume 3030.603615
_symmetry_space_group_name_H-M "P M M M"
_symmetry_group_IT_number 47
_symmetry_cell_setting 'orthorhombic'
loop_
_space_group_symop_operation_xyz
x,y,z
-x,-y,z
x,-y,-z
-x,y,-z
-x,-y,-z
x,y,-z
-x,y,z
x,-y,z
loop_
_atom_site_type_symbol
_atom_site_label
_atom_site_fract_x
_atom_site_fract_y
_atom_site_fract_z
Si Si1 0.798198 0.101225 0.656916
Si Si2 0.801046 0.720019 0.173616
Si Si3 0.697959 0.399368 0.727107
Si Si4 0.807446 0.712890 0.940299
Si Si5 0.302039 0.900171 0.222496
Si Si6 0.690738 0.904448 0.935718
Si Si7 0.802457 0.401753 0.392093
Si Si8 0.795094 0.223681 0.440484
O O1 0.736713 0.126711 0.716043
O O2 0.739294 0.162028 0.608325
O O3 0.000000 0.104637 0.658248
O O4 0.747606 0.000000 0.647984
O O5 0.738978 0.664836 0.224298
O O6 0.731245 0.683113 0.116595
O O7 0.761562 0.822648 0.184492
O O8 0.000000 0.711377 0.171113
O O9 0.500000 0.398331 0.718184
O O10 0.749678 0.500000 0.739886
O O11 0.780936 0.375578 0.670335
O O12 0.801851 0.818367 0.930832
O O13 0.000000 0.683837 0.942925
O O14 0.732639 0.695844 0.000000
O O15 0.500000 0.904521 0.216120
O O16 0.234352 0.000000 0.214834
O O17 0.500000 0.888983 0.916012
O O18 0.747886 0.000000 0.914745
O O19 0.678061 0.913063 0.000000
O O20 0.730322 0.500000 0.399077
O O21 0.736881 0.322970 0.428456
O O22 0.000000 0.407637 0.402889
O O23 0.744632 0.194807 0.500000
O O24 0.000000 0.223413 0.439337
#
# Coordination Sequence:
#
# PCOD9387341 Si02
#       8
#     8   8   8   8   8   8   8   8
#     4   9  17  30  49  71  96 130 173 220 266 308
#     4  11  22  35  55  80 106 137 171 212 260 310
#     4  10  21  37  58  83 108 133 166 213 266 317
#     4   9  19  34  49  68  96 130 167 204 245 297
#     4  10  21  36  54  77 106 140 178 221 268 316
#     4   8  14  25  41  61  86 119 160 202 240 280
#     4   9  17  30  50  75 102 133 168 206 251 304
#     4   9  17  28  44  70 102 134 171 214 256 299
#
# _framework density 21.117905
#
# number of rings (size 3 to 8) (size 9 to 14) (size 15 to 20)
#    0.000    2.625    0.000    2.250    0.000    4.750 
#    0.000    6.250    0.000    1.875    0.000    6.125 
#    0.000    0.000    0.000    0.000    0.000    0.000 
#
# Total GULP energy -356834.195124 kJ/mol
# GULP energy per Si atom -5575.534299 kJ/mol
# Density = 2.106984 g / cm^3
# Si number density = 21.117905 Si / 1000 Ang^3
#
#
#
# Elastic Constant Matrix: (Units=GPa)
#
#
# Indices 1 2 3 4 5 6 
#
# 1 18.9017 0.9819 -3.3717 0.0000 0.0000 0.0000
# 2 0.9819 33.2647 35.6051 0.0000 0.0000 0.0000
# 3 -3.3717 35.6051 129.4205 0.0000 0.0000 0.0000
# 4 0.0000 0.0000 0.0000 0.4047 0.0000 0.0000
# 5 0.0000 0.0000 0.0000 0.0000 -29.6223 0.0000
# 6 0.0000 0.0000 0.0000 0.0000 0.0000 58.0190
#
#
#
# Elastic Compliance Matrix: (Units=1/GPa)
#
#
# Indices 1 2 3 4 5 6 
#
# 1 0.053595 -0.004361 0.002596 0.000000 0.000000 0.000000
# 2 -0.004361 0.042964 -0.011933 0.000000 0.000000 0.000000
# 3 0.002596 -0.011933 0.011077 0.000000 0.000000 0.000000
# 4 0.000000 0.000000 0.000000 2.471008 0.000000 0.000000
# 5 0.000000 0.000000 0.000000 0.000000 -0.033758 0.000000
# 6 0.000000 0.000000 0.000000 0.000000 0.000000 0.017236
#
#
# Mechanical properties :
#
#
# Convention : Reuss Voigt Hill
#
# Bulk Modulus (GPa) = 12.46263 27.55748 20.01006
# Shear Modulus (GPa) = 1.91112 15.65173 8.78143
#
# Velocity S-wave (km/s) = 0.95233 2.72538 2.04140
# Velocity P-wave (km/s) = 2.66899 4.79388 3.87974
#
# Compressibility (1/GPa) = 0.08023988
#
# Stress axis : x y z
#
# Youngs Moduli (GPa) = 18.65848 23.27549 90.27394
#
# Poissons Ratio (x) = 0.10149 -0.23434
# Poissons Ratio (y) = 0.08136 1.07727
# Poissons Ratio (z) = -0.04844 0.27776
#
# Static dielectric constant tensor:
#      x y z
#    x 1.753170 0.000000 0.000000 
#    y 0.000000 1.788140 0.000000 
#    z 0.000000 0.000000 1.799720 
# 
# From -- ./inp_files/12659.got.cif
#   From: 2010.05.17/outbox.cif.g08.bks.cpg/sg47_7_cif.got.tgz:12659.got - 2010.06.03 20:15:42.
