data_PCOD9387759
_publ_section_title
;
Structure prediction by ZEFSAII (Michael W. Deem and Ramdas Pophale) SiO2 
 PCOD9387759
Probable space group: P M M M
;
_chemical_formula_sum "Si O2"
_cell_formula_units_Z 52
_cell_length_a 9.611993
_cell_length_b 13.975357
_cell_length_c 22.173597
_cell_angle_alpha 90.000000
_cell_angle_beta 90.000000
_cell_angle_gamma 90.000000
_cell_volume 2978.602205
_symmetry_space_group_name_H-M "P M M M"
_symmetry_group_IT_number 47
_symmetry_cell_setting 'orthorhombic'
loop_
_space_group_symop_operation_xyz
x,y,z
-x,-y,z
x,-y,-z
-x,y,-z
-x,-y,-z
x,y,-z
-x,y,z
x,-y,z
loop_
_atom_site_type_symbol
_atom_site_label
_atom_site_fract_x
_atom_site_fract_y
_atom_site_fract_z
Si Si1 0.331332 0.218717 0.123026
Si Si2 0.500000 0.885852 0.430288
Si Si3 0.834961 0.611821 0.828392
Si Si4 0.664580 0.388861 0.703637
Si Si5 0.000000 0.112202 0.571803
Si Si6 0.332081 0.891246 0.000000
Si Si7 0.247855 0.798781 0.357641
Si Si8 0.163767 0.114442 0.228566
O O1 0.500000 0.226612 0.128797
O O2 0.252817 0.320205 0.127647
O O3 0.296119 0.165559 0.060616
O O4 0.263227 0.158191 0.177461
O O5 0.500000 0.851463 0.500000
O O6 0.373719 0.848898 0.390969
O O7 0.500000 0.000000 0.432704
O O8 0.824356 0.500000 0.844710
O O9 0.759333 0.623203 0.763367
O O10 0.000000 0.635818 0.825294
O O11 0.500000 0.370464 0.716952
O O12 0.676404 0.500000 0.684824
O O13 0.717661 0.311935 0.655347
O O14 0.874167 0.172507 0.597940
O O15 0.000000 0.108814 0.500000
O O16 0.000000 0.000000 0.593154
O O17 0.500000 0.897445 0.000000
O O18 0.277122 0.000000 0.000000
O O19 0.211633 0.844253 0.292764
O O20 0.000000 0.138588 0.218733
O O21 0.175346 0.000000 0.228887
#
# Coordination Sequence:
#
# PCOD9387759 Si02
#       8
#     8   4   8   8   4   4   8   8
#     4  11  22  37  61  88 118 156 199 248 296 349
#     4  11  24  40  59  85 119 156 199 246 292 357
#     4  10  21  37  58  86 120 156 194 242 300 356
#     4  10  21  38  60  89 121 154 196 247 306 363
#     4  11  24  42  63  85 117 164 205 238 288 357
#     4   9  20  40  60  83 118 162 205 239 284 351
#     4  12  22  38  60  87 118 154 198 245 302 353
#     4  11  23  37  55  85 122 156 192 246 303 354
#
# _framework density 17.457854000000001
#
# number of rings (size 3 to 8) (size 9 to 14) (size 15 to 20)
#    0.000    1.308    3.077    3.231    2.154    3.077 
#    0.000    1.923    0.000    7.846    0.000    0.000 
#    0.000    0.000    0.000    0.000    0.000    0.000 
#
# Total GULP energy -290098.396765 kJ/mol
# GULP energy per Si atom -5578.815322 kJ/mol
# Density = 1.741812 g / cm^3
# Si number density = 17.457854 Si / 1000 Ang^3
#
#
#
# Elastic Constant Matrix: (Units=GPa)
#
#
# Indices 1 2 3 4 5 6 
#
# 1 153.0756 64.3647 55.6589 0.0000 0.0000 0.0000
# 2 64.3647 138.7595 61.1448 0.0000 0.0000 0.0000
# 3 55.6589 61.1448 107.5687 0.0000 0.0000 0.0000
# 4 0.0000 0.0000 0.0000 42.3302 0.0000 0.0000
# 5 0.0000 0.0000 0.0000 0.0000 26.1158 0.0000
# 6 0.0000 0.0000 0.0000 0.0000 0.0000 24.8097
#
#
#
# Elastic Compliance Matrix: (Units=1/GPa)
#
#
# Indices 1 2 3 4 5 6 
#
# 1 0.008774 -0.002761 -0.002970 0.000000 0.000000 0.000000
# 2 -0.002761 0.010484 -0.004531 0.000000 0.000000 0.000000
# 3 -0.002970 -0.004531 0.013409 0.000000 0.000000 0.000000
# 4 0.000000 0.000000 0.000000 0.023624 0.000000 0.000000
# 5 0.000000 0.000000 0.000000 0.000000 0.038291 0.000000
# 6 0.000000 0.000000 0.000000 0.000000 0.000000 0.040307
#
#
# Mechanical properties :
#
#
# Convention : Reuss Voigt Hill
#
# Bulk Modulus (GPa) = 82.35687 84.63785 83.49736
# Shear Modulus (GPa) = 31.35598 33.20015 32.27807
#
# Velocity S-wave (km/s) = 4.24263 4.36562 4.30456
# Velocity P-wave (km/s) = 8.44257 8.60221 8.52276
#
# Compressibility (1/GPa) = 0.01214228
#
# Stress axis : x y z
#
# Youngs Moduli (GPa) = 113.97798 95.38497 74.57820
#
# Poissons Ratio (x) = 0.26334 0.22153
# Poissons Ratio (y) = 0.31467 0.33790
# Poissons Ratio (z) = 0.33856 0.43217
#
# Static dielectric constant tensor:
#      x y z
#    x 1.568620 0.000000 0.000000 
#    y 0.000000 1.613360 0.000000 
#    z 0.000000 0.000000 1.557560 
# 
# From -- ./inp_files/29661.got.cif
#   From: 2010.05.17/outbox.cif.g08.bks.cpg/sg47_15_cif.got.tgz:29661.got - 2010.06.03 20:15:42.
