data_PCOD9387060
_publ_section_title
;
Structure prediction by ZEFSAII (Michael W. Deem and Ramdas Pophale) SiO2 
 PCOD9387060
Probable space group: P M M M
;
_chemical_formula_sum "Si O2"
_cell_formula_units_Z 64
_cell_length_a 25.007420
_cell_length_b 8.874911
_cell_length_c 14.697821
_cell_angle_alpha 90.000000
_cell_angle_beta 90.000000
_cell_angle_gamma 90.000000
_cell_volume 3262.014210
_symmetry_space_group_name_H-M "P M M M"
_symmetry_group_IT_number 47
_symmetry_cell_setting 'orthorhombic'
loop_
_space_group_symop_operation_xyz
x,y,z
-x,-y,z
x,-y,-z
-x,y,-z
-x,-y,-z
x,y,-z
-x,y,z
x,-y,z
loop_
_atom_site_type_symbol
_atom_site_label
_atom_site_fract_x
_atom_site_fract_y
_atom_site_fract_z
Si Si1 0.786142 0.317677 0.393630
Si Si2 0.231567 0.668712 0.109733
Si Si3 0.667073 0.164608 0.105078
Si Si4 0.851733 0.176398 0.232156
Si Si5 0.441235 0.677072 0.140264
Si Si6 0.667410 0.670245 0.392054
Si Si7 0.063507 0.680198 0.102738
Si Si8 0.441284 0.821496 0.663839
O O1 0.794182 0.273340 0.500000
O O2 0.786590 0.500000 0.390645
O O3 0.830034 0.253311 0.324500
O O4 0.725848 0.271207 0.361650
O O5 0.217588 0.500000 0.140820
O O6 0.291692 0.711122 0.139606
O O7 0.193331 0.788034 0.156408
O O8 0.226692 0.669670 0.000000
O O9 0.607261 0.224410 0.105413
O O10 0.671185 0.000000 0.149818
O O11 0.682487 0.147713 0.000000
O O12 0.904394 0.244428 0.184607
O O13 0.857858 0.000000 0.247118
O O14 0.500000 0.713312 0.102883
O O15 0.431401 0.500000 0.126058
O O16 0.443309 0.719905 0.246176
O O17 0.674486 0.655569 0.500000
O O18 0.658179 0.500000 0.354891
O O19 0.614719 0.771040 0.379446
O O20 0.072200 0.500000 0.106465
O O21 0.000000 0.707345 0.109619
O O22 0.080613 0.729395 0.000000
O O23 0.500000 0.799018 0.617005
O O24 0.438540 0.000000 0.685098
#
# Coordination Sequence:
#
# PCOD9387060 Si02
#       8
#     8   8   8   8   8   8   8   8
#     4   9  20  40  62  83 111 151 201 253 300 349
#     4  10  21  37  56  79 111 151 194 237 279 333
#     4  10  21  36  53  74 101 131 166 216 278 335
#     4  12  24  35  56  90 125 162 197 237 295 353
#     4  10  21  36  53  71  93 127 171 216 262 321
#     4   9  19  36  57  79 102 132 174 226 283 343
#     4   9  19  38  64  93 127 168 212 253 288 330
#     4  10  21  35  51  73 102 134 169 216 275 339
#
# _framework density 19.619778
#
# number of rings (size 3 to 8) (size 9 to 14) (size 15 to 20)
#    0.000    2.125    0.000    4.125    1.750    6.500 
#    0.000    4.375    0.000    0.375    0.000    2.625 
#    0.000    0.000    0.000    0.000    0.000    0.000 
#
# Total GULP energy -356830.847169 kJ/mol
# GULP energy per Si atom -5575.481987 kJ/mol
# Density = 1.957512 g / cm^3
# Si number density = 19.619778 Si / 1000 Ang^3
#
#
#
# Elastic Constant Matrix: (Units=GPa)
#
#
# Indices 1 2 3 4 5 6 
#
# 1 96.1795 36.8255 39.5455 0.0000 0.0000 0.0000
# 2 36.8255 55.0373 22.7830 0.0000 0.0000 0.0000
# 3 39.5455 22.7830 82.9161 0.0000 0.0000 0.0000
# 4 0.0000 0.0000 0.0000 15.1107 0.0000 0.0000
# 5 0.0000 0.0000 0.0000 0.0000 22.4443 0.0000
# 6 0.0000 0.0000 0.0000 0.0000 0.0000 133.1895
#
#
#
# Elastic Compliance Matrix: (Units=1/GPa)
#
#
# Indices 1 2 3 4 5 6 
#
# 1 0.015747 -0.008381 -0.005208 0.000000 0.000000 0.000000
# 2 -0.008381 0.024962 -0.002862 0.000000 0.000000 0.000000
# 3 -0.005208 -0.002862 0.015330 0.000000 0.000000 0.000000
# 4 0.000000 0.000000 0.000000 0.066178 0.000000 0.000000
# 5 0.000000 0.000000 0.000000 0.000000 0.044555 0.000000
# 6 0.000000 0.000000 0.000000 0.000000 0.000000 0.007508
#
#
# Mechanical properties :
#
#
# Convention : Reuss Voigt Hill
#
# Bulk Modulus (GPa) = 43.21673 48.04901 45.63287
# Shear Modulus (GPa) = 23.26732 43.14749 33.20740
#
# Velocity S-wave (km/s) = 3.44744 4.69463 4.11852
# Velocity P-wave (km/s) = 6.15804 7.34366 6.77683
#
# Compressibility (1/GPa) = 0.02313919
#
# Stress axis : x y z
#
# Youngs Moduli (GPa) = 63.50304 40.06133 65.22998
#
# Poissons Ratio (x) = 0.33575 0.33969
# Poissons Ratio (y) = 0.53221 0.18667
# Poissons Ratio (z) = 0.33070 0.11464
#
# Static dielectric constant tensor:
#      x y z
#    x 1.718700 0.000000 0.000000 
#    y 0.000000 1.686190 0.000000 
#    z 0.000000 0.000000 1.729760 
# 
# From -- ./inp_files/25521.got.cif
#   From: 2010.05.17/outbox.cif.g08.bks.cpg/sg47_13_cif.got.tgz:25521.got - 2010.06.03 20:15:42.
