data_PCOD9387828
_publ_section_title
;
Structure prediction by ZEFSAII (Michael W. Deem and Ramdas Pophale) SiO2 
 PCOD9387828
Probable space group: P M M M
;
_chemical_formula_sum "Si O2"
_cell_formula_units_Z 52
_cell_length_a 8.501676
_cell_length_b 15.491280
_cell_length_c 20.744038
_cell_angle_alpha 90.000000
_cell_angle_beta 90.000000
_cell_angle_gamma 90.000000
_cell_volume 2732.028044
_symmetry_space_group_name_H-M "P M M M"
_symmetry_group_IT_number 47
_symmetry_cell_setting 'orthorhombic'
loop_
_space_group_symop_operation_xyz
x,y,z
-x,-y,z
x,-y,-z
-x,y,-z
-x,-y,-z
x,y,-z
-x,y,z
x,-y,z
loop_
_atom_site_type_symbol
_atom_site_label
_atom_site_fract_x
_atom_site_fract_y
_atom_site_fract_z
Si Si1 0.815291 0.167250 0.131858
Si Si2 0.810212 0.401810 0.425883
Si Si3 0.812305 0.405132 0.206882
Si Si4 0.687263 0.657277 0.925827
Si Si5 0.689981 0.900380 0.731294
Si Si6 0.676782 0.000000 0.925254
Si Si7 0.312216 0.721831 0.684705
O O1 0.726832 0.245646 0.097113
O O2 0.749137 0.138676 0.201174
O O3 0.777882 0.082763 0.091550
O O4 0.000000 0.187821 0.136292
O O5 0.763338 0.384552 0.500000
O O6 0.759964 0.500000 0.409594
O O7 0.747495 0.332898 0.375616
O O8 0.000000 0.400812 0.423384
O O9 0.760958 0.500000 0.230856
O O10 0.764025 0.396844 0.132064
O O11 0.744178 0.328675 0.250850
O O12 0.000000 0.400246 0.211651
O O13 0.500000 0.643672 0.924671
O O14 0.741041 0.642626 0.000000
O O15 0.500000 0.903666 0.731891
O O16 0.738674 0.822655 0.683283
O O17 0.745098 0.000000 0.722078
O O18 0.500000 0.000000 0.893514
O O19 0.651659 0.000000 0.000000
O O20 0.500000 0.720854 0.685806
#
# Coordination Sequence:
#
# PCOD9387828 Si02
#       7
#     8   8   8   8   8   4   8
#     4  12  23  35  55  81 107 138 184 241 297 355
#     4   9  19  37  61  90 126 166 201 234 282 343
#     4  11  24  40  59  84 115 151 191 240 297 354
#     4  11  24  41  59  78 105 145 191 240 298 359
#     4  10  21  38  59  81 113 154 193 236 291 350
#     4  11  23  37  53  73 103 143 182 229 296 365
#     4  11  22  36  60  91 121 155 195 241 290 343
#
# _framework density 19.033480000000001
#
# number of rings (size 3 to 8) (size 9 to 14) (size 15 to 20)
#    0.000    1.308    2.308    4.385    0.000    8.308 
#    0.000    2.308    0.000    0.462    0.000    3.231 
#    0.000    0.000    0.000    0.000    0.000    0.000 
#
# Total GULP energy -290209.990327 kJ/mol
# GULP energy per Si atom -5580.961352 kJ/mol
# Density = 1.899016 g / cm^3
# Si number density = 19.033480 Si / 1000 Ang^3
#
#
#
# Elastic Constant Matrix: (Units=GPa)
#
#
# Indices 1 2 3 4 5 6 
#
# 1 19.9061 14.2372 13.3828 0.0000 0.0000 0.0000
# 2 14.2372 125.1957 61.9147 0.0000 0.0000 0.0000
# 3 13.3828 61.9147 104.1087 0.0000 0.0000 0.0000
# 4 0.0000 0.0000 0.0000 27.0972 0.0000 0.0000
# 5 0.0000 0.0000 0.0000 0.0000 31.6057 0.0000
# 6 0.0000 0.0000 0.0000 0.0000 0.0000 29.6202
#
#
#
# Elastic Compliance Matrix: (Units=1/GPa)
#
#
# Indices 1 2 3 4 5 6 
#
# 1 0.056370 -0.004005 -0.004865 0.000000 0.000000 0.000000
# 2 -0.004005 0.011600 -0.006384 0.000000 0.000000 0.000000
# 3 -0.004865 -0.006384 0.014027 0.000000 0.000000 0.000000
# 4 0.000000 0.000000 0.000000 0.036904 0.000000 0.000000
# 5 0.000000 0.000000 0.000000 0.000000 0.031640 0.000000
# 6 0.000000 0.000000 0.000000 0.000000 0.000000 0.033761
#
#
# Mechanical properties :
#
#
# Convention : Reuss Voigt Hill
#
# Bulk Modulus (GPa) = 19.42070 47.58665 33.50367
# Shear Modulus (GPa) = 21.55428 28.30969 24.93198
#
# Velocity S-wave (km/s) = 3.36883 3.86082 3.62318
# Velocity P-wave (km/s) = 5.03563 6.70301 5.92824
#
# Compressibility (1/GPa) = 0.05149145
#
# Stress axis : x y z
#
# Youngs Moduli (GPa) = 17.73978 86.20683 71.28983
#
# Poissons Ratio (x) = 0.34523 0.34680
# Poissons Ratio (y) = 0.07104 0.45511
# Poissons Ratio (z) = 0.08630 0.55033
#
# Static dielectric constant tensor:
#      x y z
#    x 1.659540 0.000000 0.000000 
#    y 0.000000 1.716230 0.000000 
#    z 0.000000 0.000000 1.663650 
# 
# From -- ./inp_files/29583.got.cif
#   From: 2010.05.17/outbox.cif.g08.bks.cpg/sg47_15_cif.got.tgz:29583.got - 2010.06.03 20:15:42.
