data_PCOD9387041
_publ_section_title
;
Structure prediction by ZEFSAII (Michael W. Deem and Ramdas Pophale) SiO2 
 PCOD9387041
Probable space group: P M M M
;
_chemical_formula_sum "Si O2"
_cell_formula_units_Z 52
_cell_length_a 25.129665
_cell_length_b 7.486079
_cell_length_c 13.741577
_cell_angle_alpha 90.000000
_cell_angle_beta 90.000000
_cell_angle_gamma 90.000000
_cell_volume 2585.101983
_symmetry_space_group_name_H-M "P M M M"
_symmetry_group_IT_number 47
_symmetry_cell_setting 'orthorhombic'
loop_
_space_group_symop_operation_xyz
x,y,z
-x,-y,z
x,-y,-z
-x,y,-z
-x,-y,-z
x,y,-z
-x,y,z
x,-y,z
loop_
_atom_site_type_symbol
_atom_site_label
_atom_site_fract_x
_atom_site_fract_y
_atom_site_fract_z
Si Si1 0.063299 0.000000 0.893065
Si Si2 0.330443 0.294002 0.187893
Si Si3 0.558397 0.283016 0.114594
Si Si4 0.827216 0.285142 0.686198
Si Si5 0.219808 0.281712 0.107657
Si Si6 0.715147 0.207023 0.605865
Si Si7 0.060646 0.286190 0.269538
O O1 0.072181 0.823781 0.828596
O O2 0.000000 0.000000 0.905212
O O3 0.088030 0.000000 0.000000
O O4 0.333603 0.500000 0.155884
O O5 0.388711 0.216827 0.168569
O O6 0.280271 0.218690 0.128375
O O7 0.312663 0.290698 0.300271
O O8 0.500000 0.219182 0.147737
O O9 0.556996 0.500000 0.122918
O O10 0.563673 0.241854 0.000000
O O11 0.823051 0.500000 0.682697
O O12 0.813401 0.227105 0.797238
O O13 0.778891 0.216508 0.621505
O O14 0.888498 0.239411 0.663426
O O15 0.219413 0.500000 0.108771
O O16 0.202297 0.226055 0.000000
O O17 0.701932 0.283565 0.500000
O O18 0.699835 0.000000 0.607100
O O19 0.062335 0.500000 0.252787
O O20 0.000000 0.242482 0.301807
#
# Coordination Sequence:
#
# PCOD9387041 Si02
#       7
#     4   8   8   8   8   8   8
#     4   9  18  30  44  66  95 131 173 209 243 284
#     4   9  16  27  46  70  95 126 161 196 236 283
#     4   8  13  22  41  73 108 136 163 196 233 275
#     4   9  18  31  50  73  94 122 158 197 243 295
#     4   8  13  22  38  62  91 120 151 186 225 273
#     4  10  21  35  51  70  92 120 155 201 256 307
#     4   9  18  32  49  70  97 130 167 206 251 304
#
# _framework density 20.115259999999999
#
# number of rings (size 3 to 8) (size 9 to 14) (size 15 to 20)
#    0.000    3.154    0.000    2.308    1.077    4.000 
#    0.000    3.077    0.000    9.692    0.000    7.538 
#    0.000    0.000    0.000    0.000    0.000    0.000 
#
# Total GULP energy -289570.818748 kJ/mol
# GULP energy per Si atom -5568.669591 kJ/mol
# Density = 2.006948 g / cm^3
# Si number density = 20.115260 Si / 1000 Ang^3
#
#
#
# Elastic Constant Matrix: (Units=GPa)
#
#
# Indices 1 2 3 4 5 6 
#
# 1 148.6906 7.3254 14.0959 0.0000 0.0000 0.0000
# 2 7.3254 48.4984 -9.2866 0.0000 0.0000 0.0000
# 3 14.0959 -9.2866 43.6962 0.0000 0.0000 0.0000
# 4 0.0000 0.0000 0.0000 17.7447 0.0000 0.0000
# 5 0.0000 0.0000 0.0000 0.0000 8.2063 0.0000
# 6 0.0000 0.0000 0.0000 0.0000 0.0000 -8.2831
#
#
#
# Elastic Compliance Matrix: (Units=1/GPa)
#
#
# Indices 1 2 3 4 5 6 
#
# 1 0.007050 -0.001564 -0.002606 0.000000 0.000000 0.000000
# 2 -0.001564 0.021841 0.005146 0.000000 0.000000 0.000000
# 3 -0.002606 0.005146 0.024820 0.000000 0.000000 0.000000
# 4 0.000000 0.000000 0.000000 0.056355 0.000000 0.000000
# 5 0.000000 0.000000 0.000000 0.000000 0.121858 0.000000
# 6 0.000000 0.000000 0.000000 0.000000 0.000000 -0.120728
#
#
# Mechanical properties :
#
#
# Convention : Reuss Voigt Hill
#
# Bulk Modulus (GPa) = 17.96556 29.46162 23.71359
# Shear Modulus (GPa) = 39.12434 18.78360 28.95397
#
# Velocity S-wave (km/s) = 4.41501 3.05913 3.79806
# Velocity P-wave (km/s) = 5.91104 5.21113 5.57209
#
# Compressibility (1/GPa) = 0.05566206
#
# Stress axis : x y z
#
# Youngs Moduli (GPa) = 141.85371 45.78572 40.29038
#
# Poissons Ratio (x) = 0.07160 0.10502
# Poissons Ratio (y) = 0.22184 -0.20735
# Poissons Ratio (z) = 0.36974 -0.23563
#
# Static dielectric constant tensor:
#      x y z
#    x 1.755120 0.000000 0.000000 
#    y 0.000000 1.815560 0.000000 
#    z 0.000000 0.000000 1.695940 
# 
# From -- ./inp_files/25712.got.cif
#   From: 2010.05.17/outbox.cif.g08.bks.cpg/sg47_13_cif.got.tgz:25712.got - 2010.06.03 20:15:42.
