data_PCOD9387082
_publ_section_title
;
Structure prediction by ZEFSAII (Michael W. Deem and Ramdas Pophale) SiO2 
 PCOD9387082
Probable space group: P M M M
;
_chemical_formula_sum "Si O2"
_cell_formula_units_Z 36
_cell_length_a 7.628964
_cell_length_b 23.490502
_cell_length_c 9.854257
_cell_angle_alpha 90.000000
_cell_angle_beta 90.000000
_cell_angle_gamma 90.000000
_cell_volume 1765.963601
_symmetry_space_group_name_H-M "P M M M"
_symmetry_group_IT_number 47
_symmetry_cell_setting 'orthorhombic'
loop_
_space_group_symop_operation_xyz
x,y,z
-x,-y,z
x,-y,-z
-x,y,-z
-x,-y,-z
x,y,-z
-x,y,z
x,-y,z
loop_
_atom_site_type_symbol
_atom_site_label
_atom_site_fract_x
_atom_site_fract_y
_atom_site_fract_z
Si Si1 0.211369 0.935201 0.847123
Si Si2 0.214962 0.500000 0.343935
Si Si3 0.789527 0.397287 0.154389
Si Si4 0.291237 0.168243 0.347236
Si Si5 0.710424 0.267521 0.153812
O O1 0.265422 0.889653 0.736160
O O2 0.000000 0.936034 0.849549
O O3 0.270348 0.000000 0.819438
O O4 0.270929 0.919348 0.000000
O O5 0.272052 0.500000 0.500000
O O6 0.272964 0.555631 0.260311
O O7 0.000000 0.500000 0.345152
O O8 0.748096 0.332507 0.193938
O O9 0.000000 0.402495 0.148783
O O10 0.723401 0.406549 0.000000
O O11 0.219933 0.165549 0.500000
O O12 0.500000 0.176968 0.357853
O O13 0.220102 0.220668 0.257967
O O14 0.500000 0.261405 0.147918
O O15 0.778132 0.258959 0.000000
#
# Coordination Sequence:
#
# PCOD9387082 Si02
#       5
#     8   4   8   8   8
#     4   9  19  36  56  77 101 130 166 208 251 294
#     4   9  17  29  46  69  96 124 154 191 236 286
#     4   9  17  30  49  71  93 120 157 199 240 283
#     4  10  21  35  51  74 104 136 168 203 246 297
#     4   9  18  33  51  70  95 128 164 202 244 288
#
# _framework density 20.385470999999999
#
# number of rings (size 3 to 8) (size 9 to 14) (size 15 to 20)
#    0.000    2.778    0.000    1.667    0.000    5.778 
#    0.000    6.111    0.000    3.333    0.000    0.000 
#    0.000    0.000    0.000    0.000    0.000    0.000 
#
# Total GULP energy -200924.189869 kJ/mol
# GULP energy per Si atom -5581.227496 kJ/mol
# Density = 2.033907 g / cm^3
# Si number density = 20.385471 Si / 1000 Ang^3
#
#
#
# Elastic Constant Matrix: (Units=GPa)
#
#
# Indices 1 2 3 4 5 6 
#
# 1 38.8581 -1.2334 7.2588 0.0000 0.0000 0.0000
# 2 -1.2334 173.2770 153.2044 0.0000 0.0000 0.0000
# 3 7.2588 153.2044 187.1385 0.0000 0.0000 0.0000
# 4 0.0000 0.0000 0.0000 -49.7497 0.0000 0.0000
# 5 0.0000 0.0000 0.0000 0.0000 11.9594 0.0000
# 6 0.0000 0.0000 0.0000 0.0000 0.0000 26.6417
#
#
#
# Elastic Compliance Matrix: (Units=1/GPa)
#
#
# Indices 1 2 3 4 5 6 
#
# 1 0.026666 0.003999 -0.004308 0.000000 0.000000 0.000000
# 2 0.003999 0.021497 -0.017754 0.000000 0.000000 0.000000
# 3 -0.004308 -0.017754 0.020045 0.000000 0.000000 0.000000
# 4 0.000000 0.000000 0.000000 -0.020101 0.000000 0.000000
# 5 0.000000 0.000000 0.000000 0.000000 0.083616 0.000000
# 6 0.000000 0.000000 0.000000 0.000000 0.000000 0.037535
#
#
# Mechanical properties :
#
#
# Convention : Reuss Voigt Hill
#
# Bulk Modulus (GPa) = 31.16994 79.74815 55.45904
# Shear Modulus (GPa) = 23.13965 13.77321 18.45643
#
# Velocity S-wave (km/s) = 3.37279 2.60212 3.01220
# Velocity P-wave (km/s) = 5.52187 6.94500 6.27392
#
# Compressibility (1/GPa) = 0.03208219
#
# Stress axis : x y z
#
# Youngs Moduli (GPa) = 37.50049 46.51856 49.88711
#
# Poissons Ratio (x) = -0.18602 0.21492
# Poissons Ratio (y) = -0.14996 0.88569
# Poissons Ratio (z) = 0.16155 0.82588
#
# Static dielectric constant tensor:
#      x y z
#    x 1.762210 0.000000 0.000000 
#    y 0.000000 1.691560 0.000000 
#    z 0.000000 0.000000 1.717240 
# 
# From -- ./inp_files/1416.got.cif
#   From: 2010.05.17/outbox.cif.g08.bks.cpg/sg47_1_cif.got.tgz:1416.got - 2010.06.03 20:15:42.
