data_PCOD9387900
_publ_section_title
;
Structure prediction by ZEFSAII (Michael W. Deem and Ramdas Pophale) SiO2 
 PCOD9387900
Probable space group: P M M M
;
_chemical_formula_sum "Si O2"
_cell_formula_units_Z 48
_cell_length_a 15.904813
_cell_length_b 8.629872
_cell_length_c 18.410094
_cell_angle_alpha 90.000000
_cell_angle_beta 90.000000
_cell_angle_gamma 90.000000
_cell_volume 2526.905074
_symmetry_space_group_name_H-M "P M M M"
_symmetry_group_IT_number 47
_symmetry_cell_setting 'orthorhombic'
loop_
_space_group_symop_operation_xyz
x,y,z
-x,-y,z
x,-y,-z
-x,y,-z
-x,-y,-z
x,y,-z
-x,y,z
x,-y,z
loop_
_atom_site_type_symbol
_atom_site_label
_atom_site_fract_x
_atom_site_fract_y
_atom_site_fract_z
Si Si1 0.684860 0.322028 0.780561
Si Si2 0.600875 0.179563 0.919979
Si Si3 0.141028 0.183239 0.193439
Si Si4 0.092541 0.183788 0.640106
Si Si5 0.597706 0.685576 0.500000
Si Si6 0.000000 0.812101 0.919007
Si Si7 0.716401 0.814918 0.625081
O O1 0.667942 0.500000 0.763139
O O2 0.629210 0.267029 0.848002
O O3 0.779330 0.292589 0.807159
O O4 0.683581 0.225290 0.705847
O O5 0.500000 0.180644 0.921511
O O6 0.628663 0.000000 0.914260
O O7 0.629700 0.238311 0.000000
O O8 0.097473 0.196663 0.272242
O O9 0.080313 0.228102 0.128600
O O10 0.164835 0.000000 0.186714
O O11 0.185634 0.242168 0.615457
O O12 0.000000 0.246249 0.616288
O O13 0.091778 0.000000 0.622453
O O14 0.596376 0.500000 0.500000
O O15 0.500000 0.739539 0.500000
O O16 0.651240 0.744034 0.568621
O O17 0.000000 0.000000 0.922486
O O18 0.000000 0.749849 0.000000
O O19 0.718942 0.000000 0.616791
#
# Coordination Sequence:
#
# PCOD9387900 Si02
#       7
#     8   8   8   8   4   4   8
#     4  11  22  35  54  82 117 152 186 229 284 346
#     4   9  19  37  59  80 103 136 183 239 293 343
#     4   9  16  29  49  72 102 142 189 235 277 325
#     4   8  13  26  52  82 109 141 182 231 280 324
#     4  11  25  45  66  87 120 160 191 233 296 355
#     4   9  16  26  45  73 101 136 189 246 289 329
#     4  10  21  38  63  91 117 150 197 244 283 338
#
# _framework density 18.995567999999999
#
# number of rings (size 3 to 8) (size 9 to 14) (size 15 to 20)
#    0.000    2.500    0.833    3.750    0.000    2.667 
#    0.000    3.333    0.000    4.500    0.000    0.000 
#    0.000    0.000    0.000    0.000    0.000    0.000 
#
# Total GULP energy -267358.284157 kJ/mol
# GULP energy per Si atom -5569.964253 kJ/mol
# Density = 1.895233 g / cm^3
# Si number density = 18.995568 Si / 1000 Ang^3
#
#
#
# Elastic Constant Matrix: (Units=GPa)
#
#
# Indices 1 2 3 4 5 6 
#
# 1 111.7139 25.4003 67.8829 0.0000 0.0000 0.0000
# 2 25.4003 34.7149 14.5046 0.0000 0.0000 0.0000
# 3 67.8829 14.5046 95.8706 0.0000 0.0000 0.0000
# 4 0.0000 0.0000 0.0000 -94.2852 0.0000 0.0000
# 5 0.0000 0.0000 0.0000 0.0000 24.7312 0.0000
# 6 0.0000 0.0000 0.0000 0.0000 0.0000 -64.9160
#
#
#
# Elastic Compliance Matrix: (Units=1/GPa)
#
#
# Indices 1 2 3 4 5 6 
#
# 1 0.017665 -0.008219 -0.011265 0.000000 0.000000 0.000000
# 2 -0.008219 0.034574 0.000589 0.000000 0.000000 0.000000
# 3 -0.011265 0.000589 0.018318 0.000000 0.000000 0.000000
# 4 0.000000 0.000000 0.000000 -0.010606 0.000000 0.000000
# 5 0.000000 0.000000 0.000000 0.000000 0.040435 0.000000
# 6 0.000000 0.000000 0.000000 0.000000 0.000000 -0.015405
#
#
# Mechanical properties :
#
#
# Convention : Reuss Voigt Hill
#
# Bulk Modulus (GPa) = 30.51841 50.87499 40.69670
# Shear Modulus (GPa) = 37.39935 -17.92655 9.73640
#
# Velocity S-wave (km/s) = 4.44198 -3.07534 2.26644
# Velocity P-wave (km/s) = 6.51224 3.77232 5.32164
#
# Compressibility (1/GPa) = 0.03276711
#
# Stress axis : x y z
#
# Youngs Moduli (GPa) = 56.60896 28.92382 54.59176
#
# Poissons Ratio (x) = 0.23771 0.61496
# Poissons Ratio (y) = 0.46525 -0.03213
# Poissons Ratio (z) = 0.63768 -0.01702
#
# Static dielectric constant tensor:
#      x y z
#    x 1.718660 0.000000 0.000000 
#    y 0.000000 1.653020 0.000000 
#    z 0.000000 0.000000 1.678180 
# 
# From -- ./inp_files/28052.got.cif
#   From: 2010.05.17/outbox.cif.g08.bks.cpg/sg47_15_cif.got.tgz:28052.got - 2010.06.03 20:15:42.
