data_PCOD9387498
_publ_section_title
;
Structure prediction by ZEFSAII (Michael W. Deem and Ramdas Pophale) SiO2 
 PCOD9387498
Probable space group: P M M M
;
_chemical_formula_sum "Si O2"
_cell_formula_units_Z 40
_cell_length_a 8.935531
_cell_length_b 15.912343
_cell_length_c 14.870040
_cell_angle_alpha 90.000000
_cell_angle_beta 90.000000
_cell_angle_gamma 90.000000
_cell_volume 2114.300119
_symmetry_space_group_name_H-M "P M M M"
_symmetry_group_IT_number 47
_symmetry_cell_setting 'orthorhombic'
loop_
_space_group_symop_operation_xyz
x,y,z
-x,-y,z
x,-y,-z
-x,y,-z
-x,-y,-z
x,y,-z
-x,y,z
x,-y,z
loop_
_atom_site_type_symbol
_atom_site_label
_atom_site_fract_x
_atom_site_fract_y
_atom_site_fract_z
Si Si1 0.178818 0.600283 0.100223
Si Si2 0.682796 0.500000 0.396698
Si Si3 0.678643 0.152592 0.285459
Si Si4 0.680086 0.339667 0.718580
Si Si5 0.821127 0.000000 0.394555
Si Si6 0.176161 0.101597 0.898410
O O1 0.207373 0.500000 0.107941
O O2 0.258187 0.646137 0.181603
O O3 0.000000 0.612113 0.106392
O O4 0.226486 0.627013 0.000000
O O5 0.500000 0.500000 0.396340
O O6 0.731271 0.500000 0.500000
O O7 0.732071 0.583562 0.343987
O O8 0.500000 0.143430 0.291541
O O9 0.721929 0.246881 0.314479
O O10 0.729851 0.140103 0.182279
O O11 0.755950 0.081588 0.345054
O O12 0.500000 0.342983 0.721862
O O13 0.782314 0.000000 0.500000
O O14 0.000000 0.000000 0.385306
O O15 0.000000 0.122250 0.886951
O O16 0.188483 0.000000 0.892988
O O17 0.220358 0.126582 0.000000
#
# Coordination Sequence:
#
# PCOD9387498 Si02
#       6
#     8   4   8   8   4   8
#     4   9  18  33  54  81 114 154 196 235 279 330
#     4   9  18  36  60  81 106 144 187 229 276 335
#     4  11  23  37  58  90 121 149 186 237 293 344
#     4  10  21  36  57  86 116 148 188 233 284 338
#     4  11  25  45  66  85 110 149 193 236 286 347
#     4   9  18  34  57  83 113 153 196 233 274 331
#
# _framework density 18.918790999999999
#
# number of rings (size 3 to 8) (size 9 to 14) (size 15 to 20)
#    0.000    2.200    2.000    2.100    0.000    4.800 
#    0.000    8.000    0.000    1.200    0.000    0.000 
#    0.000    0.000    0.000    0.000    0.000    0.000 
#
# Total GULP energy -223335.755564 kJ/mol
# GULP energy per Si atom -5583.393889 kJ/mol
# Density = 1.887573 g / cm^3
# Si number density = 18.918791 Si / 1000 Ang^3
#
#
#
# Elastic Constant Matrix: (Units=GPa)
#
#
# Indices 1 2 3 4 5 6 
#
# 1 21.3146 42.5688 36.9770 0.0000 0.0000 0.0000
# 2 42.5688 146.9203 90.2895 0.0000 0.0000 0.0000
# 3 36.9770 90.2895 138.9225 0.0000 0.0000 0.0000
# 4 0.0000 0.0000 0.0000 -3.9161 0.0000 0.0000
# 5 0.0000 0.0000 0.0000 0.0000 12.7561 0.0000
# 6 0.0000 0.0000 0.0000 0.0000 0.0000 13.1862
#
#
#
# Elastic Compliance Matrix: (Units=1/GPa)
#
#
# Indices 1 2 3 4 5 6 
#
# 1 0.131953 -0.027720 -0.017106 0.000000 0.000000 0.000000
# 2 -0.027720 0.017156 -0.003772 0.000000 0.000000 0.000000
# 3 -0.017106 -0.003772 0.014203 0.000000 0.000000 0.000000
# 4 0.000000 0.000000 0.000000 -0.255359 0.000000 0.000000
# 5 0.000000 0.000000 0.000000 0.000000 0.078394 0.000000
# 6 0.000000 0.000000 0.000000 0.000000 0.000000 0.075837
#
#
# Mechanical properties :
#
#
# Convention : Reuss Voigt Hill
#
# Bulk Modulus (GPa) = 15.12486 71.86977 43.49732
# Shear Modulus (GPa) = 27.56058 13.56006 20.56032
#
# Velocity S-wave (km/s) = 3.82092 2.68012 3.30019
# Velocity P-wave (km/s) = 5.24194 6.90279 6.12888
#
# Compressibility (1/GPa) = 0.06611632
#
# Stress axis : x y z
#
# Youngs Moduli (GPa) = 7.57845 58.28868 70.40778
#
# Poissons Ratio (x) = 1.61574 1.20442
# Poissons Ratio (y) = 0.21007 0.26558
# Poissons Ratio (z) = 0.12964 0.21987
#
# Static dielectric constant tensor:
#      x y z
#    x 1.628710 0.000000 0.000000 
#    y 0.000000 1.677580 0.000000 
#    z 0.000000 0.000000 1.625760 
# 
# From -- ./inp_files/20662.got.cif
#   From: 2010.05.17/outbox.cif.g08.bks.cpg/sg47_11_cif.got.tgz:20662.got - 2010.06.03 20:15:42.
