data_PCOD9387321
_publ_section_title
;
Structure prediction by ZEFSAII (Michael W. Deem and Ramdas Pophale) SiO2 
 PCOD9387321
Probable space group: P M M M
;
_chemical_formula_sum "Si O2"
_cell_formula_units_Z 44
_cell_length_a 7.553197
_cell_length_b 9.521613
_cell_length_c 29.364997
_cell_angle_alpha 90.000000
_cell_angle_beta 90.000000
_cell_angle_gamma 90.000000
_cell_volume 2111.890024
_symmetry_space_group_name_H-M "P M M M"
_symmetry_group_IT_number 47
_symmetry_cell_setting 'orthorhombic'
loop_
_space_group_symop_operation_xyz
x,y,z
-x,-y,z
x,-y,-z
-x,y,-z
-x,-y,-z
x,y,-z
-x,y,z
x,-y,z
loop_
_atom_site_type_symbol
_atom_site_label
_atom_site_fract_x
_atom_site_fract_y
_atom_site_fract_z
Si Si1 0.284225 0.162739 0.636646
Si Si2 0.710874 0.660181 0.000000
Si Si3 0.789545 0.341236 0.826373
Si Si4 0.715967 0.336807 0.550126
Si Si5 0.788870 0.159317 0.910482
Si Si6 0.286548 0.838841 0.261883
O O1 0.500000 0.169550 0.636425
O O2 0.220626 0.252163 0.593909
O O3 0.227051 0.206365 0.687471
O O4 0.235894 0.000000 0.631022
O O5 0.762176 0.747914 0.955403
O O6 0.781996 0.500000 0.000000
O O7 0.500000 0.650450 0.000000
O O8 0.717638 0.500000 0.826834
O O9 0.716655 0.243226 0.866783
O O10 0.765413 0.264646 0.778266
O O11 0.000000 0.352090 0.834120
O O12 0.771609 0.284207 0.500000
O O13 0.500000 0.331831 0.550520
O O14 0.765821 0.500000 0.553663
O O15 0.000000 0.146730 0.904246
O O16 0.718857 0.000000 0.914787
O O17 0.500000 0.843010 0.262823
O O18 0.225943 0.000000 0.253651
#
# Coordination Sequence:
#
# PCOD9387321 Si02
#       6
#     8   4   8   8   8   8
#     4   8  14  24  37  55  81 113 150 191 234 282
#     4  11  24  39  56  82 114 143 170 203 244 288
#     4  10  21  36  54  77 103 131 166 207 248 291
#     4   8  13  20  30  47  74 109 148 188 230 278
#     4  10  21  38  60  82 103 133 172 208 246 293
#     4   9  18  32  49  70  97 129 164 202 246 296
#
# _framework density 20.834420000000001
#
# number of rings (size 3 to 8) (size 9 to 14) (size 15 to 20)
#    0.000    2.818    0.000    3.273    0.000    6.182 
#    0.000    3.636    0.000    0.000    0.000    0.000 
#    0.000    0.727    0.000    8.000    0.000   13.091 
#
# Total GULP energy -245536.122384 kJ/mol
# GULP energy per Si atom -5580.366418 kJ/mol
# Density = 2.078700 g / cm^3
# Si number density = 20.834420 Si / 1000 Ang^3
#
#
#
# Elastic Constant Matrix: (Units=GPa)
#
#
# Indices 1 2 3 4 5 6 
#
# 1 49.0836 7.4257 -2.1000 0.0000 0.0000 0.0000
# 2 7.4257 169.8652 137.5926 0.0000 0.0000 0.0000
# 3 -2.1000 137.5926 223.7005 0.0000 0.0000 0.0000
# 4 0.0000 0.0000 0.0000 79.8403 0.0000 0.0000
# 5 0.0000 0.0000 0.0000 0.0000 18.8604 0.0000
# 6 0.0000 0.0000 0.0000 0.0000 0.0000 11.0820
#
#
#
# Elastic Compliance Matrix: (Units=1/GPa)
#
#
# Indices 1 2 3 4 5 6 
#
# 1 0.020759 -0.002123 0.001501 0.000000 0.000000 0.000000
# 2 -0.002123 0.011949 -0.007370 0.000000 0.000000 0.000000
# 3 0.001501 -0.007370 0.009017 0.000000 0.000000 0.000000
# 4 0.000000 0.000000 0.000000 0.012525 0.000000 0.000000
# 5 0.000000 0.000000 0.000000 0.000000 0.053021 0.000000
# 6 0.000000 0.000000 0.000000 0.000000 0.000000 0.090236
#
#
# Mechanical properties :
#
#
# Convention : Reuss Voigt Hill
#
# Bulk Modulus (GPa) = 38.84804 80.94289 59.89547
# Shear Modulus (GPa) = 22.51519 41.93862 32.22691
#
# Velocity S-wave (km/s) = 3.29093 4.49146 3.93722
# Velocity P-wave (km/s) = 5.75559 8.11372 7.03418
#
# Compressibility (1/GPa) = 0.02574132
#
# Stress axis : x y z
#
# Youngs Moduli (GPa) = 48.17238 83.68660 110.89855
#
# Poissons Ratio (x) = 0.17767 -0.16643
# Poissons Ratio (y) = 0.10227 0.81729
# Poissons Ratio (z) = -0.07229 0.61674
#
# Static dielectric constant tensor:
#      x y z
#    x 1.809170 0.000000 0.000000 
#    y 0.000000 1.724700 0.000000 
#    z 0.000000 0.000000 1.728940 
# 
# From -- ./inp_files/13603.got.cif
#   From: 2010.05.17/outbox.cif.g08.bks.cpg/sg47_7_cif.got.tgz:13603.got - 2010.06.03 20:15:42.
