data_PCOD9387769
_publ_section_title
;
Structure prediction by ZEFSAII (Michael W. Deem and Ramdas Pophale) SiO2 
 PCOD9387769
Probable space group: P M M M
;
_chemical_formula_sum "Si O2"
_cell_formula_units_Z 64
_cell_length_a 14.932949
_cell_length_b 8.415745
_cell_length_c 24.730958
_cell_angle_alpha 90.000000
_cell_angle_beta 90.000000
_cell_angle_gamma 90.000000
_cell_volume 3107.986255
_symmetry_space_group_name_H-M "P M M M"
_symmetry_group_IT_number 47
_symmetry_cell_setting 'orthorhombic'
loop_
_space_group_symop_operation_xyz
x,y,z
-x,-y,z
x,-y,-z
-x,y,-z
-x,-y,-z
x,y,-z
-x,y,z
x,-y,z
loop_
_atom_site_type_symbol
_atom_site_label
_atom_site_fract_x
_atom_site_fract_y
_atom_site_fract_z
Si Si1 0.605437 0.189141 0.276402
Si Si2 0.896375 0.691699 0.779315
Si Si3 0.102201 0.691055 0.342905
Si Si4 0.905366 0.318272 0.935260
Si Si5 0.602518 0.311831 0.395078
Si Si6 0.283337 0.810109 0.828220
Si Si7 0.779357 0.188008 0.440996
Si Si8 0.706510 0.307442 0.939466
O O1 0.500000 0.212080 0.265060
O O2 0.626043 0.276581 0.332427
O O3 0.663565 0.242838 0.225503
O O4 0.620337 0.000000 0.284659
O O5 0.894351 0.500000 0.780300
O O6 0.874018 0.746182 0.717887
O O7 0.819224 0.753019 0.818835
O O8 0.000000 0.738398 0.790373
O O9 0.102699 0.500000 0.340961
O O10 0.166430 0.743593 0.390578
O O11 0.000000 0.743115 0.353600
O O12 0.901844 0.500000 0.913276
O O13 0.808063 0.242630 0.931209
O O14 0.000000 0.245625 0.916564
O O15 0.912265 0.333522 0.000000
O O16 0.500000 0.257848 0.403442
O O17 0.606681 0.500000 0.404503
O O18 0.675355 0.226954 0.431637
O O19 0.332836 0.746188 0.882293
O O20 0.284328 0.000000 0.830443
O O21 0.807851 0.250998 0.500000
O O22 0.792049 0.000000 0.440692
O O23 0.709552 0.500000 0.940457
O O24 0.674793 0.258904 0.000000
#
# Coordination Sequence:
#
# PCOD9387769 Si02
#       8
#     8   8   8   8   8   8   8   8
#     4   9  19  37  59  82 109 140 174 213 264 330
#     4   9  19  36  56  78 106 141 179 217 261 318
#     4   9  19  37  60  83 107 140 185 237 287 326
#     4   7  10  19  37  59  80 106 148 197 234 270
#     4  10  21  37  59  86 112 139 175 223 278 329
#     4  11  22  33  51  80 109 137 170 215 268 314
#     4  11  24  38  53  78 113 153 193 228 266 320
#     4   9  18  32  49  69  96 135 178 213 253 311
#
# _framework density 20.592113000000001
#
# number of rings (size 3 to 8) (size 9 to 14) (size 15 to 20)
#    0.000    2.625    0.000    3.750    0.000    7.000 
#    0.000    5.000    0.000    0.375    0.000    5.250 
#    0.000    0.000    0.000    0.000    0.000    0.000 
#
# Total GULP energy -356745.786305 kJ/mol
# GULP energy per Si atom -5574.152911 kJ/mol
# Density = 2.054524 g / cm^3
# Si number density = 20.592113 Si / 1000 Ang^3
#
#
#
# Elastic Constant Matrix: (Units=GPa)
#
#
# Indices 1 2 3 4 5 6 
#
# 1 27.4872 5.4435 31.5472 0.0000 0.0000 0.0000
# 2 5.4435 13.4467 13.9361 0.0000 0.0000 0.0000
# 3 31.5472 13.9361 130.8613 0.0000 0.0000 0.0000
# 4 0.0000 0.0000 0.0000 27.0505 0.0000 0.0000
# 5 0.0000 0.0000 0.0000 0.0000 4.9246 0.0000
# 6 0.0000 0.0000 0.0000 0.0000 0.0000 13.5680
#
#
#
# Elastic Compliance Matrix: (Units=1/GPa)
#
#
# Indices 1 2 3 4 5 6 
#
# 1 0.051232 -0.008925 -0.011400 0.000000 0.000000 0.000000
# 2 -0.008925 0.085149 -0.006916 0.000000 0.000000 0.000000
# 3 -0.011400 -0.006916 0.011127 0.000000 0.000000 0.000000
# 4 0.000000 0.000000 0.000000 0.036968 0.000000 0.000000
# 5 0.000000 0.000000 0.000000 0.000000 0.203063 0.000000
# 6 0.000000 0.000000 0.000000 0.000000 0.000000 0.073703
#
#
# Mechanical properties :
#
#
# Convention : Reuss Voigt Hill
#
# Bulk Modulus (GPa) = 10.74982 30.40540 20.57761
# Shear Modulus (GPa) = 9.14525 17.16651 13.15588
#
# Velocity S-wave (km/s) = 2.10969 2.89042 2.53035
# Velocity P-wave (km/s) = 3.34157 5.09284 4.30715
#
# Compressibility (1/GPa) = 0.09302484
#
# Stress axis : x y z
#
# Youngs Moduli (GPa) = 19.51899 11.74417 89.87510
#
# Poissons Ratio (x) = 0.10481 1.02460
# Poissons Ratio (y) = 0.17420 0.62162
# Poissons Ratio (z) = 0.22252 0.08123
#
# Static dielectric constant tensor:
#      x y z
#    x 1.785540 0.000000 0.000000 
#    y 0.000000 1.716170 0.000000 
#    z 0.000000 0.000000 1.792170 
# 
# From -- ./inp_files/32785.got.cif
#   From: 2010.05.17/outbox.cif.g08.bks.cpg/sg47_17_cif.got.tgz:32785.got - 2010.06.03 20:15:42.
