data_PCOD9387514
_publ_section_title
;
Structure prediction by ZEFSAII (Michael W. Deem and Ramdas Pophale) SiO2 
 PCOD9387514
Probable space group: P M M M
;
_chemical_formula_sum "Si O2"
_cell_formula_units_Z 44
_cell_length_a 17.629899
_cell_length_b 13.807828
_cell_length_c 9.900047
_cell_angle_alpha 90.000000
_cell_angle_beta 90.000000
_cell_angle_gamma 90.000000
_cell_volume 2409.974510
_symmetry_space_group_name_H-M "P M M M"
_symmetry_group_IT_number 47
_symmetry_cell_setting 'orthorhombic'
loop_
_space_group_symop_operation_xyz
x,y,z
-x,-y,z
x,-y,-z
-x,y,-z
-x,-y,-z
x,y,-z
-x,y,z
x,-y,z
loop_
_atom_site_type_symbol
_atom_site_label
_atom_site_fract_x
_atom_site_fract_y
_atom_site_fract_z
Si Si1 0.665988 0.382888 0.842475
Si Si2 0.308088 0.115519 0.254162
Si Si3 0.500000 0.610241 0.836587
Si Si4 0.091008 0.613764 0.155458
Si Si5 0.208360 0.281294 0.663527
Si Si6 0.584399 0.117126 0.500000
Si Si7 0.411879 0.882536 0.000000
O O1 0.664522 0.500000 0.841716
O O2 0.581544 0.346972 0.802625
O O3 0.726238 0.345874 0.734755
O O4 0.682174 0.355677 0.000000
O O5 0.231853 0.174626 0.283301
O O6 0.365308 0.142156 0.373345
O O7 0.357978 0.142396 0.124718
O O8 0.294718 0.000000 0.252460
O O9 0.500000 0.500000 0.783757
O O10 0.500000 0.604462 0.000000
O O11 0.110736 0.500000 0.175774
O O12 0.132352 0.678977 0.266169
O O13 0.000000 0.621711 0.163880
O O14 0.113420 0.638309 0.000000
O O15 0.207380 0.285876 0.500000
O O16 0.500000 0.157862 0.500000
O O17 0.577761 0.000000 0.500000
O O18 0.500000 0.845689 0.000000
O O19 0.419269 0.000000 0.000000
#
# Coordination Sequence:
#
# PCOD9387514 Si02
#       7
#     8   8   4   8   8   4   4
#     4   9  18  34  54  74 101 141 184 229 277 326
#     4  10  21  37  53  77 112 151 194 239 288 335
#     4   7  12  28  51  69  90 131 186 228 264 312
#     4   9  20  41  68  93 115 141 174 217 274 339
#     4  12  24  35  52  84 115 147 184 222 271 331
#     4   9  16  32  56  72  98 151 200 238 284 333
#     4   9  18  34  56  80 104 137 194 262 308 331
#
# _framework density 18.257453000000002
#
# number of rings (size 3 to 8) (size 9 to 14) (size 15 to 20)
#    0.000    2.455    0.909    3.273    2.545    5.455 
#    3.273    1.364    0.000    2.182    0.000    2.545 
#    0.000    0.000    0.000    0.000    0.000    0.000 
#
# Total GULP energy -245275.437848 kJ/mol
# GULP energy per Si atom -5574.441769 kJ/mol
# Density = 1.821590 g / cm^3
# Si number density = 18.257453 Si / 1000 Ang^3
#
#
#
# Elastic Constant Matrix: (Units=GPa)
#
#
# Indices 1 2 3 4 5 6 
#
# 1 78.0027 33.6018 51.0130 0.0000 0.0000 0.0000
# 2 33.6018 86.7820 42.8326 0.0000 0.0000 0.0000
# 3 51.0130 42.8326 150.5996 0.0000 0.0000 0.0000
# 4 0.0000 0.0000 0.0000 26.7284 0.0000 0.0000
# 5 0.0000 0.0000 0.0000 0.0000 40.4453 0.0000
# 6 0.0000 0.0000 0.0000 0.0000 0.0000 14.8134
#
#
#
# Elastic Compliance Matrix: (Units=1/GPa)
#
#
# Indices 1 2 3 4 5 6 
#
# 1 0.017909 -0.004584 -0.004763 0.000000 0.000000 0.000000
# 2 -0.004584 0.014578 -0.002594 0.000000 0.000000 0.000000
# 3 -0.004763 -0.002594 0.008991 0.000000 0.000000 0.000000
# 4 0.000000 0.000000 0.000000 0.037413 0.000000 0.000000
# 5 0.000000 0.000000 0.000000 0.000000 0.024725 0.000000
# 6 0.000000 0.000000 0.000000 0.000000 0.000000 0.067506
#
#
# Mechanical properties :
#
#
# Convention : Reuss Voigt Hill
#
# Bulk Modulus (GPa) = 56.82344 63.36434 60.09389
# Shear Modulus (GPa) = 24.89177 28.92654 26.90915
#
# Velocity S-wave (km/s) = 3.69640 3.98473 3.84327
# Velocity P-wave (km/s) = 7.02914 7.48012 7.25813
#
# Compressibility (1/GPa) = 0.01759837
#
# Stress axis : x y z
#
# Youngs Moduli (GPa) = 55.83635 68.59641 111.22125
#
# Poissons Ratio (x) = 0.31443 0.52973
# Poissons Ratio (y) = 0.25594 0.28846
# Poissons Ratio (z) = 0.26594 0.17791
#
# Static dielectric constant tensor:
#      x y z
#    x 1.643600 0.000000 0.000000 
#    y 0.000000 1.692380 0.000000 
#    z 0.000000 0.000000 1.639140 
# 
# From -- ./inp_files/9076.got.cif
#   From: 2010.05.17/outbox.cif.g08.bks.cpg/sg47_5_cif.got.tgz:9076.got - 2010.06.03 20:15:42.
