data_PCOD9387296
_publ_section_title
;
Structure prediction by ZEFSAII (Michael W. Deem and Ramdas Pophale) SiO2 
 PCOD9387296
Probable space group: P M M M
;
_chemical_formula_sum "Si O2"
_cell_formula_units_Z 37
_cell_length_a 9.208716
_cell_length_b 10.105442
_cell_length_c 23.134148
_cell_angle_alpha 90.000000
_cell_angle_beta 90.000000
_cell_angle_gamma 90.000000
_cell_volume 2152.820909
_symmetry_space_group_name_H-M "P M M M"
_symmetry_group_IT_number 47
_symmetry_cell_setting 'orthorhombic'
loop_
_space_group_symop_operation_xyz
x,y,z
-x,-y,z
x,-y,-z
-x,y,-z
-x,-y,-z
x,y,-z
-x,y,z
x,-y,z
loop_
_atom_site_type_symbol
_atom_site_label
_atom_site_fract_x
_atom_site_fract_y
_atom_site_fract_z
Si Si1 0.840005 0.774349 0.500000
Si Si2 0.326400 0.154501 0.067597
Si Si3 0.826871 0.344759 0.841839
Si Si4 0.000000 0.500000 0.500000
Si Si5 0.673599 0.345526 0.279550
Si Si6 0.673519 0.152528 0.383480
O O1 0.875639 0.618134 0.500000
O O2 0.753832 0.814116 0.557216
O O3 0.000000 0.838982 0.500000
O O4 0.500000 0.171349 0.075138
O O5 0.241601 0.251678 0.109616
O O6 0.292897 0.000000 0.079502
O O7 0.293371 0.179612 0.000000
O O8 0.795379 0.500000 0.853912
O O9 0.756151 0.313748 0.779671
O O10 0.000000 0.328604 0.839304
O O11 0.500000 0.330469 0.270517
O O12 0.701490 0.500000 0.293632
O O13 0.717980 0.251340 0.332163
O O14 0.500000 0.167504 0.391798
O O15 0.701570 0.000000 0.367408
#
# Coordination Sequence:
#
# PCOD9387296 Si02
#       6
#     4   8   8   1   8   8
#     4  10  22  38  56  78 112 144 180 218 267 319
#     4   9  19  36  57  80 106 139 180 225 271 319
#     4  10  21  36  53  79 112 146 179 219 269 319
#     4   8  24  40  52  84 112 144 184 224 266 320
#     4   9  19  35  55  77 105 143 185 225 264 313
#     4  10  21  37  58  84 112 141 177 223 274 323
#
# _framework density 17.186751999999998
#
# number of rings (size 3 to 8) (size 9 to 14) (size 15 to 20)
#    0.324    2.162    0.000    1.946    1.514    6.054 
#    0.000    5.946    0.000    0.000    0.000    0.000 
#    0.000    0.000    0.000    0.000    0.000    0.000 
#
# Total GULP energy -206106.003882 kJ/mol
# GULP energy per Si atom -5570.432537 kJ/mol
# Density = 1.714763 g / cm^3
# Si number density = 17.186752 Si / 1000 Ang^3
#
#
#
# Elastic Constant Matrix: (Units=GPa)
#
#
# Indices 1 2 3 4 5 6 
#
# 1 54.6755 65.6161 80.7723 0.0000 0.0000 0.0000
# 2 65.6161 115.8408 111.6016 0.0000 0.0000 0.0000
# 3 80.7723 111.6016 168.6141 0.0000 0.0000 0.0000
# 4 0.0000 0.0000 0.0000 23.5922 0.0000 0.0000
# 5 0.0000 0.0000 0.0000 0.0000 -23.0005 0.0000
# 6 0.0000 0.0000 0.0000 0.0000 0.0000 29.7383
#
#
#
# Elastic Compliance Matrix: (Units=1/GPa)
#
#
# Indices 1 2 3 4 5 6 
#
# 1 0.080238 -0.023235 -0.023058 0.000000 0.000000 0.000000
# 2 -0.023235 0.030552 -0.009091 0.000000 0.000000 0.000000
# 3 -0.023058 -0.009091 0.022994 0.000000 0.000000 0.000000
# 4 0.000000 0.000000 0.000000 0.042387 0.000000 0.000000
# 5 0.000000 0.000000 0.000000 0.000000 -0.043477 0.000000
# 6 0.000000 0.000000 0.000000 0.000000 0.000000 0.033627
#
#
# Mechanical properties :
#
#
# Convention : Reuss Voigt Hill
#
# Bulk Modulus (GPa) = 43.45023 95.01226 69.23125
# Shear Modulus (GPa) = 17.55850 11.47536 14.51693
#
# Velocity S-wave (km/s) = 3.19976 2.58677 2.90945
# Velocity P-wave (km/s) = 6.24399 8.02023 7.18719
#
# Compressibility (1/GPa) = 0.02301484
#
# Stress axis : x y z
#
# Youngs Moduli (GPa) = 12.46287 32.73058 43.48991
#
# Poissons Ratio (x) = 0.76050 1.00280
# Poissons Ratio (y) = 0.28958 0.39539
# Poissons Ratio (z) = 0.28737 0.29757
#
# Static dielectric constant tensor:
#      x y z
#    x 1.572130 0.000000 0.000000 
#    y 0.000000 1.575740 0.000000 
#    z 0.000000 0.000000 1.544570 
# 
# From -- ./inp_files/27296.got.cif
#   From: 2010.05.17/outbox.cif.g08.bks.cpg/sg47_14_cif.got.tgz:27296.got - 2010.06.03 20:15:42.
