data_PCOD9387038
_publ_section_title
;
Structure prediction by ZEFSAII (Michael W. Deem and Ramdas Pophale) SiO2 
 PCOD9387038
Probable space group: P M M M
;
_chemical_formula_sum "Si O2"
_cell_formula_units_Z 64
_cell_length_a 9.302444
_cell_length_b 26.533693
_cell_length_c 14.215524
_cell_angle_alpha 90.000000
_cell_angle_beta 90.000000
_cell_angle_gamma 90.000000
_cell_volume 3508.792105
_symmetry_space_group_name_H-M "P M M M"
_symmetry_group_IT_number 47
_symmetry_cell_setting 'orthorhombic'
loop_
_space_group_symop_operation_xyz
x,y,z
-x,-y,z
x,-y,-z
-x,y,-z
-x,-y,-z
x,y,-z
-x,y,z
x,-y,z
loop_
_atom_site_type_symbol
_atom_site_label
_atom_site_fract_x
_atom_site_fract_y
_atom_site_fract_z
Si Si1 0.660840 0.709398 0.114016
Si Si2 0.674498 0.242051 0.608096
Si Si3 0.170645 0.940814 0.389636
Si Si4 0.832289 0.808177 0.112295
Si Si5 0.328846 0.593206 0.110186
Si Si6 0.171147 0.556040 0.286049
Si Si7 0.672168 0.856317 0.272530
Si Si8 0.333010 0.353679 0.613784
O O1 0.500000 0.722117 0.149893
O O2 0.771885 0.752780 0.138607
O O3 0.695614 0.651888 0.138394
O O4 0.652878 0.709037 0.000000
O O5 0.723197 0.235935 0.500000
O O6 0.500000 0.243569 0.606213
O O7 0.715880 0.193886 0.668804
O O8 0.718262 0.297636 0.643622
O O9 0.201250 0.930980 0.500000
O O10 0.262811 0.904331 0.324944
O O11 0.000000 0.932301 0.375045
O O12 0.198910 0.000000 0.372159
O O13 0.739771 0.848124 0.170144
O O14 0.000000 0.812316 0.135296
O O15 0.815106 0.813876 0.000000
O O16 0.500000 0.583800 0.119454
O O17 0.237641 0.560613 0.181771
O O18 0.292266 0.586749 0.000000
O O19 0.203975 0.500000 0.323804
O O20 0.241869 0.600561 0.346084
O O21 0.000000 0.562037 0.282723
O O22 0.500000 0.858634 0.269084
O O23 0.329623 0.353600 0.500000
O O24 0.500000 0.359840 0.642951
#
# Coordination Sequence:
#
# PCOD9387038 Si02
#       8
#     8   8   8   8   8   8   8   8
#     4   8  15  30  51  74 100 131 170 217 268 319
#     4   8  16  32  53  80 112 140 168 210 267 326
#     4   9  19  37  59  83 116 157 196 234 276 325
#     4  10  21  35  50  73 110 153 193 231 272 323
#     4   9  19  36  58  81 104 134 175 222 268 320
#     4  11  25  40  53  75 107 140 175 220 274 332
#     4  11  21  32  54  86 117 150 188 233 279 325
#     4   9  19  38  62  82 102 134 178 225 270 322
#
# _framework density 18.239895000000001
#
# number of rings (size 3 to 8) (size 9 to 14) (size 15 to 20)
#    0.000    2.625    0.000    3.375    1.750    4.250 
#    0.000    5.000    0.000    1.875    0.000    2.625 
#    0.000    0.000    0.000    0.000    0.000    0.000 
#
# Total GULP energy -357200.658317 kJ/mol
# GULP energy per Si atom -5581.260286 kJ/mol
# Density = 1.819838 g / cm^3
# Si number density = 18.239895 Si / 1000 Ang^3
#
#
#
# Elastic Constant Matrix: (Units=GPa)
#
#
# Indices 1 2 3 4 5 6 
#
# 1 67.7048 59.9505 36.8121 0.0000 0.0000 0.0000
# 2 59.9505 92.5993 37.9015 0.0000 0.0000 0.0000
# 3 36.8121 37.9015 51.3064 0.0000 0.0000 0.0000
# 4 0.0000 0.0000 0.0000 30.9880 0.0000 0.0000
# 5 0.0000 0.0000 0.0000 0.0000 20.9450 0.0000
# 6 0.0000 0.0000 0.0000 0.0000 0.0000 35.1264
#
#
#
# Elastic Compliance Matrix: (Units=1/GPa)
#
#
# Indices 1 2 3 4 5 6 
#
# 1 0.040514 -0.020543 -0.013893 0.000000 0.000000 0.000000
# 2 -0.020543 0.025896 -0.004391 0.000000 0.000000 0.000000
# 3 -0.013893 -0.004391 0.032702 0.000000 0.000000 0.000000
# 4 0.000000 0.000000 0.000000 0.032271 0.000000 0.000000
# 5 0.000000 0.000000 0.000000 0.000000 0.047744 0.000000
# 6 0.000000 0.000000 0.000000 0.000000 0.000000 0.028469
#
#
# Mechanical properties :
#
#
# Convention : Reuss Voigt Hill
#
# Bulk Modulus (GPa) = 46.59984 53.43762 50.01873
# Shear Modulus (GPa) = 17.09969 22.54162 19.82066
#
# Velocity S-wave (km/s) = 3.06516 3.51927 3.30004
# Velocity P-wave (km/s) = 6.17501 6.77306 6.48094
#
# Compressibility (1/GPa) = 0.02145930
#
# Stress axis : x y z
#
# Youngs Moduli (GPa) = 24.68279 38.61538 30.57876
#
# Poissons Ratio (x) = 0.79328 0.42483
# Poissons Ratio (y) = 0.50706 0.13427
# Poissons Ratio (z) = 0.34291 0.16955
#
# Static dielectric constant tensor:
#      x y z
#    x 1.599860 0.000000 0.000000 
#    y 0.000000 1.621400 0.000000 
#    z 0.000000 0.000000 1.659330 
# 
# From -- ./inp_files/21885.got.cif
#   From: 2010.05.17/outbox.cif.g08.bks.cpg/sg47_11_cif.got.tgz:21885.got - 2010.06.03 20:15:42.
