data_PCOD9387642
_publ_section_title
;
Structure prediction by ZEFSAII (Michael W. Deem and Ramdas Pophale) SiO2 
 PCOD9387642
Probable space group: P M M M
;
_chemical_formula_sum "Si O2"
_cell_formula_units_Z 36
_cell_length_a 7.854203
_cell_length_b 9.748269
_cell_length_c 23.796543
_cell_angle_alpha 90.000000
_cell_angle_beta 90.000000
_cell_angle_gamma 90.000000
_cell_volume 1821.979545
_symmetry_space_group_name_H-M "P M M M"
_symmetry_group_IT_number 47
_symmetry_cell_setting 'orthorhombic'
loop_
_space_group_symop_operation_xyz
x,y,z
-x,-y,z
x,-y,-z
-x,y,-z
-x,-y,-z
x,y,-z
-x,y,z
x,-y,z
loop_
_atom_site_type_symbol
_atom_site_label
_atom_site_fract_x
_atom_site_fract_y
_atom_site_fract_z
Si Si1 0.202023 0.654524 0.000000
Si Si2 0.207684 0.842679 0.436383
Si Si3 0.297305 0.844509 0.895888
Si Si4 0.208891 0.342501 0.332600
Si Si5 0.796154 0.844227 0.769980
O O1 0.249865 0.740815 0.055064
O O2 0.275008 0.500000 0.000000
O O3 0.000000 0.643214 0.000000
O O4 0.261648 0.808205 0.500000
O O5 0.264052 0.738705 0.388377
O O6 0.000000 0.841462 0.436236
O O7 0.258628 0.000000 0.424163
O O8 0.500000 0.853131 0.894951
O O9 0.239555 0.800481 0.833813
O O10 0.229687 0.000000 0.906112
O O11 0.263994 0.500000 0.332140
O O12 0.266712 0.258966 0.277641
O O13 0.000000 0.342652 0.332517
O O14 0.000000 0.851170 0.763476
O O15 0.729074 0.000000 0.762977
#
# Coordination Sequence:
#
# PCOD9387642 Si02
#       5
#     4   8   8   8   8
#     4  11  24  39  56  80 108 137 168 201 240 290
#     4   8  13  21  33  50  76 113 154 193 236 288
#     4  10  21  37  57  80 104 131 166 207 249 293
#     4   9  16  24  36  57  85 117 154 197 241 284
#     4   9  17  30  48  68  92 125 162 198 239 288
#
# _framework density 19.758731000000001
#
# number of rings (size 3 to 8) (size 9 to 14) (size 15 to 20)
#    0.000    2.778    0.000    2.667    0.000    7.556 
#    0.000    4.444    0.000    0.000    0.000    0.000 
#    0.000    0.889    0.000   10.222    0.000   13.111 
#
# Total GULP energy -200865.429340 kJ/mol
# GULP energy per Si atom -5579.595259 kJ/mol
# Density = 1.971376 g / cm^3
# Si number density = 19.758731 Si / 1000 Ang^3
#
#
#
# Elastic Constant Matrix: (Units=GPa)
#
#
# Indices 1 2 3 4 5 6 
#
# 1 21.8266 6.8578 3.4652 0.0000 0.0000 0.0000
# 2 6.8578 162.5198 156.5765 0.0000 0.0000 0.0000
# 3 3.4652 156.5765 209.9951 0.0000 0.0000 0.0000
# 4 0.0000 0.0000 0.0000 -3.6447 0.0000 0.0000
# 5 0.0000 0.0000 0.0000 0.0000 -44.8590 0.0000
# 6 0.0000 0.0000 0.0000 0.0000 0.0000 5.4574
#
#
#
# Elastic Compliance Matrix: (Units=1/GPa)
#
#
# Indices 1 2 3 4 5 6 
#
# 1 0.046794 -0.004369 0.002486 0.000000 0.000000 0.000000
# 2 -0.004369 0.022255 -0.016521 0.000000 0.000000 0.000000
# 3 0.002486 -0.016521 0.017040 0.000000 0.000000 0.000000
# 4 0.000000 0.000000 0.000000 -0.274370 0.000000 0.000000
# 5 0.000000 0.000000 0.000000 0.000000 -0.022292 0.000000
# 6 0.000000 0.000000 0.000000 0.000000 0.000000 0.183236
#
#
# Mechanical properties :
#
#
# Convention : Reuss Voigt Hill
#
# Bulk Modulus (GPa) = 20.29297 80.90449 50.59873
# Shear Modulus (GPa) = 193.06248 6.55355 99.80802
#
# Velocity S-wave (km/s) = 9.89556 1.82318 7.11499
# Velocity P-wave (km/s) = 11.86825 6.74293 9.65201
#
# Compressibility (1/GPa) = 0.04927815
#
# Stress axis : x y z
#
# Youngs Moduli (GPa) = 21.37031 44.93422 58.68634
#
# Poissons Ratio (x) = 0.19633 -0.14588
# Poissons Ratio (y) = 0.09337 0.96959
# Poissons Ratio (z) = -0.05312 0.74238
#
# Static dielectric constant tensor:
#      x y z
#    x 1.705910 0.000000 0.000000 
#    y 0.000000 1.699710 0.000000 
#    z 0.000000 0.000000 3.144030 
# 
# From -- ./inp_files/1461.got.cif
#   From: 2010.05.17/outbox.cif.g08.bks.cpg/sg47_1_cif.got.tgz:1461.got - 2010.06.03 20:15:42.
