data_PCOD9387251
_publ_section_title
;
Structure prediction by ZEFSAII (Michael W. Deem and Ramdas Pophale) SiO2 
 PCOD9387251
Probable space group: P M M M
;
_chemical_formula_sum "Si O2"
_cell_formula_units_Z 64
_cell_length_a 20.820479
_cell_length_b 20.493037
_cell_length_c 8.607930
_cell_angle_alpha 90.000000
_cell_angle_beta 90.000000
_cell_angle_gamma 90.000000
_cell_volume 3672.787211
_symmetry_space_group_name_H-M "P M M M"
_symmetry_group_IT_number 47
_symmetry_cell_setting 'orthorhombic'
loop_
_space_group_symop_operation_xyz
x,y,z
-x,-y,z
x,-y,-z
-x,y,-z
-x,-y,-z
x,y,-z
-x,y,z
x,-y,z
loop_
_atom_site_type_symbol
_atom_site_label
_atom_site_fract_x
_atom_site_fract_y
_atom_site_fract_z
Si Si1 0.824757 0.425206 0.687387
Si Si2 0.426312 0.171964 0.312510
Si Si3 0.678101 0.425447 0.689496
Si Si4 0.179733 0.924783 0.314165
Si Si5 0.073726 0.173102 0.187489
Si Si6 0.680637 0.924770 0.185789
Si Si7 0.073314 0.677186 0.812665
Si Si8 0.426956 0.678206 0.689454
O O1 0.826029 0.423665 0.500000
O O2 0.838954 0.500000 0.735429
O O3 0.751359 0.410051 0.736395
O O4 0.875722 0.374029 0.750067
O O5 0.423277 0.169538 0.500000
O O6 0.500000 0.156676 0.267240
O O7 0.375129 0.122265 0.244682
O O8 0.412989 0.247017 0.265063
O O9 0.677284 0.424657 0.500000
O O10 0.663424 0.500000 0.736444
O O11 0.625885 0.373286 0.744228
O O12 0.181490 0.923460 0.500000
O O13 0.124436 0.877258 0.254848
O O14 0.249663 0.905066 0.250674
O O15 0.168297 0.000000 0.263651
O O16 0.087644 0.248036 0.234910
O O17 0.000000 0.158276 0.233330
O O18 0.076451 0.170720 0.000000
O O19 0.669164 0.000000 0.235796
O O20 0.682922 0.923281 0.000000
O O21 0.000000 0.662056 0.763283
O O22 0.074370 0.675740 0.000000
O O23 0.426479 0.677122 0.500000
O O24 0.500000 0.662084 0.737363
#
# Coordination Sequence:
#
# PCOD9387251 Si02
#       8
#     8   8   8   8   8   8   8   8
#     4   9  18  31  46  68  99 131 163 202 248 296
#     4   9  18  32  49  71 101 133 163 201 250 300
#     4   8  14  25  41  63  93 126 158 194 235 278
#     4  10  21  36  54  77 104 132 164 203 245 293
#     4   9  19  36  55  75 102 134 166 203 248 296
#     4  10  21  36  53  73  98 128 164 207 250 293
#     4   9  19  35  52  71  96 125 160 203 246 289
#     4   8  14  25  42  66  95 125 158 195 234 279
#
# _framework density 17.425457999999999
#
# number of rings (size 3 to 8) (size 9 to 14) (size 15 to 20)
#    0.000    3.000    0.000    3.000    0.000    5.000 
#    0.000    7.500    0.000    0.000    0.000    0.000 
#    0.000    0.000    0.000    5.500    0.000    5.500 
#
# Total GULP energy -356752.252929 kJ/mol
# GULP energy per Si atom -5574.253952 kJ/mol
# Density = 1.738580 g / cm^3
# Si number density = 17.425458 Si / 1000 Ang^3
#
#
#
# Elastic Constant Matrix: (Units=GPa)
#
#
# Indices 1 2 3 4 5 6 
#
# 1 176.0439 138.6463 34.1315 0.0000 0.0000 0.0000
# 2 138.6463 133.3491 29.3706 0.0000 0.0000 0.0000
# 3 34.1315 29.3706 13.3885 0.0000 0.0000 0.0000
# 4 0.0000 0.0000 0.0000 22.8253 0.0000 0.0000
# 5 0.0000 0.0000 0.0000 0.0000 -394.0662 0.0000
# 6 0.0000 0.0000 0.0000 0.0000 0.0000 43.4046
#
#
#
# Elastic Compliance Matrix: (Units=1/GPa)
#
#
# Indices 1 2 3 4 5 6 
#
# 1 0.033308 -0.030820 -0.017301 0.000000 0.000000 0.000000
# 2 -0.030820 0.043029 -0.015822 0.000000 0.000000 0.000000
# 3 -0.017301 -0.015822 0.153506 0.000000 0.000000 0.000000
# 4 0.000000 0.000000 0.000000 0.043811 0.000000 0.000000
# 5 0.000000 0.000000 0.000000 0.000000 -0.002538 0.000000
# 6 0.000000 0.000000 0.000000 0.000000 0.000000 0.023039
#
#
# Mechanical properties :
#
#
# Convention : Reuss Voigt Hill
#
# Bulk Modulus (GPa) = 9.80818 80.78647 45.29733
# Shear Modulus (GPa) = 10.96428 -57.52505 -23.28039
#
# Velocity S-wave (km/s) = 2.51113 -5.75185 -3.65910
# Velocity P-wave (km/s) = 3.74814 1.53303 2.86345
#
# Compressibility (1/GPa) = 0.10195569
#
# Stress axis : x y z
#
# Youngs Moduli (GPa) = 30.02285 23.24033 6.51442
#
# Poissons Ratio (x) = 0.71628 0.11271
# Poissons Ratio (y) = 0.92532 0.10307
# Poissons Ratio (z) = 0.51943 0.36770
#
# Static dielectric constant tensor:
#      x y z
#    x 1.571640 0.000000 0.000000 
#    y 0.000000 1.582460 0.000000 
#    z 0.000000 0.000000 1.596560 
# 
# From -- ./inp_files/11603.got.cif
#   From: 2010.05.17/outbox.cif.g08.bks.cpg/sg47_6_cif.got.tgz:11603.got - 2010.06.03 20:15:42.
