data_PCOD9387962
_publ_section_title
;
Structure prediction by ZEFSAII (Michael W. Deem and Ramdas Pophale) SiO2 
 PCOD9387962
Probable space group: P M M M
;
_chemical_formula_sum "Si O2"
_cell_formula_units_Z 58
_cell_length_a 7.611625
_cell_length_b 15.815758
_cell_length_c 23.896177
_cell_angle_alpha 90.000000
_cell_angle_beta 90.000000
_cell_angle_gamma 90.000000
_cell_volume 2876.708267
_symmetry_space_group_name_H-M "P M M M"
_symmetry_group_IT_number 47
_symmetry_cell_setting 'orthorhombic'
loop_
_space_group_symop_operation_xyz
x,y,z
-x,-y,z
x,-y,-z
-x,y,-z
-x,-y,-z
x,y,-z
-x,y,z
x,-y,z
loop_
_atom_site_type_symbol
_atom_site_label
_atom_site_fract_x
_atom_site_fract_y
_atom_site_fract_z
Si Si1 0.295252 0.765303 0.234101
Si Si2 0.787031 0.683744 0.062861
Si Si3 0.706870 0.142437 0.122292
Si Si4 0.703799 0.250496 0.643090
Si Si5 0.790278 0.594924 0.437075
Si Si6 0.787548 0.904910 0.435862
Si Si7 0.787259 0.593575 0.825974
Si Si8 0.000000 0.000000 0.099666
O O1 0.500000 0.788682 0.238113
O O2 0.229541 0.825651 0.184159
O O3 0.213568 0.767047 0.295948
O O4 0.280186 0.669487 0.212157
O O5 0.717917 0.774363 0.083452
O O6 0.736452 0.616497 0.110378
O O7 0.000000 0.688269 0.063259
O O8 0.730180 0.663952 0.000000
O O9 0.500000 0.116233 0.124737
O O10 0.843773 0.073305 0.101345
O O11 0.500000 0.265049 0.653823
O O12 0.759934 0.332798 0.608355
O O13 0.726266 0.168408 0.604630
O O14 0.724803 0.617416 0.500000
O O15 0.724667 0.500000 0.423074
O O16 0.000000 0.588972 0.441277
O O17 0.731151 0.889711 0.500000
O O18 0.000000 0.903798 0.435726
O O19 0.731576 0.000000 0.419799
O O20 0.727920 0.500000 0.810031
O O21 0.000000 0.595483 0.822933
#
# Coordination Sequence:
#
# PCOD9387962 Si02
#       8
#     8   8   8   8   8   8   8   2
#     4   9  21  39  54  73 109 150 183 224 281 335
#     4   9  17  33  57  84 119 157 191 232 280 336
#     4  10  21  40  61  84 117 153 190 238 290 341
#     4  11  22  35  53  80 110 141 180 226 280 338
#     4   9  19  36  55  76 105 141 182 228 276 329
#     4   9  19  37  57  78 106 139 177 221 271 331
#     4   9  18  32  54  84 113 146 189 232 275 325
#     4  12  22  40  65  92 110 144 199 240 290 350
#
# _framework density 20.161933000000001
#
# number of rings (size 3 to 8) (size 9 to 14) (size 15 to 20)
#    0.000    2.483    0.690    1.862    0.966    5.241 
#    1.241    6.207    0.000    0.828    0.000    3.862 
#    0.000    0.000    0.000    0.000    0.000    0.000 
#
# Total GULP energy -322913.021288 kJ/mol
# GULP energy per Si atom -5567.465884 kJ/mol
# Density = 2.011604 g / cm^3
# Si number density = 20.161933 Si / 1000 Ang^3
#
#
#
# Elastic Constant Matrix: (Units=GPa)
#
#
# Indices 1 2 3 4 5 6 
#
# 1 57.8167 -12.2059 -14.9075 0.0000 0.0000 0.0000
# 2 -12.2059 27.7704 -11.7878 0.0000 0.0000 0.0000
# 3 -14.9075 -11.7878 67.9816 0.0000 0.0000 0.0000
# 4 0.0000 0.0000 0.0000 -5.6351 0.0000 0.0000
# 5 0.0000 0.0000 0.0000 0.0000 3.7945 0.0000
# 6 0.0000 0.0000 0.0000 0.0000 0.0000 50.6733
#
#
#
# Elastic Compliance Matrix: (Units=1/GPa)
#
#
# Indices 1 2 3 4 5 6 
#
# 1 0.021718 0.012486 0.006928 0.000000 0.000000 0.000000
# 2 0.012486 0.046049 0.010723 0.000000 0.000000 0.000000
# 3 0.006928 0.010723 0.018088 0.000000 0.000000 0.000000
# 4 0.000000 0.000000 0.000000 -0.177458 0.000000 0.000000
# 5 0.000000 0.000000 0.000000 0.000000 0.263537 0.000000
# 6 0.000000 0.000000 0.000000 0.000000 0.000000 0.019734
#
#
# Mechanical properties :
#
#
# Convention : Reuss Voigt Hill
#
# Bulk Modulus (GPa) = 6.84322 8.41849 7.63086
# Shear Modulus (GPa) = 27.76161 22.59787 25.17974
#
# Velocity S-wave (km/s) = 3.71473 3.35149 3.53778
# Velocity P-wave (km/s) = 4.66910 4.37735 4.52557
#
# Compressibility (1/GPa) = 0.14612995
#
# Stress axis : x y z
#
# Youngs Moduli (GPa) = 46.04409 21.71585 55.28428
#
# Poissons Ratio (x) = -0.27115 -0.38299
# Poissons Ratio (y) = -0.57493 -0.59281
# Poissons Ratio (z) = -0.31898 -0.23286
#
# Static dielectric constant tensor:
#      x y z
#    x 1.754720 0.000000 0.000000 
#    y 0.000000 1.681870 0.000000 
#    z 0.000000 0.000000 1.753470 
# 
# From -- ./inp_files/7770.got.cif
#   From: 2010.05.17/outbox.cif.g08.bks.cpg/sg47_4_cif.got.tgz:7770.got - 2010.06.03 20:15:42.
