data_PCOD9387530
_publ_section_title
;
Structure prediction by ZEFSAII (Michael W. Deem and Ramdas Pophale) SiO2 
 PCOD9387530
Probable space group: P M M M
;
_chemical_formula_sum "Si O2"
_cell_formula_units_Z 56
_cell_length_a 8.992090
_cell_length_b 14.641561
_cell_length_c 24.246147
_cell_angle_alpha 90.000000
_cell_angle_beta 90.000000
_cell_angle_gamma 90.000000
_cell_volume 3192.204901
_symmetry_space_group_name_H-M "P M M M"
_symmetry_group_IT_number 47
_symmetry_cell_setting 'orthorhombic'
loop_
_space_group_symop_operation_xyz
x,y,z
-x,-y,z
x,-y,-z
-x,y,-z
-x,-y,-z
x,y,-z
-x,y,z
x,-y,z
loop_
_atom_site_type_symbol
_atom_site_label
_atom_site_fract_x
_atom_site_fract_y
_atom_site_fract_z
Si Si1 0.324284 0.391285 0.063282
Si Si2 0.321017 0.894492 0.646700
Si Si3 0.179032 0.755612 0.436501
Si Si4 0.675290 0.108827 0.063290
Si Si5 0.321883 0.744657 0.737277
Si Si6 0.820872 0.393825 0.346581
Si Si7 0.175944 0.750360 0.142997
O O1 0.500000 0.370876 0.070401
O O2 0.305783 0.500000 0.069196
O O3 0.230604 0.336007 0.107301
O O4 0.284944 0.367064 0.000000
O O5 0.500000 0.892446 0.641163
O O6 0.249612 0.841244 0.595334
O O7 0.283222 0.834241 0.700679
O O8 0.274042 0.000000 0.650654
O O9 0.226548 0.749728 0.500000
O O10 0.217249 0.665098 0.401131
O O11 0.000000 0.764405 0.435246
O O12 0.500000 0.130233 0.070879
O O13 0.770626 0.163288 0.107145
O O14 0.692117 0.000000 0.068968
O O15 0.714027 0.133097 0.000000
O O16 0.500000 0.738044 0.740238
O O17 0.256495 0.658450 0.703919
O O18 0.253787 0.750475 0.797726
O O19 0.778834 0.500000 0.350620
O O20 0.000000 0.389182 0.339670
O O21 0.000000 0.749613 0.149675
#
# Coordination Sequence:
#
# PCOD9387530 Si02
#       7
#     8   8   8   8   8   8   8
#     4   9  19  37  59  80 103 135 176 218 259 309
#     4   9  19  36  56  76  99 132 174 217 260 302
#     4   9  18  32  51  79 112 141 171 206 246 301
#     4   9  19  37  59  80 104 138 178 216 256 308
#     4  10  21  37  55  74  99 134 177 221 261 307
#     4   9  18  34  55  77 104 138 173 213 261 306
#     4  12  24  35  52  80 111 140 171 213 267 320
#
# _framework density 17.542733999999999
#
# number of rings (size 3 to 8) (size 9 to 14) (size 15 to 20)
#    0.000    2.429    0.000    3.000    0.000    6.000 
#    0.000    5.714    0.000    0.000    0.000    4.000 
#    0.000    0.000    0.000    0.000    0.000    0.000 
#
# Total GULP energy -312537.637076 kJ/mol
# GULP energy per Si atom -5581.029234 kJ/mol
# Density = 1.750281 g / cm^3
# Si number density = 17.542734 Si / 1000 Ang^3
#
#
#
# Elastic Constant Matrix: (Units=GPa)
#
#
# Indices 1 2 3 4 5 6 
#
# 1 48.5764 48.2247 63.4533 0.0000 0.0000 0.0000
# 2 48.2247 142.9833 80.8491 0.0000 0.0000 0.0000
# 3 63.4533 80.8491 164.9493 0.0000 0.0000 0.0000
# 4 0.0000 0.0000 0.0000 12.6754 0.0000 0.0000
# 5 0.0000 0.0000 0.0000 0.0000 29.3501 0.0000
# 6 0.0000 0.0000 0.0000 0.0000 0.0000 43.2827
#
#
#
# Elastic Compliance Matrix: (Units=1/GPa)
#
#
# Indices 1 2 3 4 5 6 
#
# 1 0.046882 -0.007767 -0.014228 0.000000 0.000000 0.000000
# 2 -0.007767 0.010962 -0.002385 0.000000 0.000000 0.000000
# 3 -0.014228 -0.002385 0.012705 0.000000 0.000000 0.000000
# 4 0.000000 0.000000 0.000000 0.078893 0.000000 0.000000
# 5 0.000000 0.000000 0.000000 0.000000 0.034071 0.000000
# 6 0.000000 0.000000 0.000000 0.000000 0.000000 0.023104
#
#
# Mechanical properties :
#
#
# Convention : Reuss Voigt Hill
#
# Bulk Modulus (GPa) = 45.89490 82.39591 64.14541
# Shear Modulus (GPa) = 19.03744 27.99377 23.51561
#
# Velocity S-wave (km/s) = 3.29782 3.99901 3.66522
# Velocity P-wave (km/s) = 6.38117 8.27003 7.38623
#
# Compressibility (1/GPa) = 0.02178891
#
# Stress axis : x y z
#
# Youngs Moduli (GPa) = 21.33005 91.22285 78.71089
#
# Poissons Ratio (x) = 0.70854 1.11988
# Poissons Ratio (y) = 0.16567 0.18774
# Poissons Ratio (z) = 0.30348 0.21758
#
# Static dielectric constant tensor:
#      x y z
#    x 1.584290 0.000000 0.000000 
#    y 0.000000 1.593930 0.000000 
#    z 0.000000 0.000000 1.570630 
# 
# From -- ./inp_files/7226.got.cif
#   From: 2010.05.17/outbox.cif.g08.bks.cpg/sg47_4_cif.got.tgz:7226.got - 2010.06.03 20:15:42.
