data_PCOD9387174
_publ_section_title
;
Structure prediction by ZEFSAII (Michael W. Deem and Ramdas Pophale) SiO2 
 PCOD9387174
Probable space group: P M M M
;
_chemical_formula_sum "Si O2"
_cell_formula_units_Z 48
_cell_length_a 10.105426
_cell_length_b 29.984035
_cell_length_c 9.147517
_cell_angle_alpha 90.000000
_cell_angle_beta 90.000000
_cell_angle_gamma 90.000000
_cell_volume 2771.710886
_symmetry_space_group_name_H-M "P M M M"
_symmetry_group_IT_number 47
_symmetry_cell_setting 'orthorhombic'
loop_
_space_group_symop_operation_xyz
x,y,z
-x,-y,z
x,-y,-z
-x,y,-z
-x,-y,-z
x,y,-z
-x,y,z
x,-y,z
loop_
_atom_site_type_symbol
_atom_site_label
_atom_site_fract_x
_atom_site_fract_y
_atom_site_fract_z
Si Si1 0.746701 0.596704 0.174528
Si Si2 0.160969 0.049544 0.670630
Si Si3 0.155380 0.769994 0.324974
Si Si4 0.500000 0.446880 0.668062
Si Si5 0.160670 0.138051 0.166596
Si Si6 0.000000 0.446842 0.324336
Si Si7 0.343985 0.301985 0.825365
O O1 0.625601 0.570177 0.244049
O O2 0.874820 0.577726 0.254414
O O3 0.716327 0.648881 0.200690
O O4 0.755713 0.590067 0.000000
O O5 0.196452 0.054878 0.500000
O O6 0.208075 0.091622 0.763557
O O7 0.000000 0.049736 0.676236
O O8 0.203439 0.000000 0.719905
O O9 0.163553 0.770015 0.500000
O O10 0.192488 0.818638 0.262226
O O11 0.253916 0.733795 0.257248
O O12 0.000000 0.761388 0.285206
O O13 0.500000 0.500000 0.663195
O O14 0.500000 0.430326 0.500000
O O15 0.000000 0.135786 0.164444
O O16 0.206106 0.143375 0.000000
O O17 0.000000 0.500000 0.290649
O O18 0.000000 0.442572 0.500000
O O19 0.500000 0.301149 0.783545
O O20 0.337767 0.293711 0.000000
#
# Coordination Sequence:
#
# PCOD9387174 Si02
#       7
#     8   8   8   4   8   4   8
#     4  11  23  41  63  88 115 149 189 228 272 326
#     4   8  13  21  34  54  85 127 170 213 263 317
#     4  10  21  35  53  79 107 139 180 223 269 324
#     4  11  23  39  61  89 119 151 185 225 274 323
#     4   9  16  26  41  63  93 131 173 218 267 317
#     4  11  25  43  61  87 123 155 185 227 276 323
#     4  10  22  41  60  81 110 141 176 222 274 323
#
# _framework density 17.317824000000002
#
# number of rings (size 3 to 8) (size 9 to 14) (size 15 to 20)
#    0.000    2.167    0.833    3.000    1.167    8.333 
#    0.000    1.667    0.000    0.000    0.000    0.000 
#    0.000    0.667    0.000    7.000    0.000    9.667 
#
# Total GULP energy -267732.931849 kJ/mol
# GULP energy per Si atom -5577.769414 kJ/mol
# Density = 1.727841 g / cm^3
# Si number density = 17.317824 Si / 1000 Ang^3
#
#
#
# Elastic Constant Matrix: (Units=GPa)
#
#
# Indices 1 2 3 4 5 6 
#
# 1 110.4066 73.1538 58.0055 0.0000 0.0000 0.0000
# 2 73.1538 151.7684 90.4595 0.0000 0.0000 0.0000
# 3 58.0055 90.4595 92.8732 0.0000 0.0000 0.0000
# 4 0.0000 0.0000 0.0000 38.3126 0.0000 0.0000
# 5 0.0000 0.0000 0.0000 0.0000 15.3032 0.0000
# 6 0.0000 0.0000 0.0000 0.0000 0.0000 15.0658
#
#
#
# Elastic Compliance Matrix: (Units=1/GPa)
#
#
# Indices 1 2 3 4 5 6 
#
# 1 0.014322 -0.003747 -0.005295 0.000000 0.000000 0.000000
# 2 -0.003747 0.016689 -0.013915 0.000000 0.000000 0.000000
# 3 -0.005295 -0.013915 0.027628 0.000000 0.000000 0.000000
# 4 0.000000 0.000000 0.000000 0.026101 0.000000 0.000000
# 5 0.000000 0.000000 0.000000 0.000000 0.065346 0.000000
# 6 0.000000 0.000000 0.000000 0.000000 0.000000 0.066375
#
#
# Mechanical properties :
#
#
# Convention : Reuss Voigt Hill
#
# Bulk Modulus (GPa) = 78.58998 88.69842 83.64420
# Shear Modulus (GPa) = 18.75345 22.63163 20.69254
#
# Velocity S-wave (km/s) = 3.29431 3.61895 3.46044
# Velocity P-wave (km/s) = 7.74271 8.29407 8.02312
#
# Compressibility (1/GPa) = 0.01272427
#
# Stress axis : x y z
#
# Youngs Moduli (GPa) = 69.82050 59.92007 36.19544
#
# Poissons Ratio (x) = 0.22454 0.19167
# Poissons Ratio (y) = 0.26164 0.50365
# Poissons Ratio (z) = 0.36973 0.83377
#
# Static dielectric constant tensor:
#      x y z
#    x 1.539890 0.000000 0.000000 
#    y 0.000000 1.583800 0.000000 
#    z 0.000000 0.000000 1.580070 
# 
# From -- ./inp_files/2730.got.cif
#   From: 2010.05.17/outbox.cif.g08.bks.cpg/sg47_2_cif.got.tgz:2730.got - 2010.06.03 20:15:42.
