data_PCOD9387003
_publ_section_title
;
Structure prediction by ZEFSAII (Michael W. Deem and Ramdas Pophale) SiO2 
 PCOD9387003
Probable space group: P M M M
;
_chemical_formula_sum "Si O2"
_cell_formula_units_Z 48
_cell_length_a 7.527240
_cell_length_b 32.217622
_cell_length_c 9.814253
_cell_angle_alpha 90.000000
_cell_angle_beta 90.000000
_cell_angle_gamma 90.000000
_cell_volume 2380.052267
_symmetry_space_group_name_H-M "P M M M"
_symmetry_group_IT_number 47
_symmetry_cell_setting 'orthorhombic'
loop_
_space_group_symop_operation_xyz
x,y,z
-x,-y,z
x,-y,-z
-x,y,-z
-x,-y,-z
x,y,-z
-x,y,z
x,-y,z
loop_
_atom_site_type_symbol
_atom_site_label
_atom_site_fract_x
_atom_site_fract_y
_atom_site_fract_z
Si Si1 0.286500 0.286921 0.658207
Si Si2 0.789622 0.804045 0.344647
Si Si3 0.285858 0.952747 0.346607
Si Si4 0.210804 0.123243 0.153460
Si Si5 0.716754 0.546424 0.842495
Si Si6 0.282988 0.377483 0.341269
O O1 0.227292 0.286262 0.500000
O O2 0.500000 0.287360 0.659391
O O3 0.232128 0.242363 0.715005
O O4 0.227330 0.331834 0.712484
O O5 0.716161 0.805382 0.500000
O O6 0.714984 0.839576 0.246951
O O7 0.000000 0.811226 0.356742
O O8 0.225854 0.940894 0.500000
O O9 0.500000 0.953435 0.349220
O O10 0.232441 0.919635 0.234446
O O11 0.225903 0.000000 0.319605
O O12 0.000000 0.130629 0.141942
O O13 0.283445 0.121773 0.000000
O O14 0.500000 0.546783 0.839764
O O15 0.771815 0.500000 0.799276
O O16 0.778796 0.583806 0.747630
O O17 0.768937 0.552332 0.000000
O O18 0.231427 0.381252 0.500000
O O19 0.500000 0.377934 0.339259
#
# Coordination Sequence:
#
# PCOD9387003 Si02
#       6
#     8   8   8   8   8   8
#     4   8  14  25  41  61  84 109 138 175 219 262
#     4   9  17  30  48  67  87 115 152 189 223 263
#     4   9  19  36  56  77 100 126 158 195 232 271
#     4  10  21  35  50  71 100 130 158 191 232 275
#     4   8  13  20  29  43  67  99 130 159 196 243
#     4   8  13  21  33  49  70  97 129 164 202 247
#
# _framework density 20.167625000000001
#
# number of rings (size 3 to 8) (size 9 to 14) (size 15 to 20)
#    0.000    3.333    0.000    2.500    0.000    3.000 
#    0.000    6.667    0.000    1.000    0.000    0.000 
#    0.000    0.667    0.000    8.333    0.000    9.667 
#
# Total GULP energy -267462.562165 kJ/mol
# GULP energy per Si atom -5572.136712 kJ/mol
# Density = 2.012172 g / cm^3
# Si number density = 20.167625 Si / 1000 Ang^3
#
#
#
# Elastic Constant Matrix: (Units=GPa)
#
#
# Indices 1 2 3 4 5 6 
#
# 1 47.8228 0.8266 5.5609 0.0000 0.0000 0.0000
# 2 0.8266 191.4279 114.2087 0.0000 0.0000 0.0000
# 3 5.5609 114.2087 111.5615 0.0000 0.0000 0.0000
# 4 0.0000 0.0000 0.0000 -12.9149 0.0000 0.0000
# 5 0.0000 0.0000 0.0000 0.0000 2.3864 0.0000
# 6 0.0000 0.0000 0.0000 0.0000 0.0000 19.7710
#
#
#
# Elastic Compliance Matrix: (Units=1/GPa)
#
#
# Indices 1 2 3 4 5 6 
#
# 1 0.021174 0.001383 -0.002471 0.000000 0.000000 0.000000
# 2 0.001383 0.013511 -0.013901 0.000000 0.000000 0.000000
# 3 -0.002471 -0.013901 0.023318 0.000000 0.000000 0.000000
# 4 0.000000 0.000000 0.000000 -0.077430 0.000000 0.000000
# 5 0.000000 0.000000 0.000000 0.000000 0.419033 0.000000
# 6 0.000000 0.000000 0.000000 0.000000 0.000000 0.050579
#
#
# Mechanical properties :
#
#
# Convention : Reuss Voigt Hill
#
# Bulk Modulus (GPa) = 35.68290 65.77828 50.73059
# Shear Modulus (GPa) = 10.21440 17.19623 13.70531
#
# Velocity S-wave (km/s) = 2.25294 2.92321 2.60968
# Velocity P-wave (km/s) = 4.94967 6.63929 5.85574
#
# Compressibility (1/GPa) = 0.02802463
#
# Stress axis : x y z
#
# Youngs Moduli (GPa) = 47.22778 74.01104 42.88580
#
# Poissons Ratio (x) = -0.10235 0.10598
# Poissons Ratio (y) = -0.06531 0.59616
# Poissons Ratio (z) = 0.11671 1.02883
#
# Static dielectric constant tensor:
#      x y z
#    x 1.780970 0.000000 0.000000 
#    y 0.000000 1.729410 0.000000 
#    z 0.000000 0.000000 1.691720 
# 
# From -- ./inp_files/2506.got.cif
#   From: 2010.05.17/outbox.cif.g08.bks.cpg/sg47_2_cif.got.tgz:2506.got - 2010.06.03 20:15:42.
