data_PCOD9387450
_publ_section_title
;
Structure prediction by ZEFSAII (Michael W. Deem and Ramdas Pophale) SiO2 
 PCOD9387450
Probable space group: P M M M
;
_chemical_formula_sum "Si O2"
_cell_formula_units_Z 56
_cell_length_a 24.010787
_cell_length_b 8.829437
_cell_length_c 14.236936
_cell_angle_alpha 90.000000
_cell_angle_beta 90.000000
_cell_angle_gamma 90.000000
_cell_volume 3018.255078
_symmetry_space_group_name_H-M "P M M M"
_symmetry_group_IT_number 47
_symmetry_cell_setting 'orthorhombic'
loop_
_space_group_symop_operation_xyz
x,y,z
-x,-y,z
x,-y,-z
-x,y,-z
-x,-y,-z
x,y,-z
-x,y,z
x,-y,z
loop_
_atom_site_type_symbol
_atom_site_label
_atom_site_fract_x
_atom_site_fract_y
_atom_site_fract_z
Si Si1 0.174209 0.816786 0.607766
Si Si2 0.061932 0.816290 0.289243
Si Si3 0.667172 0.820093 0.892626
Si Si4 0.432424 0.175523 0.395980
Si Si5 0.871437 0.182785 0.107389
Si Si6 0.565481 0.678991 0.798890
Si Si7 0.232476 0.680091 0.783865
O O1 0.183810 0.774094 0.500000
O O2 0.112110 0.769828 0.642075
O O3 0.216786 0.746594 0.682085
O O4 0.177008 0.000000 0.614902
O O5 0.081268 0.776665 0.183449
O O6 0.000000 0.759730 0.310996
O O7 0.060157 0.000000 0.293747
O O8 0.604673 0.769641 0.869048
O O9 0.708711 0.737267 0.821955
O O10 0.672994 0.000000 0.881915
O O11 0.681292 0.779824 0.000000
O O12 0.413116 0.224123 0.500000
O O13 0.500000 0.177371 0.398665
O O14 0.416635 0.275498 0.307072
O O15 0.415712 0.000000 0.381449
O O16 0.814734 0.256138 0.145343
O O17 0.864893 0.000000 0.110973
O O18 0.883384 0.225359 0.000000
O O19 0.500000 0.716743 0.809221
O O20 0.571965 0.500000 0.812678
O O21 0.230381 0.500000 0.781739
#
# Coordination Sequence:
#
# PCOD9387450 Si02
#       7
#     8   8   8   8   8   8   8
#     4   9  18  34  56  80 108 143 180 220 268 320
#     4   8  14  25  44  75 111 142 178 225 271 314
#     4  11  24  41  61  82 105 137 177 220 265 316
#     4   8  14  27  49  75 103 138 178 215 250 292
#     4   9  17  30  49  73 103 140 181 224 270 320
#     4  10  21  36  55  82 116 149 179 216 262 312
#     4  11  22  36  56  80 106 134 170 220 273 325
#
# _framework density 18.553767000000001
#
# number of rings (size 3 to 8) (size 9 to 14) (size 15 to 20)
#    0.000    2.571    0.000    3.857    0.000    5.429 
#    0.000    6.429    0.000   11.143    0.000    8.000 
#    0.000    0.000    0.000    0.000    0.000    0.000 
#
# Total GULP energy -312328.540668 kJ/mol
# GULP energy per Si atom -5577.295369 kJ/mol
# Density = 1.851154 g / cm^3
# Si number density = 18.553767 Si / 1000 Ang^3
#
#
#
# Elastic Constant Matrix: (Units=GPa)
#
#
# Indices 1 2 3 4 5 6 
#
# 1 65.3205 23.4430 39.9156 0.0000 0.0000 0.0000
# 2 23.4430 31.2585 37.2792 0.0000 0.0000 0.0000
# 3 39.9156 37.2792 122.0617 0.0000 0.0000 0.0000
# 4 0.0000 0.0000 0.0000 -2.1280 0.0000 0.0000
# 5 0.0000 0.0000 0.0000 0.0000 11.1062 0.0000
# 6 0.0000 0.0000 0.0000 0.0000 0.0000 -2.5651
#
#
#
# Elastic Compliance Matrix: (Units=1/GPa)
#
#
# Indices 1 2 3 4 5 6 
#
# 1 0.021788 -0.012337 -0.003357 0.000000 0.000000 0.000000
# 2 -0.012337 0.057305 -0.013467 0.000000 0.000000 0.000000
# 3 -0.003357 -0.013467 0.013404 0.000000 0.000000 0.000000
# 4 0.000000 0.000000 0.000000 -0.469915 0.000000 0.000000
# 5 0.000000 0.000000 0.000000 0.000000 0.090039 0.000000
# 6 0.000000 0.000000 0.000000 0.000000 0.000000 -0.389843
#
#
# Mechanical properties :
#
#
# Convention : Reuss Voigt Hill
#
# Bulk Modulus (GPa) = 29.26207 46.65735 37.95971
# Shear Modulus (GPa) = -8.23034 9.14948 0.45957
#
# Velocity S-wave (km/s) = -2.10845 2.22307 0.49823
# Velocity P-wave (km/s) = 3.14298 5.63836 4.56450
#
# Compressibility (1/GPa) = 0.03417393
#
# Stress axis : x y z
#
# Youngs Moduli (GPa) = 45.89656 17.45062 74.60729
#
# Poissons Ratio (x) = 0.21528 0.25047
# Poissons Ratio (y) = 0.56621 1.00476
# Poissons Ratio (z) = 0.15408 0.23501
#
# Static dielectric constant tensor:
#      x y z
#    x 1.647790 0.000000 0.000000 
#    y 0.000000 1.619160 0.000000 
#    z 0.000000 0.000000 1.646610 
# 
# From -- ./inp_files/25143.got.cif
#   From: 2010.05.17/outbox.cif.g08.bks.cpg/sg47_13_cif.got.tgz:25143.got - 2010.06.03 20:15:42.
