data_PCOD9387123
_publ_section_title
;
Structure prediction by ZEFSAII (Michael W. Deem and Ramdas Pophale) SiO2 
 PCOD9387123
Probable space group: P M M M
;
_chemical_formula_sum "Si O2"
_cell_formula_units_Z 52
_cell_length_a 10.668913
_cell_length_b 9.442019
_cell_length_c 31.172437
_cell_angle_alpha 90.000000
_cell_angle_beta 90.000000
_cell_angle_gamma 90.000000
_cell_volume 3140.189084
_symmetry_space_group_name_H-M "P M M M"
_symmetry_group_IT_number 47
_symmetry_cell_setting 'orthorhombic'
loop_
_space_group_symop_operation_xyz
x,y,z
-x,-y,z
x,-y,-z
-x,y,-z
-x,-y,-z
x,y,-z
-x,y,z
x,-y,z
loop_
_atom_site_type_symbol
_atom_site_label
_atom_site_fract_x
_atom_site_fract_y
_atom_site_fract_z
Si Si1 0.000000 0.160559 0.948257
Si Si2 0.360730 0.167586 0.124450
Si Si3 0.847609 0.164656 0.547819
Si Si4 0.152048 0.162152 0.286324
Si Si5 0.143293 0.827679 0.810051
Si Si6 0.748793 0.668148 0.050734
Si Si7 0.153131 0.337167 0.369011
O O1 0.122867 0.249743 0.937544
O O2 0.000000 0.000000 0.930224
O O3 0.000000 0.148578 0.000000
O O4 0.500000 0.182677 0.143514
O O5 0.249403 0.213704 0.156210
O O6 0.351365 0.259102 0.081396
O O7 0.342711 0.000000 0.114666
O O8 0.807595 0.210855 0.500000
O O9 0.804958 0.258087 0.587745
O O10 0.000000 0.168843 0.547930
O O11 0.812757 0.000000 0.553638
O O12 0.179546 0.216241 0.238375
O O13 0.194787 0.256584 0.326022
O O14 0.000000 0.157403 0.288010
O O15 0.196436 0.000000 0.290850
O O16 0.000000 0.781484 0.819953
O O17 0.140469 0.000000 0.809256
O O18 0.759923 0.500000 0.057709
O O19 0.724914 0.690066 0.000000
O O20 0.191682 0.500000 0.368821
O O21 0.000000 0.333920 0.369007
#
# Coordination Sequence:
#
# PCOD9387123 Si02
#       7
#     4   8   8   8   8   8   8
#     4   9  17  31  53  79 103 127 157 195 237 273
#     4  10  21  35  52  76 102 127 160 202 243 283
#     4   8  13  20  28  38  56  88 131 172 207 250
#     4   8  13  23  39  55  71  96 133 173 214 265
#     4   8  15  29  49  70  90 116 152 192 235 282
#     4  10  21  36  53  74 102 133 164 196 232 280
#     4   9  15  20  28  45  69  94 122 165 219 264
#
# _framework density 16.559512999999999
#
# number of rings (size 3 to 8) (size 9 to 14) (size 15 to 20)
#    0.000    3.154    0.000    2.538    1.077    4.615 
#    0.000    3.846    0.000    0.923    0.000    0.000 
#    0.000    0.000    0.000    0.000    0.000    0.769 
#
# Total GULP energy -289470.108335 kJ/mol
# GULP energy per Si atom -5566.732853 kJ/mol
# Density = 1.652182 g / cm^3
# Si number density = 16.559513 Si / 1000 Ang^3
#
#
#
# Elastic Constant Matrix: (Units=GPa)
#
#
# Indices 1 2 3 4 5 6 
#
# 1 50.0569 26.5022 44.6297 0.0000 0.0000 0.0000
# 2 26.5022 74.6131 66.0254 0.0000 0.0000 0.0000
# 3 44.6297 66.0254 124.6048 0.0000 0.0000 0.0000
# 4 0.0000 0.0000 0.0000 6.4121 0.0000 0.0000
# 5 0.0000 0.0000 0.0000 0.0000 1.8806 0.0000
# 6 0.0000 0.0000 0.0000 0.0000 0.0000 6.6684
#
#
#
# Elastic Compliance Matrix: (Units=1/GPa)
#
#
# Indices 1 2 3 4 5 6 
#
# 1 0.029528 -0.002127 -0.009449 0.000000 0.000000 0.000000
# 2 -0.002127 0.025388 -0.012691 0.000000 0.000000 0.000000
# 3 -0.009449 -0.012691 0.018134 0.000000 0.000000 0.000000
# 4 0.000000 0.000000 0.000000 0.155954 0.000000 0.000000
# 5 0.000000 0.000000 0.000000 0.000000 0.531748 0.000000
# 6 0.000000 0.000000 0.000000 0.000000 0.000000 0.149961
#
#
# Mechanical properties :
#
#
# Convention : Reuss Voigt Hill
#
# Bulk Modulus (GPa) = 40.78796 58.17662 49.48229
# Shear Modulus (GPa) = 5.16839 10.46672 7.81755
#
# Velocity S-wave (km/s) = 1.76858 2.51682 2.17512
# Velocity P-wave (km/s) = 5.37169 6.60711 6.02117
#
# Compressibility (1/GPa) = 0.02451704
#
# Stress axis : x y z
#
# Youngs Moduli (GPa) = 33.86639 39.38855 55.14366
#
# Poissons Ratio (x) = 0.08376 0.52106
# Poissons Ratio (y) = 0.07202 0.69983
# Poissons Ratio (z) = 0.32001 0.49988
#
# Static dielectric constant tensor:
#      x y z
#    x 1.545180 0.000000 0.000000 
#    y 0.000000 1.547330 0.000000 
#    z 0.000000 0.000000 1.581760 
# 
# From -- ./inp_files/34539.got.cif
#   From: 2010.05.17/outbox.cif.g08.bks.cpg/sg47_18_cif.got.tgz:34539.got - 2010.06.03 20:15:42.
