data_PCOD9387813
_publ_section_title
;
Structure prediction by ZEFSAII (Michael W. Deem and Ramdas Pophale) SiO2 
 PCOD9387813
Probable space group: P M M M
;
_chemical_formula_sum "Si O2"
_cell_formula_units_Z 30
_cell_length_a 7.746588
_cell_length_b 26.246974
_cell_length_c 7.391602
_cell_angle_alpha 90.000000
_cell_angle_beta 90.000000
_cell_angle_gamma 90.000000
_cell_volume 1502.893735
_symmetry_space_group_name_H-M "P M M M"
_symmetry_group_IT_number 47
_symmetry_cell_setting 'orthorhombic'
loop_
_space_group_symop_operation_xyz
x,y,z
-x,-y,z
x,-y,-z
-x,y,-z
-x,-y,-z
x,y,-z
-x,y,z
x,-y,z
loop_
_atom_site_type_symbol
_atom_site_label
_atom_site_fract_x
_atom_site_fract_y
_atom_site_fract_z
Si Si1 0.000000 0.633840 0.718844
Si Si2 0.697023 0.442476 0.719848
Si Si3 0.294241 0.889604 0.295857
Si Si4 0.794972 0.000000 0.706541
Si Si5 0.289391 0.192390 0.000000
Si Si6 0.000000 0.723035 0.000000
O O1 0.833576 0.600082 0.772209
O O2 0.000000 0.640336 0.500000
O O3 0.000000 0.686425 0.825398
O O4 0.697617 0.443163 0.500000
O O5 0.500000 0.432374 0.777015
O O6 0.744674 0.500000 0.777385
O O7 0.221078 0.887613 0.500000
O O8 0.500000 0.885857 0.307924
O O9 0.257514 0.945577 0.215216
O O10 0.240400 0.842931 0.171394
O O11 0.722891 0.000000 0.500000
O O12 0.000000 0.000000 0.699356
O O13 0.171576 0.242143 0.000000
O O14 0.500000 0.200815 0.000000
#
# Coordination Sequence:
#
# PCOD9387813 Si02
#       6
#     4   8   8   4   4   2
#     4  10  21  38  58  82 113 150 185 226 280 326
#     4   8  14  28  55  89 120 150 182 216 264 331
#     4   9  18  35  58  81 109 143 175 215 272 335
#     4   9  17  28  49  86 119 140 165 207 265 334
#     4  10  24  43  59  78 104 141 191 239 280 322
#     4  12  28  42  57  81 106 142 196 248 282 316
#
# _framework density 19.961490000000001
#
# number of rings (size 3 to 8) (size 9 to 14) (size 15 to 20)
#    0.000    2.800    0.000    1.600    1.867    5.867 
#    0.000    4.000    0.000    1.600    0.000    0.000 
#    0.000    0.000    0.000    0.000    0.000    0.000 
#
# Total GULP energy -167362.240121 kJ/mol
# GULP energy per Si atom -5578.741337 kJ/mol
# Density = 1.991606 g / cm^3
# Si number density = 19.961490 Si / 1000 Ang^3
#
#
#
# Elastic Constant Matrix: (Units=GPa)
#
#
# Indices 1 2 3 4 5 6 
#
# 1 81.7985 83.5122 31.7373 0.0000 0.0000 0.0000
# 2 83.5122 188.5009 62.3230 0.0000 0.0000 0.0000
# 3 31.7373 62.3230 96.3295 0.0000 0.0000 0.0000
# 4 0.0000 0.0000 0.0000 77.3132 0.0000 0.0000
# 5 0.0000 0.0000 0.0000 0.0000 5.1897 0.0000
# 6 0.0000 0.0000 0.0000 0.0000 0.0000 6.5551
#
#
#
# Elastic Compliance Matrix: (Units=1/GPa)
#
#
# Indices 1 2 3 4 5 6 
#
# 1 0.022434 -0.009535 -0.001222 0.000000 0.000000 0.000000
# 2 -0.009535 0.010801 -0.003847 0.000000 0.000000 0.000000
# 3 -0.001222 -0.003847 0.013272 0.000000 0.000000 0.000000
# 4 0.000000 0.000000 0.000000 0.012934 0.000000 0.000000
# 5 0.000000 0.000000 0.000000 0.000000 0.192690 0.000000
# 6 0.000000 0.000000 0.000000 0.000000 0.000000 0.152553
#
#
# Mechanical properties :
#
#
# Convention : Reuss Voigt Hill
#
# Bulk Modulus (GPa) = 57.80423 80.19710 69.00067
# Shear Modulus (GPa) = 11.37242 30.41535 20.89389
#
# Velocity S-wave (km/s) = 2.38947 3.90770 3.23880
# Velocity P-wave (km/s) = 6.05256 7.78609 6.97340
#
# Compressibility (1/GPa) = 0.01729977
#
# Stress axis : x y z
#
# Youngs Moduli (GPa) = 44.57489 92.58323 75.34401
#
# Poissons Ratio (x) = 0.88277 0.09210
# Poissons Ratio (y) = 0.42502 0.28982
# Poissons Ratio (z) = 0.05449 0.35613
#
# Static dielectric constant tensor:
#      x y z
#    x 1.692040 0.000000 0.000000 
#    y 0.000000 1.666010 0.000000 
#    z 0.000000 0.000000 1.786220 
# 
# From -- ./inp_files/1035.got.cif
#   From: 2010.05.17/outbox.cif.g08.bks.cpg/sg47_1_cif.got.tgz:1035.got - 2010.06.03 20:15:42.
