data_PCOD9387338
_publ_section_title
;
Structure prediction by ZEFSAII (Michael W. Deem and Ramdas Pophale) SiO2 
 PCOD9387338
Probable space group: P M M M
;
_chemical_formula_sum "Si O2"
_cell_formula_units_Z 64
_cell_length_a 18.642340
_cell_length_b 7.590769
_cell_length_c 20.720828
_cell_angle_alpha 90.000000
_cell_angle_beta 90.000000
_cell_angle_gamma 90.000000
_cell_volume 2932.198083
_symmetry_space_group_name_H-M "P M M M"
_symmetry_group_IT_number 47
_symmetry_cell_setting 'orthorhombic'
loop_
_space_group_symop_operation_xyz
x,y,z
-x,-y,z
x,-y,-z
-x,y,-z
-x,-y,-z
x,y,-z
-x,y,z
x,-y,z
loop_
_atom_site_type_symbol
_atom_site_label
_atom_site_fract_x
_atom_site_fract_y
_atom_site_fract_z
Si Si1 0.238156 0.713274 0.429610
Si Si2 0.422581 0.794102 0.784551
Si Si3 0.613941 0.298898 0.073144
Si Si4 0.121170 0.212687 0.733861
Si Si5 0.281694 0.792058 0.712900
Si Si6 0.774153 0.801833 0.923778
Si Si7 0.077568 0.703951 0.406016
Si Si8 0.076323 0.214237 0.124825
O O1 0.267806 0.764360 0.500000
O O2 0.235686 0.500000 0.426884
O O3 0.279217 0.770513 0.364877
O O4 0.155035 0.778321 0.426685
O O5 0.500000 0.715888 0.765977
O O6 0.417088 0.786103 0.862453
O O7 0.351707 0.718520 0.749365
O O8 0.424194 0.000000 0.766658
O O9 0.589174 0.500000 0.071546
O O10 0.699459 0.294368 0.085855
O O11 0.601831 0.224649 0.000000
O O12 0.204017 0.276246 0.736524
O O13 0.083753 0.289062 0.671231
O O14 0.080645 0.251081 0.799420
O O15 0.122091 0.000000 0.726124
O O16 0.280376 0.000000 0.727143
O O17 0.848321 0.718843 0.901559
O O18 0.766623 0.000000 0.894661
O O19 0.781237 0.820279 0.000000
O O20 0.077014 0.500000 0.426591
O O21 0.000000 0.781455 0.424807
O O22 0.000000 0.276061 0.097938
O O23 0.078078 0.000000 0.115683
#
# Coordination Sequence:
#
# PCOD9387338 Si02
#       8
#     8   8   8   8   8   8   8   8
#     4   9  18  32  50  73 100 132 172 213 251 295
#     4  10  21  37  58  83 108 133 163 201 246 298
#     4  10  21  36  54  77 106 139 172 205 243 293
#     4   9  16  27  44  63  86 120 158 194 237 291
#     4   9  18  33  53  76 101 129 163 204 248 296
#     4   9  17  30  48  67  89 122 165 210 252 296
#     4   9  17  28  42  63  93 126 160 202 248 288
#     4   9  16  25  40  64  91 119 157 208 260 303
#
# _framework density 21.826630000000002
#
# number of rings (size 3 to 8) (size 9 to 14) (size 15 to 20)
#    0.000    2.750    0.000    1.500    0.000    5.250 
#    0.000    6.875    0.000    1.500    0.000    7.875 
#    0.000    0.000    0.000    0.000    0.000    0.000 
#
# Total GULP energy -356856.061762 kJ/mol
# GULP energy per Si atom -5575.875965 kJ/mol
# Density = 2.177695 g / cm^3
# Si number density = 21.826630 Si / 1000 Ang^3
#
#
#
# Elastic Constant Matrix: (Units=GPa)
#
#
# Indices 1 2 3 4 5 6 
#
# 1 144.5902 5.4133 62.6619 0.0000 0.0000 0.0000
# 2 5.4133 46.5790 0.4890 0.0000 0.0000 0.0000
# 3 62.6619 0.4890 62.4172 0.0000 0.0000 0.0000
# 4 0.0000 0.0000 0.0000 8.2256 0.0000 0.0000
# 5 0.0000 0.0000 0.0000 0.0000 -33.3759 0.0000
# 6 0.0000 0.0000 0.0000 0.0000 0.0000 -63.5429
#
#
#
# Elastic Compliance Matrix: (Units=1/GPa)
#
#
# Indices 1 2 3 4 5 6 
#
# 1 0.012321 -0.001302 -0.012359 0.000000 0.000000 0.000000
# 2 -0.001302 0.021608 0.001138 0.000000 0.000000 0.000000
# 3 -0.012359 0.001138 0.028420 0.000000 0.000000 0.000000
# 4 0.000000 0.000000 0.000000 0.121572 0.000000 0.000000
# 5 0.000000 0.000000 0.000000 0.000000 -0.029962 0.000000
# 6 0.000000 0.000000 0.000000 0.000000 0.000000 -0.015737
#
#
# Mechanical properties :
#
#
# Convention : Reuss Voigt Hill
#
# Bulk Modulus (GPa) = 26.80781 43.41276 35.11029
# Shear Modulus (GPa) = 28.45714 -5.40384 11.52665
#
# Velocity S-wave (km/s) = 3.61471 -1.57517 2.30054
# Velocity P-wave (km/s) = 5.45255 4.07735 4.81430
#
# Compressibility (1/GPa) = 0.03730256
#
# Stress axis : x y z
#
# Youngs Moduli (GPa) = 81.16246 46.27856 35.18673
#
# Poissons Ratio (x) = 0.06026 0.43487
# Poissons Ratio (y) = 0.10569 -0.04004
# Poissons Ratio (z) = 1.00309 -0.05266
#
# Static dielectric constant tensor:
#      x y z
#    x 1.851530 0.000000 0.000000 
#    y 0.000000 1.861170 0.000000 
#    z 0.000000 0.000000 1.792010 
# 
# From -- ./inp_files/10015.got.cif
#   From: 2010.05.17/outbox.cif.g08.bks.cpg/sg47_6_cif.got.tgz:10015.got - 2010.06.03 20:15:42.
