data_PCOD9387950
_publ_section_title
;
Structure prediction by ZEFSAII (Michael W. Deem and Ramdas Pophale) SiO2 
 PCOD9387950
Probable space group: P M M M
;
_chemical_formula_sum "Si O2"
_cell_formula_units_Z 48
_cell_length_a 19.729117
_cell_length_b 14.294949
_cell_length_c 8.061697
_cell_angle_alpha 90.000000
_cell_angle_beta 90.000000
_cell_angle_gamma 90.000000
_cell_volume 2273.613973
_symmetry_space_group_name_H-M "P M M M"
_symmetry_group_IT_number 47
_symmetry_cell_setting 'orthorhombic'
loop_
_space_group_symop_operation_xyz
x,y,z
-x,-y,z
x,-y,-z
-x,y,-z
-x,-y,-z
x,y,-z
-x,y,z
x,-y,z
loop_
_atom_site_type_symbol
_atom_site_label
_atom_site_fract_x
_atom_site_fract_y
_atom_site_fract_z
Si Si1 0.121430 0.000000 0.808335
Si Si2 0.643773 0.817931 0.306999
Si Si3 0.303621 0.367476 0.809490
Si Si4 0.500000 0.108230 0.702462
Si Si5 0.922587 0.209003 0.300391
Si Si6 0.717106 0.000000 0.195761
Si Si7 0.153601 0.603220 0.304359
Si Si8 0.422527 0.500000 0.201999
O O1 0.097648 0.101487 0.740666
O O2 0.202428 0.000000 0.791924
O O3 0.101368 0.000000 0.000000
O O4 0.641536 0.789467 0.500000
O O5 0.682759 0.741347 0.203534
O O6 0.567814 0.838780 0.246391
O O7 0.685181 0.912097 0.286361
O O8 0.234964 0.391961 0.715703
O O9 0.373841 0.414121 0.748483
O O10 0.293658 0.395457 0.000000
O O11 0.500000 0.105350 0.500000
O O12 0.500000 0.000000 0.758354
O O13 0.920141 0.213570 0.500000
O O14 0.877967 0.298448 0.238031
O O15 0.000000 0.223319 0.244886
O O16 0.698756 0.000000 0.000000
O O17 0.137528 0.601516 0.500000
O O18 0.131992 0.500000 0.236212
O O19 0.500000 0.500000 0.264142
O O20 0.427149 0.500000 0.000000
#
# Coordination Sequence:
#
# PCOD9387950 Si02
#       8
#     4   8   8   4   8   4   8   4
#     4  11  24  40  60  87 122 160 199 244 296 350
#     4  11  22  37  58  82 113 152 193 242 298 355
#     4  11  22  38  60  86 116 153 198 247 296 352
#     4   9  18  36  56  77 110 151 193 241 301 361
#     4  10  22  40  63  92 124 159 199 243 295 357
#     4  11  23  39  57  85 117 150 193 240 283 342
#     4  10  21  39  64  92 123 159 200 248 304 367
#     4   9  20  38  57  79 112 151 192 242 299 349
#
# _framework density 21.111761999999999
#
# number of rings (size 3 to 8) (size 9 to 14) (size 15 to 20)
#    0.000    1.667    1.667    2.750    1.167    6.333 
#    0.000    3.333    0.000    2.000    0.000    2.333 
#    0.000    0.000    0.000    0.000    0.000    0.000 
#
# Total GULP energy -267761.754955 kJ/mol
# GULP energy per Si atom -5578.369895 kJ/mol
# Density = 2.106371 g / cm^3
# Si number density = 21.111762 Si / 1000 Ang^3
#
#
#
# Elastic Constant Matrix: (Units=GPa)
#
#
# Indices 1 2 3 4 5 6 
#
# 1 95.3045 57.7217 15.0845 0.0000 0.0000 0.0000
# 2 57.7217 182.1939 10.8654 0.0000 0.0000 0.0000
# 3 15.0845 10.8654 28.4455 0.0000 0.0000 0.0000
# 4 0.0000 0.0000 0.0000 31.0481 0.0000 0.0000
# 5 0.0000 0.0000 0.0000 0.0000 0.5624 0.0000
# 6 0.0000 0.0000 0.0000 0.0000 0.0000 38.4662
#
#
#
# Elastic Compliance Matrix: (Units=1/GPa)
#
#
# Indices 1 2 3 4 5 6 
#
# 1 0.013862 -0.004045 -0.005806 0.000000 0.000000 0.000000
# 2 -0.004045 0.006797 -0.000451 0.000000 0.000000 0.000000
# 3 -0.005806 -0.000451 0.038406 0.000000 0.000000 0.000000
# 4 0.000000 0.000000 0.000000 0.032208 0.000000 0.000000
# 5 0.000000 0.000000 0.000000 0.000000 1.778189 0.000000
# 6 0.000000 0.000000 0.000000 0.000000 0.000000 0.025997
#
#
# Mechanical properties :
#
#
# Convention : Reuss Voigt Hill
#
# Bulk Modulus (GPa) = 26.00054 52.58747 39.29400
# Shear Modulus (GPa) = 2.59217 28.83348 15.71283
#
# Velocity S-wave (km/s) = 1.10928 3.69962 2.73109
# Velocity P-wave (km/s) = 3.73939 6.57364 5.34770
#
# Compressibility (1/GPa) = 0.03846073
#
# Stress axis : x y z
#
# Youngs Moduli (GPa) = 72.14143 147.11962 26.03766
#
# Poissons Ratio (x) = 0.59515 0.15116
# Poissons Ratio (y) = 0.29184 0.01175
# Poissons Ratio (z) = 0.41882 0.06637
#
# Static dielectric constant tensor:
#      x y z
#    x 1.755770 0.000000 0.000000 
#    y 0.000000 1.797170 0.000000 
#    z 0.000000 0.000000 1.767910 
# 
# From -- ./inp_files/9292.got.cif
#   From: 2010.05.17/outbox.cif.g08.bks.cpg/sg47_5_cif.got.tgz:9292.got - 2010.06.03 20:15:42.
