data_PCOD9387310
_publ_section_title
;
Structure prediction by ZEFSAII (Michael W. Deem and Ramdas Pophale) SiO2 
 PCOD9387310
Probable space group: P M M M
;
_chemical_formula_sum "Si O2"
_cell_formula_units_Z 48
_cell_length_a 9.521163
_cell_length_b 7.833532
_cell_length_c 32.089666
_cell_angle_alpha 90.000000
_cell_angle_beta 90.000000
_cell_angle_gamma 90.000000
_cell_volume 2393.386400
_symmetry_space_group_name_H-M "P M M M"
_symmetry_group_IT_number 47
_symmetry_cell_setting 'orthorhombic'
loop_
_space_group_symop_operation_xyz
x,y,z
-x,-y,z
x,-y,-z
-x,y,-z
-x,-y,-z
x,y,-z
-x,y,z
x,-y,z
loop_
_atom_site_type_symbol
_atom_site_label
_atom_site_fract_x
_atom_site_fract_y
_atom_site_fract_z
Si Si1 0.839394 0.295520 0.590112
Si Si2 0.162061 0.291306 0.000000
Si Si3 0.159859 0.796576 0.253273
Si Si4 0.338320 0.709065 0.919034
Si Si5 0.160626 0.705310 0.840046
Si Si6 0.341848 0.295863 0.332600
Si Si7 0.839028 0.796697 0.500000
O O1 0.847933 0.500000 0.594268
O O2 0.747085 0.227844 0.628191
O O3 0.777650 0.259065 0.544269
O O4 0.000000 0.227906 0.591892
O O5 0.246328 0.237848 0.041200
O O6 0.160200 0.500000 0.000000
O O7 0.000000 0.235248 0.000000
O O8 0.207262 0.749192 0.206689
O O9 0.259761 0.734100 0.289779
O O10 0.000000 0.728955 0.258563
O O11 0.154191 0.000000 0.255824
O O12 0.500000 0.764265 0.921852
O O13 0.339264 0.500000 0.918985
O O14 0.262608 0.766298 0.876570
O O15 0.155608 0.500000 0.843121
O O16 0.000000 0.768990 0.845350
O O17 0.500000 0.226963 0.331203
O O18 0.351037 0.500000 0.338152
O O19 0.000000 0.727311 0.500000
O O20 0.844222 0.000000 0.500000
#
# Coordination Sequence:
#
# PCOD9387310 Si02
#       7
#     8   4   8   8   8   8   4
#     4   9  17  31  52  75  99 129 165 204 247 295
#     4   9  15  23  37  59  90 125 158 195 242 292
#     4  10  21  36  54  76 101 131 168 209 253 301
#     4   9  16  25  39  62  92 124 158 197 241 289
#     4   9  17  30  48  69  94 125 161 200 242 290
#     4  10  21  36  54  77 104 134 169 209 254 303
#     4   9  17  29  48  75 102 128 164 209 250 289
#
# _framework density 20.055264999999999
#
# number of rings (size 3 to 8) (size 9 to 14) (size 15 to 20)
#    0.000    2.667    0.000    2.000    0.000    7.333 
#    0.000    3.750    0.000    2.500    0.000    0.583 
#    0.000    4.667    0.000    0.000    0.000    0.000 
#
# Total GULP energy -267831.294163 kJ/mol
# GULP energy per Si atom -5579.818628 kJ/mol
# Density = 2.000962 g / cm^3
# Si number density = 20.055265 Si / 1000 Ang^3
#
#
#
# Elastic Constant Matrix: (Units=GPa)
#
#
# Indices 1 2 3 4 5 6 
#
# 1 139.7067 6.9439 130.1216 0.0000 0.0000 0.0000
# 2 6.9439 22.0756 0.1565 0.0000 0.0000 0.0000
# 3 130.1216 0.1565 216.3023 0.0000 0.0000 0.0000
# 4 0.0000 0.0000 0.0000 -71.1055 0.0000 0.0000
# 5 0.0000 0.0000 0.0000 0.0000 21.8061 0.0000
# 6 0.0000 0.0000 0.0000 0.0000 0.0000 5.2934
#
#
#
# Elastic Compliance Matrix: (Units=1/GPa)
#
#
# Indices 1 2 3 4 5 6 
#
# 1 0.016862 -0.005232 -0.010140 0.000000 0.000000 0.000000
# 2 -0.005232 0.046923 0.003114 0.000000 0.000000 0.000000
# 3 -0.010140 0.003114 0.010721 0.000000 0.000000 0.000000
# 4 0.000000 0.000000 0.000000 -0.014064 0.000000 0.000000
# 5 0.000000 0.000000 0.000000 0.000000 0.045859 0.000000
# 6 0.000000 0.000000 0.000000 0.000000 0.000000 0.188916
#
#
# Mechanical properties :
#
#
# Convention : Reuss Voigt Hill
#
# Bulk Modulus (GPa) = 20.00459 72.50316 46.25387
# Shear Modulus (GPa) = 14.86339 7.25631 11.05985
#
# Velocity S-wave (km/s) = 2.72531 1.90421 2.35088
# Velocity P-wave (km/s) = 4.46088 6.40819 5.52106
#
# Compressibility (1/GPa) = 0.04998853
#
# Stress axis : x y z
#
# Youngs Moduli (GPa) = 59.30367 21.31165 93.27528
#
# Poissons Ratio (x) = 0.11151 0.94583
# Poissons Ratio (y) = 0.31029 -0.29042
# Poissons Ratio (z) = 0.60135 -0.06636
#
# Static dielectric constant tensor:
#      x y z
#    x 1.721110 0.000000 0.000000 
#    y 0.000000 1.715980 0.000000 
#    z 0.000000 0.000000 1.691800 
# 
# From -- ./inp_files/34167.got.cif
#   From: 2010.05.17/outbox.cif.g08.bks.cpg/sg47_18_cif.got.tgz:34167.got - 2010.06.03 20:15:42.
