data_PCOD9387055
_publ_section_title
;
Structure prediction by ZEFSAII (Michael W. Deem and Ramdas Pophale) SiO2 
 PCOD9387055
Probable space group: P M M M
;
_chemical_formula_sum "Si O2"
_cell_formula_units_Z 44
_cell_length_a 31.083664
_cell_length_b 7.769925
_cell_length_c 9.560675
_cell_angle_alpha 90.000000
_cell_angle_beta 90.000000
_cell_angle_gamma 90.000000
_cell_volume 2309.072600
_symmetry_space_group_name_H-M "P M M M"
_symmetry_group_IT_number 47
_symmetry_cell_setting 'orthorhombic'
loop_
_space_group_symop_operation_xyz
x,y,z
-x,-y,z
x,-y,-z
-x,y,-z
-x,-y,-z
x,y,-z
-x,y,z
x,-y,z
loop_
_atom_site_type_symbol
_atom_site_label
_atom_site_fract_x
_atom_site_fract_y
_atom_site_fract_z
Si Si1 0.887724 0.697441 0.329706
Si Si2 0.630129 0.205649 0.657702
Si Si3 0.049440 0.000000 0.670841
Si Si4 0.791700 0.292538 0.659465
Si Si5 0.548636 0.292283 0.159254
Si Si6 0.290649 0.206262 0.841859
O O1 0.887774 0.693747 0.500000
O O2 0.894380 0.500000 0.282811
O O3 0.839566 0.759467 0.292248
O O4 0.924111 0.830860 0.284688
O O5 0.630735 0.275411 0.500000
O O6 0.585017 0.235892 0.734155
O O7 0.669216 0.275061 0.751885
O O8 0.636070 0.000000 0.648428
O O9 0.049330 0.000000 0.500000
O O10 0.000000 0.000000 0.716697
O O11 0.784234 0.229713 0.500000
O O12 0.792899 0.500000 0.653635
O O13 0.753540 0.239997 0.760784
O O14 0.500000 0.234901 0.194130
O O15 0.548252 0.500000 0.157966
O O16 0.558443 0.234734 0.000000
O O17 0.295756 0.000000 0.850650
O O18 0.290225 0.274614 0.000000
#
# Coordination Sequence:
#
# PCOD9387055 Si02
#       6
#     8   8   4   8   8   8
#     4   8  15  27  41  62  94 129 168 214 258 306
#     4  10  21  36  53  75 103 134 169 207 250 302
#     4   9  16  24  38  64  95 133 177 211 254 313
#     4   9  18  32  50  72  97 129 170 209 250 304
#     4   9  19  36  56  77 101 131 168 208 252 302
#     4  10  21  35  51  73 100 130 165 205 251 303
#
# _framework density 19.05527
#
# number of rings (size 3 to 8) (size 9 to 14) (size 15 to 20)
#    0.000    2.818    0.000    2.727    1.273    4.727 
#    0.000    4.545    0.000    0.000    0.000    0.000 
#    0.000    1.455    0.000    4.000    0.000    4.000 
#
# Total GULP energy -245408.393301 kJ/mol
# GULP energy per Si atom -5577.463484 kJ/mol
# Density = 1.901190 g / cm^3
# Si number density = 19.055270 Si / 1000 Ang^3
#
#
#
# Elastic Constant Matrix: (Units=GPa)
#
#
# Indices 1 2 3 4 5 6 
#
# 1 182.6546 36.4473 99.9994 0.0000 0.0000 0.0000
# 2 36.4473 43.8068 24.5576 0.0000 0.0000 0.0000
# 3 99.9994 24.5576 110.9009 0.0000 0.0000 0.0000
# 4 0.0000 0.0000 0.0000 15.8310 0.0000 0.0000
# 5 0.0000 0.0000 0.0000 0.0000 -33.9526 0.0000
# 6 0.0000 0.0000 0.0000 0.0000 0.0000 37.4996
#
#
#
# Elastic Compliance Matrix: (Units=1/GPa)
#
#
# Indices 1 2 3 4 5 6 
#
# 1 0.011474 -0.004277 -0.009399 0.000000 0.000000 0.000000
# 2 -0.004277 0.027657 -0.002267 0.000000 0.000000 0.000000
# 3 -0.009399 -0.002267 0.017994 0.000000 0.000000 0.000000
# 4 0.000000 0.000000 0.000000 0.063167 0.000000 0.000000
# 5 0.000000 0.000000 0.000000 0.000000 -0.029453 0.000000
# 6 0.000000 0.000000 0.000000 0.000000 0.000000 0.026667
#
#
# Mechanical properties :
#
#
# Convention : Reuss Voigt Hill
#
# Bulk Modulus (GPa) = 39.62276 73.26344 56.44310
# Shear Modulus (GPa) = 31.68418 15.63280 23.65849
#
# Velocity S-wave (km/s) = 4.08211 2.86736 3.52742
# Velocity P-wave (km/s) = 6.56177 7.03517 6.80259
#
# Compressibility (1/GPa) = 0.02523802
#
# Stress axis : x y z
#
# Youngs Moduli (GPa) = 87.15272 36.15666 55.57335
#
# Poissons Ratio (x) = 0.15466 0.52233
# Poissons Ratio (y) = 0.37279 0.12601
# Poissons Ratio (z) = 0.81915 0.08198
#
# Static dielectric constant tensor:
#      x y z
#    x 1.648560 0.000000 0.000000 
#    y 0.000000 1.696790 0.000000 
#    z 0.000000 0.000000 1.650130 
# 
# From -- ./inp_files/2133.got.cif
#   From: 2010.05.17/outbox.cif.g08.bks.cpg/sg47_2_cif.got.tgz:2133.got - 2010.06.03 20:15:42.
