data_PCOD9387755
_publ_section_title
;
Structure prediction by ZEFSAII (Michael W. Deem and Ramdas Pophale) SiO2 
 PCOD9387755
Probable space group: P M M M
;
_chemical_formula_sum "Si O2"
_cell_formula_units_Z 40
_cell_length_a 15.147038
_cell_length_b 9.200997
_cell_length_c 14.949532
_cell_angle_alpha 90.000000
_cell_angle_beta 90.000000
_cell_angle_gamma 90.000000
_cell_volume 2083.484151
_symmetry_space_group_name_H-M "P M M M"
_symmetry_group_IT_number 47
_symmetry_cell_setting 'orthorhombic'
loop_
_space_group_symop_operation_xyz
x,y,z
-x,-y,z
x,-y,-z
-x,y,-z
-x,-y,-z
x,y,-z
-x,y,z
x,-y,z
loop_
_atom_site_type_symbol
_atom_site_label
_atom_site_fract_x
_atom_site_fract_y
_atom_site_fract_z
Si Si1 0.605859 0.824443 0.000000
Si Si2 0.669822 0.661708 0.654970
Si Si3 0.267815 0.667524 0.140519
Si Si4 0.500000 0.168282 0.394562
Si Si5 0.863664 0.674516 0.599763
Si Si6 0.100053 0.827335 0.787817
O O1 0.660123 0.754868 0.917163
O O2 0.500000 0.789266 0.000000
O O3 0.613145 0.000000 0.000000
O O4 0.642691 0.500000 0.627118
O O5 0.697782 0.660382 0.758085
O O6 0.588508 0.765047 0.643306
O O7 0.758295 0.700287 0.601871
O O8 0.258028 0.500000 0.109190
O O9 0.173584 0.748620 0.151029
O O10 0.500000 0.194451 0.500000
O O11 0.500000 0.000000 0.376071
O O12 0.896650 0.713199 0.500000
O O13 0.877706 0.500000 0.612298
O O14 0.897290 0.759111 0.687181
O O15 0.000000 0.807810 0.821655
O O16 0.118936 0.000000 0.782500
#
# Coordination Sequence:
#
# PCOD9387755 Si02
#       6
#     4   8   8   4   8   8
#     4  11  25  43  66  97 128 155 185 228 288 351
#     4   9  19  35  54  75 103 144 190 235 286 338
#     4  10  22  41  64  89 117 152 194 240 288 343
#     4  11  23  33  45  72 107 144 189 237 284 337
#     4   9  18  33  53  78 109 149 199 250 296 344
#     4  10  21  37  58  85 119 158 197 242 299 357
#
# _framework density 19.198609000000001
#
# number of rings (size 3 to 8) (size 9 to 14) (size 15 to 20)
#    0.000    2.200    0.000    3.600    1.400    8.800 
#    0.000    2.500    0.000    3.000    0.000    0.000 
#    0.000    0.000    0.000    0.000    0.000    0.000 
#
# Total GULP energy -223109.465862 kJ/mol
# GULP energy per Si atom -5577.736647 kJ/mol
# Density = 1.915491 g / cm^3
# Si number density = 19.198609 Si / 1000 Ang^3
#
#
#
# Elastic Constant Matrix: (Units=GPa)
#
#
# Indices 1 2 3 4 5 6 
#
# 1 160.3141 100.3224 37.4077 0.0000 0.0000 0.0000
# 2 100.3224 111.7945 16.1917 0.0000 0.0000 0.0000
# 3 37.4077 16.1917 75.9635 0.0000 0.0000 0.0000
# 4 0.0000 0.0000 0.0000 26.7203 0.0000 0.0000
# 5 0.0000 0.0000 0.0000 0.0000 -2.0968 0.0000
# 6 0.0000 0.0000 0.0000 0.0000 0.0000 30.6478
#
#
#
# Elastic Compliance Matrix: (Units=1/GPa)
#
#
# Indices 1 2 3 4 5 6 
#
# 1 0.015829 -0.013492 -0.004919 0.000000 0.000000 0.000000
# 2 -0.013492 0.020730 0.002225 0.000000 0.000000 0.000000
# 3 -0.004919 0.002225 0.015112 0.000000 0.000000 0.000000
# 4 0.000000 0.000000 0.000000 0.037425 0.000000 0.000000
# 5 0.000000 0.000000 0.000000 0.000000 -0.476912 0.000000
# 6 0.000000 0.000000 0.000000 0.000000 0.000000 0.032629
#
#
# Mechanical properties :
#
#
# Convention : Reuss Voigt Hill
#
# Bulk Modulus (GPa) = 51.81350 72.87952 62.34651
# Shear Modulus (GPa) = -15.80361 23.99759 4.09699
#
# Velocity S-wave (km/s) = -2.87220 3.53932 1.46241
# Velocity P-wave (km/s) = 4.00592 7.39903 5.94950
#
# Compressibility (1/GPa) = 0.01929999
#
# Stress axis : x y z
#
# Youngs Moduli (GPa) = 63.17704 48.23921 66.17198
#
# Poissons Ratio (x) = 0.65084 0.32549
# Poissons Ratio (y) = 0.85237 -0.14726
# Poissons Ratio (z) = 0.31076 -0.10735
#
# Static dielectric constant tensor:
#      x y z
#    x 1.654010 0.000000 0.000000 
#    y 0.000000 1.657810 0.000000 
#    z 0.000000 0.000000 1.684370 
# 
# From -- ./inp_files/20657.got.cif
#   From: 2010.05.17/outbox.cif.g08.bks.cpg/sg47_11_cif.got.tgz:20657.got - 2010.06.03 20:15:42.
