data_PCOD9387895
_publ_section_title
;
Structure prediction by ZEFSAII (Michael W. Deem and Ramdas Pophale) SiO2 
 PCOD9387895
Probable space group: P M M M
;
_chemical_formula_sum "Si O2"
_cell_formula_units_Z 44
_cell_length_a 31.369580
_cell_length_b 9.355484
_cell_length_c 7.456000
_cell_angle_alpha 90.000000
_cell_angle_beta 90.000000
_cell_angle_gamma 90.000000
_cell_volume 2188.169014
_symmetry_space_group_name_H-M "P M M M"
_symmetry_group_IT_number 47
_symmetry_cell_setting 'orthorhombic'
loop_
_space_group_symop_operation_xyz
x,y,z
-x,-y,z
x,-y,-z
-x,y,-z
-x,-y,-z
x,y,-z
-x,y,z
x,-y,z
loop_
_atom_site_type_symbol
_atom_site_label
_atom_site_fract_x
_atom_site_fract_y
_atom_site_fract_z
Si Si1 0.953752 0.662823 0.785100
Si Si2 0.550933 0.331212 0.000000
Si Si3 0.224451 0.832948 0.718552
Si Si4 0.692585 0.663906 0.281572
Si Si5 0.130774 0.160786 0.286209
Si Si6 0.606607 0.830525 0.714820
O O1 0.950010 0.500000 0.719071
O O2 0.911311 0.748782 0.744724
O O3 0.000000 0.720896 0.722393
O O4 0.955886 0.657405 0.000000
O O5 0.571164 0.252682 0.827862
O O6 0.561916 0.500000 0.000000
O O7 0.500000 0.318196 0.000000
O O8 0.225600 0.829062 0.500000
O O9 0.263518 0.736388 0.780779
O O10 0.177075 0.784892 0.777657
O O11 0.229651 0.000000 0.768499
O O12 0.693758 0.661726 0.500000
O O13 0.688110 0.500000 0.221807
O O14 0.651990 0.760385 0.233889
O O15 0.135142 0.151134 0.500000
O O16 0.124880 0.000000 0.215674
O O17 0.600920 0.812518 0.500000
O O18 0.606305 0.000000 0.753015
#
# Coordination Sequence:
#
# PCOD9387895 Si02
#       6
#     8   4   8   8   8   8
#     4   9  19  35  51  66  88 122 163 206 254 309
#     4  11  25  43  63  89 123 161 199 247 304 353
#     4   8  14  26  44  68 101 137 170 207 256 315
#     4   9  16  27  48  79 111 143 182 226 270 320
#     4   9  18  31  48  73 102 129 160 204 256 309
#     4  10  21  38  62  90 120 158 202 246 294 350
#
# _framework density 20.108138
#
# number of rings (size 3 to 8) (size 9 to 14) (size 15 to 20)
#    0.000    2.818    0.000    3.000    0.000    6.545 
#    0.000    6.364    2.000    0.000    0.000    0.000 
#    0.000    0.000    0.000    0.000    0.000    0.000 
#
# Total GULP energy -245446.126750 kJ/mol
# GULP energy per Si atom -5578.321063 kJ/mol
# Density = 2.006237 g / cm^3
# Si number density = 20.108138 Si / 1000 Ang^3
#
#
#
# Elastic Constant Matrix: (Units=GPa)
#
#
# Indices 1 2 3 4 5 6 
#
# 1 192.6143 114.3602 36.4195 0.0000 0.0000 0.0000
# 2 114.3602 139.8652 32.8247 0.0000 0.0000 0.0000
# 3 36.4195 32.8247 68.2787 0.0000 0.0000 0.0000
# 4 0.0000 0.0000 0.0000 17.5769 0.0000 0.0000
# 5 0.0000 0.0000 0.0000 0.0000 38.9286 0.0000
# 6 0.0000 0.0000 0.0000 0.0000 0.0000 41.3869
#
#
#
# Elastic Compliance Matrix: (Units=1/GPa)
#
#
# Indices 1 2 3 4 5 6 
#
# 1 0.010247 -0.007998 -0.001621 0.000000 0.000000 0.000000
# 2 -0.007998 0.014301 -0.002609 0.000000 0.000000 0.000000
# 3 -0.001621 -0.002609 0.016765 0.000000 0.000000 0.000000
# 4 0.000000 0.000000 0.000000 0.056893 0.000000 0.000000
# 5 0.000000 0.000000 0.000000 0.000000 0.025688 0.000000
# 6 0.000000 0.000000 0.000000 0.000000 0.000000 0.024162
#
#
# Mechanical properties :
#
#
# Convention : Reuss Voigt Hill
#
# Bulk Modulus (GPa) = 59.32154 85.32964 72.32559
# Shear Modulus (GPa) = 28.06928 34.05540 31.06234
#
# Velocity S-wave (km/s) = 3.74025 4.11982 3.93461
# Velocity P-wave (km/s) = 6.94391 8.07205 7.52914
#
# Compressibility (1/GPa) = 0.01685728
#
# Stress axis : x y z
#
# Youngs Moduli (GPa) = 97.59292 69.92276 59.64903
#
# Poissons Ratio (x) = 0.55923 0.09667
# Poissons Ratio (y) = 0.78053 0.15565
# Poissons Ratio (z) = 0.15816 0.18246
#
# Static dielectric constant tensor:
#      x y z
#    x 1.710510 0.000000 0.000000 
#    y 0.000000 1.684600 0.000000 
#    z 0.000000 0.000000 1.773580 
# 
# From -- ./inp_files/2099.got.cif
#   From: 2010.05.17/outbox.cif.g08.bks.cpg/sg47_2_cif.got.tgz:2099.got - 2010.06.03 20:15:42.
