data_PCOD9387238
_publ_section_title
;
Structure prediction by ZEFSAII (Michael W. Deem and Ramdas Pophale) SiO2 
 PCOD9387238
Probable space group: P M M M
;
_chemical_formula_sum "Si O2"
_cell_formula_units_Z 64
_cell_length_a 21.500434
_cell_length_b 18.096117
_cell_length_c 7.711952
_cell_angle_alpha 90.000000
_cell_angle_beta 90.000000
_cell_angle_gamma 90.000000
_cell_volume 3000.522860
_symmetry_space_group_name_H-M "P M M M"
_symmetry_group_IT_number 47
_symmetry_cell_setting 'orthorhombic'
loop_
_space_group_symop_operation_xyz
x,y,z
-x,-y,z
x,-y,-z
-x,y,-z
-x,-y,-z
x,y,-z
-x,y,z
x,-y,z
loop_
_atom_site_type_symbol
_atom_site_label
_atom_site_fract_x
_atom_site_fract_y
_atom_site_fract_z
Si Si1 0.069395 0.222673 0.196640
Si Si2 0.432515 0.245132 0.711879
Si Si3 0.930002 0.383847 0.697479
Si Si4 0.729360 0.117022 0.203750
Si Si5 0.863482 0.921060 0.300687
Si Si6 0.591582 0.920023 0.702584
Si Si7 0.206274 0.581684 0.711954
Si Si8 0.295622 0.285023 0.710468
O O1 0.080353 0.295284 0.307758
O O2 0.113391 0.153290 0.213450
O O3 0.000000 0.195353 0.235564
O O4 0.071443 0.250451 0.000000
O O5 0.430658 0.243282 0.500000
O O6 0.500000 0.276426 0.762558
O O7 0.430175 0.159325 0.773347
O O8 0.368566 0.285286 0.765841
O O9 0.932777 0.411625 0.500000
O O10 0.865348 0.412476 0.775701
O O11 0.000000 0.396538 0.772634
O O12 0.789399 0.082766 0.290795
O O13 0.665903 0.086713 0.283065
O O14 0.729879 0.205603 0.229978
O O15 0.730186 0.100361 0.000000
O O16 0.883866 0.917778 0.500000
O O17 0.884443 0.000000 0.225796
O O18 0.573873 0.920802 0.500000
O O19 0.572838 0.000000 0.777346
O O20 0.203540 0.586771 0.500000
O O21 0.230319 0.500000 0.755948
O O22 0.251577 0.647902 0.769921
O O23 0.294867 0.285108 0.500000
#
# Coordination Sequence:
#
# PCOD9387238 Si02
#       8
#     8   8   8   8   8   8   8   8
#     4  10  21  36  53  72  95 124 159 201 247 294
#     4   8  14  25  43  68  94 123 165 210 245 282
#     4   9  17  30  50  74  99 129 163 197 235 286
#     4  11  21  32  49  71  95 124 160 201 244 291
#     4  11  23  36  50  68  92 124 163 207 251 294
#     4   9  17  29  45  66  94 127 161 198 243 293
#     4   9  17  29  48  75 102 126 155 194 240 289
#     4   9  17  31  51  71  94 127 163 199 241 291
#
# _framework density 21.329616999999999
#
# number of rings (size 3 to 8) (size 9 to 14) (size 15 to 20)
#    0.000    2.500    0.000    3.750    0.000    5.250 
#    0.000    3.750    0.000    7.875    0.000    7.875 
#    0.000    0.000    0.000    4.500    0.000    5.000 
#
# Total GULP energy -356967.853869 kJ/mol
# GULP energy per Si atom -5577.622717 kJ/mol
# Density = 2.128107 g / cm^3
# Si number density = 21.329617 Si / 1000 Ang^3
#
#
#
# Elastic Constant Matrix: (Units=GPa)
#
#
# Indices 1 2 3 4 5 6 
#
# 1 107.3242 62.4124 1.0633 0.0000 0.0000 0.0000
# 2 62.4124 114.3499 5.5807 0.0000 0.0000 0.0000
# 3 1.0633 5.5807 46.7480 0.0000 0.0000 0.0000
# 4 0.0000 0.0000 0.0000 23.8512 0.0000 0.0000
# 5 0.0000 0.0000 0.0000 0.0000 48.5894 0.0000
# 6 0.0000 0.0000 0.0000 0.0000 0.0000 1.4289
#
#
#
# Elastic Compliance Matrix: (Units=1/GPa)
#
#
# Indices 1 2 3 4 5 6 
#
# 1 0.013666 -0.007487 0.000583 0.000000 0.000000 0.000000
# 2 -0.007487 0.012899 -0.001370 0.000000 0.000000 0.000000
# 3 0.000583 -0.001370 0.021542 0.000000 0.000000 0.000000
# 4 0.000000 0.000000 0.000000 0.041927 0.000000 0.000000
# 5 0.000000 0.000000 0.000000 0.000000 0.020581 0.000000
# 6 0.000000 0.000000 0.000000 0.000000 0.000000 0.699818
#
#
# Mechanical properties :
#
#
# Convention : Reuss Voigt Hill
#
# Bulk Modulus (GPa) = 31.68742 45.17054 38.42898
# Shear Modulus (GPa) = 5.97016 28.06496 17.01756
#
# Velocity S-wave (km/s) = 1.67484 3.63130 2.82767
# Velocity P-wave (km/s) = 4.31607 6.22937 5.35880
#
# Compressibility (1/GPa) = 0.03155826
#
# Stress axis : x y z
#
# Youngs Moduli (GPa) = 73.17482 77.52829 46.42201
#
# Poissons Ratio (x) = 0.58048 -0.02706
# Poissons Ratio (y) = 0.54788 0.06358
# Poissons Ratio (z) = -0.04266 0.10618
#
# Static dielectric constant tensor:
#      x y z
#    x 1.789860 0.000000 0.000000 
#    y 0.000000 1.762070 0.000000 
#    z 0.000000 0.000000 1.781250 
# 
# From -- ./inp_files/12747.got.cif
#   From: 2010.05.17/outbox.cif.g08.bks.cpg/sg47_7_cif.got.tgz:12747.got - 2010.06.03 20:15:42.
