data_PCOD9387609
_publ_section_title
;
Structure prediction by ZEFSAII (Michael W. Deem and Ramdas Pophale) SiO2 
 PCOD9387609
Probable space group: P M M M
;
_chemical_formula_sum "Si O2"
_cell_formula_units_Z 48
_cell_length_a 8.741715
_cell_length_b 14.833208
_cell_length_c 18.816718
_cell_angle_alpha 90.000000
_cell_angle_beta 90.000000
_cell_angle_gamma 90.000000
_cell_volume 2439.920109
_symmetry_space_group_name_H-M "P M M M"
_symmetry_group_IT_number 47
_symmetry_cell_setting 'orthorhombic'
loop_
_space_group_symop_operation_xyz
x,y,z
-x,-y,z
x,-y,-z
-x,y,-z
-x,-y,-z
x,y,-z
-x,y,z
x,-y,z
loop_
_atom_site_type_symbol
_atom_site_label
_atom_site_fract_x
_atom_site_fract_y
_atom_site_fract_z
Si Si1 0.314441 0.902066 0.916354
Si Si2 0.817152 0.895558 0.348741
Si Si3 0.317248 0.720221 0.291088
Si Si4 0.674170 0.890861 0.500000
Si Si5 0.685107 0.291023 0.134642
Si Si6 0.183984 0.393511 0.579530
Si Si7 0.817268 0.604889 0.000000
O O1 0.500000 0.903224 0.912710
O O2 0.263397 0.812598 0.876838
O O3 0.259419 0.000000 0.890327
O O4 0.275492 0.894082 0.000000
O O5 0.742705 0.822508 0.297452
O O6 0.762252 0.867901 0.427977
O O7 0.000000 0.891039 0.345381
O O8 0.770498 0.000000 0.336312
O O9 0.500000 0.721920 0.294372
O O10 0.271175 0.680699 0.214308
O O11 0.254124 0.663351 0.356873
O O12 0.500000 0.856175 0.500000
O O13 0.666552 0.000000 0.500000
O O14 0.500000 0.293524 0.129421
O O15 0.751923 0.348587 0.070585
O O16 0.234386 0.364808 0.500000
O O17 0.219800 0.500000 0.587031
O O18 0.000000 0.384614 0.581968
O O19 0.775335 0.500000 0.000000
O O20 0.000000 0.613286 0.000000
#
# Coordination Sequence:
#
# PCOD9387609 Si02
#       7
#     8   8   8   4   8   8   4
#     4   8  13  25  52  85 111 141 185 231 272 322
#     4  10  21  37  56  80 116 164 210 247 291 351
#     4  11  24  37  57  91 125 158 195 243 302 356
#     4   9  17  31  53  79 108 145 196 257 305 341
#     4  10  21  39  61  87 120 156 195 237 286 349
#     4   9  20  41  66  87 110 148 197 246 301 365
#     4  11  25  43  64  89 116 152 195 241 298 355
#
# _framework density 19.672777
#
# number of rings (size 3 to 8) (size 9 to 14) (size 15 to 20)
#    0.000    2.333    0.833    2.500    1.167    6.000 
#    0.000    5.833    0.000    1.000    0.000    0.000 
#    0.000    0.000    0.000    0.000    0.000    0.000 
#
# Total GULP energy -267936.466360 kJ/mol
# GULP energy per Si atom -5582.009716 kJ/mol
# Density = 1.962800 g / cm^3
# Si number density = 19.672777 Si / 1000 Ang^3
#
#
#
# Elastic Constant Matrix: (Units=GPa)
#
#
# Indices 1 2 3 4 5 6 
#
# 1 30.2827 36.4547 42.0122 0.0000 0.0000 0.0000
# 2 36.4547 108.0583 90.2442 0.0000 0.0000 0.0000
# 3 42.0122 90.2442 162.1424 0.0000 0.0000 0.0000
# 4 0.0000 0.0000 0.0000 3.7831 0.0000 0.0000
# 5 0.0000 0.0000 0.0000 0.0000 53.3429 0.0000
# 6 0.0000 0.0000 0.0000 0.0000 0.0000 27.5397
#
#
#
# Elastic Compliance Matrix: (Units=1/GPa)
#
#
# Indices 1 2 3 4 5 6 
#
# 1 0.060819 -0.013747 -0.008107 0.000000 0.000000 0.000000
# 2 -0.013747 0.020399 -0.007792 0.000000 0.000000 0.000000
# 3 -0.008107 -0.007792 0.012605 0.000000 0.000000 0.000000
# 4 0.000000 0.000000 0.000000 0.264337 0.000000 0.000000
# 5 0.000000 0.000000 0.000000 0.000000 0.018747 0.000000
# 6 0.000000 0.000000 0.000000 0.000000 0.000000 0.036311
#
#
# Mechanical properties :
#
#
# Convention : Reuss Voigt Hill
#
# Bulk Modulus (GPa) = 28.96002 70.87840 49.91921
# Shear Modulus (GPa) = 10.33017 25.71795 18.02406
#
# Velocity S-wave (km/s) = 2.29399 3.61956 3.03015
# Velocity P-wave (km/s) = 4.66576 7.31951 6.13777
#
# Compressibility (1/GPa) = 0.03453036
#
# Stress axis : x y z
#
# Youngs Moduli (GPa) = 16.44235 49.02152 79.33561
#
# Poissons Ratio (x) = 0.67391 0.64319
# Poissons Ratio (y) = 0.22604 0.61816
# Poissons Ratio (z) = 0.13330 0.38196
#
# Static dielectric constant tensor:
#      x y z
#    x 1.665680 0.000000 0.000000 
#    y 0.000000 1.703590 0.000000 
#    z 0.000000 0.000000 1.693060 
# 
# From -- ./inp_files/26557.got.cif
#   From: 2010.05.17/outbox.cif.g08.bks.cpg/sg47_14_cif.got.tgz:26557.got - 2010.06.03 20:15:42.
