data_PCOD9387915
_publ_section_title
;
Structure prediction by ZEFSAII (Michael W. Deem and Ramdas Pophale) SiO2 
 PCOD9387915
Probable space group: P M M M
;
_chemical_formula_sum "Si O2"
_cell_formula_units_Z 44
_cell_length_a 7.381428
_cell_length_b 14.757698
_cell_length_c 19.197821
_cell_angle_alpha 90.000000
_cell_angle_beta 90.000000
_cell_angle_gamma 90.000000
_cell_volume 2091.274032
_symmetry_space_group_name_H-M "P M M M"
_symmetry_group_IT_number 47
_symmetry_cell_setting 'orthorhombic'
loop_
_space_group_symop_operation_xyz
x,y,z
-x,-y,z
x,-y,-z
-x,y,-z
-x,-y,-z
x,y,-z
-x,y,z
x,-y,z
loop_
_atom_site_type_symbol
_atom_site_label
_atom_site_fract_x
_atom_site_fract_y
_atom_site_fract_z
Si Si1 0.218782 0.721140 0.160228
Si Si2 0.717991 0.705779 0.420769
Si Si3 0.500000 0.397685 0.082464
Si Si4 0.213634 0.399463 0.285808
Si Si5 0.219982 0.102970 0.920288
Si Si6 0.284342 0.902868 0.415830
O O1 0.321740 0.654101 0.108263
O O2 0.277309 0.681792 0.235465
O O3 0.274169 0.822033 0.136193
O O4 0.000000 0.716602 0.154362
O O5 0.781658 0.690154 0.500000
O O6 0.500000 0.712159 0.424197
O O7 0.761950 0.629192 0.365541
O O8 0.785936 0.804438 0.393997
O O9 0.500000 0.500000 0.109655
O O10 0.500000 0.399397 0.000000
O O11 0.289781 0.500000 0.272127
O O12 0.000000 0.405228 0.272631
O O13 0.000000 0.101740 0.920739
O O14 0.279776 0.000000 0.905921
O O15 0.275454 0.126915 0.000000
O O16 0.263969 0.902432 0.500000
O O17 0.500000 0.904082 0.401841
O O18 0.210984 0.000000 0.390324
#
# Coordination Sequence:
#
# PCOD9387915 Si02
#       6
#     8   8   4   8   8   8
#     4  10  21  39  60  82 116 157 193 234 284 341
#     4   9  18  32  52  79 105 131 174 231 284 334
#     4  11  24  38  57  89 118 146 193 242 283 331
#     4  10  22  38  54  73 100 142 190 228 277 341
#     4   8  14  28  55  88 117 149 188 227 275 337
#     4   7  10  20  41  68  97 127 158 198 255 322
#
# _framework density 21.039808000000001
#
# number of rings (size 3 to 8) (size 9 to 14) (size 15 to 20)
#    0.000    3.000    0.000    3.273    1.273    3.273 
#    0.000    4.091    0.000    3.273    0.000    2.545 
#    0.000    0.000    0.000    0.000    0.000    0.000 
#
# Total GULP energy -245148.869667 kJ/mol
# GULP energy per Si atom -5571.565220 kJ/mol
# Density = 2.099192 g / cm^3
# Si number density = 21.039808 Si / 1000 Ang^3
#
#
#
# Elastic Constant Matrix: (Units=GPa)
#
#
# Indices 1 2 3 4 5 6 
#
# 1 69.2710 10.3626 1.3820 0.0000 0.0000 0.0000
# 2 10.3626 160.4613 75.3288 0.0000 0.0000 0.0000
# 3 1.3820 75.3288 97.7918 0.0000 0.0000 0.0000
# 4 0.0000 0.0000 0.0000 56.6132 0.0000 0.0000
# 5 0.0000 0.0000 0.0000 0.0000 16.2184 0.0000
# 6 0.0000 0.0000 0.0000 0.0000 0.0000 4.8026
#
#
#
# Elastic Compliance Matrix: (Units=1/GPa)
#
#
# Indices 1 2 3 4 5 6 
#
# 1 0.014618 -0.001327 0.000816 0.000000 0.000000 0.000000
# 2 -0.001327 0.009883 -0.007594 0.000000 0.000000 0.000000
# 3 0.000816 -0.007594 0.016064 0.000000 0.000000 0.000000
# 4 0.000000 0.000000 0.000000 0.017664 0.000000 0.000000
# 5 0.000000 0.000000 0.000000 0.000000 0.061658 0.000000
# 6 0.000000 0.000000 0.000000 0.000000 0.000000 0.208221
#
#
# Mechanical properties :
#
#
# Convention : Reuss Voigt Hill
#
# Bulk Modulus (GPa) = 41.06050 55.74119 48.40085
# Shear Modulus (GPa) = 14.18697 31.55687 22.87192
#
# Velocity S-wave (km/s) = 2.59953 3.87701 3.30066
# Velocity P-wave (km/s) = 5.34491 6.82586 6.13027
#
# Compressibility (1/GPa) = 0.02435431
#
# Stress axis : x y z
#
# Youngs Moduli (GPa) = 68.40751 101.18731 62.25178
#
# Poissons Ratio (x) = 0.13426 -0.05077
# Poissons Ratio (y) = 0.09077 0.47273
# Poissons Ratio (z) = -0.05579 0.76840
#
# Static dielectric constant tensor:
#      x y z
#    x 1.833290 0.000000 0.000000 
#    y 0.000000 1.799540 0.000000 
#    z 0.000000 0.000000 1.737300 
# 
# From -- ./inp_files/26362.got.cif
#   From: 2010.05.17/outbox.cif.g08.bks.cpg/sg47_14_cif.got.tgz:26362.got - 2010.06.03 20:15:42.
