data_PCOD9387236
_publ_section_title
;
Structure prediction by ZEFSAII (Michael W. Deem and Ramdas Pophale) SiO2 
 PCOD9387236
Probable space group: P M M M
;
_chemical_formula_sum "Si O2"
_cell_formula_units_Z 56
_cell_length_a 9.460378
_cell_length_b 21.589248
_cell_length_c 14.711241
_cell_angle_alpha 90.000000
_cell_angle_beta 90.000000
_cell_angle_gamma 90.000000
_cell_volume 3004.659858
_symmetry_space_group_name_H-M "P M M M"
_symmetry_group_IT_number 47
_symmetry_cell_setting 'orthorhombic'
loop_
_space_group_symop_operation_xyz
x,y,z
-x,-y,z
x,-y,-z
-x,y,-z
-x,-y,-z
x,y,-z
-x,y,z
x,-y,z
loop_
_atom_site_type_symbol
_atom_site_label
_atom_site_fract_x
_atom_site_fract_y
_atom_site_fract_z
Si Si1 0.329298 0.235639 0.108623
Si Si2 0.333675 0.925486 0.603834
Si Si3 0.836004 0.157960 0.741233
Si Si4 0.339541 0.376493 0.108537
Si Si5 0.840749 0.500000 0.852506
Si Si6 0.842687 0.726521 0.607194
Si Si7 0.345423 0.381922 0.606600
Si Si8 0.156641 0.500000 0.637506
O O1 0.500000 0.230360 0.120409
O O2 0.246925 0.186525 0.171917
O O3 0.290206 0.307052 0.135589
O O4 0.300310 0.227514 0.000000
O O5 0.289284 0.906810 0.500000
O O6 0.500000 0.908602 0.612983
O O7 0.245133 0.895927 0.686038
O O8 0.323898 0.000000 0.607333
O O9 0.838906 0.212549 0.666461
O O10 0.000000 0.142417 0.763289
O O11 0.500000 0.386775 0.143071
O O12 0.243104 0.436457 0.126272
O O13 0.349243 0.372101 0.000000
O O14 0.854035 0.500000 0.745029
O O15 0.000000 0.500000 0.891962
O O16 0.819337 0.739816 0.500000
O O17 0.729077 0.678450 0.644948
O O18 0.000000 0.698075 0.613905
O O19 0.359452 0.368854 0.500000
O O20 0.500000 0.394879 0.644616
O O21 0.244479 0.439981 0.612564
O O22 0.000000 0.500000 0.598868
#
# Coordination Sequence:
#
# PCOD9387236 Si02
#       8
#     8   8   8   8   4   8   8   4
#     4   9  20  39  60  82 110 148 195 243 290 343
#     4   9  19  37  61  90 125 164 203 238 272 318
#     4  11  22  34  56  88 121 154 189 231 282 338
#     4   9  19  37  58  77  99 131 173 222 280 342
#     4  11  24  35  48  74 104 131 168 219 276 344
#     4   9  19  35  52  74 109 147 178 213 267 333
#     4  10  21  36  53  72  92 121 170 225 268 313
#     4  11  24  37  48  66  96 131 166 207 264 334
#
# _framework density 18.637716000000001
#
# number of rings (size 3 to 8) (size 9 to 14) (size 15 to 20)
#    0.000    2.286    0.000    3.429    2.000    7.143 
#    0.000    3.571    0.000    0.429    0.000    3.000 
#    0.000    0.000    0.000    0.000    0.000    0.000 
#
# Total GULP energy -312140.369431 kJ/mol
# GULP energy per Si atom -5573.935168 kJ/mol
# Density = 1.859530 g / cm^3
# Si number density = 18.637716 Si / 1000 Ang^3
#
#
#
# Elastic Constant Matrix: (Units=GPa)
#
#
# Indices 1 2 3 4 5 6 
#
# 1 106.7210 49.3269 42.9551 0.0000 0.0000 0.0000
# 2 49.3269 68.6971 32.3239 0.0000 0.0000 0.0000
# 3 42.9551 32.3239 105.0164 0.0000 0.0000 0.0000
# 4 0.0000 0.0000 0.0000 46.3905 0.0000 0.0000
# 5 0.0000 0.0000 0.0000 0.0000 24.7892 0.0000
# 6 0.0000 0.0000 0.0000 0.0000 0.0000 26.8856
#
#
#
# Elastic Compliance Matrix: (Units=1/GPa)
#
#
# Indices 1 2 3 4 5 6 
#
# 1 0.014934 -0.009178 -0.003283 0.000000 0.000000 0.000000
# 2 -0.009178 0.022663 -0.003221 0.000000 0.000000 0.000000
# 3 -0.003283 -0.003221 0.011857 0.000000 0.000000 0.000000
# 4 0.000000 0.000000 0.000000 0.021556 0.000000 0.000000
# 5 0.000000 0.000000 0.000000 0.000000 0.040340 0.000000
# 6 0.000000 0.000000 0.000000 0.000000 0.000000 0.037195
#
#
# Mechanical properties :
#
#
# Convention : Reuss Voigt Hill
#
# Bulk Modulus (GPa) = 55.28664 58.84959 57.06811
# Shear Modulus (GPa) = 26.89045 30.00164 28.44604
#
# Velocity S-wave (km/s) = 3.80254 4.01649 3.91098
# Velocity P-wave (km/s) = 7.00052 7.29066 7.14706
#
# Compressibility (1/GPa) = 0.01808755
#
# Stress axis : x y z
#
# Youngs Moduli (GPa) = 66.96123 44.12548 84.33917
#
# Poissons Ratio (x) = 0.40499 0.27692
# Poissons Ratio (y) = 0.61458 0.27169
# Poissons Ratio (z) = 0.21986 0.14214
#
# Static dielectric constant tensor:
#      x y z
#    x 1.701170 0.000000 0.000000 
#    y 0.000000 1.645200 0.000000 
#    z 0.000000 0.000000 1.664590 
# 
# From -- ./inp_files/21617.got.cif
#   From: 2010.05.17/outbox.cif.g08.bks.cpg/sg47_11_cif.got.tgz:21617.got - 2010.06.03 20:15:42.
