data_PCOD9387417
_publ_section_title
;
Structure prediction by ZEFSAII (Michael W. Deem and Ramdas Pophale) SiO2 
 PCOD9387417
Probable space group: P M M M
;
_chemical_formula_sum "Si O2"
_cell_formula_units_Z 48
_cell_length_a 9.637788
_cell_length_b 15.586400
_cell_length_c 17.533974
_cell_angle_alpha 90.000000
_cell_angle_beta 90.000000
_cell_angle_gamma 90.000000
_cell_volume 2633.925851
_symmetry_space_group_name_H-M "P M M M"
_symmetry_group_IT_number 47
_symmetry_cell_setting 'orthorhombic'
loop_
_space_group_symop_operation_xyz
x,y,z
-x,-y,z
x,-y,-z
-x,y,-z
-x,-y,-z
x,y,-z
-x,y,z
x,-y,z
loop_
_atom_site_type_symbol
_atom_site_label
_atom_site_fract_x
_atom_site_fract_y
_atom_site_fract_z
Si Si1 0.831331 0.000000 0.411478
Si Si2 0.332949 0.767383 0.821776
Si Si3 0.847349 0.651361 0.408918
Si Si4 0.655785 0.500000 0.406422
Si Si5 0.157323 0.902200 0.908573
Si Si6 0.331603 0.402561 0.088203
Si Si7 0.164175 0.825775 0.326258
O O1 0.790812 0.085144 0.364922
O O2 0.783964 0.000000 0.500000
O O3 0.000000 0.000000 0.414264
O O4 0.500000 0.770249 0.815074
O O5 0.273643 0.837695 0.880352
O O6 0.290859 0.673532 0.854449
O O7 0.256706 0.794572 0.744063
O O8 0.848438 0.644155 0.500000
O O9 0.734369 0.584936 0.379995
O O10 0.824329 0.749173 0.387066
O O11 0.000000 0.625883 0.380458
O O12 0.500000 0.500000 0.379203
O O13 0.654813 0.500000 0.500000
O O14 0.000000 0.876949 0.884519
O O15 0.180633 0.000000 0.881022
O O16 0.157663 0.903987 0.000000
O O17 0.500000 0.402962 0.087914
O O18 0.286735 0.500000 0.107843
O O19 0.288745 0.384731 0.000000
O O20 0.000000 0.833400 0.305467
#
# Coordination Sequence:
#
# PCOD9387417 Si02
#       7
#     4   8   8   4   8   8   8
#     4   9  18  36  63  87 102 131 188 241 275 322
#     4  11  22  34  52  81 116 147 179 222 273 331
#     4   9  17  32  54  77 102 135 179 227 270 317
#     4   9  17  29  49  77 105 133 166 209 264 325
#     4   9  19  36  57  79 105 142 185 225 268 320
#     4   8  15  31  55  79 104 140 187 231 267 309
#     4  10  21  36  55  80 109 142 178 225 280 329
#
# _framework density 18.223746999999999
#
# number of rings (size 3 to 8) (size 9 to 14) (size 15 to 20)
#    0.000    2.667    0.000    2.750    1.167    5.000 
#    1.500    0.833    0.000    3.500    0.000    5.833 
#    0.000    0.000    0.000    0.000    0.000    0.000 
#
# Total GULP energy -267439.187354 kJ/mol
# GULP energy per Si atom -5571.649737 kJ/mol
# Density = 1.818227 g / cm^3
# Si number density = 18.223747 Si / 1000 Ang^3
#
#
#
# Elastic Constant Matrix: (Units=GPa)
#
#
# Indices 1 2 3 4 5 6 
#
# 1 75.8008 70.4008 29.1321 0.0000 0.0000 0.0000
# 2 70.4008 154.2048 54.0086 0.0000 0.0000 0.0000
# 3 29.1321 54.0086 55.4963 0.0000 0.0000 0.0000
# 4 0.0000 0.0000 0.0000 26.5999 0.0000 0.0000
# 5 0.0000 0.0000 0.0000 0.0000 21.4706 0.0000
# 6 0.0000 0.0000 0.0000 0.0000 0.0000 -12.5143
#
#
#
# Elastic Compliance Matrix: (Units=1/GPa)
#
#
# Indices 1 2 3 4 5 6 
#
# 1 0.023195 -0.009596 -0.002838 0.000000 0.000000 0.000000
# 2 -0.009596 0.013808 -0.008401 0.000000 0.000000 0.000000
# 3 -0.002838 -0.008401 0.027684 0.000000 0.000000 0.000000
# 4 0.000000 0.000000 0.000000 0.037594 0.000000 0.000000
# 5 0.000000 0.000000 0.000000 0.000000 0.046575 0.000000
# 6 0.000000 0.000000 0.000000 0.000000 0.000000 -0.079908
#
#
# Mechanical properties :
#
#
# Convention : Reuss Voigt Hill
#
# Bulk Modulus (GPa) = 43.44142 65.84278 54.64210
# Shear Modulus (GPa) = 42.26931 15.90860 29.08895
#
# Velocity S-wave (km/s) = 4.82131 2.95779 3.99960
# Velocity P-wave (km/s) = 7.40830 6.91906 7.16785
#
# Compressibility (1/GPa) = 0.02301951
#
# Stress axis : x y z
#
# Youngs Moduli (GPa) = 43.11257 72.42200 36.12168
#
# Poissons Ratio (x) = 0.69494 0.10250
# Poissons Ratio (y) = 0.41370 0.30345
# Poissons Ratio (z) = 0.12233 0.60839
#
# Static dielectric constant tensor:
#      x y z
#    x 1.616430 0.000000 0.000000 
#    y 0.000000 1.630010 0.000000 
#    z 0.000000 0.000000 1.567420 
# 
# From -- ./inp_files/26520.got.cif
#   From: 2010.05.17/outbox.cif.g08.bks.cpg/sg47_14_cif.got.tgz:26520.got - 2010.06.03 20:15:42.
