data_PCOD9387863
_publ_section_title
;
Structure prediction by ZEFSAII (Michael W. Deem and Ramdas Pophale) SiO2 
 PCOD9387863
Probable space group: P M M M
;
_chemical_formula_sum "Si O2"
_cell_formula_units_Z 64
_cell_length_a 7.821649
_cell_length_b 25.281292
_cell_length_c 14.409685
_cell_angle_alpha 90.000000
_cell_angle_beta 90.000000
_cell_angle_gamma 90.000000
_cell_volume 2849.391174
_symmetry_space_group_name_H-M "P M M M"
_symmetry_group_IT_number 47
_symmetry_cell_setting 'orthorhombic'
loop_
_space_group_symop_operation_xyz
x,y,z
-x,-y,z
x,-y,-z
-x,y,-z
-x,-y,-z
x,y,-z
-x,y,z
x,-y,z
loop_
_atom_site_type_symbol
_atom_site_label
_atom_site_fract_x
_atom_site_fract_y
_atom_site_fract_z
Si Si1 0.702971 0.276443 0.108162
Si Si2 0.203578 0.338749 0.395012
Si Si3 0.302462 0.442535 0.713342
Si Si4 0.791154 0.942303 0.789261
Si Si5 0.209484 0.890301 0.604854
Si Si6 0.205958 0.837330 0.893611
Si Si7 0.803003 0.773779 0.613682
Si Si8 0.199887 0.391665 0.106052
O O1 0.500000 0.282799 0.109468
O O2 0.747140 0.219454 0.150356
O O3 0.781149 0.331280 0.142710
O O4 0.762569 0.273236 0.000000
O O5 0.269190 0.346660 0.500000
O O6 0.228228 0.391605 0.337419
O O7 0.275117 0.282614 0.356926
O O8 0.000000 0.330039 0.400791
O O9 0.500000 0.444155 0.686847
O O10 0.224451 0.500000 0.691922
O O11 0.288595 0.430664 0.822689
O O12 0.743303 0.932321 0.682353
O O13 0.732360 0.890479 0.844300
O O14 0.000000 0.942185 0.794265
O O15 0.733386 0.000000 0.822156
O O16 0.264766 0.901599 0.500000
O O17 0.271631 0.831501 0.634093
O O18 0.000000 0.887762 0.603314
O O19 0.000000 0.839084 0.894657
O O20 0.268802 0.837636 0.000000
O O21 0.806430 0.771492 0.500000
O O22 0.000000 0.775877 0.646951
O O23 0.000000 0.404547 0.104686
O O24 0.265528 0.393240 0.000000
#
# Coordination Sequence:
#
# PCOD9387863 Si02
#       8
#     8   8   8   8   8   8   8   8
#     4   9  17  31  53  80 108 134 161 200 255 316
#     4   9  18  34  57  82 106 135 176 229 282 326
#     4  11  25  41  55  76 109 148 187 223 262 314
#     4   9  17  26  36  56  87 125 172 217 253 295
#     4   8  13  22  37  58  87 120 151 192 250 308
#     4   9  17  29  45  66  95 131 168 205 246 295
#     4   7  11  22  41  66  93 119 153 201 259 318
#     4  10  21  38  61  86 110 137 172 217 266 316
#
# _framework density 22.460937000000001
#
# number of rings (size 3 to 8) (size 9 to 14) (size 15 to 20)
#    0.000    3.000    0.000    2.625    0.000    5.500 
#    0.000    7.500    0.000    0.375    0.000    1.750 
#    0.000    0.500    0.000    1.125    0.000    1.250 
#
# Total GULP energy -357023.349064 kJ/mol
# GULP energy per Si atom -5578.489829 kJ/mol
# Density = 2.240982 g / cm^3
# Si number density = 22.460937 Si / 1000 Ang^3
#
#
#
# Elastic Constant Matrix: (Units=GPa)
#
#
# Indices 1 2 3 4 5 6 
#
# 1 27.5763 1.1809 -4.7396 0.0000 0.0000 0.0000
# 2 1.1809 103.7446 12.1786 0.0000 0.0000 0.0000
# 3 -4.7396 12.1786 39.1278 0.0000 0.0000 0.0000
# 4 0.0000 0.0000 0.0000 24.5238 0.0000 0.0000
# 5 0.0000 0.0000 0.0000 0.0000 -34.5698 0.0000
# 6 0.0000 0.0000 0.0000 0.0000 0.0000 53.5107
#
#
#
# Elastic Compliance Matrix: (Units=1/GPa)
#
#
# Indices 1 2 3 4 5 6 
#
# 1 0.037131 -0.000987 0.004805 0.000000 0.000000 0.000000
# 2 -0.000987 0.010031 -0.003242 0.000000 0.000000 0.000000
# 3 0.004805 -0.003242 0.027148 0.000000 0.000000 0.000000
# 4 0.000000 0.000000 0.000000 0.040777 0.000000 0.000000
# 5 0.000000 0.000000 0.000000 0.000000 -0.028927 0.000000
# 6 0.000000 0.000000 0.000000 0.000000 0.000000 0.018688
#
#
# Mechanical properties :
#
#
# Convention : Reuss Voigt Hill
#
# Bulk Modulus (GPa) = 13.25149 20.85428 17.05288
# Shear Modulus (GPa) = 38.80503 19.48150 29.14327
#
# Velocity S-wave (km/s) = 4.16103 2.94828 3.60600
# Velocity P-wave (km/s) = 5.38500 4.57106 4.99464
#
# Compressibility (1/GPa) = 0.07546323
#
# Stress axis : x y z
#
# Youngs Moduli (GPa) = 26.93159 99.69268 36.83477
#
# Poissons Ratio (x) = 0.09837 -0.17699
# Poissons Ratio (y) = 0.02657 0.11941
# Poissons Ratio (z) = -0.12940 0.32317
#
# Static dielectric constant tensor:
#      x y z
#    x 1.826570 0.000000 0.000000 
#    y 0.000000 1.865540 0.000000 
#    z 0.000000 0.000000 1.860570 
# 
# From -- ./inp_files/27021.got.cif
#   From: 2010.05.17/outbox.cif.g08.bks.cpg/sg47_14_cif.got.tgz:27021.got - 2010.06.03 20:15:42.
