data_PCOD9387681
_publ_section_title
;
Structure prediction by ZEFSAII (Michael W. Deem and Ramdas Pophale) SiO2 
 PCOD9387681
Probable space group: P M M M
;
_chemical_formula_sum "Si O2"
_cell_formula_units_Z 48
_cell_length_a 8.525770
_cell_length_b 9.281186
_cell_length_c 31.922588
_cell_angle_alpha 90.000000
_cell_angle_beta 90.000000
_cell_angle_gamma 90.000000
_cell_volume 2526.010675
_symmetry_space_group_name_H-M "P M M M"
_symmetry_group_IT_number 47
_symmetry_cell_setting 'orthorhombic'
loop_
_space_group_symop_operation_xyz
x,y,z
-x,-y,z
x,-y,-z
-x,y,-z
-x,-y,-z
x,y,-z
-x,y,z
x,-y,z
loop_
_atom_site_type_symbol
_atom_site_label
_atom_site_fract_x
_atom_site_fract_y
_atom_site_fract_z
Si Si1 0.811850 0.332834 0.837141
Si Si2 0.189196 0.667127 0.582778
Si Si3 0.309965 0.166994 0.244084
Si Si4 0.688248 0.832775 0.081469
Si Si5 0.310978 0.332887 0.327443
Si Si6 0.808212 0.834601 0.500000
Si Si7 0.188260 0.667198 0.000000
O O1 0.760772 0.500000 0.838439
O O2 0.754817 0.257473 0.794692
O O3 0.745949 0.246246 0.876742
O O4 0.000000 0.329634 0.838802
O O5 0.237701 0.500000 0.578406
O O6 0.250288 0.719946 0.627626
O O7 0.243440 0.755256 0.542357
O O8 0.000000 0.671170 0.583563
O O9 0.500000 0.172040 0.242551
O O10 0.259457 0.238306 0.287979
O O11 0.262198 0.000000 0.241362
O O12 0.500000 0.830721 0.080566
O O13 0.739710 0.000000 0.080990
O O14 0.751434 0.748840 0.041092
O O15 0.500000 0.331706 0.328334
O O16 0.259971 0.500000 0.322183
O O17 0.000000 0.830348 0.500000
O O18 0.759546 0.000000 0.500000
O O19 0.239952 0.500000 0.000000
O O20 0.000000 0.668992 0.000000
#
# Coordination Sequence:
#
# PCOD9387681 Si02
#       7
#     8   8   8   8   8   4   4
#     4  11  24  40  59  85 115 147 186 231 277 326
#     4   9  17  30  49  71  95 126 166 210 254 304
#     4  10  21  37  57  81 109 143 182 222 268 325
#     4  11  24  41  62  89 119 152 192 234 278 332
#     4   9  18  33  52  74 102 136 172 212 261 315
#     4   9  17  29  46  69  96 126 162 205 254 308
#     4  11  24  41  62  90 122 155 194 237 280 328
#
# _framework density 19.002293000000002
#
# number of rings (size 3 to 8) (size 9 to 14) (size 15 to 20)
#    0.000    2.000    0.000    3.250    0.000   11.667 
#    0.000    2.083    0.000    2.500    0.000    0.000 
#    0.000    0.000    0.000    0.000    0.000    0.000 
#
# Total GULP energy -268158.532065 kJ/mol
# GULP energy per Si atom -5586.636085 kJ/mol
# Density = 1.895904 g / cm^3
# Si number density = 19.002293 Si / 1000 Ang^3
#
#
#
# Elastic Constant Matrix: (Units=GPa)
#
#
# Indices 1 2 3 4 5 6 
#
# 1 18.7297 35.9526 33.5382 0.0000 0.0000 0.0000
# 2 35.9526 172.0031 126.6347 0.0000 0.0000 0.0000
# 3 33.5382 126.6347 224.0893 0.0000 0.0000 0.0000
# 4 0.0000 0.0000 0.0000 114.2167 0.0000 0.0000
# 5 0.0000 0.0000 0.0000 0.0000 36.6767 0.0000
# 6 0.0000 0.0000 0.0000 0.0000 0.0000 19.2348
#
#
#
# Elastic Compliance Matrix: (Units=1/GPa)
#
#
# Indices 1 2 3 4 5 6 
#
# 1 0.092311 -0.015624 -0.004987 0.000000 0.000000 0.000000
# 2 -0.015624 0.012600 -0.004782 0.000000 0.000000 0.000000
# 3 -0.004987 -0.004782 0.007911 0.000000 0.000000 0.000000
# 4 0.000000 0.000000 0.000000 0.008755 0.000000 0.000000
# 5 0.000000 0.000000 0.000000 0.000000 0.027265 0.000000
# 6 0.000000 0.000000 0.000000 0.000000 0.000000 0.051989
#
#
# Mechanical properties :
#
#
# Convention : Reuss Voigt Hill
#
# Bulk Modulus (GPa) = 16.11924 89.67478 52.89701
# Shear Modulus (GPa) = 18.36226 48.60539 33.48382
#
# Velocity S-wave (km/s) = 3.11194 5.06303 4.20228
# Velocity P-wave (km/s) = 4.62746 9.02624 7.17239
#
# Compressibility (1/GPa) = 0.06203765
#
# Stress axis : x y z
#
# Youngs Moduli (GPa) = 10.83291 79.36193 126.40099
#
# Poissons Ratio (x) = 1.23994 0.63030
# Poissons Ratio (y) = 0.16925 0.60449
# Poissons Ratio (z) = 0.05402 0.37953
#
# Static dielectric constant tensor:
#      x y z
#    x 1.652260 0.000000 0.000000 
#    y 0.000000 1.648770 0.000000 
#    z 0.000000 0.000000 1.622590 
# 
# From -- ./inp_files/2630.got.cif
#   From: 2010.05.17/outbox.cif.g08.bks.cpg/sg47_2_cif.got.tgz:2630.got - 2010.06.03 20:15:42.
