data_PCOD9387691
_publ_section_title
;
Structure prediction by ZEFSAII (Michael W. Deem and Ramdas Pophale) SiO2 
 PCOD9387691
Probable space group: P M M M
;
_chemical_formula_sum "Si O2"
_cell_formula_units_Z 48
_cell_length_a 8.599297
_cell_length_b 15.871542
_cell_length_c 18.317396
_cell_angle_alpha 90.000000
_cell_angle_beta 90.000000
_cell_angle_gamma 90.000000
_cell_volume 2500.033372
_symmetry_space_group_name_H-M "P M M M"
_symmetry_group_IT_number 47
_symmetry_cell_setting 'orthorhombic'
loop_
_space_group_symop_operation_xyz
x,y,z
-x,-y,z
x,-y,-z
-x,y,-z
-x,-y,-z
x,y,-z
-x,y,z
x,-y,z
loop_
_atom_site_type_symbol
_atom_site_label
_atom_site_fract_x
_atom_site_fract_y
_atom_site_fract_z
Si Si1 0.686728 0.500000 0.414831
Si Si2 0.188167 0.171373 0.085033
Si Si3 0.185270 0.665442 0.665129
Si Si4 0.687877 0.000000 0.669684
Si Si5 0.310552 0.500000 0.083920
Si Si6 0.311786 0.830826 0.414931
Si Si7 0.686798 0.332629 0.829204
Si Si8 0.187801 0.000000 0.166227
O O1 0.500000 0.500000 0.410794
O O2 0.732410 0.500000 0.500000
O O3 0.749456 0.583112 0.375318
O O4 0.258414 0.250281 0.127555
O O5 0.236512 0.084170 0.123387
O O6 0.000000 0.176211 0.088551
O O7 0.233234 0.172274 0.000000
O O8 0.243744 0.748839 0.623870
O O9 0.245275 0.666951 0.748056
O O10 0.000000 0.663115 0.664582
O O11 0.737168 0.084204 0.626854
O O12 0.749548 0.000000 0.751792
O O13 0.500000 0.000000 0.671398
O O14 0.500000 0.500000 0.082633
O O15 0.262206 0.416108 0.126786
O O16 0.257171 0.500000 0.000000
O O17 0.267226 0.834090 0.500000
O O18 0.500000 0.826104 0.411671
O O19 0.500000 0.333256 0.824607
O O20 0.000000 0.000000 0.168561
#
# Coordination Sequence:
#
# PCOD9387691 Si02
#       8
#     4   8   8   4   4   8   8   4
#     4  11  24  43  66  90 118 155 198 243 294 351
#     4  10  21  38  59  84 116 153 194 242 296 352
#     4  12  25  40  60  88 122 157 196 243 294 349
#     4  10  21  37  59  87 117 152 195 244 296 348
#     4   9  19  36  58  84 112 143 182 229 280 334
#     4  10  21  39  62  87 117 154 196 242 294 353
#     4  11  22  38  61  86 115 153 196 240 289 347
#     4  10  21  37  57  81 113 156 197 234 288 356
#
# _framework density 19.199743999999999
#
# number of rings (size 3 to 8) (size 9 to 14) (size 15 to 20)
#    0.000    1.500    0.000    5.250    0.000   10.667 
#    0.000    1.250    0.000    6.000    0.000    0.000 
#    0.000    0.000    0.000    0.000    0.000    0.000 
#
# Total GULP energy -268458.961683 kJ/mol
# GULP energy per Si atom -5592.895035 kJ/mol
# Density = 1.915604 g / cm^3
# Si number density = 19.199744 Si / 1000 Ang^3
#
#
#
# Elastic Constant Matrix: (Units=GPa)
#
#
# Indices 1 2 3 4 5 6 
#
# 1 39.9388 53.3599 56.7544 0.0000 0.0000 0.0000
# 2 53.3599 237.4746 143.4528 0.0000 0.0000 0.0000
# 3 56.7544 143.4528 235.0344 0.0000 0.0000 0.0000
# 4 0.0000 0.0000 0.0000 46.7446 0.0000 0.0000
# 5 0.0000 0.0000 0.0000 0.0000 36.6353 0.0000
# 6 0.0000 0.0000 0.0000 0.0000 0.0000 -5.5814
#
#
#
# Elastic Compliance Matrix: (Units=1/GPa)
#
#
# Indices 1 2 3 4 5 6 
#
# 1 0.041847 -0.005225 -0.006916 0.000000 0.000000 0.000000
# 2 -0.005225 0.007323 -0.003208 0.000000 0.000000 0.000000
# 3 -0.006916 -0.003208 0.007882 0.000000 0.000000 0.000000
# 4 0.000000 0.000000 0.000000 0.021393 0.000000 0.000000
# 5 0.000000 0.000000 0.000000 0.000000 0.027296 0.000000
# 6 0.000000 0.000000 0.000000 0.000000 0.000000 -0.179167
#
#
# Mechanical properties :
#
#
# Convention : Reuss Voigt Hill
#
# Bulk Modulus (GPa) = 37.94368 113.28687 75.61528
# Shear Modulus (GPa) = -147.30324 32.81842 -57.24241
#
# Velocity S-wave (km/s) = -8.76858 4.13887 -5.46616
# Velocity P-wave (km/s) = 9.09461 9.05388 0.60788
#
# Compressibility (1/GPa) = 0.02635485
#
# Stress axis : x y z
#
# Youngs Moduli (GPa) = 23.89667 136.56049 126.86459
#
# Poissons Ratio (x) = 0.71357 0.87735
# Poissons Ratio (y) = 0.12487 0.40694
# Poissons Ratio (z) = 0.16526 0.43804
#
# Static dielectric constant tensor:
#      x y z
#    x 1.656540 0.000000 0.000000 
#    y 0.000000 1.633630 0.000000 
#    z 0.000000 0.000000 1.630690 
# 
# From -- ./inp_files/26607.got.cif
#   From: 2010.05.17/outbox.cif.g08.bks.cpg/sg47_14_cif.got.tgz:26607.got - 2010.06.03 20:15:42.
