data_PCOD9387918
_publ_section_title
;
Structure prediction by ZEFSAII (Michael W. Deem and Ramdas Pophale) SiO2 
 PCOD9387918
Probable space group: P M M M
;
_chemical_formula_sum "Si O2"
_cell_formula_units_Z 25
_cell_length_a 7.820203
_cell_length_b 7.180197
_cell_length_c 21.900632
_cell_angle_alpha 90.000000
_cell_angle_beta 90.000000
_cell_angle_gamma 90.000000
_cell_volume 1229.733586
_symmetry_space_group_name_H-M "P M M M"
_symmetry_group_IT_number 47
_symmetry_cell_setting 'orthorhombic'
loop_
_space_group_symop_operation_xyz
x,y,z
-x,-y,z
x,-y,-z
-x,y,-z
-x,-y,-z
x,y,-z
-x,y,z
x,-y,z
loop_
_atom_site_type_symbol
_atom_site_label
_atom_site_fract_x
_atom_site_fract_y
_atom_site_fract_z
Si Si1 0.000000 0.274371 0.616056
Si Si2 0.306412 0.725610 0.293213
Si Si3 0.000000 0.000000 0.500000
Si Si4 0.806107 0.726545 0.842519
Si Si5 0.500000 0.273239 0.070051
O O1 0.166450 0.224045 0.656548
O O2 0.000000 0.162187 0.553737
O O3 0.000000 0.500000 0.607393
O O4 0.500000 0.786043 0.306404
O O5 0.307593 0.500000 0.291787
O O6 0.250156 0.784750 0.225420
O O7 0.805036 0.500000 0.842155
O O8 0.667502 0.784919 0.892326
O O9 0.000000 0.784680 0.855123
O O10 0.500000 0.500000 0.069914
O O11 0.500000 0.213358 0.000000
#
# Coordination Sequence:
#
# PCOD9387918 Si02
#       5
#     4   8   1   8   4
#     4  10  21  39  61  84 112 149 188 224 275 333
#     4   9  15  27  51  79 100 130 184 238 275 319
#     4  12  26  44  62  86 124 154 172 220 278 342
#     4   9  14  21  36  59  88 125 178 234 274 319
#     4   9  16  22  28  48  92 143 180 220 282 340
#
# _framework density 20.329606999999999
#
# number of rings (size 3 to 8) (size 9 to 14) (size 15 to 20)
#    0.000    2.720    3.200    0.240    0.000    0.640 
#    0.000    5.600    0.000    3.840    0.000    0.000 
#    0.000    0.000    0.000    4.320    0.000   10.560 
#
# Total GULP energy -139395.882708 kJ/mol
# GULP energy per Si atom -5575.835308 kJ/mol
# Density = 2.028334 g / cm^3
# Si number density = 20.329607 Si / 1000 Ang^3
#
#
#
# Elastic Constant Matrix: (Units=GPa)
#
#
# Indices 1 2 3 4 5 6 
#
# 1 239.7370 24.8530 141.3908 0.0000 0.0000 0.0000
# 2 24.8530 118.9025 36.9116 0.0000 0.0000 0.0000
# 3 141.3908 36.9116 241.4303 0.0000 0.0000 0.0000
# 4 0.0000 0.0000 0.0000 -103.9142 0.0000 0.0000
# 5 0.0000 0.0000 0.0000 0.0000 -1.8608 0.0000
# 6 0.0000 0.0000 0.0000 0.0000 0.0000 -23.7515
#
#
#
# Elastic Compliance Matrix: (Units=1/GPa)
#
#
# Indices 1 2 3 4 5 6 
#
# 1 0.006376 -0.000182 -0.003706 0.000000 0.000000 0.000000
# 2 -0.000182 0.008835 -0.001244 0.000000 0.000000 0.000000
# 3 -0.003706 -0.001244 0.006503 0.000000 0.000000 0.000000
# 4 0.000000 0.000000 0.000000 -0.009623 0.000000 0.000000
# 5 0.000000 0.000000 0.000000 0.000000 -0.537414 0.000000
# 6 0.000000 0.000000 0.000000 0.000000 0.000000 -0.042103
#
#
# Mechanical properties :
#
#
# Convention : Reuss Voigt Hill
#
# Bulk Modulus (GPa) = 87.34810 111.82008 99.58409
# Shear Modulus (GPa) = -9.03593 0.55566 -4.24013
#
# Velocity S-wave (km/s) = -2.11054 0.52337 -1.44576
# Velocity P-wave (km/s) = 6.09263 7.44904 6.80471
#
# Compressibility (1/GPa) = 0.01144845
#
# Stress axis : x y z
#
# Youngs Moduli (GPa) = 156.84071 113.19249 153.78432
#
# Poissons Ratio (x) = 0.02062 0.56994
# Poissons Ratio (y) = 0.02857 0.19131
# Poissons Ratio (z) = 0.58127 0.14081
#
# Static dielectric constant tensor:
#      x y z
#    x 1.696410 0.000000 0.000000 
#    y 0.000000 1.758290 0.000000 
#    z 0.000000 0.000000 1.642330 
# 
# From -- ./inp_files/25975.got.cif
#   From: 2010.05.17/outbox.cif.g08.bks.cpg/sg47_13_cif.got.tgz:25975.got - 2010.06.03 20:15:42.
