data_PCOD9387406
_publ_section_title
;
Structure prediction by ZEFSAII (Michael W. Deem and Ramdas Pophale) SiO2 
 PCOD9387406
Probable space group: P M M M
;
_chemical_formula_sum "Si O2"
_cell_formula_units_Z 48
_cell_length_a 8.548274
_cell_length_b 16.166013
_cell_length_c 17.405881
_cell_angle_alpha 90.000000
_cell_angle_beta 90.000000
_cell_angle_gamma 90.000000
_cell_volume 2405.344954
_symmetry_space_group_name_H-M "P M M M"
_symmetry_group_IT_number 47
_symmetry_cell_setting 'orthorhombic'
loop_
_space_group_symop_operation_xyz
x,y,z
-x,-y,z
x,-y,-z
-x,y,-z
-x,-y,-z
x,y,-z
-x,y,z
x,-y,z
loop_
_atom_site_type_symbol
_atom_site_label
_atom_site_fract_x
_atom_site_fract_y
_atom_site_fract_z
Si Si1 0.812454 0.661830 0.000000
Si Si2 0.824769 0.409675 0.408004
Si Si3 0.815604 0.753181 0.253202
Si Si4 0.320955 0.756913 0.587796
Si Si5 0.313605 0.849964 0.000000
Si Si6 0.688022 0.404669 0.836213
Si Si7 0.189403 0.909757 0.158481
O O1 0.749425 0.620182 0.921431
O O2 0.759060 0.757614 0.000000
O O3 0.000000 0.657818 0.000000
O O4 0.838640 0.416897 0.500000
O O5 0.789454 0.500000 0.376143
O O6 0.692770 0.341971 0.399161
O O7 0.000000 0.383768 0.380798
O O8 0.782309 0.783011 0.340367
O O9 0.745621 0.665637 0.224025
O O10 0.751929 0.828801 0.202681
O O11 0.000000 0.746246 0.240975
O O12 0.266762 0.773795 0.500000
O O13 0.500000 0.783938 0.594352
O O14 0.253703 0.898781 0.926371
O O15 0.500000 0.842549 0.000000
O O16 0.500000 0.402155 0.837228
O O17 0.736619 0.500000 0.819051
O O18 0.000000 0.906637 0.157657
O O19 0.234758 0.000000 0.190198
#
# Coordination Sequence:
#
# PCOD9387406 Si02
#       7
#     4   8   8   8   4   8   8
#     4  12  23  38  61  88 122 166 211 253 296 343
#     4   8  14  26  45  69  97 130 172 223 276 334
#     4  11  23  39  62  88 117 156 199 247 300 360
#     4  10  21  36  55  79 109 147 190 241 302 361
#     4  12  23  36  61  94 128 164 201 243 292 351
#     4  11  24  41  61  87 122 164 207 253 301 349
#     4  10  22  41  64  91 124 159 195 242 302 362
#
# _framework density 19.955558
#
# number of rings (size 3 to 8) (size 9 to 14) (size 15 to 20)
#    0.000    1.667    1.667    4.000    0.000    6.333 
#    0.000    1.667    0.000    0.500    0.000    3.500 
#    0.000    0.000    0.000    0.000    0.000    0.000 
#
# Total GULP energy -267619.574847 kJ/mol
# GULP energy per Si atom -5575.407809 kJ/mol
# Density = 1.991014 g / cm^3
# Si number density = 19.955558 Si / 1000 Ang^3
#
#
#
# Elastic Constant Matrix: (Units=GPa)
#
#
# Indices 1 2 3 4 5 6 
#
# 1 28.7271 19.7698 -0.0573 0.0000 0.0000 0.0000
# 2 19.7698 110.8413 34.5333 0.0000 0.0000 0.0000
# 3 -0.0573 34.5333 101.5176 0.0000 0.0000 0.0000
# 4 0.0000 0.0000 0.0000 -14.1142 0.0000 0.0000
# 5 0.0000 0.0000 0.0000 0.0000 26.7319 0.0000
# 6 0.0000 0.0000 0.0000 0.0000 0.0000 41.6559
#
#
#
# Elastic Compliance Matrix: (Units=1/GPa)
#
#
# Indices 1 2 3 4 5 6 
#
# 1 0.040363 -0.008061 0.002765 0.000000 0.000000 0.000000
# 2 -0.008061 0.011701 -0.003985 0.000000 0.000000 0.000000
# 3 0.002765 -0.003985 0.011208 0.000000 0.000000 0.000000
# 4 0.000000 0.000000 0.000000 -0.070851 0.000000 0.000000
# 5 0.000000 0.000000 0.000000 0.000000 0.037409 0.000000
# 6 0.000000 0.000000 0.000000 0.000000 0.000000 0.024006
#
#
# Mechanical properties :
#
#
# Convention : Reuss Voigt Hill
#
# Bulk Modulus (GPa) = 22.36620 38.84194 30.60407
# Shear Modulus (GPa) = 57.27313 23.31073 40.29193
#
# Velocity S-wave (km/s) = 5.36308 3.42150 4.49830
# Velocity P-wave (km/s) = 7.04149 5.92582 6.50761
#
# Compressibility (1/GPa) = 0.04471032
#
# Stress axis : x y z
#
# Youngs Moduli (GPa) = 24.77512 85.46175 89.22493
#
# Poissons Ratio (x) = 0.68887 -0.24669
# Poissons Ratio (y) = 0.19970 0.35556
# Poissons Ratio (z) = -0.06850 0.34056
#
# Static dielectric constant tensor:
#      x y z
#    x 1.700680 0.000000 0.000000 
#    y 0.000000 1.736180 0.000000 
#    z 0.000000 0.000000 1.736920 
# 
# From -- ./inp_files/26524.got.cif
#   From: 2010.05.17/outbox.cif.g08.bks.cpg/sg47_14_cif.got.tgz:26524.got - 2010.06.03 20:15:42.
