data_PCOD9387205
_publ_section_title
;
Structure prediction by ZEFSAII (Michael W. Deem and Ramdas Pophale) SiO2 
 PCOD9387205
Probable space group: P M M M
;
_chemical_formula_sum "Si O2"
_cell_formula_units_Z 48
_cell_length_a 14.414239
_cell_length_b 18.009156
_cell_length_c 9.963255
_cell_angle_alpha 90.000000
_cell_angle_beta 90.000000
_cell_angle_gamma 90.000000
_cell_volume 2586.344216
_symmetry_space_group_name_H-M "P M M M"
_symmetry_group_IT_number 47
_symmetry_cell_setting 'orthorhombic'
loop_
_space_group_symop_operation_xyz
x,y,z
-x,-y,z
x,-y,-z
-x,y,-z
-x,-y,-z
x,y,-z
-x,y,z
x,-y,z
loop_
_atom_site_type_symbol
_atom_site_label
_atom_site_fract_x
_atom_site_fract_y
_atom_site_fract_z
Si Si1 0.890232 0.276064 0.657561
Si Si2 0.389157 0.915530 0.500000
Si Si3 0.804923 0.847373 0.150744
Si Si4 0.393809 0.655773 0.840405
Si Si5 0.893597 0.000000 0.163180
Si Si6 0.606124 0.171644 0.227375
Si Si7 0.239527 0.414442 0.343905
O O1 0.877977 0.256490 0.500000
O O2 0.836884 0.218444 0.752368
O O3 0.844222 0.356790 0.677204
O O4 0.000000 0.275917 0.686497
O O5 0.500000 0.924403 0.500000
O O6 0.370531 0.865817 0.369796
O O7 0.349710 0.000000 0.500000
O O8 0.843992 0.924772 0.205719
O O9 0.693987 0.852638 0.141698
O O10 0.842164 0.834680 0.000000
O O11 0.500000 0.628545 0.828805
O O12 0.391764 0.738920 0.778621
O O13 0.321473 0.607049 0.757878
O O14 0.371838 0.660675 0.000000
O O15 0.000000 0.000000 0.205995
O O16 0.890741 0.000000 0.000000
O O17 0.500000 0.150166 0.188917
O O18 0.270206 0.405481 0.500000
O O19 0.212025 0.500000 0.325573
#
# Coordination Sequence:
#
# PCOD9387205 Si02
#       7
#     8   4   8   8   4   8   8
#     4  10  22  40  62  87 115 148 192 247 303 356
#     4   9  20  36  54  82 119 161 202 241 296 350
#     4  11  22  37  61  88 116 157 200 240 293 353
#     4  10  21  37  58  85 119 158 197 241 293 348
#     4   9  20  38  56  80 115 152 193 241 292 345
#     4  10  21  35  57  86 119 156 197 244 289 346
#     4  10  22  39  60  87 118 152 193 242 296 358
#
# _framework density 18.559016
#
# number of rings (size 3 to 8) (size 9 to 14) (size 15 to 20)
#    0.000    2.000    1.667    1.000    3.500    3.333 
#    0.000    3.750    0.000    3.000    0.000    2.333 
#    0.000    0.000    0.000    0.000    0.000    0.000 
#
# Total GULP energy -267602.017054 kJ/mol
# GULP energy per Si atom -5575.042022 kJ/mol
# Density = 1.851677 g / cm^3
# Si number density = 18.559016 Si / 1000 Ang^3
#
#
#
# Elastic Constant Matrix: (Units=GPa)
#
#
# Indices 1 2 3 4 5 6 
#
# 1 110.8924 55.8756 45.1381 0.0000 0.0000 0.0000
# 2 55.8756 123.9436 63.3362 0.0000 0.0000 0.0000
# 3 45.1381 63.3362 98.8848 0.0000 0.0000 0.0000
# 4 0.0000 0.0000 0.0000 11.9882 0.0000 0.0000
# 5 0.0000 0.0000 0.0000 0.0000 23.4788 0.0000
# 6 0.0000 0.0000 0.0000 0.0000 0.0000 2.4314
#
#
#
# Elastic Compliance Matrix: (Units=1/GPa)
#
#
# Indices 1 2 3 4 5 6 
#
# 1 0.012260 -0.003965 -0.003057 0.000000 0.000000 0.000000
# 2 -0.003965 0.013276 -0.006694 0.000000 0.000000 0.000000
# 3 -0.003057 -0.006694 0.015795 0.000000 0.000000 0.000000
# 4 0.000000 0.000000 0.000000 0.083415 0.000000 0.000000
# 5 0.000000 0.000000 0.000000 0.000000 0.042592 0.000000
# 6 0.000000 0.000000 0.000000 0.000000 0.000000 0.411281
#
#
# Mechanical properties :
#
#
# Convention : Reuss Voigt Hill
#
# Bulk Modulus (GPa) = 71.93773 73.60228 72.77001
# Shear Modulus (GPa) = 8.18755 18.87109 13.52932
#
# Velocity S-wave (km/s) = 2.10267 3.19221 2.70291
# Velocity P-wave (km/s) = 6.68885 7.30285 7.00258
#
# Compressibility (1/GPa) = 0.01390091
#
# Stress axis : x y z
#
# Youngs Moduli (GPa) = 81.56771 75.32357 63.30989
#
# Poissons Ratio (x) = 0.29865 0.19352
# Poissons Ratio (y) = 0.32341 0.42377
# Poissons Ratio (z) = 0.24933 0.50418
#
# Static dielectric constant tensor:
#      x y z
#    x 1.642060 0.000000 0.000000 
#    y 0.000000 1.626100 0.000000 
#    z 0.000000 0.000000 1.669290 
# 
# From -- ./inp_files/6467.got.cif
#   From: 2010.05.17/outbox.cif.g08.bks.cpg/sg47_4_cif.got.tgz:6467.got - 2010.06.03 20:15:42.
