data_PCOD9387313
_publ_section_title
;
Structure prediction by ZEFSAII (Michael W. Deem and Ramdas Pophale) SiO2 
 PCOD9387313
Probable space group: P M M M
;
_chemical_formula_sum "Si O2"
_cell_formula_units_Z 48
_cell_length_a 31.497336
_cell_length_b 9.793978
_cell_length_c 7.735172
_cell_angle_alpha 90.000000
_cell_angle_beta 90.000000
_cell_angle_gamma 90.000000
_cell_volume 2386.178469
_symmetry_space_group_name_H-M "P M M M"
_symmetry_group_IT_number 47
_symmetry_cell_setting 'orthorhombic'
loop_
_space_group_symop_operation_xyz
x,y,z
-x,-y,z
x,-y,-z
-x,y,-z
-x,-y,-z
x,y,-z
-x,y,z
x,-y,z
loop_
_atom_site_type_symbol
_atom_site_label
_atom_site_fract_x
_atom_site_fract_y
_atom_site_fract_z
Si Si1 0.000000 0.656766 0.787906
Si Si2 0.251323 0.653684 0.205740
Si Si3 0.673716 0.844832 0.207863
Si Si4 0.922835 0.155048 0.207866
Si Si5 0.500000 0.656986 0.287964
Si Si6 0.173788 0.845335 0.294323
Si Si7 0.577511 0.155657 0.707931
O O1 0.041690 0.739624 0.730613
O O2 0.000000 0.500000 0.731584
O O3 0.000000 0.656061 0.000000
O O4 0.248813 0.500000 0.276436
O O5 0.290750 0.741923 0.276207
O O6 0.208355 0.738847 0.230193
O O7 0.258011 0.642589 0.000000
O O8 0.625515 0.803090 0.247847
O O9 0.679924 0.000000 0.273798
O O10 0.677774 0.850386 0.000000
O O11 0.874565 0.193558 0.250877
O O12 0.930109 0.000000 0.272631
O O13 0.926248 0.150322 0.000000
O O14 0.500000 0.500000 0.231796
O O15 0.500000 0.656308 0.500000
O O16 0.541640 0.740239 0.230785
O O17 0.177574 0.851110 0.500000
O O18 0.181082 0.000000 0.225256
O O19 0.574294 0.150720 0.500000
O O20 0.570846 0.000000 0.772221
#
# Coordination Sequence:
#
# PCOD9387313 Si02
#       7
#     4   8   8   8   4   8   8
#     4   9  17  29  48  75 102 128 164 209 250 291
#     4  10  21  36  54  76 102 134 170 207 251 304
#     4   9  18  33  52  73  98 128 162 202 248 296
#     4   9  17  31  52  75  99 130 168 208 250 296
#     4   9  17  29  46  69  96 126 160 197 238 286
#     4  10  21  36  54  77 104 134 170 212 256 301
#     4   9  17  30  49  71  94 123 161 202 241 284
#
# _framework density 20.115845
#
# number of rings (size 3 to 8) (size 9 to 14) (size 15 to 20)
#    0.000    2.667    0.000    1.500    0.000    6.000 
#    0.000    4.167    0.000    5.000    0.000    0.000 
#    0.000    0.000    0.000    0.000    0.000    0.000 
#
# Total GULP energy -267908.017530 kJ/mol
# GULP energy per Si atom -5581.417032 kJ/mol
# Density = 2.007006 g / cm^3
# Si number density = 20.115845 Si / 1000 Ang^3
#
#
#
# Elastic Constant Matrix: (Units=GPa)
#
#
# Indices 1 2 3 4 5 6 
#
# 1 190.3099 155.9375 -1.7954 0.0000 0.0000 0.0000
# 2 155.9375 168.9295 7.2215 0.0000 0.0000 0.0000
# 3 -1.7954 7.2215 28.9363 0.0000 0.0000 0.0000
# 4 0.0000 0.0000 0.0000 7.6343 0.0000 0.0000
# 5 0.0000 0.0000 0.0000 0.0000 27.7878 0.0000
# 6 0.0000 0.0000 0.0000 0.0000 0.0000 4.6035
#
#
#
# Elastic Compliance Matrix: (Units=1/GPa)
#
#
# Indices 1 2 3 4 5 6 
#
# 1 0.022798 -0.021332 0.006738 0.000000 0.000000 0.000000
# 2 -0.021332 0.025945 -0.007798 0.000000 0.000000 0.000000
# 3 0.006738 -0.007798 0.036923 0.000000 0.000000 0.000000
# 4 0.000000 0.000000 0.000000 0.130988 0.000000 0.000000
# 5 0.000000 0.000000 0.000000 0.000000 0.035987 0.000000
# 6 0.000000 0.000000 0.000000 0.000000 0.000000 0.217227
#
#
# Mechanical properties :
#
#
# Convention : Reuss Voigt Hill
#
# Bulk Modulus (GPa) = 24.46170 78.98921 51.72545
# Shear Modulus (GPa) = 9.46471 23.12594 16.29533
#
# Velocity S-wave (km/s) = 2.17148 3.39431 2.84927
# Velocity P-wave (km/s) = 4.29813 7.39690 6.04930
#
# Compressibility (1/GPa) = 0.04088024
#
# Stress axis : x y z
#
# Youngs Moduli (GPa) = 43.86432 38.54354 27.08343
#
# Poissons Ratio (x) = 0.82222 -0.18250
# Poissons Ratio (y) = 0.93573 0.21121
# Poissons Ratio (z) = -0.29557 0.30058
#
# Static dielectric constant tensor:
#      x y z
#    x 1.676620 0.000000 0.000000 
#    y 0.000000 1.697540 0.000000 
#    z 0.000000 0.000000 1.741780 
# 
# From -- ./inp_files/2752.got.cif
#   From: 2010.05.17/outbox.cif.g08.bks.cpg/sg47_2_cif.got.tgz:2752.got - 2010.06.03 20:15:42.
