data_PCOD9387599
_publ_section_title
;
Structure prediction by ZEFSAII (Michael W. Deem and Ramdas Pophale) SiO2 
 PCOD9387599
Probable space group: P M M M
;
_chemical_formula_sum "Si O2"
_cell_formula_units_Z 44
_cell_length_a 27.271253
_cell_length_b 10.207252
_cell_length_c 7.813363
_cell_angle_alpha 90.000000
_cell_angle_beta 90.000000
_cell_angle_gamma 90.000000
_cell_volume 2174.963289
_symmetry_space_group_name_H-M "P M M M"
_symmetry_group_IT_number 47
_symmetry_cell_setting 'orthorhombic'
loop_
_space_group_symop_operation_xyz
x,y,z
-x,-y,z
x,-y,-z
-x,y,-z
-x,-y,-z
x,y,-z
-x,y,z
x,-y,z
loop_
_atom_site_type_symbol
_atom_site_label
_atom_site_fract_x
_atom_site_fract_y
_atom_site_fract_z
Si Si1 0.803713 0.352271 0.793682
Si Si2 0.381744 0.754803 0.703208
Si Si3 0.555741 0.000000 0.709716
Si Si4 0.916936 0.647882 0.294067
Si Si5 0.000000 0.848478 0.290251
Si Si6 0.443597 0.500000 0.204218
Si Si7 0.276365 0.149537 0.202997
O O1 0.791565 0.500000 0.731426
O O2 0.860404 0.326746 0.750857
O O3 0.767474 0.239908 0.726600
O O4 0.799296 0.354856 0.000000
O O5 0.376924 0.767632 0.500000
O O6 0.414980 0.873652 0.768670
O O7 0.411800 0.624554 0.741205
O O8 0.327328 0.773355 0.774172
O O9 0.500000 0.000000 0.767567
O O10 0.555123 0.000000 0.500000
O O11 0.921122 0.644240 0.500000
O O12 0.929568 0.500000 0.231865
O O13 0.953012 0.762622 0.234397
O O14 0.000000 0.851441 0.500000
O O15 0.000000 0.000000 0.233619
O O16 0.500000 0.500000 0.271434
O O17 0.446782 0.500000 0.000000
O O18 0.279609 0.000000 0.272364
O O19 0.268101 0.137283 0.000000
#
# Coordination Sequence:
#
# PCOD9387599 Si02
#       7
#     8   8   4   8   4   4   8
#     4   9  19  35  54  76 104 142 184 226 274 326
#     4  11  22  38  60  87 116 147 186 232 281 333
#     4   9  18  34  57  83 113 145 177 220 275 330
#     4   9  17  31  51  75 102 135 175 221 268 319
#     4   9  17  29  48  75 106 138 174 215 266 322
#     4  11  25  43  61  85 117 151 187 228 277 334
#     4  10  21  37  56  79 111 149 185 225 277 336
#
# _framework density 20.230225999999998
#
# number of rings (size 3 to 8) (size 9 to 14) (size 15 to 20)
#    0.000    2.273    0.909    1.636    1.273    4.000 
#    0.000    0.455    0.000    4.909    0.000    0.000 
#    0.000    0.000    0.000    0.000    0.000    0.000 
#
# Total GULP energy -245565.211529 kJ/mol
# GULP energy per Si atom -5581.027535 kJ/mol
# Density = 2.018418 g / cm^3
# Si number density = 20.230226 Si / 1000 Ang^3
#
#
#
# Elastic Constant Matrix: (Units=GPa)
#
#
# Indices 1 2 3 4 5 6 
#
# 1 155.4818 119.4551 -3.2453 0.0000 0.0000 0.0000
# 2 119.4551 196.4062 1.2295 0.0000 0.0000 0.0000
# 3 -3.2453 1.2295 23.5375 0.0000 0.0000 0.0000
# 4 0.0000 0.0000 0.0000 1.1403 0.0000 0.0000
# 5 0.0000 0.0000 0.0000 0.0000 20.1769 0.0000
# 6 0.0000 0.0000 0.0000 0.0000 0.0000 40.3157
#
#
#
# Elastic Compliance Matrix: (Units=1/GPa)
#
#
# Indices 1 2 3 4 5 6 
#
# 1 0.012173 -0.007416 0.002066 0.000000 0.000000 0.000000
# 2 -0.007416 0.009612 -0.001525 0.000000 0.000000 0.000000
# 3 0.002066 -0.001525 0.042850 0.000000 0.000000 0.000000
# 4 0.000000 0.000000 0.000000 0.876992 0.000000 0.000000
# 5 0.000000 0.000000 0.000000 0.000000 0.049562 0.000000
# 6 0.000000 0.000000 0.000000 0.000000 0.000000 0.024804
#
#
# Mechanical properties :
#
#
# Convention : Reuss Voigt Hill
#
# Bulk Modulus (GPa) = 19.65265 67.81156 43.73211
# Shear Modulus (GPa) = 4.77690 29.52563 17.15126
#
# Velocity S-wave (km/s) = 1.53831 3.82446 2.91487
# Velocity P-wave (km/s) = 3.59037 7.28661 5.74393
#
# Compressibility (1/GPa) = 0.05088373
#
# Stress axis : x y z
#
# Youngs Moduli (GPa) = 82.15103 104.03948 23.33727
#
# Poissons Ratio (x) = 0.77160 -0.04821
# Poissons Ratio (y) = 0.60927 0.03558
# Poissons Ratio (z) = -0.16970 0.15862
#
# Static dielectric constant tensor:
#      x y z
#    x 1.689290 0.000000 0.000000 
#    y 0.000000 1.722860 0.000000 
#    z 0.000000 0.000000 1.731350 
# 
# From -- ./inp_files/13708.got.cif
#   From: 2010.05.17/outbox.cif.g08.bks.cpg/sg47_7_cif.got.tgz:13708.got - 2010.06.03 20:15:42.
