data_PCOD9387545
_publ_section_title
;
Structure prediction by ZEFSAII (Michael W. Deem and Ramdas Pophale) SiO2 
 PCOD9387545
Probable space group: P M M M
;
_chemical_formula_sum "Si O2"
_cell_formula_units_Z 40
_cell_length_a 22.283270
_cell_length_b 11.176268
_cell_length_c 7.925286
_cell_angle_alpha 90.000000
_cell_angle_beta 90.000000
_cell_angle_gamma 90.000000
_cell_volume 1973.743321
_symmetry_space_group_name_H-M "P M M M"
_symmetry_group_IT_number 47
_symmetry_cell_setting 'orthorhombic'
loop_
_space_group_symop_operation_xyz
x,y,z
-x,-y,z
x,-y,-z
-x,y,-z
-x,-y,-z
x,y,-z
-x,y,z
x,-y,z
loop_
_atom_site_type_symbol
_atom_site_label
_atom_site_fract_x
_atom_site_fract_y
_atom_site_fract_z
Si Si1 0.292635 0.636121 0.802105
Si Si2 0.066982 0.500000 0.293948
Si Si3 0.500000 0.144023 0.308938
Si Si4 0.934953 0.857845 0.801716
Si Si5 0.160795 0.695412 0.695873
Si Si6 0.367202 0.137782 0.800560
O O1 0.301757 0.500000 0.732803
O O2 0.222466 0.669464 0.788250
O O3 0.328389 0.751243 0.728868
O O4 0.308898 0.629696 0.000000
O O5 0.064106 0.500000 0.500000
O O6 0.106979 0.388656 0.241327
O O7 0.000000 0.500000 0.228125
O O8 0.500000 0.190819 0.500000
O O9 0.562936 0.172965 0.221884
O O10 0.500000 0.000000 0.315733
O O11 0.872887 0.820371 0.715411
O O12 0.000000 0.810562 0.733706
O O13 0.938459 0.000000 0.790828
O O14 0.931759 0.826486 0.000000
O O15 0.172619 0.668958 0.500000
O O16 0.358482 0.000000 0.733059
O O17 0.353964 0.129924 0.000000
#
# Coordination Sequence:
#
# PCOD9387545 Si02
#       6
#     8   4   4   8   8   8
#     4  10  21  37  55  76 108 148 188 227 271 325
#     4   9  18  32  49  71  99 130 167 214 267 319
#     4   9  17  31  54  85 116 142 172 219 272 318
#     4   9  19  36  55  75 102 135 171 216 271 328
#     4  11  21  34  53  76 104 138 176 219 270 326
#     4   9  18  34  57  82 107 141 184 225 266 316
#
# _framework density 20.266058999999998
#
# number of rings (size 3 to 8) (size 9 to 14) (size 15 to 20)
#    0.000    2.400    1.000    2.100    0.000    4.400 
#    0.000    3.500    0.000    5.400    0.000    0.000 
#    0.000    0.000    0.000    0.000    0.000    0.000 
#
# Total GULP energy -222698.115837 kJ/mol
# GULP energy per Si atom -5567.452896 kJ/mol
# Density = 2.021993 g / cm^3
# Si number density = 20.266059 Si / 1000 Ang^3
#
#
#
# Elastic Constant Matrix: (Units=GPa)
#
#
# Indices 1 2 3 4 5 6 
#
# 1 125.6154 71.8174 -5.0406 0.0000 0.0000 0.0000
# 2 71.8174 115.9331 11.7995 0.0000 0.0000 0.0000
# 3 -5.0406 11.7995 15.5027 0.0000 0.0000 0.0000
# 4 0.0000 0.0000 0.0000 8.8194 0.0000 0.0000
# 5 0.0000 0.0000 0.0000 0.0000 -14.5242 0.0000
# 6 0.0000 0.0000 0.0000 0.0000 0.0000 99.8457
#
#
#
# Elastic Compliance Matrix: (Units=1/GPa)
#
#
# Indices 1 2 3 4 5 6 
#
# 1 0.014192 -0.010039 0.012255 0.000000 0.000000 0.000000
# 2 -0.010039 0.016451 -0.015785 0.000000 0.000000 0.000000
# 3 0.012255 -0.015785 0.080504 0.000000 0.000000 0.000000
# 4 0.000000 0.000000 0.000000 0.113387 0.000000 0.000000
# 5 0.000000 0.000000 0.000000 0.000000 -0.068850 0.000000
# 6 0.000000 0.000000 0.000000 0.000000 0.000000 0.010015
#
#
# Mechanical properties :
#
#
# Convention : Reuss Voigt Hill
#
# Bulk Modulus (GPa) = 11.90343 46.02264 28.96303
# Shear Modulus (GPa) = 22.64079 30.72650 26.68364
#
# Velocity S-wave (km/s) = 3.34605 3.89801 3.63253
# Velocity P-wave (km/s) = 4.56228 6.55880 5.64943
#
# Compressibility (1/GPa) = 0.08400939
#
# Stress axis : x y z
#
# Youngs Moduli (GPa) = 70.46195 60.78618 12.42170
#
# Poissons Ratio (x) = 0.61023 -0.15223
# Poissons Ratio (y) = 0.70736 0.19608
# Poissons Ratio (z) = -0.86353 0.95953
#
# Static dielectric constant tensor:
#      x y z
#    x 1.702830 0.000000 0.000000 
#    y 0.000000 2.038780 0.000000 
#    z 0.000000 0.000000 1.759080 
# 
# From -- ./inp_files/4044.got.cif
#   From: 2010.05.17/outbox.cif.g08.bks.cpg/sg47_3_cif.got.tgz:4044.got - 2010.06.03 20:15:42.
