data_PCOD9387949
_publ_section_title
;
Structure prediction by ZEFSAII (Michael W. Deem and Ramdas Pophale) SiO2 
 PCOD9387949
Probable space group: P M M M
;
_chemical_formula_sum "Si O2"
_cell_formula_units_Z 44
_cell_length_a 7.782320
_cell_length_b 8.927746
_cell_length_c 31.902372
_cell_angle_alpha 90.000000
_cell_angle_beta 90.000000
_cell_angle_gamma 90.000000
_cell_volume 2216.531386
_symmetry_space_group_name_H-M "P M M M"
_symmetry_group_IT_number 47
_symmetry_cell_setting 'orthorhombic'
loop_
_space_group_symop_operation_xyz
x,y,z
-x,-y,z
x,-y,-z
-x,y,-z
-x,-y,-z
x,y,-z
-x,y,z
x,-y,z
loop_
_atom_site_type_symbol
_atom_site_label
_atom_site_fract_x
_atom_site_fract_y
_atom_site_fract_z
Si Si1 0.709356 0.170223 0.691349
Si Si2 0.000000 0.179006 0.450708
Si Si3 0.298478 0.321093 0.396046
Si Si4 0.294621 0.671005 0.224743
Si Si5 0.203342 0.670921 0.134744
Si Si6 0.706305 0.674400 0.954899
O O1 0.500000 0.167992 0.693187
O O2 0.752374 0.267397 0.650651
O O3 0.771589 0.239346 0.735165
O O4 0.768431 0.000000 0.686018
O O5 0.168808 0.246065 0.428535
O O6 0.000000 0.214680 0.500000
O O7 0.000000 0.000000 0.445644
O O8 0.500000 0.279513 0.402759
O O9 0.285862 0.500000 0.398630
O O10 0.500000 0.662130 0.229207
O O11 0.226386 0.500000 0.225005
O O12 0.261018 0.739377 0.178821
O O13 0.278481 0.500000 0.134008
O O14 0.245539 0.743205 0.089869
O O15 0.000000 0.659675 0.136691
O O16 0.500000 0.671786 0.955881
O O17 0.766747 0.500000 0.953952
O O18 0.765246 0.738062 0.000000
#
# Coordination Sequence:
#
# PCOD9387949 Si02
#       6
#     8   4   8   8   8   8
#     4   9  17  31  53  79 106 137 176 223 274 329
#     4  11  25  43  63  91 127 165 205 247 294 349
#     4  10  21  39  64  92 122 158 201 249 299 350
#     4   9  16  27  44  64  89 124 163 202 248 306
#     4   9  16  24  34  52  80 113 150 193 241 294
#     4   8  13  21  33  49  71 103 144 188 236 293
#
# _framework density 19.850833999999999
#
# number of rings (size 3 to 8) (size 9 to 14) (size 15 to 20)
#    0.000    2.818    0.000    2.455    0.000    6.909 
#    1.636    3.636    0.000    0.000    0.000    0.000 
#    0.000    0.727    0.000    8.364    0.000   10.727 
#
# Total GULP energy -245185.145223 kJ/mol
# GULP energy per Si atom -5572.389664 kJ/mol
# Density = 1.980565 g / cm^3
# Si number density = 19.850834 Si / 1000 Ang^3
#
#
#
# Elastic Constant Matrix: (Units=GPa)
#
#
# Indices 1 2 3 4 5 6 
#
# 1 58.8238 24.3483 55.3777 0.0000 0.0000 0.0000
# 2 24.3483 42.9633 58.1587 0.0000 0.0000 0.0000
# 3 55.3777 58.1587 214.2860 0.0000 0.0000 0.0000
# 4 0.0000 0.0000 0.0000 -151.7443 0.0000 0.0000
# 5 0.0000 0.0000 0.0000 0.0000 70.1914 0.0000
# 6 0.0000 0.0000 0.0000 0.0000 0.0000 12.3549
#
#
#
# Elastic Compliance Matrix: (Units=1/GPa)
#
#
# Indices 1 2 3 4 5 6 
#
# 1 0.024203 -0.008298 -0.004003 0.000000 0.000000 0.000000
# 2 -0.008298 0.039639 -0.008614 0.000000 0.000000 0.000000
# 3 -0.004003 -0.008614 0.008039 0.000000 0.000000 0.000000
# 4 0.000000 0.000000 0.000000 -0.006590 0.000000 0.000000
# 5 0.000000 0.000000 0.000000 0.000000 0.014247 0.000000
# 6 0.000000 0.000000 0.000000 0.000000 0.000000 0.080940
#
#
# Mechanical properties :
#
#
# Convention : Reuss Voigt Hill
#
# Bulk Modulus (GPa) = 33.27618 65.76026 49.51822
# Shear Modulus (GPa) = 23.54908 -1.96038 10.79435
#
# Velocity S-wave (km/s) = 3.44801 -0.99484 2.33442
# Velocity P-wave (km/s) = 5.71412 5.64620 5.68026
#
# Compressibility (1/GPa) = 0.03005153
#
# Stress axis : x y z
#
# Youngs Moduli (GPa) = 41.31774 25.22792 124.39587
#
# Poissons Ratio (x) = 0.20934 0.49790
# Poissons Ratio (y) = 0.34286 1.07151
# Poissons Ratio (z) = 0.16537 0.21731
#
# Static dielectric constant tensor:
#      x y z
#    x 1.709960 0.000000 0.000000 
#    y 0.000000 1.681080 0.000000 
#    z 0.000000 0.000000 1.735910 
# 
# From -- ./inp_files/33943.got.cif
#   From: 2010.05.17/outbox.cif.g08.bks.cpg/sg47_17_cif.got.tgz:33943.got - 2010.06.03 20:15:42.
