data_PCOD9387814
_publ_section_title
;
Structure prediction by ZEFSAII (Michael W. Deem and Ramdas Pophale) SiO2 
 PCOD9387814
Probable space group: P M M M
;
_chemical_formula_sum "Si O2"
_cell_formula_units_Z 33
_cell_length_a 8.204775
_cell_length_b 7.999141
_cell_length_c 25.882117
_cell_angle_alpha 90.000000
_cell_angle_beta 90.000000
_cell_angle_gamma 90.000000
_cell_volume 1698.673157
_symmetry_space_group_name_H-M "P M M M"
_symmetry_group_IT_number 47
_symmetry_cell_setting 'orthorhombic'
loop_
_space_group_symop_operation_xyz
x,y,z
-x,-y,z
x,-y,-z
-x,y,-z
-x,-y,-z
x,y,-z
-x,y,z
x,-y,z
loop_
_atom_site_type_symbol
_atom_site_label
_atom_site_fract_x
_atom_site_fract_y
_atom_site_fract_z
Si Si1 0.000000 0.193132 0.192907
Si Si2 0.000000 0.204683 0.559648
Si Si3 0.683898 0.300242 0.742783
Si Si4 0.500000 0.500000 0.000000
Si Si5 0.317486 0.202243 0.623025
Si Si6 0.742704 0.812034 0.000000
Si Si7 0.000000 0.695313 0.921660
O O1 0.163667 0.229717 0.225571
O O2 0.000000 0.500000 0.063176
O O3 0.000000 0.294307 0.139781
O O4 0.835182 0.260048 0.588807
O O5 0.000000 0.256206 0.500000
O O6 0.000000 0.000000 0.560698
O O7 0.500000 0.241505 0.757916
O O8 0.686514 0.500000 0.748581
O O9 0.704430 0.256612 0.682355
O O10 0.634963 0.351355 0.000000
O O11 0.500000 0.257296 0.606334
O O12 0.316787 0.000000 0.621754
O O13 0.849603 0.788416 0.948337
O O14 0.676007 0.000000 0.000000
O O15 0.000000 0.000000 0.821412
#
# Coordination Sequence:
#
# PCOD9387814 Si02
#       7
#     4   4   8   1   8   4   4
#     4  12  24  38  60  89 120 159 197 240 299 355
#     4   9  17  28  44  71 102 132 173 224 277 335
#     4  10  21  38  58  83 112 148 192 239 289 349
#     4  12  22  42  64 102 128 166 206 264 316 360
#     4   9  17  30  50  73 100 136 177 226 279 333
#     4  11  22  42  68  94 126 165 213 258 307 370
#     4  11  21  43  66  87 121 164 208 252 303 361
#
# _framework density 19.426926000000002
#
# number of rings (size 3 to 8) (size 9 to 14) (size 15 to 20)
#    0.000    1.818    1.212    4.545    0.000    2.909 
#    2.182    2.424    0.000    1.455    0.000    3.394 
#    0.000    0.000    0.000    0.000    0.000    0.000 
#
# Total GULP energy -183821.407779 kJ/mol
# GULP energy per Si atom -5570.345690 kJ/mol
# Density = 1.938271 g / cm^3
# Si number density = 19.426926 Si / 1000 Ang^3
#
#
#
# Elastic Constant Matrix: (Units=GPa)
#
#
# Indices 1 2 3 4 5 6 
#
# 1 166.7708 36.4090 76.1687 0.0000 0.0000 0.0000
# 2 36.4090 97.1894 8.1110 0.0000 0.0000 0.0000
# 3 76.1687 8.1110 93.1354 0.0000 0.0000 0.0000
# 4 0.0000 0.0000 0.0000 -270.6497 0.0000 0.0000
# 5 0.0000 0.0000 0.0000 0.0000 32.7953 0.0000
# 6 0.0000 0.0000 0.0000 0.0000 0.0000 17.4945
#
#
#
# Elastic Compliance Matrix: (Units=1/GPa)
#
#
# Indices 1 2 3 4 5 6 
#
# 1 0.010494 -0.003239 -0.008301 0.000000 0.000000 0.000000
# 2 -0.003239 0.011364 0.001659 0.000000 0.000000 0.000000
# 3 -0.008301 0.001659 0.017381 0.000000 0.000000 0.000000
# 4 0.000000 0.000000 0.000000 -0.003695 0.000000 0.000000
# 5 0.000000 0.000000 0.000000 0.000000 0.030492 0.000000
# 6 0.000000 0.000000 0.000000 0.000000 0.000000 0.057161
#
#
# Mechanical properties :
#
#
# Convention : Reuss Voigt Hill
#
# Bulk Modulus (GPa) = 51.33748 66.49701 58.91725
# Shear Modulus (GPa) = 33.45582 -28.31150 2.57216
#
# Velocity S-wave (km/s) = 4.15437 -3.82164 1.15191
# Velocity P-wave (km/s) = 7.03527 3.85102 5.67121
#
# Compressibility (1/GPa) = 0.01947894
#
# Stress axis : x y z
#
# Youngs Moduli (GPa) = 95.28893 87.99715 57.53409
#
# Poissons Ratio (x) = 0.28499 0.47757
# Poissons Ratio (y) = 0.30861 -0.09545
# Poissons Ratio (z) = 0.79095 -0.14599
#
# Static dielectric constant tensor:
#      x y z
#    x 1.704460 0.000000 0.000000 
#    y 0.000000 1.672040 0.000000 
#    z 0.000000 0.000000 1.634130 
# 
# From -- ./inp_files/29177.got.cif
#   From: 2010.05.17/outbox.cif.g08.bks.cpg/sg47_15_cif.got.tgz:29177.got - 2010.06.03 20:15:42.
