data_PCOD9387786
_publ_section_title
;
Structure prediction by ZEFSAII (Michael W. Deem and Ramdas Pophale) SiO2 
 PCOD9387786
Probable space group: P M M M
;
_chemical_formula_sum "Si O2"
_cell_formula_units_Z 48
_cell_length_a 14.114351
_cell_length_b 19.416633
_cell_length_c 9.660928
_cell_angle_alpha 90.000000
_cell_angle_beta 90.000000
_cell_angle_gamma 90.000000
_cell_volume 2647.607976
_symmetry_space_group_name_H-M "P M M M"
_symmetry_group_IT_number 47
_symmetry_cell_setting 'orthorhombic'
loop_
_space_group_symop_operation_xyz
x,y,z
-x,-y,z
x,-y,-z
-x,y,-z
-x,-y,-z
x,y,-z
-x,y,z
x,-y,z
loop_
_atom_site_type_symbol
_atom_site_label
_atom_site_fract_x
_atom_site_fract_y
_atom_site_fract_z
Si Si1 0.298622 0.660834 0.248867
Si Si2 0.109688 0.133972 0.835422
Si Si3 0.387047 0.579520 0.500000
Si Si4 0.389022 0.417925 0.000000
Si Si5 0.613003 0.193035 0.836905
Si Si6 0.721139 0.920984 0.336398
Si Si7 0.891076 0.276188 0.336252
O O1 0.350420 0.623960 0.373730
O O2 0.339133 0.736568 0.214908
O O3 0.188198 0.671038 0.283744
O O4 0.329822 0.611958 0.125731
O O5 0.180831 0.086811 0.748482
O O6 0.117463 0.208308 0.759796
O O7 0.000000 0.111997 0.824330
O O8 0.132623 0.137921 0.000000
O O9 0.352813 0.500000 0.500000
O O10 0.500000 0.576791 0.500000
O O11 0.391985 0.500000 0.000000
O O12 0.500000 0.393610 0.000000
O O13 0.500000 0.198918 0.825668
O O14 0.651410 0.131463 0.741584
O O15 0.636259 0.182431 0.000000
O O16 0.732500 0.903847 0.500000
O O17 0.688359 0.000000 0.327754
O O18 0.873750 0.260240 0.500000
O O19 0.000000 0.300328 0.324963
#
# Coordination Sequence:
#
# PCOD9387786 Si02
#       7
#     8   8   4   4   8   8   8
#     4  12  22  39  64  94 125 163 208 254 308 364
#     4  10  21  37  60  90 121 156 202 255 310 365
#     4  11  24  40  61  93 130 164 204 253 307 369
#     4  11  24  42  65  93 130 170 202 245 311 375
#     4  11  24  41  63  91 121 159 208 257 308 368
#     4  11  25  42  60  86 123 164 204 253 311 367
#     4  10  21  38  61  92 126 162 206 257 312 366
#
# _framework density 18.129572
#
# number of rings (size 3 to 8) (size 9 to 14) (size 15 to 20)
#    0.000    1.167    3.333    3.000    2.333    4.667 
#    0.000    3.333    0.000    3.000    0.000    0.000 
#    0.000    0.000    0.000    0.000    0.000    0.000 
#
# Total GULP energy -267895.341816 kJ/mol
# GULP energy per Si atom -5581.152955 kJ/mol
# Density = 1.808831 g / cm^3
# Si number density = 18.129572 Si / 1000 Ang^3
#
#
#
# Elastic Constant Matrix: (Units=GPa)
#
#
# Indices 1 2 3 4 5 6 
#
# 1 104.2129 53.2692 55.3770 0.0000 0.0000 0.0000
# 2 53.2692 92.0605 59.3169 0.0000 0.0000 0.0000
# 3 55.3770 59.3169 177.6590 0.0000 0.0000 0.0000
# 4 0.0000 0.0000 0.0000 36.3521 0.0000 0.0000
# 5 0.0000 0.0000 0.0000 0.0000 23.7149 0.0000
# 6 0.0000 0.0000 0.0000 0.0000 0.0000 25.6976
#
#
#
# Elastic Compliance Matrix: (Units=1/GPa)
#
#
# Indices 1 2 3 4 5 6 
#
# 1 0.014243 -0.006856 -0.002151 0.000000 0.000000 0.000000
# 2 -0.006856 0.017140 -0.003586 0.000000 0.000000 0.000000
# 3 -0.002151 -0.003586 0.007496 0.000000 0.000000 0.000000
# 4 0.000000 0.000000 0.000000 0.027509 0.000000 0.000000
# 5 0.000000 0.000000 0.000000 0.000000 0.042168 0.000000
# 6 0.000000 0.000000 0.000000 0.000000 0.000000 0.038914
#
#
# Mechanical properties :
#
#
# Convention : Reuss Voigt Hill
#
# Bulk Modulus (GPa) = 73.01958 78.87317 75.94637
# Shear Modulus (GPa) = 28.21383 30.88422 29.54903
#
# Velocity S-wave (km/s) = 3.94919 4.13186 4.04156
# Velocity P-wave (km/s) = 7.82041 8.14633 7.98503
#
# Compressibility (1/GPa) = 0.01369496
#
# Stress axis : x y z
#
# Youngs Moduli (GPa) = 70.21055 58.34410 133.39957
#
# Poissons Ratio (x) = 0.39999 0.28688
# Poissons Ratio (y) = 0.48134 0.47832
# Poissons Ratio (z) = 0.15099 0.20920
#
# Static dielectric constant tensor:
#      x y z
#    x 1.629000 0.000000 0.000000 
#    y 0.000000 1.595570 0.000000 
#    z 0.000000 0.000000 1.596950 
# 
# From -- ./inp_files/6458.got.cif
#   From: 2010.05.17/outbox.cif.g08.bks.cpg/sg47_4_cif.got.tgz:6458.got - 2010.06.03 20:15:42.
