data_PCOD9387816
_publ_section_title
;
Structure prediction by ZEFSAII (Michael W. Deem and Ramdas Pophale) SiO2 
 PCOD9387816
Probable space group: P M M M
;
_chemical_formula_sum "Si O2"
_cell_formula_units_Z 56
_cell_length_a 9.220524
_cell_length_b 14.238596
_cell_length_c 21.816451
_cell_angle_alpha 90.000000
_cell_angle_beta 90.000000
_cell_angle_gamma 90.000000
_cell_volume 2864.223300
_symmetry_space_group_name_H-M "P M M M"
_symmetry_group_IT_number 47
_symmetry_cell_setting 'orthorhombic'
loop_
_space_group_symop_operation_xyz
x,y,z
-x,-y,z
x,-y,-z
-x,y,-z
-x,-y,-z
x,y,-z
-x,y,z
x,-y,z
loop_
_atom_site_type_symbol
_atom_site_label
_atom_site_fract_x
_atom_site_fract_y
_atom_site_fract_z
Si Si1 0.172059 0.791747 0.821269
Si Si2 0.158967 0.612877 0.679429
Si Si3 0.660621 0.614160 0.430067
Si Si4 0.329428 0.609382 0.199977
Si Si5 0.673881 0.886872 0.295439
Si Si6 0.672258 0.113410 0.567034
Si Si7 0.666113 0.112845 0.930509
O O1 0.232999 0.686818 0.833108
O O2 0.243951 0.833909 0.759222
O O3 0.227116 0.851621 0.878732
O O4 0.000000 0.792739 0.815994
O O5 0.146156 0.500000 0.674626
O O6 0.214453 0.647862 0.614336
O O7 0.283186 0.626008 0.729432
O O8 0.000000 0.649347 0.697342
O O9 0.678092 0.643052 0.500000
O O10 0.500000 0.642708 0.408636
O O11 0.661711 0.500000 0.429581
O O12 0.500000 0.624786 0.191321
O O13 0.296909 0.500000 0.185736
O O14 0.500000 0.869899 0.290551
O O15 0.723282 0.858295 0.364584
O O16 0.694630 0.000000 0.289169
O O17 0.731773 0.144749 0.500000
O O18 0.500000 0.134768 0.566189
O O19 0.684589 0.000000 0.567190
O O20 0.500000 0.142942 0.916638
O O21 0.666530 0.000000 0.930341
O O22 0.701541 0.143596 0.000000
#
# Coordination Sequence:
#
# PCOD9387816 Si02
#       7
#     8   8   8   8   8   8   8
#     4  12  24  35  53  83 119 154 186 228 281 335
#     4   9  16  26  42  65  92 119 151 201 268 333
#     4   8  13  21  34  54  81 114 154 199 248 311
#     4  10  21  38  59  78  98 132 181 234 283 332
#     4   9  17  30  50  77 111 150 190 233 279 331
#     4   7  10  19  39  68  99 133 178 230 279 324
#     4   9  19  38  64  92 123 160 198 231 263 308
#
# _framework density 19.551548
#
# number of rings (size 3 to 8) (size 9 to 14) (size 15 to 20)
#    0.000    2.857    0.000    4.714    0.000    5.429 
#    0.000    2.143    0.000    1.714    0.000    7.000 
#    0.000    0.000    0.000    0.000    0.000    0.000 
#
# Total GULP energy -312178.638595 kJ/mol
# GULP energy per Si atom -5574.618546 kJ/mol
# Density = 1.950705 g / cm^3
# Si number density = 19.551548 Si / 1000 Ang^3
#
#
#
# Elastic Constant Matrix: (Units=GPa)
#
#
# Indices 1 2 3 4 5 6 
#
# 1 82.0673 45.3109 52.9268 0.0000 0.0000 0.0000
# 2 45.3109 82.6508 37.3136 0.0000 0.0000 0.0000
# 3 52.9268 37.3136 99.1256 0.0000 0.0000 0.0000
# 4 0.0000 0.0000 0.0000 -21.0276 0.0000 0.0000
# 5 0.0000 0.0000 0.0000 0.0000 -7.6546 0.0000
# 6 0.0000 0.0000 0.0000 0.0000 0.0000 10.3361
#
#
#
# Elastic Compliance Matrix: (Units=1/GPa)
#
#
# Indices 1 2 3 4 5 6 
#
# 1 0.022516 -0.008332 -0.008886 0.000000 0.000000 0.000000
# 2 -0.008332 0.017660 -0.002199 0.000000 0.000000 0.000000
# 3 -0.008886 -0.002199 0.015660 0.000000 0.000000 0.000000
# 4 0.000000 0.000000 0.000000 -0.047557 0.000000 0.000000
# 5 0.000000 0.000000 0.000000 0.000000 -0.130641 0.000000
# 6 0.000000 0.000000 0.000000 0.000000 0.000000 0.096748
#
#
# Mechanical properties :
#
#
# Convention : Reuss Voigt Hill
#
# Bulk Modulus (GPa) = 58.81402 59.43846 59.12624
# Shear Modulus (GPa) = 264.72793 4.88361 134.80577
#
# Velocity S-wave (km/s) = 11.64877 1.58216 8.31256
# Velocity P-wave (km/s) = 14.52832 5.81417 11.06518
#
# Compressibility (1/GPa) = 0.01700275
#
# Stress axis : x y z
#
# Youngs Moduli (GPa) = 44.41277 56.62631 63.85603
#
# Poissons Ratio (x) = 0.47182 0.56740
# Poissons Ratio (y) = 0.37006 0.14040
# Poissons Ratio (z) = 0.39464 0.12450
#
# Static dielectric constant tensor:
#      x y z
#    x 1.689150 0.000000 0.000000 
#    y 0.000000 1.752890 0.000000 
#    z 0.000000 0.000000 1.705910 
# 
# From -- ./inp_files/21577.got.cif
#   From: 2010.05.17/outbox.cif.g08.bks.cpg/sg47_11_cif.got.tgz:21577.got - 2010.06.03 20:15:42.
