data_PCOD9387746
_publ_section_title
;
Structure prediction by ZEFSAII (Michael W. Deem and Ramdas Pophale) SiO2 
 PCOD9387746
Probable space group: P M M M
;
_chemical_formula_sum "Si O2"
_cell_formula_units_Z 48
_cell_length_a 9.485420
_cell_length_b 15.499829
_cell_length_c 17.146308
_cell_angle_alpha 90.000000
_cell_angle_beta 90.000000
_cell_angle_gamma 90.000000
_cell_volume 2520.891147
_symmetry_space_group_name_H-M "P M M M"
_symmetry_group_IT_number 47
_symmetry_cell_setting 'orthorhombic'
loop_
_space_group_symop_operation_xyz
x,y,z
-x,-y,z
x,-y,-z
-x,y,-z
-x,-y,-z
x,y,-z
-x,y,z
x,-y,z
loop_
_atom_site_type_symbol
_atom_site_label
_atom_site_fract_x
_atom_site_fract_y
_atom_site_fract_z
Si Si1 0.333049 0.176085 0.825678
Si Si2 0.660320 0.902133 0.406630
Si Si3 0.328454 0.000000 0.090662
Si Si4 0.667202 0.601695 0.593268
Si Si5 0.347204 0.651677 0.092323
Si Si6 0.169304 0.243521 0.325293
Si Si7 0.843423 0.500000 0.095864
O O1 0.500000 0.169720 0.803965
O O2 0.322082 0.248841 0.891894
O O3 0.239386 0.213587 0.756111
O O4 0.286731 0.085058 0.861318
O O5 0.658489 0.905342 0.500000
O O6 0.500000 0.877707 0.381752
O O7 0.775130 0.833393 0.380961
O O8 0.687062 0.000000 0.377461
O O9 0.500000 0.000000 0.087996
O O10 0.281021 0.000000 0.000000
O O11 0.690261 0.615678 0.500000
O O12 0.500000 0.617415 0.607865
O O13 0.695013 0.500000 0.609055
O O14 0.761093 0.667966 0.642752
O O15 0.500000 0.629208 0.126221
O O16 0.233993 0.585641 0.123588
O O17 0.352697 0.637983 0.000000
O O18 0.000000 0.248949 0.321945
O O19 0.000000 0.500000 0.124383
O O20 0.845443 0.500000 0.000000
#
# Coordination Sequence:
#
# PCOD9387746 Si02
#       7
#     8   8   4   8   8   8   4
#     4  10  21  37  58  84 113 150 190 236 295 349
#     4   9  19  37  61  85 109 145 194 241 283 333
#     4   9  18  36  65  95 114 137 190 257 305 346
#     4   9  19  39  67  93 116 150 200 252 296 345
#     4   9  17  32  55  81 107 137 181 234 282 332
#     4  12  25  37  53  83 124 161 192 233 287 348
#     4   9  17  29  49  77 107 139 172 211 266 333
#
# _framework density 19.040886
#
# number of rings (size 3 to 8) (size 9 to 14) (size 15 to 20)
#    0.000    2.333    0.000    3.750    1.167    7.000 
#    1.500    1.667    0.000    2.000    0.000    0.000 
#    0.000    0.000    0.000    0.000    0.000    0.000 
#
# Total GULP energy -267625.866789 kJ/mol
# GULP energy per Si atom -5575.538891 kJ/mol
# Density = 1.899755 g / cm^3
# Si number density = 19.040886 Si / 1000 Ang^3
#
#
#
# Elastic Constant Matrix: (Units=GPa)
#
#
# Indices 1 2 3 4 5 6 
#
# 1 126.0738 97.6224 42.4238 0.0000 0.0000 0.0000
# 2 97.6224 149.9182 42.3259 0.0000 0.0000 0.0000
# 3 42.4238 42.3259 51.4270 0.0000 0.0000 0.0000
# 4 0.0000 0.0000 0.0000 29.4202 0.0000 0.0000
# 5 0.0000 0.0000 0.0000 0.0000 7.9046 0.0000
# 6 0.0000 0.0000 0.0000 0.0000 0.0000 87.5875
#
#
#
# Elastic Compliance Matrix: (Units=1/GPa)
#
#
# Indices 1 2 3 4 5 6 
#
# 1 0.017572 -0.009575 -0.006615 0.000000 0.000000 0.000000
# 2 -0.009575 0.013906 -0.003547 0.000000 0.000000 0.000000
# 3 -0.006615 -0.003547 0.027822 0.000000 0.000000 0.000000
# 4 0.000000 0.000000 0.000000 0.033990 0.000000 0.000000
# 5 0.000000 0.000000 0.000000 0.000000 0.126509 0.000000
# 6 0.000000 0.000000 0.000000 0.000000 0.000000 0.011417
#
#
# Mechanical properties :
#
#
# Convention : Reuss Voigt Hill
#
# Bulk Modulus (GPa) = 50.43921 76.90703 63.67312
# Shear Modulus (GPa) = 18.03109 34.65226 26.34167
#
# Velocity S-wave (km/s) = 3.08062 4.27064 3.72348
# Velocity P-wave (km/s) = 6.26108 8.04960 7.21100
#
# Compressibility (1/GPa) = 0.01982584
#
# Stress axis : x y z
#
# Youngs Moduli (GPa) = 56.90950 71.90949 35.94331
#
# Poissons Ratio (x) = 0.68850 0.23778
# Poissons Ratio (y) = 0.54488 0.12749
# Poissons Ratio (z) = 0.37648 0.25506
#
# Static dielectric constant tensor:
#      x y z
#    x 1.644200 0.000000 0.000000 
#    y 0.000000 1.669650 0.000000 
#    z 0.000000 0.000000 1.611660 
# 
# From -- ./inp_files/6433.got.cif
#   From: 2010.05.17/outbox.cif.g08.bks.cpg/sg47_4_cif.got.tgz:6433.got - 2010.06.03 20:15:42.
