data_PCOD9387413
_publ_section_title
;
Structure prediction by ZEFSAII (Michael W. Deem and Ramdas Pophale) SiO2 
 PCOD9387413
Probable space group: P M M M
;
_chemical_formula_sum "Si O2"
_cell_formula_units_Z 64
_cell_length_a 14.528921
_cell_length_b 8.875423
_cell_length_c 26.934831
_cell_angle_alpha 90.000000
_cell_angle_beta 90.000000
_cell_angle_gamma 90.000000
_cell_volume 3473.255066
_symmetry_space_group_name_H-M "P M M M"
_symmetry_group_IT_number 47
_symmetry_cell_setting 'orthorhombic'
loop_
_space_group_symop_operation_xyz
x,y,z
-x,-y,z
x,-y,-z
-x,y,-z
-x,-y,-z
x,y,-z
-x,y,z
x,-y,z
loop_
_atom_site_type_symbol
_atom_site_label
_atom_site_fract_x
_atom_site_fract_y
_atom_site_fract_z
Si Si1 0.891141 0.180881 0.853062
Si Si2 0.787543 0.680275 0.351632
Si Si3 0.604420 0.683519 0.695790
Si Si4 0.892673 0.181416 0.443664
Si Si5 0.388434 0.328229 0.194384
Si Si6 0.784883 0.679488 0.054317
Si Si7 0.392753 0.821732 0.908388
Si Si8 0.889084 0.820979 0.742346
O O1 0.838436 0.251114 0.899233
O O2 0.859947 0.230879 0.797789
O O3 0.000000 0.214364 0.857014
O O4 0.880702 0.000000 0.854493
O O5 0.791254 0.500000 0.353618
O O6 0.681429 0.728109 0.343383
O O7 0.831604 0.747563 0.400951
O O8 0.842569 0.735807 0.303081
O O9 0.500000 0.736028 0.686874
O O10 0.601436 0.500000 0.697521
O O11 0.637641 0.728837 0.751068
O O12 0.867218 0.226020 0.500000
O O13 0.000000 0.222350 0.435933
O O14 0.887224 0.000000 0.440791
O O15 0.500000 0.337080 0.196586
O O16 0.354620 0.500000 0.185984
O O17 0.367205 0.222175 0.148297
O O18 0.789186 0.500000 0.057551
O O19 0.679426 0.733127 0.058512
O O20 0.821541 0.726499 0.000000
O O21 0.500000 0.780687 0.916358
O O22 0.383484 0.000000 0.915775
O O23 0.000000 0.803961 0.739732
O O24 0.869852 0.000000 0.738114
#
# Coordination Sequence:
#
# PCOD9387413 Si02
#       8
#     8   8   8   8   8   8   8   8
#     4   9  20  40  63  84 107 139 178 220 269 324
#     4  11  21  30  50  85 115 142 181 227 270 311
#     4   8  16  31  48  70 106 148 183 215 257 312
#     4   9  19  37  58  77 103 145 190 226 269 329
#     4   8  14  28  50  72  97 134 176 213 254 310
#     4  11  25  41  57  79 106 138 178 223 271 329
#     4  10  21  36  55  80 108 137 173 221 273 323
#     4   9  19  36  55  77 110 147 176 206 256 324
#
# _framework density 18.426518000000002
#
# number of rings (size 3 to 8) (size 9 to 14) (size 15 to 20)
#    0.000    2.625    0.000    3.375    1.750    5.250 
#    0.000    5.000    0.000    2.625    0.000    2.625 
#    0.000    0.000    0.000    0.000    0.000    0.000 
#
# Total GULP energy -357092.778665 kJ/mol
# GULP energy per Si atom -5579.574667 kJ/mol
# Density = 1.838458 g / cm^3
# Si number density = 18.426518 Si / 1000 Ang^3
#
#
#
# Elastic Constant Matrix: (Units=GPa)
#
#
# Indices 1 2 3 4 5 6 
#
# 1 71.5626 20.8980 71.3228 0.0000 0.0000 0.0000
# 2 20.8980 17.1219 30.6728 0.0000 0.0000 0.0000
# 3 71.3228 30.6728 145.2696 0.0000 0.0000 0.0000
# 4 0.0000 0.0000 0.0000 30.5805 0.0000 0.0000
# 5 0.0000 0.0000 0.0000 0.0000 27.6746 0.0000
# 6 0.0000 0.0000 0.0000 0.0000 0.0000 21.0016
#
#
#
# Elastic Compliance Matrix: (Units=1/GPa)
#
#
# Indices 1 2 3 4 5 6 
#
# 1 0.029991 -0.016449 -0.011252 0.000000 0.000000 0.000000
# 2 -0.016449 0.102957 -0.013663 0.000000 0.000000 0.000000
# 3 -0.011252 -0.013663 0.015293 0.000000 0.000000 0.000000
# 4 0.000000 0.000000 0.000000 0.032701 0.000000 0.000000
# 5 0.000000 0.000000 0.000000 0.000000 0.036134 0.000000
# 6 0.000000 0.000000 0.000000 0.000000 0.000000 0.047615
#
#
# Mechanical properties :
#
#
# Convention : Reuss Voigt Hill
#
# Bulk Modulus (GPa) = 15.26380 53.30457 34.28419
# Shear Modulus (GPa) = 13.54073 23.25539 18.39806
#
# Velocity S-wave (km/s) = 2.71375 3.55640 3.16326
# Velocity P-wave (km/s) = 4.25686 6.77163 5.65579
#
# Compressibility (1/GPa) = 0.06551448
#
# Stress axis : x y z
#
# Youngs Moduli (GPa) = 33.34318 9.71276 65.39020
#
# Poissons Ratio (x) = 0.15976 0.73575
# Poissons Ratio (y) = 0.54845 0.89343
# Poissons Ratio (z) = 0.37517 0.13271
#
# Static dielectric constant tensor:
#      x y z
#    x 1.658430 0.000000 0.000000 
#    y 0.000000 1.614890 0.000000 
#    z 0.000000 0.000000 1.638270 
# 
# From -- ./inp_files/21889.got.cif
#   From: 2010.05.17/outbox.cif.g08.bks.cpg/sg47_11_cif.got.tgz:21889.got - 2010.06.03 20:15:42.
