data_PCOD9387679
_publ_section_title
;
Structure prediction by ZEFSAII (Michael W. Deem and Ramdas Pophale) SiO2 
 PCOD9387679
Probable space group: P M M M
;
_chemical_formula_sum "Si O2"
_cell_formula_units_Z 48
_cell_length_a 9.278043
_cell_length_b 31.816075
_cell_length_c 8.672695
_cell_angle_alpha 90.000000
_cell_angle_beta 90.000000
_cell_angle_gamma 90.000000
_cell_volume 2560.100746
_symmetry_space_group_name_H-M "P M M M"
_symmetry_group_IT_number 47
_symmetry_cell_setting 'orthorhombic'
loop_
_space_group_symop_operation_xyz
x,y,z
-x,-y,z
x,-y,-z
-x,y,-z
-x,-y,-z
x,y,-z
-x,y,z
x,-y,z
loop_
_atom_site_type_symbol
_atom_site_label
_atom_site_fract_x
_atom_site_fract_y
_atom_site_fract_z
Si Si1 0.668122 0.000000 0.814867
Si Si2 0.167020 0.500000 0.184796
Si Si3 0.667191 0.580584 0.686611
Si Si4 0.167398 0.664361 0.685731
Si Si5 0.667761 0.161851 0.813356
Si Si6 0.167399 0.754151 0.185690
Si Si7 0.832005 0.918930 0.684981
O O1 0.747850 0.041188 0.752282
O O2 0.500000 0.000000 0.768097
O O3 0.673776 0.000000 0.000000
O O4 0.246085 0.541309 0.247347
O O5 0.000000 0.500000 0.234137
O O6 0.172277 0.500000 0.000000
O O7 0.674197 0.578792 0.500000
O O8 0.500000 0.578541 0.732016
O O9 0.738868 0.624575 0.736096
O O10 0.171508 0.666097 0.500000
O O11 0.216768 0.709266 0.749907
O O12 0.000000 0.658422 0.732731
O O13 0.500000 0.159250 0.769511
O O14 0.737358 0.206246 0.765103
O O15 0.757094 0.123421 0.744246
O O16 0.676012 0.159480 0.000000
O O17 0.000000 0.760315 0.233155
O O18 0.170739 0.752302 0.000000
O O19 0.825653 0.920440 0.500000
O O20 0.000000 0.920030 0.731843
#
# Coordination Sequence:
#
# PCOD9387679 Si02
#       7
#     4   4   8   8   8   8   8
#     4  11  24  41  62  88 116 147 184 225 272 328
#     4  11  24  39  56  80 108 139 178 223 270 322
#     4  10  21  37  57  81 109 142 180 221 268 324
#     4   9  18  33  53  77 106 141 181 223 266 316
#     4  10  21  37  57  82 112 147 188 230 274 328
#     4   9  18  33  53  77 107 144 184 226 271 319
#     4  11  24  40  59  85 115 147 186 230 275 325
#
# _framework density 18.749262999999999
#
# number of rings (size 3 to 8) (size 9 to 14) (size 15 to 20)
#    0.000    2.000    0.000    3.000    0.000   10.667 
#    0.000    3.333    0.000    0.000    0.000    0.000 
#    0.000    0.000    0.000    0.000    0.000    0.000 
#
# Total GULP energy -268176.352494 kJ/mol
# GULP energy per Si atom -5587.007344 kJ/mol
# Density = 1.870659 g / cm^3
# Si number density = 18.749263 Si / 1000 Ang^3
#
#
#
# Elastic Constant Matrix: (Units=GPa)
#
#
# Indices 1 2 3 4 5 6 
#
# 1 176.0935 133.7612 44.3015 0.0000 0.0000 0.0000
# 2 133.7612 219.6997 41.8016 0.0000 0.0000 0.0000
# 3 44.3015 41.8016 16.7278 0.0000 0.0000 0.0000
# 4 0.0000 0.0000 0.0000 37.8570 0.0000 0.0000
# 5 0.0000 0.0000 0.0000 0.0000 23.8055 0.0000
# 6 0.0000 0.0000 0.0000 0.0000 0.0000 2327.3098
#
#
#
# Elastic Compliance Matrix: (Units=1/GPa)
#
#
# Indices 1 2 3 4 5 6 
#
# 1 0.018466 -0.003694 -0.039673 0.000000 0.000000 0.000000
# 2 -0.003694 0.009417 -0.013748 0.000000 0.000000 0.000000
# 3 -0.039673 -0.013748 0.199203 0.000000 0.000000 0.000000
# 4 0.000000 0.000000 0.000000 0.026415 0.000000 0.000000
# 5 0.000000 0.000000 0.000000 0.000000 0.042007 0.000000
# 6 0.000000 0.000000 0.000000 0.000000 0.000000 0.000430
#
#
# Mechanical properties :
#
#
# Convention : Reuss Voigt Hill
#
# Bulk Modulus (GPa) = 8.86080 94.69440 51.77760
# Shear Modulus (GPa) = 11.16605 490.63823 250.90214
#
# Velocity S-wave (km/s) = 2.44303 16.19420 11.58060
# Velocity P-wave (km/s) = 3.56287 20.00712 14.36974
#
# Compressibility (1/GPa) = 0.11285661
#
# Stress axis : x y z
#
# Youngs Moduli (GPa) = 54.15405 106.19578 5.01999
#
# Poissons Ratio (x) = 0.39231 0.19916
# Poissons Ratio (y) = 0.20006 0.06901
# Poissons Ratio (z) = 2.14844 1.45993
#
# Static dielectric constant tensor:
#      x y z
#    x 1.636470 0.000000 0.000000 
#    y 0.000000 1.609010 0.000000 
#    z 0.000000 0.000000 1.638260 
# 
# From -- ./inp_files/2719.got.cif
#   From: 2010.05.17/outbox.cif.g08.bks.cpg/sg47_2_cif.got.tgz:2719.got - 2010.06.03 20:15:42.
