data_PCOD9387604
_publ_section_title
;
Structure prediction by ZEFSAII (Michael W. Deem and Ramdas Pophale) SiO2 
 PCOD9387604
Probable space group: P M M M
;
_chemical_formula_sum "Si O2"
_cell_formula_units_Z 48
_cell_length_a 10.567111
_cell_length_b 8.783399
_cell_length_c 27.739650
_cell_angle_alpha 90.000000
_cell_angle_beta 90.000000
_cell_angle_gamma 90.000000
_cell_volume 2574.659836
_symmetry_space_group_name_H-M "P M M M"
_symmetry_group_IT_number 47
_symmetry_cell_setting 'orthorhombic'
loop_
_space_group_symop_operation_xyz
x,y,z
-x,-y,z
x,-y,-z
-x,y,-z
-x,-y,-z
x,y,-z
-x,y,z
x,-y,z
loop_
_atom_site_type_symbol
_atom_site_label
_atom_site_fract_x
_atom_site_fract_y
_atom_site_fract_z
Si Si1 0.144756 0.182553 0.178409
Si Si2 0.638756 0.180995 0.350262
Si Si3 0.647846 0.314872 0.893763
Si Si4 0.000000 0.827085 0.441807
Si Si5 0.857592 0.682092 0.285300
Si Si6 0.653174 0.325878 0.000000
Si Si7 0.732053 0.681660 0.443986
O O1 0.252703 0.251786 0.144440
O O2 0.160175 0.245556 0.232545
O O3 0.000000 0.222465 0.163087
O O4 0.154937 0.000000 0.178890
O O5 0.500000 0.219394 0.330066
O O6 0.750212 0.259243 0.320786
O O7 0.645031 0.236720 0.405326
O O8 0.655139 0.000000 0.348727
O O9 0.500000 0.272881 0.884509
O O10 0.651624 0.500000 0.894042
O O11 0.685357 0.258938 0.947802
O O12 0.873555 0.735585 0.430187
O O13 0.000000 0.838481 0.500000
O O14 0.000000 0.000000 0.422395
O O15 0.850979 0.500000 0.281495
O O16 0.000000 0.723229 0.302144
O O17 0.701005 0.500000 0.000000
O O18 0.500000 0.333329 0.000000
O O19 0.708743 0.723125 0.500000
O O20 0.721805 0.500000 0.440003
#
# Coordination Sequence:
#
# PCOD9387604 Si02
#       7
#     8   8   8   4   8   4   8
#     4  10  21  37  56  80 112 148 185 227 278 336
#     4  11  25  42  60  85 117 152 187 226 277 336
#     4   9  17  31  54  82 110 145 190 237 283 330
#     4   9  17  31  53  81 111 143 181 225 269 314
#     4  10  22  41  65  88 109 140 184 233 284 337
#     4   7  12  26  48  75 108 144 186 235 280 325
#     4  10  21  37  58  84 115 150 188 230 275 325
#
# _framework density 18.643239000000001
#
# number of rings (size 3 to 8) (size 9 to 14) (size 15 to 20)
#    0.000    2.333    0.000    3.250    1.167    6.667 
#    0.000    2.500    0.000    4.000    0.000    0.000 
#    0.000    0.000    0.000    0.000    0.000    0.000 
#
# Total GULP energy -267788.533211 kJ/mol
# GULP energy per Si atom -5578.927775 kJ/mol
# Density = 1.860081 g / cm^3
# Si number density = 18.643239 Si / 1000 Ang^3
#
#
#
# Elastic Constant Matrix: (Units=GPa)
#
#
# Indices 1 2 3 4 5 6 
#
# 1 129.6699 45.8696 81.7256 0.0000 0.0000 0.0000
# 2 45.8696 45.7824 33.6787 0.0000 0.0000 0.0000
# 3 81.7256 33.6787 98.3949 0.0000 0.0000 0.0000
# 4 0.0000 0.0000 0.0000 -8.5393 0.0000 0.0000
# 5 0.0000 0.0000 0.0000 0.0000 44.1014 0.0000
# 6 0.0000 0.0000 0.0000 0.0000 0.0000 34.3899
#
#
#
# Elastic Compliance Matrix: (Units=1/GPa)
#
#
# Indices 1 2 3 4 5 6 
#
# 1 0.019070 -0.009963 -0.012429 0.000000 0.000000 0.000000
# 2 -0.009963 0.034398 -0.003499 0.000000 0.000000 0.000000
# 3 -0.012429 -0.003499 0.021684 0.000000 0.000000 0.000000
# 4 0.000000 0.000000 0.000000 -0.117105 0.000000 0.000000
# 5 0.000000 0.000000 0.000000 0.000000 0.022675 0.000000
# 6 0.000000 0.000000 0.000000 0.000000 0.000000 0.029078
#
#
# Mechanical properties :
#
#
# Convention : Reuss Voigt Hill
#
# Bulk Modulus (GPa) = 42.78878 66.26611 54.52745
# Shear Modulus (GPa) = 72.07621 21.49528 46.78575
#
# Velocity S-wave (km/s) = 6.22452 3.39924 5.01495
# Velocity P-wave (km/s) = 8.64065 7.14338 7.92744
#
# Compressibility (1/GPa) = 0.02337061
#
# Stress axis : x y z
#
# Youngs Moduli (GPa) = 52.43951 29.07139 46.11711
#
# Poissons Ratio (x) = 0.28964 0.57318
# Poissons Ratio (y) = 0.52245 0.16135
# Poissons Ratio (z) = 0.65176 0.10171
#
# Static dielectric constant tensor:
#      x y z
#    x 1.629840 0.000000 0.000000 
#    y 0.000000 1.626120 0.000000 
#    z 0.000000 0.000000 1.650610 
# 
# From -- ./inp_files/34116.got.cif
#   From: 2010.05.17/outbox.cif.g08.bks.cpg/sg47_18_cif.got.tgz:34116.got - 2010.06.03 20:15:42.
