data_PCOD9387339
_publ_section_title
;
Structure prediction by ZEFSAII (Michael W. Deem and Ramdas Pophale) SiO2 
 PCOD9387339
Probable space group: P M M M
;
_chemical_formula_sum "Si O2"
_cell_formula_units_Z 52
_cell_length_a 8.921582
_cell_length_b 29.404016
_cell_length_c 12.033975
_cell_angle_alpha 90.000000
_cell_angle_beta 90.000000
_cell_angle_gamma 90.000000
_cell_volume 3156.876752
_symmetry_space_group_name_H-M "P M M M"
_symmetry_group_IT_number 47
_symmetry_cell_setting 'orthorhombic'
loop_
_space_group_symop_operation_xyz
x,y,z
-x,-y,z
x,-y,-z
-x,y,-z
-x,-y,-z
x,y,-z
-x,y,z
x,-y,z
loop_
_atom_site_type_symbol
_atom_site_label
_atom_site_fract_x
_atom_site_fract_y
_atom_site_fract_z
Si Si1 0.180189 0.280397 0.270382
Si Si2 0.678618 0.448271 0.720807
Si Si3 0.320554 0.361926 0.130252
Si Si4 0.826785 0.092775 0.135242
Si Si5 0.320500 0.308839 0.500000
Si Si6 0.182743 0.807304 0.871946
Si Si7 0.821599 0.409527 0.500000
Si Si8 0.673112 0.000000 0.864944
O O1 0.233214 0.322960 0.196209
O O2 0.257596 0.285171 0.389546
O O3 0.224998 0.234210 0.206669
O O4 0.000000 0.281257 0.282345
O O5 0.500000 0.445033 0.696566
O O6 0.710067 0.500000 0.755742
O O7 0.712551 0.410581 0.813710
O O8 0.767800 0.435848 0.609605
O O9 0.500000 0.354082 0.142028
O O10 0.283943 0.361418 0.000000
O O11 0.765537 0.142578 0.166748
O O12 0.000000 0.089860 0.168830
O O13 0.745887 0.047156 0.173898
O O14 0.823221 0.093045 0.000000
O O15 0.500000 0.309827 0.500000
O O16 0.257889 0.360371 0.500000
O O17 0.000000 0.809217 0.873894
O O18 0.230638 0.799539 0.000000
O O19 0.000000 0.403636 0.500000
O O20 0.500000 0.000000 0.836796
O O21 0.687230 0.000000 0.000000
#
# Coordination Sequence:
#
# PCOD9387339 Si02
#       8
#     8   8   8   8   4   8   4   4
#     4  11  21  35  56  80 102 129 166 209 256 300
#     4  10  21  37  57  79 106 140 171 202 244 295
#     4  10  21  36  54  77 106 140 173 202 238 292
#     4   8  13  23  39  58  84 124 168 201 234 283
#     4  12  24  39  57  76 102 132 163 204 251 306
#     4   8  15  28  47  72 101 131 164 203 245 291
#     4  12  23  37  58  83 104 128 163 209 257 300
#     4   9  15  21  31  53  87 124 163 208 249 279
#
# _framework density 16.471978
#
# number of rings (size 3 to 8) (size 9 to 14) (size 15 to 20)
#    0.000    2.231    1.538    3.692    0.000    3.385 
#    0.000    3.077    0.000    3.692    0.000    2.154 
#    0.000    0.615    0.000    7.077    0.000    4.615 
#
# Total GULP energy -289989.060703 kJ/mol
# GULP energy per Si atom -5576.712706 kJ/mol
# Density = 1.643449 g / cm^3
# Si number density = 16.471978 Si / 1000 Ang^3
#
#
#
# Elastic Constant Matrix: (Units=GPa)
#
#
# Indices 1 2 3 4 5 6 
#
# 1 59.2956 63.7079 44.2804 0.0000 0.0000 0.0000
# 2 63.7079 178.9061 66.3726 0.0000 0.0000 0.0000
# 3 44.2804 66.3726 93.8137 0.0000 0.0000 0.0000
# 4 0.0000 0.0000 0.0000 7.8951 0.0000 0.0000
# 5 0.0000 0.0000 0.0000 0.0000 15.7453 0.0000
# 6 0.0000 0.0000 0.0000 0.0000 0.0000 62.5036
#
#
#
# Elastic Compliance Matrix: (Units=1/GPa)
#
#
# Indices 1 2 3 4 5 6 
#
# 1 0.032842 -0.008059 -0.009799 0.000000 0.000000 0.000000
# 2 -0.008059 0.009556 -0.002957 0.000000 0.000000 0.000000
# 3 -0.009799 -0.002957 0.017377 0.000000 0.000000 0.000000
# 4 0.000000 0.000000 0.000000 0.126661 0.000000 0.000000
# 5 0.000000 0.000000 0.000000 0.000000 0.063511 0.000000
# 6 0.000000 0.000000 0.000000 0.000000 0.000000 0.015999
#
#
# Mechanical properties :
#
#
# Convention : Reuss Voigt Hill
#
# Bulk Modulus (GPa) = 55.11680 75.63747 65.37714
# Shear Modulus (GPa) = 15.94259 27.73911 21.84085
#
# Velocity S-wave (km/s) = 3.11442 4.10813 3.64530
# Velocity P-wave (km/s) = 6.81663 8.27773 7.58246
#
# Compressibility (1/GPa) = 0.01814329
#
# Stress axis : x y z
#
# Youngs Moduli (GPa) = 30.44912 104.64093 57.54743
#
# Poissons Ratio (x) = 0.84333 0.56394
# Poissons Ratio (y) = 0.24540 0.17018
# Poissons Ratio (z) = 0.29839 0.30944
#
# Static dielectric constant tensor:
#      x y z
#    x 1.557560 0.000000 0.000000 
#    y 0.000000 1.568940 0.000000 
#    z 0.000000 0.000000 1.525530 
# 
# From -- ./inp_files/15597.got.cif
#   From: 2010.05.17/outbox.cif.g08.bks.cpg/sg47_8_cif.got.tgz:15597.got - 2010.06.03 20:15:42.
