data_PCOD9387613
_publ_section_title
;
Structure prediction by ZEFSAII (Michael W. Deem and Ramdas Pophale) SiO2 
 PCOD9387613
Probable space group: P M M M
;
_chemical_formula_sum "Si O2"
_cell_formula_units_Z 64
_cell_length_a 24.042777
_cell_length_b 8.564692
_cell_length_c 15.678626
_cell_angle_alpha 90.000000
_cell_angle_beta 90.000000
_cell_angle_gamma 90.000000
_cell_volume 3228.526671
_symmetry_space_group_name_H-M "P M M M"
_symmetry_group_IT_number 47
_symmetry_cell_setting 'orthorhombic'
loop_
_space_group_symop_operation_xyz
x,y,z
-x,-y,z
x,-y,-z
-x,y,-z
-x,-y,-z
x,y,-z
-x,y,z
x,-y,z
loop_
_atom_site_type_symbol
_atom_site_label
_atom_site_fract_x
_atom_site_fract_y
_atom_site_fract_z
Si Si1 0.066211 0.186823 0.402949
Si Si2 0.563419 0.322526 0.602681
Si Si3 0.562128 0.818787 0.102695
Si Si4 0.670052 0.825747 0.342876
Si Si5 0.320997 0.684146 0.160847
Si Si6 0.150479 0.312308 0.735707
Si Si7 0.229663 0.316510 0.410486
Si Si8 0.206036 0.813480 0.903813
O O1 0.081947 0.241290 0.500000
O O2 0.097732 0.263888 0.322733
O O3 0.000000 0.212149 0.395386
O O4 0.076115 0.000000 0.399985
O O5 0.566319 0.314568 0.500000
O O6 0.500000 0.294480 0.627690
O O7 0.578462 0.500000 0.628335
O O8 0.605438 0.202101 0.642661
O O9 0.500000 0.765479 0.132017
O O10 0.617131 0.722334 0.126523
O O11 0.569367 0.000000 0.130590
O O12 0.560250 0.819556 0.000000
O O13 0.683537 0.783124 0.246741
O O14 0.705058 0.709272 0.401061
O O15 0.686773 0.000000 0.364953
O O16 0.316569 0.500000 0.178433
O O17 0.267195 0.735385 0.106558
O O18 0.151427 0.500000 0.744068
O O19 0.200102 0.254287 0.673312
O O20 0.164581 0.243572 0.828738
O O21 0.210713 0.245646 0.500000
O O22 0.217512 0.500000 0.412060
O O23 0.212808 0.000000 0.896006
O O24 0.185663 0.778727 0.000000
#
# Coordination Sequence:
#
# PCOD9387613 Si02
#       8
#     8   8   8   8   8   8   8   8
#     4   9  19  37  62  94 135 182 224 259 299 350
#     4   9  19  37  58  76  98 134 179 228 286 351
#     4   9  19  37  59  81 106 137 175 225 290 362
#     4  12  24  36  53  77 107 143 185 234 288 346
#     4  12  24  38  57  81 111 147 189 240 300 362
#     4  11  22  37  61  93 127 165 208 254 304 356
#     4  10  21  37  56  81 117 157 192 234 292 353
#     4  11  24  42  64  89 119 158 204 255 311 369
#
# _framework density 19.823283
#
# number of rings (size 3 to 8) (size 9 to 14) (size 15 to 20)
#    0.000    1.625    1.250    5.250    0.000    7.250 
#    0.000    1.875    0.000    0.375    0.000    2.625 
#    0.000    0.000    0.000    0.000    0.000    0.000 
#
# Total GULP energy -357058.010167 kJ/mol
# GULP energy per Si atom -5579.031409 kJ/mol
# Density = 1.977816 g / cm^3
# Si number density = 19.823283 Si / 1000 Ang^3
#
#
#
# Elastic Constant Matrix: (Units=GPa)
#
#
# Indices 1 2 3 4 5 6 
#
# 1 80.9814 19.1073 36.8788 0.0000 0.0000 0.0000
# 2 19.1073 24.4205 13.0786 0.0000 0.0000 0.0000
# 3 36.8788 13.0786 111.3885 0.0000 0.0000 0.0000
# 4 0.0000 0.0000 0.0000 18.0377 0.0000 0.0000
# 5 0.0000 0.0000 0.0000 0.0000 30.8032 0.0000
# 6 0.0000 0.0000 0.0000 0.0000 0.0000 26.3674
#
#
#
# Elastic Compliance Matrix: (Units=1/GPa)
#
#
# Indices 1 2 3 4 5 6 
#
# 1 0.016883 -0.010902 -0.004310 0.000000 0.000000 0.000000
# 2 -0.010902 0.050737 -0.002348 0.000000 0.000000 0.000000
# 3 -0.004310 -0.002348 0.010680 0.000000 0.000000 0.000000
# 4 0.000000 0.000000 0.000000 0.055439 0.000000 0.000000
# 5 0.000000 0.000000 0.000000 0.000000 0.032464 0.000000
# 6 0.000000 0.000000 0.000000 0.000000 0.000000 0.037926
#
#
# Mechanical properties :
#
#
# Convention : Reuss Voigt Hill
#
# Bulk Modulus (GPa) = 23.15824 39.43555 31.29689
# Shear Modulus (GPa) = 19.71284 24.89007 22.30145
#
# Velocity S-wave (km/s) = 3.15688 3.54729 3.35776
# Velocity P-wave (km/s) = 4.99955 6.05924 5.55472
#
# Compressibility (1/GPa) = 0.04318118
#
# Stress axis : x y z
#
# Youngs Moduli (GPa) = 59.22957 19.70966 93.63176
#
# Poissons Ratio (x) = 0.21487 0.40353
# Poissons Ratio (y) = 0.64572 0.21982
# Poissons Ratio (z) = 0.25527 0.04627
#
# Static dielectric constant tensor:
#      x y z
#    x 1.729580 0.000000 0.000000 
#    y 0.000000 1.695320 0.000000 
#    z 0.000000 0.000000 1.750360 
# 
# From -- ./inp_files/25528.got.cif
#   From: 2010.05.17/outbox.cif.g08.bks.cpg/sg47_13_cif.got.tgz:25528.got - 2010.06.03 20:15:42.
