data_PCOD9387973
_publ_section_title
;
Structure prediction by ZEFSAII (Michael W. Deem and Ramdas Pophale) SiO2 
 PCOD9387973
Probable space group: P M M M
;
_chemical_formula_sum "Si O2"
_cell_formula_units_Z 21
_cell_length_a 8.009146
_cell_length_b 17.393434
_cell_length_c 7.160192
_cell_angle_alpha 90.000000
_cell_angle_beta 90.000000
_cell_angle_gamma 90.000000
_cell_volume 997.461662
_symmetry_space_group_name_H-M "P M M M"
_symmetry_group_IT_number 47
_symmetry_cell_setting 'orthorhombic'
loop_
_space_group_symop_operation_xyz
x,y,z
-x,-y,z
x,-y,-z
-x,y,-z
-x,-y,-z
x,y,-z
-x,y,z
x,-y,z
loop_
_atom_site_type_symbol
_atom_site_label
_atom_site_fract_x
_atom_site_fract_y
_atom_site_fract_z
Si Si1 0.696230 0.915944 0.726331
Si Si2 0.500000 0.646578 0.273513
Si Si3 0.816622 0.750948 0.726353
Si Si4 0.500000 0.500000 0.000000
O O1 0.704258 0.916047 0.500000
O O2 0.500000 0.910266 0.774754
O O3 0.786488 0.838734 0.788403
O O4 0.758535 0.000000 0.787107
O O5 0.500000 0.636276 0.500000
O O6 0.336391 0.696497 0.222098
O O7 0.500000 0.567659 0.162612
O O8 0.815153 0.752664 0.500000
O O9 0.000000 0.723939 0.784863
#
# Coordination Sequence:
#
# PCOD9387973 Si02
#       4
#     8   4   8   1
#     4   8  12  19  35  66 110 153 192 234 270 307
#     4  10  21  41  62  86 117 142 180 236 278 340
#     4   9  16  28  50  78 111 154 192 226 277 329
#     4  12  26  44  70  90 106 146 182 216 306 366
#
# _framework density 21.053440999999999
#
# number of rings (size 3 to 8) (size 9 to 14) (size 15 to 20)
#    0.000    3.048    1.905    1.429    0.000    0.762 
#    0.000    6.667    0.000    4.571    0.000    2.667 
#    0.000    3.048    0.000    0.381    0.000    0.762 
#
# Total GULP energy -116963.621105 kJ/mol
# GULP energy per Si atom -5569.696243 kJ/mol
# Density = 2.100552 g / cm^3
# Si number density = 21.053441 Si / 1000 Ang^3
#
#
#
# Elastic Constant Matrix: (Units=GPa)
#
#
# Indices 1 2 3 4 5 6 
#
# 1 161.2043 107.9023 20.2496 0.0000 0.0000 0.0000
# 2 107.9023 206.8423 34.8127 0.0000 0.0000 0.0000
# 3 20.2496 34.8127 127.1146 0.0000 0.0000 0.0000
# 4 0.0000 0.0000 0.0000 -399.3203 0.0000 0.0000
# 5 0.0000 0.0000 0.0000 0.0000 -30.7738 0.0000
# 6 0.0000 0.0000 0.0000 0.0000 0.0000 -2.0138
#
#
#
# Elastic Compliance Matrix: (Units=1/GPa)
#
#
# Indices 1 2 3 4 5 6 
#
# 1 0.009535 -0.004946 -0.000164 0.000000 0.000000 0.000000
# 2 -0.004946 0.007634 -0.001303 0.000000 0.000000 0.000000
# 3 -0.000164 -0.001303 0.008250 0.000000 0.000000 0.000000
# 4 0.000000 0.000000 0.000000 -0.002504 0.000000 0.000000
# 5 0.000000 0.000000 0.000000 0.000000 -0.032495 0.000000
# 6 0.000000 0.000000 0.000000 0.000000 0.000000 -0.496570
#
#
# Mechanical properties :
#
#
# Convention : Reuss Voigt Hill
#
# Bulk Modulus (GPa) = 79.41504 91.23224 85.32364
# Shear Modulus (GPa) = -10.22231 -64.27514 -37.24873
#
# Velocity S-wave (km/s) = -2.20589 -5.53135 -4.21080
# Velocity P-wave (km/s) = 5.59595 1.62275 4.11995
#
# Compressibility (1/GPa) = 0.01259207
#
# Stress axis : x y z
#
# Youngs Moduli (GPa) = 104.87948 130.98989 121.21380
#
# Poissons Ratio (x) = 0.64791 0.01991
# Poissons Ratio (y) = 0.51876 0.15792
# Poissons Ratio (z) = 0.01723 0.17065
#
# Static dielectric constant tensor:
#      x y z
#    x 1.745170 0.000000 0.000000 
#    y 0.000000 1.697700 0.000000 
#    z 0.000000 0.000000 1.808640 
# 
# From -- ./inp_files/335.got.cif
#   From: 2010.05.17/outbox.cif.g08.bks.cpg/sg47_1_cif.got.tgz:335.got - 2010.06.03 20:15:42.
