data_PCOD9387360
_publ_section_title
;
Structure prediction by ZEFSAII (Michael W. Deem and Ramdas Pophale) SiO2 
 PCOD9387360
Probable space group: P M M M
;
_chemical_formula_sum "Si O2"
_cell_formula_units_Z 56
_cell_length_a 9.020956
_cell_length_b 15.155194
_cell_length_c 20.868146
_cell_angle_alpha 90.000000
_cell_angle_beta 90.000000
_cell_angle_gamma 90.000000
_cell_volume 2852.974771
_symmetry_space_group_name_H-M "P M M M"
_symmetry_group_IT_number 47
_symmetry_cell_setting 'orthorhombic'
loop_
_space_group_symop_operation_xyz
x,y,z
-x,-y,z
x,-y,-z
-x,y,-z
-x,-y,-z
x,y,-z
-x,y,z
x,-y,z
loop_
_atom_site_type_symbol
_atom_site_label
_atom_site_fract_x
_atom_site_fract_y
_atom_site_fract_z
Si Si1 0.834855 0.895013 0.298743
Si Si2 0.672005 0.645448 0.569023
Si Si3 0.331748 0.394638 0.706373
Si Si4 0.329897 0.857439 0.429592
Si Si5 0.177092 0.758212 0.074934
Si Si6 0.320032 0.396557 0.153300
Si Si7 0.674701 0.105867 0.829925
O O1 0.766035 0.881373 0.368521
O O2 0.732617 0.864483 0.240171
O O3 0.000000 0.856465 0.294570
O O4 0.845700 0.000000 0.290339
O O5 0.735506 0.615826 0.500000
O O6 0.500000 0.613129 0.570481
O O7 0.742180 0.622369 0.637579
O O8 0.667345 0.751251 0.567755
O O9 0.500000 0.356784 0.702530
O O10 0.344356 0.500000 0.711835
O O11 0.268043 0.367321 0.775032
O O12 0.277835 0.888492 0.500000
O O13 0.500000 0.887595 0.420944
O O14 0.250303 0.669012 0.102274
O O15 0.240067 0.839144 0.116439
O O16 0.000000 0.753622 0.082124
O O17 0.212366 0.769152 0.000000
O O18 0.500000 0.390560 0.152897
O O19 0.282638 0.500000 0.143084
O O20 0.500000 0.123060 0.834482
O O21 0.697736 0.000000 0.836692
#
# Coordination Sequence:
#
# PCOD9387360 Si02
#       7
#     8   8   8   8   8   8   8
#     4  10  21  36  54  78 108 141 181 231 286 342
#     4   8  14  24  39  64  99 137 178 225 275 323
#     4   8  14  25  43  70 102 136 178 228 280 327
#     4   9  18  31  47  71 104 143 189 238 284 331
#     4  11  25  42  61  89 122 155 191 232 286 350
#     4   9  19  36  58  86 119 155 199 250 295 337
#     4  10  22  41  65  91 118 150 190 236 286 345
#
# _framework density 19.628634000000002
#
# number of rings (size 3 to 8) (size 9 to 14) (size 15 to 20)
#    0.000    2.714    0.000    3.000    2.000    4.571 
#    0.000    5.714    0.000    0.000    0.000    0.000 
#    0.000    0.000    0.000    6.286    0.000    6.286 
#
# Total GULP energy -312095.067322 kJ/mol
# GULP energy per Si atom -5573.126202 kJ/mol
# Density = 1.958396 g / cm^3
# Si number density = 19.628634 Si / 1000 Ang^3
#
#
#
# Elastic Constant Matrix: (Units=GPa)
#
#
# Indices 1 2 3 4 5 6 
#
# 1 50.9820 27.2780 63.7490 0.0000 0.0000 0.0000
# 2 27.2780 43.6674 35.5445 0.0000 0.0000 0.0000
# 3 63.7490 35.5445 176.4156 0.0000 0.0000 0.0000
# 4 0.0000 0.0000 0.0000 41.0891 0.0000 0.0000
# 5 0.0000 0.0000 0.0000 0.0000 -1.4822 0.0000
# 6 0.0000 0.0000 0.0000 0.0000 0.0000 12.8294
#
#
#
# Elastic Compliance Matrix: (Units=1/GPa)
#
#
# Indices 1 2 3 4 5 6 
#
# 1 0.044966 -0.017779 -0.012667 0.000000 0.000000 0.000000
# 2 -0.017779 0.034422 -0.000511 0.000000 0.000000 0.000000
# 3 -0.012667 -0.000511 0.010349 0.000000 0.000000 0.000000
# 4 0.000000 0.000000 0.000000 0.024337 0.000000 0.000000
# 5 0.000000 0.000000 0.000000 0.000000 -0.674677 0.000000
# 6 0.000000 0.000000 0.000000 0.000000 0.000000 0.077946
#
#
# Mechanical properties :
#
#
# Convention : Reuss Voigt Hill
#
# Bulk Modulus (GPa) = 35.94013 58.24534 47.09273
# Shear Modulus (GPa) = -12.15159 20.12016 3.98429
#
# Velocity S-wave (km/s) = -2.49082 3.20510 1.42627
# Velocity P-wave (km/s) = 3.17452 6.59052 5.17265
#
# Compressibility (1/GPa) = 0.02782405
#
# Stress axis : x y z
#
# Youngs Moduli (GPa) = 22.23897 29.05094 96.63146
#
# Poissons Ratio (x) = 0.51649 1.22400
# Poissons Ratio (y) = 0.39538 0.04938
# Poissons Ratio (z) = 0.28169 0.01484
#
# Static dielectric constant tensor:
#      x y z
#    x 1.670560 0.000000 0.000000 
#    y 0.000000 1.700200 0.000000 
#    z 0.000000 0.000000 1.723150 
# 
# From -- ./inp_files/29702.got.cif
#   From: 2010.05.17/outbox.cif.g08.bks.cpg/sg47_15_cif.got.tgz:29702.got - 2010.06.03 20:15:42.
