data_PCOD9387016
_publ_section_title
;
Structure prediction by ZEFSAII (Michael W. Deem and Ramdas Pophale) SiO2 
 PCOD9387016
Probable space group: P M M M
;
_chemical_formula_sum "Si O2"
_cell_formula_units_Z 44
_cell_length_a 29.365002
_cell_length_b 9.833013
_cell_length_c 7.560034
_cell_angle_alpha 90.000000
_cell_angle_beta 90.000000
_cell_angle_gamma 90.000000
_cell_volume 2182.932952
_symmetry_space_group_name_H-M "P M M M"
_symmetry_group_IT_number 47
_symmetry_cell_setting 'orthorhombic'
loop_
_space_group_symop_operation_xyz
x,y,z
-x,-y,z
x,-y,-z
-x,y,-z
-x,-y,-z
x,y,-z
-x,y,z
x,-y,z
loop_
_atom_site_type_symbol
_atom_site_label
_atom_site_fract_x
_atom_site_fract_y
_atom_site_fract_z
Si Si1 0.679832 0.653814 0.789658
Si Si2 0.500000 0.844901 0.710552
Si Si3 0.866889 0.156299 0.715769
Si Si4 0.949379 0.657348 0.715860
Si Si5 0.400288 0.844495 0.209921
Si Si6 0.235756 0.155129 0.286727
O O1 0.681840 0.500000 0.718422
O O2 0.638541 0.745888 0.716681
O O3 0.726309 0.737312 0.765738
O O4 0.672285 0.642551 0.000000
O O5 0.500000 0.850422 0.500000
O O6 0.548734 0.786707 0.764994
O O7 0.500000 0.000000 0.783066
O O8 0.866941 0.161113 0.500000
O O9 0.907332 0.252588 0.778307
O O10 0.815484 0.192141 0.772329
O O11 0.875161 0.000000 0.766074
O O12 0.948948 0.660470 0.500000
O O13 0.944136 0.500000 0.767706
O O14 0.000000 0.703995 0.770566
O O15 0.398374 0.000000 0.282130
O O16 0.392853 0.855748 0.000000
O O17 0.235055 0.151032 0.500000
O O18 0.246072 0.000000 0.226211
#
# Coordination Sequence:
#
# PCOD9387016 Si02
#       6
#     8   4   8   8   8   8
#     4  10  21  35  50  71  98 126 159 198 237 279
#     4   9  17  29  48  75 100 120 150 193 232 267
#     4   8  14  24  37  55  80 109 143 184 228 273
#     4   8  13  20  30  47  74 109 147 183 219 264
#     4   9  17  31  51  71  92 122 157 190 228 274
#     4   9  18  32  49  69  93 122 157 196 238 285
#
# _framework density 20.156365999999998
#
# number of rings (size 3 to 8) (size 9 to 14) (size 15 to 20)
#    0.000    3.182    0.000    2.455    0.000    4.364 
#    0.000    5.909    0.000    2.727    0.000    0.000 
#    0.000    0.727    0.000    8.000    0.000   13.091 
#
# Total GULP energy -245297.093090 kJ/mol
# GULP energy per Si atom -5574.933934 kJ/mol
# Density = 2.011049 g / cm^3
# Si number density = 20.156366 Si / 1000 Ang^3
#
#
#
# Elastic Constant Matrix: (Units=GPa)
#
#
# Indices 1 2 3 4 5 6 
#
# 1 210.1036 129.7053 -1.2558 0.0000 0.0000 0.0000
# 2 129.7053 124.3131 5.9539 0.0000 0.0000 0.0000
# 3 -1.2558 5.9539 46.5128 0.0000 0.0000 0.0000
# 4 0.0000 0.0000 0.0000 7.1926 0.0000 0.0000
# 5 0.0000 0.0000 0.0000 0.0000 17.7549 0.0000
# 6 0.0000 0.0000 0.0000 0.0000 0.0000 20.4129
#
#
#
# Elastic Compliance Matrix: (Units=1/GPa)
#
#
# Indices 1 2 3 4 5 6 
#
# 1 0.013593 -0.014288 0.002196 0.000000 0.000000 0.000000
# 2 -0.014288 0.023112 -0.003344 0.000000 0.000000 0.000000
# 3 0.002196 -0.003344 0.021987 0.000000 0.000000 0.000000
# 4 0.000000 0.000000 0.000000 0.139032 0.000000 0.000000
# 5 0.000000 0.000000 0.000000 0.000000 0.056322 0.000000
# 6 0.000000 0.000000 0.000000 0.000000 0.000000 0.048989
#
#
# Mechanical properties :
#
#
# Convention : Reuss Voigt Hill
#
# Bulk Modulus (GPa) = 35.94592 72.19294 54.06943
# Shear Modulus (GPa) = 14.56956 25.50715 20.03835
#
# Velocity S-wave (km/s) = 2.69146 3.56119 3.15643
# Velocity P-wave (km/s) = 5.24699 7.26661 6.33777
#
# Compressibility (1/GPa) = 0.02781957
#
# Stress axis : x y z
#
# Youngs Moduli (GPa) = 73.56578 43.26719 45.48175
#
# Poissons Ratio (x) = 0.61820 -0.09988
# Poissons Ratio (y) = 1.05111 0.15210
# Poissons Ratio (z) = -0.16155 0.14470
#
# Static dielectric constant tensor:
#      x y z
#    x 1.713890 0.000000 0.000000 
#    y 0.000000 1.697350 0.000000 
#    z 0.000000 0.000000 1.773670 
# 
# From -- ./inp_files/13552.got.cif
#   From: 2010.05.17/outbox.cif.g08.bks.cpg/sg47_7_cif.got.tgz:13552.got - 2010.06.03 20:15:42.
