data_PCOD9387778
_publ_section_title
;
Structure prediction by ZEFSAII (Michael W. Deem and Ramdas Pophale) SiO2 
 PCOD9387778
Probable space group: P M M M
;
_chemical_formula_sum "Si O2"
_cell_formula_units_Z 33
_cell_length_a 25.089947
_cell_length_b 7.468082
_cell_length_c 9.366257
_cell_angle_alpha 90.000000
_cell_angle_beta 90.000000
_cell_angle_gamma 90.000000
_cell_volume 1754.990993
_symmetry_space_group_name_H-M "P M M M"
_symmetry_group_IT_number 47
_symmetry_cell_setting 'orthorhombic'
loop_
_space_group_symop_operation_xyz
x,y,z
-x,-y,z
x,-y,-z
-x,y,-z
-x,-y,-z
x,y,-z
-x,y,z
x,-y,z
loop_
_atom_site_type_symbol
_atom_site_label
_atom_site_fract_x
_atom_site_fract_y
_atom_site_fract_z
Si Si1 0.500000 0.219574 0.163345
Si Si2 0.826414 0.285134 0.168867
Si Si3 0.397706 0.213767 0.337853
Si Si4 0.000000 0.000000 0.500000
Si Si5 0.721349 0.713971 0.336851
Si Si6 0.889750 0.000000 0.341414
O O1 0.446604 0.280238 0.243796
O O2 0.500000 0.000000 0.164555
O O3 0.500000 0.276197 0.000000
O O4 0.832739 0.500000 0.188717
O O5 0.769593 0.227626 0.236410
O O6 0.870546 0.172934 0.253843
O O7 0.827923 0.248660 0.000000
O O8 0.400127 0.285032 0.500000
O O9 0.338079 0.246570 0.282143
O O10 0.403964 0.000000 0.346251
O O11 0.952206 0.000000 0.377718
O O12 0.725653 0.784210 0.500000
O O13 0.725658 0.500000 0.345179
O O14 0.863353 0.000000 0.500000
#
# Coordination Sequence:
#
# PCOD9387778 Si02
#       6
#     4   8   8   1   8   4
#     4   9  17  29  44  63  88 124 170 223 278 340
#     4  10  21  37  59  90 126 162 197 239 298 359
#     4   9  17  29  46  67  93 127 174 226 279 336
#     4   8  24  44  64 100 120 158 206 258 278 324
#     4   9  18  32  50  76 108 142 182 231 282 339
#     4  10  21  41  65  89 121 157 203 244 287 329
#
# _framework density 18.803514
#
# number of rings (size 3 to 8) (size 9 to 14) (size 15 to 20)
#    0.364    2.303    0.000    1.455    1.697    3.879 
#    0.000    3.030    0.000    5.091    0.000    0.000 
#    0.000    0.000    0.000    0.000    0.000    0.000 
#
# Total GULP energy -183728.975015 kJ/mol
# GULP energy per Si atom -5567.544697 kJ/mol
# Density = 1.876072 g / cm^3
# Si number density = 18.803514 Si / 1000 Ang^3
#
#
#
# Elastic Constant Matrix: (Units=GPa)
#
#
# Indices 1 2 3 4 5 6 
#
# 1 195.8009 33.9755 99.0795 0.0000 0.0000 0.0000
# 2 33.9755 66.4316 38.9100 0.0000 0.0000 0.0000
# 3 99.0795 38.9100 120.8353 0.0000 0.0000 0.0000
# 4 0.0000 0.0000 0.0000 12.1959 0.0000 0.0000
# 5 0.0000 0.0000 0.0000 0.0000 -15.0043 0.0000
# 6 0.0000 0.0000 0.0000 0.0000 0.0000 11.6549
#
#
#
# Elastic Compliance Matrix: (Units=1/GPa)
#
#
# Indices 1 2 3 4 5 6 
#
# 1 0.008735 -0.000336 -0.007054 0.000000 0.000000 0.000000
# 2 -0.000336 0.018565 -0.005703 0.000000 0.000000 0.000000
# 3 -0.007054 -0.005703 0.015896 0.000000 0.000000 0.000000
# 4 0.000000 0.000000 0.000000 0.081995 0.000000 0.000000
# 5 0.000000 0.000000 0.000000 0.000000 -0.066648 0.000000
# 6 0.000000 0.000000 0.000000 0.000000 0.000000 0.085801
#
#
# Mechanical properties :
#
#
# Convention : Reuss Voigt Hill
#
# Bulk Modulus (GPa) = 58.78630 80.77752 69.78191
# Shear Modulus (GPa) = 28.37674 15.84281 22.10978
#
# Velocity S-wave (km/s) = 3.88895 2.90581 3.43276
# Velocity P-wave (km/s) = 7.17611 7.36955 7.27348
#
# Compressibility (1/GPa) = 0.01701077
#
# Stress axis : x y z
#
# Youngs Moduli (GPa) = 114.48064 53.86479 62.90763
#
# Poissons Ratio (x) = 0.01808 0.44377
# Poissons Ratio (y) = 0.03842 0.35876
# Poissons Ratio (z) = 0.80758 0.30718
#
# Static dielectric constant tensor:
#      x y z
#    x 1.627280 0.000000 0.000000 
#    y 0.000000 1.695610 0.000000 
#    z 0.000000 0.000000 1.646200 
# 
# From -- ./inp_files/12030.got.cif
#   From: 2010.05.17/outbox.cif.g08.bks.cpg/sg47_7_cif.got.tgz:12030.got - 2010.06.03 20:15:42.
