data_PCOD9387412
_publ_section_title
;
Structure prediction by ZEFSAII (Michael W. Deem and Ramdas Pophale) SiO2 
 PCOD9387412
Probable space group: P M M M
;
_chemical_formula_sum "Si O2"
_cell_formula_units_Z 64
_cell_length_a 9.254618
_cell_length_b 24.808932
_cell_length_c 15.603086
_cell_angle_alpha 90.000000
_cell_angle_beta 90.000000
_cell_angle_gamma 90.000000
_cell_volume 3582.424680
_symmetry_space_group_name_H-M "P M M M"
_symmetry_group_IT_number 47
_symmetry_cell_setting 'orthorhombic'
loop_
_space_group_symop_operation_xyz
x,y,z
-x,-y,z
x,-y,-z
-x,y,-z
-x,-y,-z
x,y,-z
-x,y,z
x,-y,z
loop_
_atom_site_type_symbol
_atom_site_label
_atom_site_fract_x
_atom_site_fract_y
_atom_site_fract_z
Si Si1 0.329791 0.343684 0.907964
Si Si2 0.327439 0.229405 0.733708
Si Si3 0.826514 0.560747 0.399917
Si Si4 0.666272 0.934450 0.904376
Si Si5 0.671139 0.355980 0.721250
Si Si6 0.326412 0.861663 0.400539
Si Si7 0.167684 0.064893 0.267010
Si Si8 0.172811 0.229022 0.094616
O O1 0.500000 0.326814 0.903109
O O2 0.300820 0.373950 0.819674
O O3 0.231096 0.290601 0.908180
O O4 0.310214 0.371590 0.000000
O O5 0.500000 0.226910 0.748359
O O6 0.290251 0.292289 0.717936
O O7 0.292715 0.193106 0.651486
O O8 0.248490 0.208029 0.819234
O O9 0.788937 0.567472 0.500000
O O10 0.781781 0.500000 0.373912
O O11 0.755937 0.606832 0.343564
O O12 0.000000 0.563412 0.393346
O O13 0.500000 0.916441 0.893071
O O14 0.762484 0.918373 0.823888
O O15 0.664167 0.000000 0.904026
O O16 0.716158 0.918681 0.000000
O O17 0.500000 0.359892 0.704485
O O18 0.281965 0.860215 0.500000
O O19 0.500000 0.868718 0.398057
O O20 0.251722 0.908370 0.345576
O O21 0.000000 0.080330 0.269119
O O22 0.177603 0.000000 0.272447
O O23 0.000000 0.227121 0.103104
O O24 0.211246 0.206061 0.000000
#
# Coordination Sequence:
#
# PCOD9387412 Si02
#       8
#     8   8   8   8   8   8   8   8
#     4   8  14  26  44  67  98 134 167 199 240 290
#     4   9  19  35  53  75 103 133 165 203 250 302
#     4   9  19  35  51  68  95 131 168 206 249 296
#     4   8  14  27  50  79 108 137 169 204 242 290
#     4   9  17  29  50  79 103 126 161 204 247 292
#     4  10  22  40  59  76  97 130 172 216 259 303
#     4  10  21  36  55  80 108 136 167 207 255 305
#     4   9  16  26  44  72 103 133 166 203 240 283
#
# _framework density 17.864996000000001
#
# number of rings (size 3 to 8) (size 9 to 14) (size 15 to 20)
#    0.000    3.000    0.000    2.250    0.000    5.750 
#    0.000    5.000    0.000    1.125    0.000    2.625 
#    0.000    0.000    0.000    0.000    0.000    0.000 
#
# Total GULP energy -356550.547796 kJ/mol
# GULP energy per Si atom -5571.102309 kJ/mol
# Density = 1.782433 g / cm^3
# Si number density = 17.864996 Si / 1000 Ang^3
#
#
#
# Elastic Constant Matrix: (Units=GPa)
#
#
# Indices 1 2 3 4 5 6 
#
# 1 38.1440 33.6189 62.2461 0.0000 0.0000 0.0000
# 2 33.6189 66.3089 56.1120 0.0000 0.0000 0.0000
# 3 62.2461 56.1120 173.4827 0.0000 0.0000 0.0000
# 4 0.0000 0.0000 0.0000 117.8241 0.0000 0.0000
# 5 0.0000 0.0000 0.0000 0.0000 23.5541 0.0000
# 6 0.0000 0.0000 0.0000 0.0000 0.0000 16.7617
#
#
#
# Elastic Compliance Matrix: (Units=1/GPa)
#
#
# Indices 1 2 3 4 5 6 
#
# 1 0.083100 -0.023270 -0.022290 0.000000 0.000000 0.000000
# 2 -0.023270 0.027280 -0.000474 0.000000 0.000000 0.000000
# 3 -0.022290 -0.000474 0.013915 0.000000 0.000000 0.000000
# 4 0.000000 0.000000 0.000000 0.008487 0.000000 0.000000
# 5 0.000000 0.000000 0.000000 0.000000 0.042455 0.000000
# 6 0.000000 0.000000 0.000000 0.000000 0.000000 0.059660
#
#
# Mechanical properties :
#
#
# Convention : Reuss Voigt Hill
#
# Bulk Modulus (GPa) = 31.02956 64.65442 47.84199
# Shear Modulus (GPa) = 14.80561 40.02524 27.41542
#
# Velocity S-wave (km/s) = 2.88192 4.73845 3.92163
# Velocity P-wave (km/s) = 5.33672 8.13673 6.88066
#
# Compressibility (1/GPa) = 0.03222734
#
# Stress axis : x y z
#
# Youngs Moduli (GPa) = 12.03363 36.65651 71.86252
#
# Poissons Ratio (x) = 0.85299 1.60183
# Poissons Ratio (y) = 0.28002 0.03409
# Poissons Ratio (z) = 0.26823 0.01739
#
# Static dielectric constant tensor:
#      x y z
#    x 1.596480 0.000000 0.000000 
#    y 0.000000 1.611660 0.000000 
#    z 0.000000 0.000000 1.629800 
# 
# From -- ./inp_files/21918.got.cif
#   From: 2010.05.17/outbox.cif.g08.bks.cpg/sg47_11_cif.got.tgz:21918.got - 2010.06.03 20:15:42.
