data_PCOD9387592
_publ_section_title
;
Structure prediction by ZEFSAII (Michael W. Deem and Ramdas Pophale) SiO2 
 PCOD9387592
Probable space group: P M M M
;
_chemical_formula_sum "Si O2"
_cell_formula_units_Z 64
_cell_length_a 26.589796
_cell_length_b 9.048195
_cell_length_c 14.268677
_cell_angle_alpha 90.000000
_cell_angle_beta 90.000000
_cell_angle_gamma 90.000000
_cell_volume 3432.896137
_symmetry_space_group_name_H-M "P M M M"
_symmetry_group_IT_number 47
_symmetry_cell_setting 'orthorhombic'
loop_
_space_group_symop_operation_xyz
x,y,z
-x,-y,z
x,-y,-z
-x,y,-z
-x,-y,-z
x,y,-z
-x,y,z
x,-y,z
loop_
_atom_site_type_symbol
_atom_site_label
_atom_site_fract_x
_atom_site_fract_y
_atom_site_fract_z
Si Si1 0.147581 0.173210 0.112864
Si Si2 0.352692 0.324529 0.221397
Si Si3 0.202649 0.331266 0.613695
Si Si4 0.098122 0.176447 0.390471
Si Si5 0.260764 0.824135 0.112615
Si Si6 0.944572 0.324007 0.216667
Si Si7 0.692925 0.175628 0.389424
Si Si8 0.558637 0.825270 0.111031
O O1 0.204040 0.222614 0.140789
O O2 0.101588 0.260959 0.156989
O O3 0.142933 0.000000 0.138521
O O4 0.145497 0.182680 0.000000
O O5 0.350297 0.500000 0.227691
O O6 0.305062 0.262985 0.162775
O O7 0.347924 0.251127 0.323580
O O8 0.402877 0.270614 0.169992
O O9 0.202894 0.338419 0.500000
O O10 0.201215 0.500000 0.649065
O O11 0.152905 0.239856 0.637533
O O12 0.253525 0.246729 0.638965
O O13 0.089202 0.212264 0.500000
O O14 0.060152 0.252309 0.319369
O O15 0.097470 0.000000 0.380969
O O16 0.265586 0.000000 0.132368
O O17 0.264831 0.806890 0.000000
O O18 0.940066 0.500000 0.223959
O O19 0.000000 0.288595 0.177002
O O20 0.685206 0.203445 0.500000
O O21 0.694516 0.000000 0.375024
O O22 0.500000 0.795554 0.131794
O O23 0.567957 0.000000 0.127879
O O24 0.566315 0.799800 0.000000
#
# Coordination Sequence:
#
# PCOD9387592 Si02
#       8
#     8   8   8   8   8   8   8   8
#     4   9  20  40  64  86 108 140 183 232 284 336
#     4  12  24  34  53  87 124 160 193 235 292 345
#     4   9  17  31  52  78 108 140 176 222 277 335
#     4  10  21  37  58  82 108 142 183 227 276 333
#     4   9  19  37  59  83 114 150 187 229 279 338
#     4  11  25  41  57  80 110 144 182 229 286 344
#     4  10  21  37  56  78 109 153 202 245 284 331
#     4   9  19  38  63  88 117 157 203 248 291 337
#
# _framework density 18.643151
#
# number of rings (size 3 to 8) (size 9 to 14) (size 15 to 20)
#    0.000    2.125    0.000    4.125    1.750    7.500 
#    0.000    4.375    0.000    0.375    0.000    2.625 
#    0.000    0.000    0.000    0.000    0.000    0.000 
#
# Total GULP energy -357564.065594 kJ/mol
# GULP energy per Si atom -5586.938525 kJ/mol
# Density = 1.860072 g / cm^3
# Si number density = 18.643151 Si / 1000 Ang^3
#
#
#
# Elastic Constant Matrix: (Units=GPa)
#
#
# Indices 1 2 3 4 5 6 
#
# 1 91.1057 59.9737 45.2739 0.0000 0.0000 0.0000
# 2 59.9737 92.2072 39.4484 0.0000 0.0000 0.0000
# 3 45.2739 39.4484 61.6254 0.0000 0.0000 0.0000
# 4 0.0000 0.0000 0.0000 20.1907 0.0000 0.0000
# 5 0.0000 0.0000 0.0000 0.0000 29.4490 0.0000
# 6 0.0000 0.0000 0.0000 0.0000 0.0000 37.9495
#
#
#
# Elastic Compliance Matrix: (Units=1/GPa)
#
#
# Indices 1 2 3 4 5 6 
#
# 1 0.022989 -0.010641 -0.010077 0.000000 0.000000 0.000000
# 2 -0.010641 0.019861 -0.004896 0.000000 0.000000 0.000000
# 3 -0.010077 -0.004896 0.026765 0.000000 0.000000 0.000000
# 4 0.000000 0.000000 0.000000 0.049528 0.000000 0.000000
# 5 0.000000 0.000000 0.000000 0.000000 0.033957 0.000000
# 6 0.000000 0.000000 0.000000 0.000000 0.000000 0.026351
#
#
# Mechanical properties :
#
#
# Convention : Reuss Voigt Hill
#
# Bulk Modulus (GPa) = 54.39064 59.37002 56.88033
# Shear Modulus (GPa) = 21.11411 24.20066 22.65738
#
# Velocity S-wave (km/s) = 3.36897 3.60682 3.48993
# Velocity P-wave (km/s) = 6.66117 7.01856 6.84220
#
# Compressibility (1/GPa) = 0.01838552
#
# Stress axis : x y z
#
# Youngs Moduli (GPa) = 43.49875 50.34967 37.36272
#
# Poissons Ratio (x) = 0.53579 0.37652
# Poissons Ratio (y) = 0.46288 0.18293
# Poissons Ratio (z) = 0.43836 0.24651
#
# Static dielectric constant tensor:
#      x y z
#    x 1.631470 0.000000 0.000000 
#    y 0.000000 1.617400 0.000000 
#    z 0.000000 0.000000 1.670470 
# 
# From -- ./inp_files/21951.got.cif
#   From: 2010.05.17/outbox.cif.g08.bks.cpg/sg47_11_cif.got.tgz:21951.got - 2010.06.03 20:15:42.
