data_PCOD9387057
_publ_section_title
;
Structure prediction by ZEFSAII (Michael W. Deem and Ramdas Pophale) SiO2 
 PCOD9387057
Probable space group: P M M M
;
_chemical_formula_sum "Si O2"
_cell_formula_units_Z 52
_cell_length_a 18.206162
_cell_length_b 17.067407
_cell_length_c 9.480636
_cell_angle_alpha 90.000000
_cell_angle_beta 90.000000
_cell_angle_gamma 90.000000
_cell_volume 2945.936765
_symmetry_space_group_name_H-M "P M M M"
_symmetry_group_IT_number 47
_symmetry_cell_setting 'orthorhombic'
loop_
_space_group_symop_operation_xyz
x,y,z
-x,-y,z
x,-y,-z
-x,y,-z
-x,-y,-z
x,y,-z
-x,y,z
x,-y,z
loop_
_atom_site_type_symbol
_atom_site_label
_atom_site_fract_x
_atom_site_fract_y
_atom_site_fract_z
Si Si1 0.000000 0.404199 0.662898
Si Si2 0.856272 0.405802 0.835599
Si Si3 0.080269 0.906199 0.332906
Si Si4 0.622100 0.087578 0.168973
Si Si5 0.218107 0.859142 0.158783
Si Si6 0.713532 0.685821 0.162429
Si Si7 0.416183 0.755553 0.666430
O O1 0.074104 0.378905 0.743610
O O2 0.000000 0.500000 0.665091
O O3 0.000000 0.379307 0.500000
O O4 0.855057 0.500000 0.831060
O O5 0.777215 0.373190 0.788586
O O6 0.866123 0.382088 0.000000
O O7 0.083499 0.892323 0.500000
O O8 0.149473 0.868874 0.258610
O O9 0.000000 0.879066 0.281352
O O10 0.083967 0.000000 0.311594
O O11 0.709782 0.090815 0.196363
O O12 0.589667 0.159537 0.256997
O O13 0.594531 0.000000 0.201426
O O14 0.612022 0.101430 0.000000
O O15 0.247223 0.770518 0.159931
O O16 0.196095 0.880736 0.000000
O O17 0.642412 0.698445 0.258995
O O18 0.692886 0.666640 0.000000
O O19 0.399762 0.764017 0.500000
O O20 0.500000 0.727839 0.681685
#
# Coordination Sequence:
#
# PCOD9387057 Si02
#       7
#     4   8   8   8   8   8   8
#     4   9  17  29  47  75 109 139 166 197 238 291
#     4   9  17  32  55  79 103 134 171 209 249 294
#     4   9  18  31  44  59  83 117 157 199 240 282
#     4   9  18  32  50  72  97 126 162 204 250 300
#     4   9  17  30  46  65  90 118 152 195 240 285
#     4   9  19  35  53  74  99 128 164 204 247 299
#     4  10  21  35  51  73 101 132 166 205 249 301
#
# _framework density 17.651430999999999
#
# number of rings (size 3 to 8) (size 9 to 14) (size 15 to 20)
#    0.000    2.846    0.000    2.538    0.000    7.077 
#    1.385    2.308    0.000    0.462    0.000    3.231 
#    0.000    0.000    0.000    0.000    0.000    0.000 
#
# Total GULP energy -289792.439139 kJ/mol
# GULP energy per Si atom -5572.931522 kJ/mol
# Density = 1.761126 g / cm^3
# Si number density = 17.651431 Si / 1000 Ang^3
#
#
#
# Elastic Constant Matrix: (Units=GPa)
#
#
# Indices 1 2 3 4 5 6 
#
# 1 126.0748 22.5398 71.5068 0.0000 0.0000 0.0000
# 2 22.5398 16.4099 16.4480 0.0000 0.0000 0.0000
# 3 71.5068 16.4480 70.0565 0.0000 0.0000 0.0000
# 4 0.0000 0.0000 0.0000 14.1030 0.0000 0.0000
# 5 0.0000 0.0000 0.0000 0.0000 35.2230 0.0000
# 6 0.0000 0.0000 0.0000 0.0000 0.0000 4.3946
#
#
#
# Elastic Compliance Matrix: (Units=1/GPa)
#
#
# Indices 1 2 3 4 5 6 
#
# 1 0.019821 -0.009085 -0.018098 0.000000 0.000000 0.000000
# 2 -0.009085 0.083856 -0.010415 0.000000 0.000000 0.000000
# 3 -0.018098 -0.010415 0.035193 0.000000 0.000000 0.000000
# 4 0.000000 0.000000 0.000000 0.070907 0.000000 0.000000
# 5 0.000000 0.000000 0.000000 0.000000 0.028391 0.000000
# 6 0.000000 0.000000 0.000000 0.000000 0.000000 0.227554
#
#
# Mechanical properties :
#
#
# Convention : Reuss Voigt Hill
#
# Bulk Modulus (GPa) = 15.70516 48.17004 31.93760
# Shear Modulus (GPa) = 8.89455 17.54723 13.22089
#
# Velocity S-wave (km/s) = 2.24721 3.15635 2.73975
# Velocity P-wave (km/s) = 3.95600 6.37434 5.30482
#
# Compressibility (1/GPa) = 0.06367334
#
# Stress axis : x y z
#
# Youngs Moduli (GPa) = 50.45175 11.92515 28.41512
#
# Poissons Ratio (x) = 0.10834 0.51427
# Poissons Ratio (y) = 0.45834 0.29595
# Poissons Ratio (z) = 0.91309 0.12420
#
# Static dielectric constant tensor:
#      x y z
#    x 1.608350 0.000000 0.000000 
#    y 0.000000 1.610660 0.000000 
#    z 0.000000 0.000000 1.598040 
# 
# From -- ./inp_files/9567.got.cif
#   From: 2010.05.17/outbox.cif.g08.bks.cpg/sg47_5_cif.got.tgz:9567.got - 2010.06.03 20:15:42.
