data_PCOD9387885
_publ_section_title
;
Structure prediction by ZEFSAII (Michael W. Deem and Ramdas Pophale) SiO2 
 PCOD9387885
Probable space group: P M M M
;
_chemical_formula_sum "Si O2"
_cell_formula_units_Z 33
_cell_length_a 13.238306
_cell_length_b 15.055584
_cell_length_c 8.124959
_cell_angle_alpha 90.000000
_cell_angle_beta 90.000000
_cell_angle_gamma 90.000000
_cell_volume 1619.389056
_symmetry_space_group_name_H-M "P M M M"
_symmetry_group_IT_number 47
_symmetry_cell_setting 'orthorhombic'
loop_
_space_group_symop_operation_xyz
x,y,z
-x,-y,z
x,-y,-z
-x,y,-z
-x,-y,-z
x,y,-z
-x,y,z
x,-y,z
loop_
_atom_site_type_symbol
_atom_site_label
_atom_site_fract_x
_atom_site_fract_y
_atom_site_fract_z
Si Si1 0.000000 0.607439 0.187266
Si Si2 0.304264 0.221196 0.811039
Si Si3 0.885191 0.896051 0.301129
Si Si4 0.219248 0.602267 0.306469
Si Si5 0.500000 0.134645 0.684679
Si Si6 0.500000 0.000000 0.000000
O O1 0.102686 0.630667 0.278789
O O2 0.000000 0.500000 0.179972
O O3 0.000000 0.641359 0.000000
O O4 0.202944 0.166244 0.766058
O O5 0.284257 0.325275 0.786484
O O6 0.397331 0.190636 0.700688
O O7 0.327633 0.202529 0.000000
O O8 0.882704 0.891565 0.500000
O O9 0.000000 0.871905 0.248849
O O10 0.868080 0.000000 0.255576
O O11 0.241134 0.605387 0.500000
O O12 0.230455 0.500000 0.249900
O O13 0.500000 0.094768 0.500000
O O14 0.500000 0.074479 0.849046
#
# Coordination Sequence:
#
# PCOD9387885 Si02
#       6
#     4   8   8   8   4   1
#     4   9  17  31  53  85 122 161 210 269 331 393
#     4  12  25  42  64  95 135 171 224 277 330 405
#     4   9  20  39  62  90 125 169 217 264 327 401
#     4  10  21  38  61  89 124 172 224 275 336 402
#     4  12  27  49  74 103 140 177 221 284 336 392
#     4  12  26  52  76 110 132 172 234 276 340 404
#
# _framework density 20.378055
#
# number of rings (size 3 to 8) (size 9 to 14) (size 15 to 20)
#    0.000    1.576    1.212    4.182    3.394    3.879 
#    0.000    1.818    0.000    3.636    0.000    0.000 
#    0.000    0.000    0.000    0.000    0.000    0.000 
#
# Total GULP energy -184024.533010 kJ/mol
# GULP energy per Si atom -5576.501000 kJ/mol
# Density = 2.033167 g / cm^3
# Si number density = 20.378055 Si / 1000 Ang^3
#
#
#
# Elastic Constant Matrix: (Units=GPa)
#
#
# Indices 1 2 3 4 5 6 
#
# 1 104.2517 64.6023 28.6243 0.0000 0.0000 0.0000
# 2 64.6023 98.6575 33.4306 0.0000 0.0000 0.0000
# 3 28.6243 33.4306 103.5789 0.0000 0.0000 0.0000
# 4 0.0000 0.0000 0.0000 25.8635 0.0000 0.0000
# 5 0.0000 0.0000 0.0000 0.0000 27.6253 0.0000
# 6 0.0000 0.0000 0.0000 0.0000 0.0000 25.8601
#
#
#
# Elastic Compliance Matrix: (Units=1/GPa)
#
#
# Indices 1 2 3 4 5 6 
#
# 1 0.016271 -0.010252 -0.001188 0.000000 0.000000 0.000000
# 2 -0.010252 0.017840 -0.002925 0.000000 0.000000 0.000000
# 3 -0.001188 -0.002925 0.010927 0.000000 0.000000 0.000000
# 4 0.000000 0.000000 0.000000 0.038664 0.000000 0.000000
# 5 0.000000 0.000000 0.000000 0.000000 0.036199 0.000000
# 6 0.000000 0.000000 0.000000 0.000000 0.000000 0.038670
#
#
# Mechanical properties :
#
#
# Convention : Reuss Voigt Hill
#
# Bulk Modulus (GPa) = 61.31598 62.20031 61.75815
# Shear Modulus (GPa) = 25.94206 27.85852 26.90029
#
# Velocity S-wave (km/s) = 3.57184 3.70142 3.63721
# Velocity P-wave (km/s) = 6.86770 6.98976 6.92900
#
# Compressibility (1/GPa) = 0.01630896
#
# Stress axis : x y z
#
# Youngs Moduli (GPa) = 61.45778 56.05227 91.51890
#
# Poissons Ratio (x) = 0.57466 0.10869
# Poissons Ratio (y) = 0.63008 0.26768
# Poissons Ratio (z) = 0.07299 0.16395
#
# Static dielectric constant tensor:
#      x y z
#    x 1.701400 0.000000 0.000000 
#    y 0.000000 1.731710 0.000000 
#    z 0.000000 0.000000 1.716390 
# 
# From -- ./inp_files/3443.got.cif
#   From: 2010.05.17/outbox.cif.g08.bks.cpg/sg47_2_cif.got.tgz:3443.got - 2010.06.03 20:15:42.
