data_PCOD9387810
_publ_section_title
;
Structure prediction by ZEFSAII (Michael W. Deem and Ramdas Pophale) SiO2 
 PCOD9387810
Probable space group: P M M M
;
_chemical_formula_sum "Si O2"
_cell_formula_units_Z 41
_cell_length_a 23.137568
_cell_length_b 7.451856
_cell_length_c 11.002489
_cell_angle_alpha 90.000000
_cell_angle_beta 90.000000
_cell_angle_gamma 90.000000
_cell_volume 1897.025222
_symmetry_space_group_name_H-M "P M M M"
_symmetry_group_IT_number 47
_symmetry_cell_setting 'orthorhombic'
loop_
_space_group_symop_operation_xyz
x,y,z
-x,-y,z
x,-y,-z
-x,y,-z
-x,-y,-z
x,y,-z
-x,y,z
x,-y,z
loop_
_atom_site_type_symbol
_atom_site_label
_atom_site_fract_x
_atom_site_fract_y
_atom_site_fract_z
Si Si1 0.500000 0.500000 0.500000
Si Si2 0.937934 0.215852 0.643233
Si Si3 0.500000 0.781868 0.858395
Si Si4 0.256716 0.708135 0.868285
Si Si5 0.624280 0.214559 0.233691
Si Si6 0.604890 0.785557 0.500000
Si Si7 0.808991 0.291251 0.638350
O O1 0.549919 0.657973 0.500000
O O2 0.939462 0.261955 0.500000
O O3 0.875604 0.283158 0.683485
O O4 0.000000 0.276766 0.695871
O O5 0.936618 0.000000 0.652654
O O6 0.559383 0.719970 0.796088
O O7 0.500000 0.000000 0.851335
O O8 0.500000 0.732698 0.000000
O O9 0.238293 0.500000 0.871119
O O10 0.325686 0.712111 0.850591
O O11 0.229344 0.790154 0.746223
O O12 0.241879 0.787571 0.000000
O O13 0.637850 0.251427 0.374691
O O14 0.623660 0.000000 0.216494
O O15 0.589546 0.000000 0.500000
O O16 0.805425 0.215053 0.500000
O O17 0.792693 0.500000 0.627060
#
# Coordination Sequence:
#
# PCOD9387810 Si02
#       7
#     1   8   4   8   8   4   8
#     4  12  22  36  64  86 118 168 182 220 304 354
#     4   8  14  26  46  75 109 139 170 216 271 322
#     4   9  17  31  53  76  98 131 172 214 267 329
#     4  10  22  38  55  78 111 145 184 234 282 336
#     4  10  21  38  58  79 110 142 180 235 285 334
#     4  10  23  39  57  90 121 147 191 238 282 352
#     4   9  18  32  51  76 105 141 182 226 272 324
#
# _framework density 21.612784000000001
#
# number of rings (size 3 to 8) (size 9 to 14) (size 15 to 20)
#    0.000    2.634    0.000    1.902    2.732    3.902 
#    0.000    1.951    0.000    2.341    0.000    4.098 
#    0.000    0.000    0.000    0.000    0.000    0.000 
#
# Total GULP energy -228358.153496 kJ/mol
# GULP energy per Si atom -5569.711061 kJ/mol
# Density = 2.156359 g / cm^3
# Si number density = 21.612784 Si / 1000 Ang^3
#
#
#
# Elastic Constant Matrix: (Units=GPa)
#
#
# Indices 1 2 3 4 5 6 
#
# 1 100.7203 -7.4901 60.7618 0.0000 0.0000 0.0000
# 2 -7.4901 63.9493 11.7165 0.0000 0.0000 0.0000
# 3 60.7618 11.7165 144.4635 0.0000 0.0000 0.0000
# 4 0.0000 0.0000 0.0000 0.0877 0.0000 0.0000
# 5 0.0000 0.0000 0.0000 0.0000 23.5007 0.0000
# 6 0.0000 0.0000 0.0000 0.0000 0.0000 27.9213
#
#
#
# Elastic Compliance Matrix: (Units=1/GPa)
#
#
# Indices 1 2 3 4 5 6 
#
# 1 0.013752 0.002711 -0.006004 0.000000 0.000000 0.000000
# 2 0.002711 0.016408 -0.002471 0.000000 0.000000 0.000000
# 3 -0.006004 -0.002471 0.009648 0.000000 0.000000 0.000000
# 4 0.000000 0.000000 0.000000 11.398322 0.000000 0.000000
# 5 0.000000 0.000000 0.000000 0.000000 0.042552 0.000000
# 6 0.000000 0.000000 0.000000 0.000000 0.000000 0.035815
#
#
# Mechanical properties :
#
#
# Convention : Reuss Voigt Hill
#
# Bulk Modulus (GPa) = 35.36154 48.78993 42.07573
# Shear Modulus (GPa) = 0.43337 26.57827 13.50582
#
# Velocity S-wave (km/s) = 0.44828 3.51058 2.50251
# Velocity P-wave (km/s) = 4.08226 6.24946 5.27829
#
# Compressibility (1/GPa) = 0.02827931
#
# Stress axis : x y z
#
# Youngs Moduli (GPa) = 72.71589 60.94741 103.64969
#
# Poissons Ratio (x) = -0.16521 0.62232
# Poissons Ratio (y) = -0.19712 0.25610
# Poissons Ratio (z) = 0.43659 0.15059
#
# Static dielectric constant tensor:
#      x y z
#    x 1.784410 0.000000 0.000000 
#    y 0.000000 1.809310 0.000000 
#    z 0.000000 0.000000 1.819050 
# 
# From -- ./inp_files/19010.got.cif
#   From: 2010.05.17/outbox.cif.g08.bks.cpg/sg47_10_cif.got.tgz:19010.got - 2010.06.03 20:15:42.
