data_PCOD9387294
_publ_section_title
;
Structure prediction by ZEFSAII (Michael W. Deem and Ramdas Pophale) SiO2 
 PCOD9387294
Probable space group: P M M M
;
_chemical_formula_sum "Si O2"
_cell_formula_units_Z 48
_cell_length_a 10.148339
_cell_length_b 8.625296
_cell_length_c 29.878426
_cell_angle_alpha 90.000000
_cell_angle_beta 90.000000
_cell_angle_gamma 90.000000
_cell_volume 2615.331166
_symmetry_space_group_name_H-M "P M M M"
_symmetry_group_IT_number 47
_symmetry_cell_setting 'orthorhombic'
loop_
_space_group_symop_operation_xyz
x,y,z
-x,-y,z
x,-y,-z
-x,y,-z
-x,-y,-z
x,y,-z
-x,y,z
x,-y,z
loop_
_atom_site_type_symbol
_atom_site_label
_atom_site_fract_x
_atom_site_fract_y
_atom_site_fract_z
Si Si1 0.652844 0.312596 0.125045
Si Si2 0.748435 0.186080 0.604137
Si Si3 0.848650 0.686713 0.796473
Si Si4 0.851303 0.186823 0.052540
Si Si5 0.000000 0.313943 0.552540
Si Si6 0.845934 0.813989 0.300984
Si Si7 0.500000 0.685626 0.551650
O O1 0.500000 0.259690 0.125692
O O2 0.650495 0.500000 0.125670
O O3 0.741041 0.259343 0.167472
O O4 0.735843 0.258495 0.082048
O O5 0.874602 0.244252 0.577206
O O6 0.762452 0.236250 0.655983
O O7 0.624922 0.253703 0.578447
O O8 0.744525 0.000000 0.603852
O O9 0.851237 0.500000 0.797950
O O10 0.812347 0.739115 0.746460
O O11 0.000000 0.740997 0.805643
O O12 0.000000 0.236513 0.066759
O O13 0.846522 0.000000 0.056326
O O14 0.837112 0.225471 0.000000
O O15 0.000000 0.500000 0.556325
O O16 0.000000 0.274428 0.500000
O O17 0.000000 0.777816 0.310360
O O18 0.835587 0.000000 0.296690
O O19 0.500000 0.500000 0.550988
O O20 0.500000 0.739901 0.500000
#
# Coordination Sequence:
#
# PCOD9387294 Si02
#       7
#     8   8   8   8   4   8   4
#     4  10  21  36  53  78 115 151 185 228 276 329
#     4  11  22  39  61  85 114 149 189 232 281 340
#     4   9  18  33  54  78 104 141 186 227 271 325
#     4   9  19  36  57  81 109 143 187 236 282 331
#     4  11  23  37  57  87 119 149 185 233 282 331
#     4   9  18  35  57  83 112 139 176 228 279 327
#     4  11  25  43  59  81 115 151 189 233 282 337
#
# _framework density 18.353314999999998
#
# number of rings (size 3 to 8) (size 9 to 14) (size 15 to 20)
#    0.000    2.167    0.833    2.500    0.000    7.333 
#    1.500    4.167    0.000    0.000    0.000    0.000 
#    0.000    0.000    0.000    0.000    0.000    0.000 
#
# Total GULP energy -267878.382618 kJ/mol
# GULP energy per Si atom -5580.799638 kJ/mol
# Density = 1.831154 g / cm^3
# Si number density = 18.353315 Si / 1000 Ang^3
#
#
#
# Elastic Constant Matrix: (Units=GPa)
#
#
# Indices 1 2 3 4 5 6 
#
# 1 174.1890 29.4662 103.8590 0.0000 0.0000 0.0000
# 2 29.4662 15.9305 27.6409 0.0000 0.0000 0.0000
# 3 103.8590 27.6409 144.9348 0.0000 0.0000 0.0000
# 4 0.0000 0.0000 0.0000 35.1374 0.0000 0.0000
# 5 0.0000 0.0000 0.0000 0.0000 29.0180 0.0000
# 6 0.0000 0.0000 0.0000 0.0000 0.0000 26.6407
#
#
#
# Elastic Compliance Matrix: (Units=1/GPa)
#
#
# Indices 1 2 3 4 5 6 
#
# 1 0.010988 -0.009957 -0.005975 0.000000 0.000000 0.000000
# 2 -0.009957 0.102840 -0.012478 0.000000 0.000000 0.000000
# 3 -0.005975 -0.012478 0.013561 0.000000 0.000000 0.000000
# 4 0.000000 0.000000 0.000000 0.028460 0.000000 0.000000
# 5 0.000000 0.000000 0.000000 0.000000 0.034461 0.000000
# 6 0.000000 0.000000 0.000000 0.000000 0.000000 0.037537
#
#
# Mechanical properties :
#
#
# Convention : Reuss Voigt Hill
#
# Bulk Modulus (GPa) = 14.17044 72.99851 43.58447
# Shear Modulus (GPa) = 16.22386 29.76510 22.99448
#
# Velocity S-wave (km/s) = 2.97640 4.03151 3.54344
# Velocity P-wave (km/s) = 4.42149 7.84418 6.36713
#
# Compressibility (1/GPa) = 0.07056946
#
# Stress axis : x y z
#
# Youngs Moduli (GPa) = 91.01191 9.72384 73.74195
#
# Poissons Ratio (x) = 0.09682 0.44059
# Poissons Ratio (y) = 0.90618 0.92015
# Poissons Ratio (z) = 0.54377 0.12133
#
# Static dielectric constant tensor:
#      x y z
#    x 1.602350 0.000000 0.000000 
#    y 0.000000 1.622920 0.000000 
#    z 0.000000 0.000000 1.622600 
# 
# From -- ./inp_files/2758.got.cif
#   From: 2010.05.17/outbox.cif.g08.bks.cpg/sg47_2_cif.got.tgz:2758.got - 2010.06.03 20:15:42.
