data_PCOD9387309
_publ_section_title
;
Structure prediction by ZEFSAII (Michael W. Deem and Ramdas Pophale) SiO2 
 PCOD9387309
Probable space group: P M M M
;
_chemical_formula_sum "Si O2"
_cell_formula_units_Z 64
_cell_length_a 21.106940
_cell_length_b 8.266965
_cell_length_c 20.298459
_cell_angle_alpha 90.000000
_cell_angle_beta 90.000000
_cell_angle_gamma 90.000000
_cell_volume 3541.884895
_symmetry_space_group_name_H-M "P M M M"
_symmetry_group_IT_number 47
_symmetry_cell_setting 'orthorhombic'
loop_
_space_group_symop_operation_xyz
x,y,z
-x,-y,z
x,-y,-z
-x,y,-z
-x,-y,-z
x,y,-z
-x,y,z
x,-y,z
loop_
_atom_site_type_symbol
_atom_site_label
_atom_site_fract_x
_atom_site_fract_y
_atom_site_fract_z
Si Si1 0.252868 0.689076 0.292463
Si Si2 0.072506 0.197318 0.074997
Si Si3 0.812177 0.191598 0.836809
Si Si4 0.304700 0.695189 0.922354
Si Si5 0.256134 0.193528 0.428492
Si Si6 0.431843 0.308915 0.852328
Si Si7 0.396030 0.186915 0.286434
Si Si8 0.401311 0.308594 0.571912
O O1 0.268619 0.500000 0.293783
O O2 0.207775 0.726796 0.231493
O O3 0.223987 0.741965 0.362573
O O4 0.319931 0.782380 0.285369
O O5 0.123809 0.252362 0.128114
O O6 0.000000 0.246334 0.088441
O O7 0.073784 0.000000 0.075129
O O8 0.088911 0.247686 0.000000
O O9 0.754864 0.224484 0.887169
O O10 0.817935 0.000000 0.825318
O O11 0.300011 0.500000 0.912140
O O12 0.369586 0.755447 0.888591
O O13 0.305408 0.725863 0.000000
O O14 0.226453 0.228269 0.500000
O O15 0.325696 0.274821 0.429025
O O16 0.264805 0.000000 0.423335
O O17 0.500000 0.239310 0.872566
O O18 0.432961 0.500000 0.866945
O O19 0.423766 0.286656 0.774118
O O20 0.421724 0.232433 0.358883
O O21 0.408708 0.000000 0.273940
O O22 0.424829 0.248845 0.500000
O O23 0.413024 0.500000 0.574827
#
# Coordination Sequence:
#
# PCOD9387309 Si02
#       8
#     8   8   8   8   8   8   8   8
#     4  11  20  30  46  68  99 135 169 206 248 297
#     4   8  15  29  49  74 104 137 172 208 247 294
#     4  11  20  31  51  78 105 135 170 209 251 292
#     4  10  21  36  54  76 101 129 161 201 250 304
#     4   9  16  26  41  64  95 128 163 204 248 293
#     4  10  21  37  55  72  94 128 166 204 250 306
#     4  11  20  31  49  71  96 126 161 205 252 297
#     4   9  16  26  43  67  94 125 159 195 239 294
#
# _framework density 18.069474
#
# number of rings (size 3 to 8) (size 9 to 14) (size 15 to 20)
#    0.000    2.125    1.250    5.625    0.000    2.750 
#    0.000    1.250    0.000    1.875    0.000    8.750 
#    0.000    0.500    0.000    5.750    0.000    1.625 
#
# Total GULP energy -357033.249879 kJ/mol
# GULP energy per Si atom -5578.644529 kJ/mol
# Density = 1.802835 g / cm^3
# Si number density = 18.069474 Si / 1000 Ang^3
#
#
#
# Elastic Constant Matrix: (Units=GPa)
#
#
# Indices 1 2 3 4 5 6 
#
# 1 74.1468 -1.6739 41.6470 0.0000 0.0000 0.0000
# 2 -1.6739 19.1954 -4.3771 0.0000 0.0000 0.0000
# 3 41.6470 -4.3771 94.2959 0.0000 0.0000 0.0000
# 4 0.0000 0.0000 0.0000 19.9593 0.0000 0.0000
# 5 0.0000 0.0000 0.0000 0.0000 79.2774 0.0000
# 6 0.0000 0.0000 0.0000 0.0000 0.0000 7.1228
#
#
#
# Elastic Compliance Matrix: (Units=1/GPa)
#
#
# Indices 1 2 3 4 5 6 
#
# 1 0.017937 -0.000245 -0.007934 0.000000 0.000000 0.000000
# 2 -0.000245 0.052657 0.002552 0.000000 0.000000 0.000000
# 3 -0.007934 0.002552 0.014227 0.000000 0.000000 0.000000
# 4 0.000000 0.000000 0.000000 0.050102 0.000000 0.000000
# 5 0.000000 0.000000 0.000000 0.000000 0.012614 0.000000
# 6 0.000000 0.000000 0.000000 0.000000 0.000000 0.140395
#
#
# Mechanical properties :
#
#
# Convention : Reuss Voigt Hill
#
# Bulk Modulus (GPa) = 13.59266 28.75891 21.17579
# Shear Modulus (GPa) = 15.44606 31.40805 23.42705
#
# Velocity S-wave (km/s) = 2.92689 4.17368 3.60460
# Velocity P-wave (km/s) = 4.35443 6.25910 5.39154
#
# Compressibility (1/GPa) = 0.07356910
#
# Stress axis : x y z
#
# Youngs Moduli (GPa) = 55.74932 18.99099 70.28693
#
# Poissons Ratio (x) = 0.00465 0.55763
# Poissons Ratio (y) = 0.01365 -0.17940
# Poissons Ratio (z) = 0.44230 -0.04847
#
# Static dielectric constant tensor:
#      x y z
#    x 1.619580 0.000000 0.000000 
#    y 0.000000 1.627240 0.000000 
#    z 0.000000 0.000000 1.656500 
# 
# From -- ./inp_files/31523.got.cif
#   From: 2010.05.17/outbox.cif.g08.bks.cpg/sg47_16_cif.got.tgz:31523.got - 2010.06.03 20:15:42.
