data_PCOD9387877
_publ_section_title
;
Structure prediction by ZEFSAII (Michael W. Deem and Ramdas Pophale) SiO2 
 PCOD9387877
Probable space group: P M M M
;
_chemical_formula_sum "Si O2"
_cell_formula_units_Z 24
_cell_length_a 17.847248
_cell_length_b 9.141103
_cell_length_c 7.287399
_cell_angle_alpha 90.000000
_cell_angle_beta 90.000000
_cell_angle_gamma 90.000000
_cell_volume 1188.892014
_symmetry_space_group_name_H-M "P M M M"
_symmetry_group_IT_number 47
_symmetry_cell_setting 'orthorhombic'
loop_
_space_group_symop_operation_xyz
x,y,z
-x,-y,z
x,-y,-z
-x,y,-z
-x,-y,-z
x,y,-z
-x,y,z
x,-y,z
loop_
_atom_site_type_symbol
_atom_site_label
_atom_site_fract_x
_atom_site_fract_y
_atom_site_fract_z
Si Si1 0.000000 0.331164 0.723907
Si Si2 0.848937 0.168406 0.723191
Si Si3 0.304721 0.672416 0.280490
Si Si4 0.588498 0.825537 0.000000
O O1 0.924856 0.248189 0.782743
O O2 0.000000 0.500000 0.780726
O O3 0.000000 0.330248 0.500000
O O4 0.850229 0.168050 0.500000
O O5 0.774367 0.255638 0.775867
O O6 0.846260 0.000000 0.782620
O O7 0.312389 0.689343 0.500000
O O8 0.304588 0.500000 0.238684
O O9 0.370731 0.753777 0.174411
O O10 0.500000 0.796314 0.000000
O O11 0.600073 0.000000 0.000000
#
# Coordination Sequence:
#
# PCOD9387877 Si02
#       4
#     4   8   8   4
#     4   9  15  23  39  68 107 148 192 239 282 328
#     4   9  16  27  46  74 109 149 192 236 283 335
#     4  10  21  38  61  88 118 153 193 238 289 344
#     4  11  25  43  63  88 117 150 189 235 289 349
#
# _framework density 20.186862000000001
#
# number of rings (size 3 to 8) (size 9 to 14) (size 15 to 20)
#    0.000    2.333    0.000    3.000    0.000   10.000 
#    0.000    3.333    0.000    1.000    0.000    7.000 
#    0.000    0.000    0.000    0.000    0.000    0.000 
#
# Total GULP energy -134193.253391 kJ/mol
# GULP energy per Si atom -5591.385558 kJ/mol
# Density = 2.014092 g / cm^3
# Si number density = 20.186862 Si / 1000 Ang^3
#
#
#
# Elastic Constant Matrix: (Units=GPa)
#
#
# Indices 1 2 3 4 5 6 
#
# 1 220.0952 148.7703 54.0634 0.0000 0.0000 0.0000
# 2 148.7703 209.7015 50.3991 0.0000 0.0000 0.0000
# 3 54.0634 50.3991 93.0399 0.0000 0.0000 0.0000
# 4 0.0000 0.0000 0.0000 12.5604 0.0000 0.0000
# 5 0.0000 0.0000 0.0000 0.0000 37.6803 0.0000
# 6 0.0000 0.0000 0.0000 0.0000 0.0000 319.7200
#
#
#
# Elastic Compliance Matrix: (Units=1/GPa)
#
#
# Indices 1 2 3 4 5 6 
#
# 1 0.009057 -0.005933 -0.002049 0.000000 0.000000 0.000000
# 2 -0.005933 0.009369 -0.001628 0.000000 0.000000 0.000000
# 3 -0.002049 -0.001628 0.012820 0.000000 0.000000 0.000000
# 4 0.000000 0.000000 0.000000 0.079615 0.000000 0.000000
# 5 0.000000 0.000000 0.000000 0.000000 0.026539 0.000000
# 6 0.000000 0.000000 0.000000 0.000000 0.000000 0.003128
#
#
# Mechanical properties :
#
#
# Convention : Reuss Voigt Hill
#
# Bulk Modulus (GPa) = 83.14449 114.36689 98.75569
# Shear Modulus (GPa) = 30.53304 91.96571 61.24937
#
# Velocity S-wave (km/s) = 3.89333 6.75693 5.51426
# Velocity P-wave (km/s) = 7.84140 10.84675 9.46413
#
# Compressibility (1/GPa) = 0.01202726
#
# Stress axis : x y z
#
# Youngs Moduli (GPa) = 110.40985 106.73528 78.00095
#
# Poissons Ratio (x) = 0.63327 0.15983
# Poissons Ratio (y) = 0.65507 0.12695
# Poissons Ratio (z) = 0.22623 0.17372
#
# Static dielectric constant tensor:
#      x y z
#    x 1.653240 0.000000 0.000000 
#    y 0.000000 1.668390 0.000000 
#    z 0.000000 0.000000 1.787240 
# 
# From -- ./inp_files/8382.got.cif
#   From: 2010.05.17/outbox.cif.g08.bks.cpg/sg47_5_cif.got.tgz:8382.got - 2010.06.03 20:15:42.
