data_PCOD9387371
_publ_section_title
;
Structure prediction by ZEFSAII (Michael W. Deem and Ramdas Pophale) SiO2 
 PCOD9387371
Probable space group: P M M M
;
_chemical_formula_sum "Si O2"
_cell_formula_units_Z 48
_cell_length_a 9.344869
_cell_length_b 33.271123
_cell_length_c 8.278163
_cell_angle_alpha 90.000000
_cell_angle_beta 90.000000
_cell_angle_gamma 90.000000
_cell_volume 2573.799138
_symmetry_space_group_name_H-M "P M M M"
_symmetry_group_IT_number 47
_symmetry_cell_setting 'orthorhombic'
loop_
_space_group_symop_operation_xyz
x,y,z
-x,-y,z
x,-y,-z
-x,y,-z
-x,-y,-z
x,y,-z
-x,y,z
x,-y,z
loop_
_atom_site_type_symbol
_atom_site_label
_atom_site_fract_x
_atom_site_fract_y
_atom_site_fract_z
Si Si1 0.335115 0.346391 0.692290
Si Si2 0.673903 0.953914 0.000000
Si Si3 0.162376 0.422948 0.192351
Si Si4 0.664141 0.741067 0.192370
Si Si5 0.662076 0.500000 0.307442
Si Si6 0.327402 0.900886 0.311211
Si Si7 0.836493 0.818162 0.693760
O O1 0.336318 0.350919 0.500000
O O2 0.500000 0.350303 0.751381
O O3 0.237554 0.381133 0.763870
O O4 0.286124 0.301390 0.735292
O O5 0.715099 0.931464 0.832669
O O6 0.500000 0.954232 0.000000
O O7 0.723599 0.000000 0.000000
O O8 0.254200 0.460214 0.255500
O O9 0.000000 0.424399 0.256458
O O10 0.156624 0.426355 0.000000
O O11 0.500000 0.747916 0.249239
O O12 0.760432 0.778765 0.238142
O O13 0.662010 0.736890 0.000000
O O14 0.500000 0.500000 0.241727
O O15 0.654135 0.500000 0.500000
O O16 0.291182 0.911796 0.500000
O O17 0.500000 0.896738 0.306048
O O18 0.253512 0.858371 0.272154
O O19 0.839073 0.814184 0.500000
O O20 0.000000 0.821879 0.751622
#
# Coordination Sequence:
#
# PCOD9387371 Si02
#       7
#     8   4   8   8   4   8   8
#     4  10  21  38  60  84 110 144 186 228 272 327
#     4   9  18  32  53  83 113 141 183 237 287 340
#     4  11  24  40  59  85 116 148 183 225 274 328
#     4  10  21  36  56  82 111 145 185 229 277 330
#     4  11  24  41  62  88 114 143 184 229 274 328
#     4   9  18  33  54  79 109 146 186 231 284 340
#     4  10  21  36  54  78 109 145 185 231 281 332
#
# _framework density 18.649474000000001
#
# number of rings (size 3 to 8) (size 9 to 14) (size 15 to 20)
#    0.000    2.000    0.000    3.000    1.167    9.000 
#    0.000    1.667    0.000    1.000    0.000    2.333 
#    0.000    0.000    0.000    0.000    0.000    0.000 
#
# Total GULP energy -267955.964804 kJ/mol
# GULP energy per Si atom -5582.415933 kJ/mol
# Density = 1.860703 g / cm^3
# Si number density = 18.649474 Si / 1000 Ang^3
#
#
#
# Elastic Constant Matrix: (Units=GPa)
#
#
# Indices 1 2 3 4 5 6 
#
# 1 84.3633 72.5314 39.2452 0.0000 0.0000 0.0000
# 2 72.5314 144.2656 60.2078 0.0000 0.0000 0.0000
# 3 39.2452 60.2078 67.4946 0.0000 0.0000 0.0000
# 4 0.0000 0.0000 0.0000 41.2136 0.0000 0.0000
# 5 0.0000 0.0000 0.0000 0.0000 21.3836 0.0000
# 6 0.0000 0.0000 0.0000 0.0000 0.0000 -16.2334
#
#
#
# Elastic Compliance Matrix: (Units=1/GPa)
#
#
# Indices 1 2 3 4 5 6 
#
# 1 0.021741 -0.009008 -0.004606 0.000000 0.000000 0.000000
# 2 -0.009008 0.014775 -0.007942 0.000000 0.000000 0.000000
# 3 -0.004606 -0.007942 0.024579 0.000000 0.000000 0.000000
# 4 0.000000 0.000000 0.000000 0.024264 0.000000 0.000000
# 5 0.000000 0.000000 0.000000 0.000000 0.046765 0.000000
# 6 0.000000 0.000000 0.000000 0.000000 0.000000 -0.061601
#
#
# Mechanical properties :
#
#
# Convention : Reuss Voigt Hill
#
# Bulk Modulus (GPa) = 55.60917 71.12137 63.36527
# Shear Modulus (GPa) = 41.79594 17.54870 29.67232
#
# Velocity S-wave (km/s) = 4.73920 3.07086 3.99313
# Velocity P-wave (km/s) = 7.73495 7.12687 7.43713
#
# Compressibility (1/GPa) = 0.01798264
#
# Stress axis : x y z
#
# Youngs Moduli (GPa) = 45.99602 67.68019 40.68575
#
# Poissons Ratio (x) = 0.60970 0.18738
# Poissons Ratio (y) = 0.41436 0.32313
# Poissons Ratio (z) = 0.21184 0.53753
#
# Static dielectric constant tensor:
#      x y z
#    x 1.648120 0.000000 0.000000 
#    y 0.000000 1.610600 0.000000 
#    z 0.000000 0.000000 1.648970 
# 
# From -- ./inp_files/2545.got.cif
#   From: 2010.05.17/outbox.cif.g08.bks.cpg/sg47_2_cif.got.tgz:2545.got - 2010.06.03 20:15:42.
