data_PCOD9387485
_publ_section_title
;
Structure prediction by ZEFSAII (Michael W. Deem and Ramdas Pophale) SiO2 
 PCOD9387485
Probable space group: P M M M
;
_chemical_formula_sum "Si O2"
_cell_formula_units_Z 56
_cell_length_a 8.740947
_cell_length_b 20.590520
_cell_length_c 15.964087
_cell_angle_alpha 90.000000
_cell_angle_beta 90.000000
_cell_angle_gamma 90.000000
_cell_volume 2873.226659
_symmetry_space_group_name_H-M "P M M M"
_symmetry_group_IT_number 47
_symmetry_cell_setting 'orthorhombic'
loop_
_space_group_symop_operation_xyz
x,y,z
-x,-y,z
x,-y,-z
-x,y,-z
-x,-y,-z
x,y,-z
-x,y,z
x,-y,z
loop_
_atom_site_type_symbol
_atom_site_label
_atom_site_fract_x
_atom_site_fract_y
_atom_site_fract_z
Si Si1 0.683956 0.571369 0.726321
Si Si2 0.331630 0.737250 0.098963
Si Si3 0.186142 0.925748 0.500000
Si Si4 0.183027 0.174305 0.642596
Si Si5 0.183391 0.000000 0.098124
Si Si6 0.318346 0.872509 0.816071
Si Si7 0.685053 0.315826 0.597247
Si Si8 0.178744 0.606057 0.097187
O O1 0.500000 0.574925 0.727934
O O2 0.728209 0.500000 0.692743
O O3 0.737043 0.629805 0.665065
O O4 0.740079 0.574697 0.822734
O O5 0.500000 0.718873 0.135577
O O6 0.295326 0.809352 0.126500
O O7 0.207869 0.682327 0.116196
O O8 0.345900 0.737644 0.000000
O O9 0.232554 0.881849 0.421691
O O10 0.000000 0.928909 0.500000
O O11 0.241946 0.000000 0.500000
O O12 0.235304 0.147687 0.731453
O O13 0.254698 0.244397 0.621961
O O14 0.000000 0.180956 0.637852
O O15 0.249854 0.936363 0.142405
O O16 0.000000 0.000000 0.104728
O O17 0.225442 0.000000 0.000000
O O18 0.500000 0.880890 0.802932
O O19 0.729324 0.329770 0.500000
O O20 0.500000 0.314383 0.599869
O O21 0.000000 0.590229 0.098338
O O22 0.233220 0.593147 0.000000
#
# Coordination Sequence:
#
# PCOD9387485 Si02
#       8
#     8   8   4   8   4   8   8   8
#     4  10  22  39  59  85 116 154 201 248 298 360
#     4   9  18  34  56  80 108 146 190 234 283 342
#     4   9  20  38  59  83 114 153 191 235 288 344
#     4  11  22  38  62  90 119 155 199 244 295 357
#     4  11  25  43  61  84 117 160 207 251 298 356
#     4  11  23  38  58  85 117 153 195 244 300 354
#     4  10  21  39  63  89 121 158 198 251 309 366
#     4  10  21  36  56  84 117 152 191 239 298 360
#
# _framework density 19.490283000000002
#
# number of rings (size 3 to 8) (size 9 to 14) (size 15 to 20)
#    0.000    1.857    0.714    2.786    1.000    8.000 
#    0.000    4.286    0.000    1.714    0.000    2.000 
#    0.000    0.000    0.000    0.000    0.000    0.000 
#
# Total GULP energy -312395.945342 kJ/mol
# GULP energy per Si atom -5578.499024 kJ/mol
# Density = 1.944592 g / cm^3
# Si number density = 19.490283 Si / 1000 Ang^3
#
#
#
# Elastic Constant Matrix: (Units=GPa)
#
#
# Indices 1 2 3 4 5 6 
#
# 1 21.6965 28.7828 32.1238 0.0000 0.0000 0.0000
# 2 28.7828 154.0069 74.8512 0.0000 0.0000 0.0000
# 3 32.1238 74.8512 96.7045 0.0000 0.0000 0.0000
# 4 0.0000 0.0000 0.0000 93.2078 0.0000 0.0000
# 5 0.0000 0.0000 0.0000 0.0000 58.3451 0.0000
# 6 0.0000 0.0000 0.0000 0.0000 0.0000 998.4659
#
#
#
# Elastic Compliance Matrix: (Units=1/GPa)
#
#
# Indices 1 2 3 4 5 6 
#
# 1 0.092033 -0.003754 -0.027667 0.000000 0.000000 0.000000
# 2 -0.003754 0.010562 -0.006928 0.000000 0.000000 0.000000
# 3 -0.027667 -0.006928 0.024894 0.000000 0.000000 0.000000
# 4 0.000000 0.000000 0.000000 0.010729 0.000000 0.000000
# 5 0.000000 0.000000 0.000000 0.000000 0.017139 0.000000
# 6 0.000000 0.000000 0.000000 0.000000 0.000000 0.001002
#
#
# Mechanical properties :
#
#
# Convention : Reuss Voigt Hill
#
# Bulk Modulus (GPa) = 19.68821 60.43596 40.06209
# Shear Modulus (GPa) = 20.00104 239.11376 129.55740
#
# Velocity S-wave (km/s) = 3.20692 11.08828 8.16193
# Velocity P-wave (km/s) = 4.88221 13.96455 10.46051
#
# Compressibility (1/GPa) = 0.05079182
#
# Stress axis : x y z
#
# Youngs Moduli (GPa) = 10.86564 94.67797 40.17040
#
# Poissons Ratio (x) = 0.35539 1.11138
# Poissons Ratio (y) = 0.04079 0.27832
# Poissons Ratio (z) = 0.30062 0.65596
#
# Static dielectric constant tensor:
#      x y z
#    x 1.684110 0.000000 0.000000 
#    y 0.000000 1.650730 0.000000 
#    z 0.000000 0.000000 1.606270 
# 
# From -- ./inp_files/21671.got.cif
#   From: 2010.05.17/outbox.cif.g08.bks.cpg/sg47_11_cif.got.tgz:21671.got - 2010.06.03 20:15:42.
