data_PCOD9387875
_publ_section_title
;
Structure prediction by ZEFSAII (Michael W. Deem and Ramdas Pophale) SiO2 
 PCOD9387875
Probable space group: P M M M
;
_chemical_formula_sum "Si O2"
_cell_formula_units_Z 44
_cell_length_a 7.242128
_cell_length_b 9.264499
_cell_length_c 31.208209
_cell_angle_alpha 90.000000
_cell_angle_beta 90.000000
_cell_angle_gamma 90.000000
_cell_volume 2093.905034
_symmetry_space_group_name_H-M "P M M M"
_symmetry_group_IT_number 47
_symmetry_cell_setting 'orthorhombic'
loop_
_space_group_symop_operation_xyz
x,y,z
-x,-y,z
x,-y,-z
-x,y,-z
-x,-y,-z
x,y,-z
-x,y,z
x,-y,z
loop_
_atom_site_type_symbol
_atom_site_label
_atom_site_fract_x
_atom_site_fract_y
_atom_site_fract_z
Si Si1 0.225110 0.665651 0.367968
Si Si2 0.500000 0.328670 0.050932
Si Si3 0.224420 0.666129 0.197711
Si Si4 0.775566 0.832714 0.547741
Si Si5 0.774944 0.166178 0.717130
Si Si6 0.221166 0.169846 0.889146
O O1 0.282289 0.500000 0.364088
O O2 0.285493 0.736282 0.412632
O O3 0.282973 0.758423 0.326942
O O4 0.000000 0.667174 0.368128
O O5 0.500000 0.500000 0.059757
O O6 0.674958 0.253037 0.073166
O O7 0.500000 0.307571 0.000000
O O8 0.284521 0.500000 0.195343
O O9 0.283950 0.743789 0.241338
O O10 0.276901 0.756520 0.155787
O O11 0.000000 0.664938 0.198429
O O12 0.717810 0.786133 0.500000
O O13 0.000000 0.830381 0.547893
O O14 0.721926 0.000000 0.553719
O O15 0.000000 0.166526 0.717237
O O16 0.717091 0.000000 0.719439
O O17 0.000000 0.183480 0.893381
O O18 0.266412 0.000000 0.889045
#
# Coordination Sequence:
#
# PCOD9387875 Si02
#       6
#     8   4   8   8   8   8
#     4   9  15  20  26  38  57  82 116 163 221 282
#     4  11  25  43  63  89 121 157 197 241 288 337
#     4   9  16  27  45  69  97 128 163 205 255 312
#     4   8  13  20  27  33  44  68 106 154 211 276
#     4   9  15  22  33  50  74 104 139 181 232 292
#     4  10  21  38  61  88 118 153 193 237 286 340
#
# _framework density 21.013369999999998
#
# number of rings (size 3 to 8) (size 9 to 14) (size 15 to 20)
#    0.000    2.818    0.000    3.000    0.000    9.091 
#    0.000    3.636    0.000    0.000    0.000    0.000 
#    0.000    0.000    0.000    0.000    0.000    0.000 
#
# Total GULP energy -245921.571823 kJ/mol
# GULP energy per Si atom -5589.126632 kJ/mol
# Density = 2.096554 g / cm^3
# Si number density = 21.013370 Si / 1000 Ang^3
#
#
#
# Elastic Constant Matrix: (Units=GPa)
#
#
# Indices 1 2 3 4 5 6 
#
# 1 99.5639 31.1152 31.4348 0.0000 0.0000 0.0000
# 2 31.1152 210.3585 142.1203 0.0000 0.0000 0.0000
# 3 31.4348 142.1203 204.1142 0.0000 0.0000 0.0000
# 4 0.0000 0.0000 0.0000 44.1968 0.0000 0.0000
# 5 0.0000 0.0000 0.0000 0.0000 333.4541 0.0000
# 6 0.0000 0.0000 0.0000 0.0000 0.0000 -5.6394
#
#
#
# Elastic Compliance Matrix: (Units=1/GPa)
#
#
# Indices 1 2 3 4 5 6 
#
# 1 0.010643 -0.000882 -0.001025 0.000000 0.000000 0.000000
# 2 -0.000882 0.009049 -0.006165 0.000000 0.000000 0.000000
# 3 -0.001025 -0.006165 0.009350 0.000000 0.000000 0.000000
# 4 0.000000 0.000000 0.000000 0.022626 0.000000 0.000000
# 5 0.000000 0.000000 0.000000 0.000000 0.002999 0.000000
# 6 0.000000 0.000000 0.000000 0.000000 0.000000 -0.177324
#
#
# Mechanical properties :
#
#
# Convention : Reuss Voigt Hill
#
# Bulk Modulus (GPa) = 77.53007 102.59746 90.06376
# Shear Modulus (GPa) = -48.91719 95.02673 23.05477
#
# Velocity S-wave (km/s) = -4.83007 6.73203 3.31592
# Velocity P-wave (km/s) = 2.42271 10.45743 7.59037
#
# Compressibility (1/GPa) = 0.01289822
#
# Stress axis : x y z
#
# Youngs Moduli (GPa) = 93.95841 110.50433 106.95452
#
# Poissons Ratio (x) = 0.09742 0.10966
# Poissons Ratio (y) = 0.08283 0.65939
# Poissons Ratio (z) = 0.09633 0.68128
#
# Static dielectric constant tensor:
#      x y z
#    x 1.634720 0.000000 0.000000 
#    y 0.000000 1.695760 0.000000 
#    z 0.000000 0.000000 1.696010 
# 
# From -- ./inp_files/33915.got.cif
#   From: 2010.05.17/outbox.cif.g08.bks.cpg/sg47_17_cif.got.tgz:33915.got - 2010.06.03 20:15:42.
