data_PCOD9387150
_publ_section_title
;
Structure prediction by ZEFSAII (Michael W. Deem and Ramdas Pophale) SiO2 
 PCOD9387150
Probable space group: P M M M
;
_chemical_formula_sum "Si O2"
_cell_formula_units_Z 48
_cell_length_a 20.313017
_cell_length_b 14.808108
_cell_length_c 7.948314
_cell_angle_alpha 90.000000
_cell_angle_beta 90.000000
_cell_angle_gamma 90.000000
_cell_volume 2390.831785
_symmetry_space_group_name_H-M "P M M M"
_symmetry_group_IT_number 47
_symmetry_cell_setting 'orthorhombic'
loop_
_space_group_symop_operation_xyz
x,y,z
-x,-y,z
x,-y,-z
-x,y,-z
-x,-y,-z
x,y,-z
-x,y,z
x,-y,z
loop_
_atom_site_type_symbol
_atom_site_label
_atom_site_fract_x
_atom_site_fract_y
_atom_site_fract_z
Si Si1 0.801330 0.391344 0.195012
Si Si2 0.782525 0.896624 0.000000
Si Si3 0.071488 0.844432 0.000000
Si Si4 0.302609 0.890688 0.694281
Si Si5 0.655356 0.396719 0.203469
Si Si6 0.426529 0.225358 0.298559
Si Si7 0.072483 0.290759 0.686806
O O1 0.802821 0.500000 0.194736
O O2 0.728607 0.367395 0.262148
O O3 0.864608 0.353976 0.289308
O O4 0.806186 0.360455 0.000000
O O5 0.860651 0.896838 0.000000
O O6 0.752142 0.857862 0.827873
O O7 0.759820 0.000000 0.000000
O O8 0.073982 0.782098 0.165580
O O9 0.000000 0.891101 0.000000
O O10 0.289190 0.863234 0.500000
O O11 0.371542 0.847350 0.753211
O O12 0.306500 0.000000 0.692844
O O13 0.642522 0.500000 0.259198
O O14 0.601729 0.324151 0.256596
O O15 0.658454 0.398302 0.000000
O O16 0.430338 0.217791 0.500000
O O17 0.500000 0.212035 0.229315
O O18 0.075657 0.249926 0.500000
O O19 0.000000 0.336784 0.700789
#
# Coordination Sequence:
#
# PCOD9387150 Si02
#       7
#     8   4   4   8   8   8   8
#     4   9  18  33  53  76 104 142 186 234 289 339
#     4  10  22  39  63  91 115 147 191 230 274 337
#     4  10  22  39  57  81 117 152 182 229 285 328
#     4   9  20  39  61  89 123 153 187 236 290 344
#     4   9  20  37  55  78 110 147 190 241 291 339
#     4  10  22  37  55  82 112 150 195 234 287 350
#     4  10  21  35  52  78 110 146 188 229 278 340
#
# _framework density 20.076692999999999
#
# number of rings (size 3 to 8) (size 9 to 14) (size 15 to 20)
#    0.000    2.500    0.833    1.000    3.500    3.500 
#    0.000    6.667    0.000    1.500    0.000    4.667 
#    0.000    0.000    0.000    0.000    0.000    0.000 
#
# Total GULP energy -267644.992440 kJ/mol
# GULP energy per Si atom -5575.937343 kJ/mol
# Density = 2.003100 g / cm^3
# Si number density = 20.076693 Si / 1000 Ang^3
#
#
#
# Elastic Constant Matrix: (Units=GPa)
#
#
# Indices 1 2 3 4 5 6 
#
# 1 135.4666 17.6174 45.6664 0.0000 0.0000 0.0000
# 2 17.6174 28.6985 14.5613 0.0000 0.0000 0.0000
# 3 45.6664 14.5613 81.1489 0.0000 0.0000 0.0000
# 4 0.0000 0.0000 0.0000 -5.4389 0.0000 0.0000
# 5 0.0000 0.0000 0.0000 0.0000 28.6854 0.0000
# 6 0.0000 0.0000 0.0000 0.0000 0.0000 102.7715
#
#
#
# Elastic Compliance Matrix: (Units=1/GPa)
#
#
# Indices 1 2 3 4 5 6 
#
# 1 0.009402 -0.003396 -0.004681 0.000000 0.000000 0.000000
# 2 -0.003396 0.039562 -0.005188 0.000000 0.000000 0.000000
# 3 -0.004681 -0.005188 0.015888 0.000000 0.000000 0.000000
# 4 0.000000 0.000000 0.000000 -0.183861 0.000000 0.000000
# 5 0.000000 0.000000 0.000000 0.000000 0.034861 0.000000
# 6 0.000000 0.000000 0.000000 0.000000 0.000000 0.009730
#
#
# Mechanical properties :
#
#
# Convention : Reuss Voigt Hill
#
# Bulk Modulus (GPa) = 26.09508 44.55603 35.32555
# Shear Modulus (GPa) = -142.39586 36.36820 -53.01383
#
# Velocity S-wave (km/s) = -8.43089 4.26075 -5.14422
# Velocity P-wave (km/s) = 9.04142 6.81516 4.20125
#
# Compressibility (1/GPa) = 0.03832140
#
# Stress axis : x y z
#
# Youngs Moduli (GPa) = 106.36398 25.27672 62.93921
#
# Poissons Ratio (x) = 0.08585 0.29464
# Poissons Ratio (y) = 0.36124 0.32651
# Poissons Ratio (z) = 0.49793 0.13113
#
# Static dielectric constant tensor:
#      x y z
#    x 1.727980 0.000000 0.000000 
#    y 0.000000 1.699080 0.000000 
#    z 0.000000 0.000000 1.744260 
# 
# From -- ./inp_files/9138.got.cif
#   From: 2010.05.17/outbox.cif.g08.bks.cpg/sg47_5_cif.got.tgz:9138.got - 2010.06.03 20:15:42.
