data_PCOD9387760
_publ_section_title
;
Structure prediction by ZEFSAII (Michael W. Deem and Ramdas Pophale) SiO2 
 PCOD9387760
Probable space group: P M M M
;
_chemical_formula_sum "Si O2"
_cell_formula_units_Z 48
_cell_length_a 29.604431
_cell_length_b 8.617952
_cell_length_c 9.841954
_cell_angle_alpha 90.000000
_cell_angle_beta 90.000000
_cell_angle_gamma 90.000000
_cell_volume 2510.973446
_symmetry_space_group_name_H-M "P M M M"
_symmetry_group_IT_number 47
_symmetry_cell_setting 'orthorhombic'
loop_
_space_group_symop_operation_xyz
x,y,z
-x,-y,z
x,-y,-z
-x,y,-z
-x,-y,-z
x,y,-z
-x,y,z
x,-y,z
loop_
_atom_site_type_symbol
_atom_site_label
_atom_site_fract_x
_atom_site_fract_y
_atom_site_fract_z
Si Si1 0.053691 0.320143 0.500000
Si Si2 0.106483 0.816591 0.746617
Si Si3 0.203378 0.686234 0.341545
Si Si4 0.630023 0.812762 0.342730
Si Si5 0.552629 0.687146 0.845764
Si Si6 0.284750 0.187872 0.158742
Si Si7 0.052428 0.685759 0.000000
O O1 0.069776 0.500000 0.500000
O O2 0.073241 0.229127 0.373856
O O3 0.000000 0.322751 0.500000
O O4 0.154947 0.743731 0.711517
O O5 0.081361 0.744807 0.874374
O O6 0.111796 0.000000 0.761739
O O7 0.209674 0.736022 0.500000
O O8 0.204651 0.500000 0.339047
O O9 0.241561 0.751875 0.241537
O O10 0.633976 0.759555 0.500000
O O11 0.584711 0.756762 0.268508
O O12 0.671523 0.761836 0.246261
O O13 0.630390 0.000000 0.345064
O O14 0.500000 0.729540 0.826734
O O15 0.555399 0.500000 0.841048
O O16 0.565982 0.735647 0.000000
O O17 0.283806 0.000000 0.158255
O O18 0.285987 0.238101 0.000000
O O19 0.050858 0.500000 0.000000
O O20 0.000000 0.740966 0.000000
#
# Coordination Sequence:
#
# PCOD9387760 Si02
#       7
#     4   8   8   8   8   8   4
#     4  11  23  41  65  93 127 165 205 249 302 363
#     4  12  25  41  65  94 125 162 205 254 304 359
#     4  11  24  42  64  89 121 159 200 245 299 363
#     4  10  21  37  58  86 120 158 199 248 304 363
#     4   9  19  36  57  82 115 157 204 253 303 358
#     4  10  22  40  63  89 118 153 197 247 301 361
#     4  11  25  45  67  91 125 167 205 249 306 363
#
# _framework density 19.116092999999999
#
# number of rings (size 3 to 8) (size 9 to 14) (size 15 to 20)
#    0.000    1.500    0.833    4.500    1.167    8.000 
#    0.000    2.500    0.000    0.000    0.000    0.000 
#    0.000    0.000    0.000    0.000    0.000    0.000 
#
# Total GULP energy -268132.381505 kJ/mol
# GULP energy per Si atom -5586.091281 kJ/mol
# Density = 1.907258 g / cm^3
# Si number density = 19.116093 Si / 1000 Ang^3
#
#
#
# Elastic Constant Matrix: (Units=GPa)
#
#
# Indices 1 2 3 4 5 6 
#
# 1 128.9941 23.1282 100.8439 0.0000 0.0000 0.0000
# 2 23.1282 30.5933 35.5835 0.0000 0.0000 0.0000
# 3 100.8439 35.5835 218.6340 0.0000 0.0000 0.0000
# 4 0.0000 0.0000 0.0000 54.4384 0.0000 0.0000
# 5 0.0000 0.0000 0.0000 0.0000 54.0227 0.0000
# 6 0.0000 0.0000 0.0000 0.0000 0.0000 35.4159
#
#
#
# Elastic Compliance Matrix: (Units=1/GPa)
#
#
# Indices 1 2 3 4 5 6 
#
# 1 0.012397 -0.003357 -0.005172 0.000000 0.000000 0.000000
# 2 -0.003357 0.041228 -0.005162 0.000000 0.000000 0.000000
# 3 -0.005172 -0.005162 0.007799 0.000000 0.000000 0.000000
# 4 0.000000 0.000000 0.000000 0.018369 0.000000 0.000000
# 5 0.000000 0.000000 0.000000 0.000000 0.018511 0.000000
# 6 0.000000 0.000000 0.000000 0.000000 0.000000 0.028236
#
#
# Mechanical properties :
#
#
# Convention : Reuss Voigt Hill
#
# Bulk Modulus (GPa) = 29.37350 77.48141 53.42745
# Shear Modulus (GPa) = 30.25347 43.35311 36.80329
#
# Velocity S-wave (km/s) = 3.98253 4.76740 4.39253
# Velocity P-wave (km/s) = 6.04538 8.42165 7.33044
#
# Compressibility (1/GPa) = 0.03404429
#
# Stress axis : x y z
#
# Youngs Moduli (GPa) = 80.66203 24.25515 128.21382
#
# Poissons Ratio (x) = 0.08142 0.66311
# Poissons Ratio (y) = 0.27077 0.66181
# Poissons Ratio (z) = 0.41718 0.12520
#
# Static dielectric constant tensor:
#      x y z
#    x 1.648580 0.000000 0.000000 
#    y 0.000000 1.650990 0.000000 
#    z 0.000000 0.000000 1.635410 
# 
# From -- ./inp_files/2801.got.cif
#   From: 2010.05.17/outbox.cif.g08.bks.cpg/sg47_2_cif.got.tgz:2801.got - 2010.06.03 20:15:42.
