data_PCOD9387496
_publ_section_title
;
Structure prediction by ZEFSAII (Michael W. Deem and Ramdas Pophale) SiO2 
 PCOD9387496
Probable space group: P M M M
;
_chemical_formula_sum "Si O2"
_cell_formula_units_Z 44
_cell_length_a 8.124665
_cell_length_b 15.232833
_cell_length_c 18.200050
_cell_angle_alpha 90.000000
_cell_angle_beta 90.000000
_cell_angle_gamma 90.000000
_cell_volume 2252.468493
_symmetry_space_group_name_H-M "P M M M"
_symmetry_group_IT_number 47
_symmetry_cell_setting 'orthorhombic'
loop_
_space_group_symop_operation_xyz
x,y,z
-x,-y,z
x,-y,-z
-x,y,-z
-x,-y,-z
x,y,-z
-x,y,z
x,-y,z
loop_
_atom_site_type_symbol
_atom_site_label
_atom_site_fract_x
_atom_site_fract_y
_atom_site_fract_z
Si Si1 0.308363 0.848783 0.198545
Si Si2 0.304506 0.206975 0.641765
Si Si3 0.701789 0.000000 0.086676
Si Si4 0.196241 0.659625 0.173180
Si Si5 0.803226 0.099517 0.500000
Si Si6 0.194712 0.402212 0.339527
Si Si7 0.808528 0.500000 0.914159
O O1 0.500000 0.872915 0.208100
O O2 0.235709 0.835579 0.281614
O O3 0.243851 0.917036 0.137510
O O4 0.289418 0.750723 0.168455
O O5 0.500000 0.205777 0.649478
O O6 0.252596 0.150220 0.572547
O O7 0.258120 0.309427 0.629295
O O8 0.500000 0.000000 0.083453
O O9 0.754997 0.000000 0.000000
O O10 0.217208 0.613739 0.252401
O O11 0.262432 0.589485 0.115956
O O12 0.000000 0.677347 0.163779
O O13 0.000000 0.097102 0.500000
O O14 0.739013 0.000000 0.500000
O O15 0.261191 0.500000 0.359430
O O16 0.000000 0.404608 0.354554
O O17 0.000000 0.500000 0.886868
O O18 0.809816 0.500000 0.000000
#
# Coordination Sequence:
#
# PCOD9387496 Si02
#       7
#     8   8   4   8   4   8   4
#     4   9  19  34  54  79 105 139 182 225 269 322
#     4  10  21  36  57  85 115 146 181 227 277 326
#     4   9  18  34  55  76 103 142 184 225 271 327
#     4   9  16  29  48  71 100 137 179 222 266 317
#     4  11  25  43  62  85 114 145 181 224 272 327
#     4   9  16  30  54  79 107 145 186 224 265 318
#     4   9  16  26  43  69 101 138 179 220 267 323
#
# _framework density 19.534125
#
# number of rings (size 3 to 8) (size 9 to 14) (size 15 to 20)
#    0.000    2.636    0.909    0.818    1.273    2.545 
#    0.000    1.364    0.000    3.818    0.000    0.000 
#    0.000    0.000    0.000    0.000    0.000    0.000 
#
# Total GULP energy -244945.329689 kJ/mol
# GULP energy per Si atom -5566.939311 kJ/mol
# Density = 1.948966 g / cm^3
# Si number density = 19.534125 Si / 1000 Ang^3
#
#
#
# Elastic Constant Matrix: (Units=GPa)
#
#
# Indices 1 2 3 4 5 6 
#
# 1 9.7682 19.5289 8.1650 0.0000 0.0000 0.0000
# 2 19.5289 167.4856 102.2030 0.0000 0.0000 0.0000
# 3 8.1650 102.2030 106.8009 0.0000 0.0000 0.0000
# 4 0.0000 0.0000 0.0000 41.2624 0.0000 0.0000
# 5 0.0000 0.0000 0.0000 0.0000 10.4439 0.0000
# 6 0.0000 0.0000 0.0000 0.0000 0.0000 20.1255
#
#
#
# Elastic Compliance Matrix: (Units=1/GPa)
#
#
# Indices 1 2 3 4 5 6 
#
# 1 0.139386 -0.023434 0.011769 0.000000 0.000000 0.000000
# 2 -0.023434 0.018291 -0.015712 0.000000 0.000000 0.000000
# 3 0.011769 -0.015712 0.023499 0.000000 0.000000 0.000000
# 4 0.000000 0.000000 0.000000 0.024235 0.000000 0.000000
# 5 0.000000 0.000000 0.000000 0.000000 0.095750 0.000000
# 6 0.000000 0.000000 0.000000 0.000000 0.000000 0.049688
#
#
# Mechanical properties :
#
#
# Convention : Reuss Voigt Hill
#
# Bulk Modulus (GPa) = 7.91001 60.42760 34.16880
# Shear Modulus (GPa) = 11.16712 24.64353 17.90533
#
# Velocity S-wave (km/s) = 2.39356 3.55570 3.03085
# Velocity P-wave (km/s) = 3.42008 6.91801 5.45692
#
# Compressibility (1/GPa) = 0.12642216
#
# Stress axis : x y z
#
# Youngs Moduli (GPa) = 7.17431 54.67275 42.55553
#
# Poissons Ratio (x) = 1.28121 -0.50084
# Poissons Ratio (y) = 0.16812 0.66862
# Poissons Ratio (z) = -0.08444 0.85900
#
# Static dielectric constant tensor:
#      x y z
#    x 1.722630 0.000000 0.000000 
#    y 0.000000 1.688680 0.000000 
#    z 0.000000 0.000000 1.646980 
# 
# From -- ./inp_files/26398.got.cif
#   From: 2010.05.17/outbox.cif.g08.bks.cpg/sg47_14_cif.got.tgz:26398.got - 2010.06.03 20:15:42.
