data_PCOD9387658
_publ_section_title
;
Structure prediction by ZEFSAII (Michael W. Deem and Ramdas Pophale) SiO2 
 PCOD9387658
Probable space group: P M M M
;
_chemical_formula_sum "Si O2"
_cell_formula_units_Z 64
_cell_length_a 24.573587
_cell_length_b 7.911436
_cell_length_c 15.039987
_cell_angle_alpha 90.000000
_cell_angle_beta 90.000000
_cell_angle_gamma 90.000000
_cell_volume 2923.959380
_symmetry_space_group_name_H-M "P M M M"
_symmetry_group_IT_number 47
_symmetry_cell_setting 'orthorhombic'
loop_
_space_group_symop_operation_xyz
x,y,z
-x,-y,z
x,-y,-z
-x,y,-z
-x,-y,-z
x,y,-z
-x,y,z
x,-y,z
loop_
_atom_site_type_symbol
_atom_site_label
_atom_site_fract_x
_atom_site_fract_y
_atom_site_fract_z
Si Si1 0.719659 0.302713 0.900693
Si Si2 0.901628 0.802899 0.399302
Si Si3 0.439480 0.305671 0.708711
Si Si4 0.565336 0.194858 0.904213
Si Si5 0.220838 0.298724 0.603862
Si Si6 0.161121 0.803044 0.101242
Si Si7 0.324358 0.708695 0.282357
Si Si8 0.940833 0.696648 0.214395
O O1 0.705314 0.500000 0.906738
O O2 0.783396 0.292137 0.874493
O O3 0.685364 0.230875 0.819016
O O4 0.714516 0.227421 0.000000
O O5 0.910097 0.737341 0.500000
O O6 0.837212 0.786234 0.378942
O O7 0.932950 0.713365 0.320134
O O8 0.916570 0.000000 0.398173
O O9 0.500000 0.229329 0.693235
O O10 0.442561 0.500000 0.679029
O O11 0.428481 0.301567 0.815141
O O12 0.381925 0.232161 0.676290
O O13 0.500000 0.187313 0.912230
O O14 0.583369 0.000000 0.892170
O O15 0.586573 0.259159 0.000000
O O16 0.233601 0.273937 0.500000
O O17 0.213250 0.500000 0.619024
O O18 0.271384 0.240017 0.662374
O O19 0.110471 0.777021 0.165476
O O20 0.175582 0.000000 0.101237
O O21 0.146381 0.752806 0.000000
O O22 0.325457 0.500000 0.282590
O O23 0.940155 0.500000 0.190452
O O24 0.000000 0.768969 0.189652
#
# Coordination Sequence:
#
# PCOD9387658 Si02
#       8
#     8   8   8   8   8   8   8   8
#     4   9  17  30  49  71  96 129 167 206 253 312
#     4  10  21  37  58  84 113 141 168 207 263 320
#     4   9  17  28  42  61  87 121 159 198 241 290
#     4   8  14  25  39  54  76 108 145 185 227 271
#     4   9  17  31  53  77  99 127 165 207 251 303
#     4  10  21  37  57  80 107 139 176 223 276 321
#     4   9  17  29  46  69  96 125 160 205 253 299
#     4  11  24  39  56  80 110 146 187 224 254 295
#
# _framework density 21.888131000000001
#
# number of rings (size 3 to 8) (size 9 to 14) (size 15 to 20)
#    0.000    2.625    0.000    2.250    0.000    4.750 
#    0.000    6.250    0.000    1.875    0.000    2.625 
#    0.000    0.000    0.000    6.250    0.000    6.500 
#
# Total GULP energy -356944.123559 kJ/mol
# GULP energy per Si atom -5577.251931 kJ/mol
# Density = 2.183831 g / cm^3
# Si number density = 21.888131 Si / 1000 Ang^3
#
#
#
# Elastic Constant Matrix: (Units=GPa)
#
#
# Indices 1 2 3 4 5 6 
#
# 1 88.3921 -1.2319 23.2832 0.0000 0.0000 0.0000
# 2 -1.2319 28.2917 3.0888 0.0000 0.0000 0.0000
# 3 23.2832 3.0888 26.3911 0.0000 0.0000 0.0000
# 4 0.0000 0.0000 0.0000 16.8923 0.0000 0.0000
# 5 0.0000 0.0000 0.0000 0.0000 -1.2359 0.0000
# 6 0.0000 0.0000 0.0000 0.0000 0.0000 -11.0737
#
#
#
# Elastic Compliance Matrix: (Units=1/GPa)
#
#
# Indices 1 2 3 4 5 6 
#
# 1 0.014861 0.002105 -0.013357 0.000000 0.000000 0.000000
# 2 0.002105 0.036102 -0.006083 0.000000 0.000000 0.000000
# 3 -0.013357 -0.006083 0.050388 0.000000 0.000000 0.000000
# 4 0.000000 0.000000 0.000000 0.059199 0.000000 0.000000
# 5 0.000000 0.000000 0.000000 0.000000 -0.809100 0.000000
# 6 0.000000 0.000000 0.000000 0.000000 0.000000 -0.090304
#
#
# Mechanical properties :
#
#
# Convention : Reuss Voigt Hill
#
# Bulk Modulus (GPa) = 14.99673 21.48391 18.24032
# Shear Modulus (GPa) = -7.33182 8.77885 0.72352
#
# Velocity S-wave (km/s) = -1.83220 2.00487 0.57556
# Velocity P-wave (km/s) = 1.54612 3.89820 2.96534
#
# Compressibility (1/GPa) = 0.06668119
#
# Stress axis : x y z
#
# Youngs Moduli (GPa) = 67.29024 27.69941 19.84610
#
# Poissons Ratio (x) = -0.05832 0.26509
# Poissons Ratio (y) = -0.14167 0.12072
# Poissons Ratio (z) = 0.89882 0.16849
#
# Static dielectric constant tensor:
#      x y z
#    x 1.844350 0.000000 0.000000 
#    y 0.000000 1.794340 0.000000 
#    z 0.000000 0.000000 1.819550 
# 
# From -- ./inp_files/12683.got.cif
#   From: 2010.05.17/outbox.cif.g08.bks.cpg/sg47_7_cif.got.tgz:12683.got - 2010.06.03 20:15:42.
