data_PCOD9387625
_publ_section_title
;
Structure prediction by ZEFSAII (Michael W. Deem and Ramdas Pophale) SiO2 
 PCOD9387625
Probable space group: P M M M
;
_chemical_formula_sum "Si O2"
_cell_formula_units_Z 44
_cell_length_a 8.515202
_cell_length_b 9.521472
_cell_length_c 29.135855
_cell_angle_alpha 90.000000
_cell_angle_beta 90.000000
_cell_angle_gamma 90.000000
_cell_volume 2362.255216
_symmetry_space_group_name_H-M "P M M M"
_symmetry_group_IT_number 47
_symmetry_cell_setting 'orthorhombic'
loop_
_space_group_symop_operation_xyz
x,y,z
-x,-y,z
x,-y,-z
-x,y,-z
-x,-y,-z
x,y,-z
-x,y,z
x,-y,z
loop_
_atom_site_type_symbol
_atom_site_label
_atom_site_fract_x
_atom_site_fract_y
_atom_site_fract_z
Si Si1 0.310393 0.837149 0.822136
Si Si2 0.189553 0.837030 0.447954
Si Si3 0.187868 0.837796 0.722260
Si Si4 0.312224 0.339405 0.362945
Si Si5 0.691912 0.338000 0.910654
Si Si6 0.308090 0.837639 0.000000
O O1 0.500000 0.833976 0.820711
O O2 0.247128 0.793105 0.772482
O O3 0.258155 0.738353 0.863778
O O4 0.263163 0.000000 0.830148
O O5 0.237078 0.798620 0.500000
O O6 0.257859 0.739267 0.408832
O O7 0.000000 0.831012 0.445985
O O8 0.234493 0.000000 0.440134
O O9 0.250465 0.742657 0.681422
O O10 0.000000 0.835694 0.721755
O O11 0.240145 0.000000 0.715482
O O12 0.500000 0.339617 0.361489
O O13 0.255362 0.500000 0.362851
O O14 0.500000 0.338423 0.910802
O O15 0.742623 0.500000 0.913397
O O16 0.741390 0.246720 0.954603
O O17 0.500000 0.839250 0.000000
O O18 0.257037 0.000000 0.000000
#
# Coordination Sequence:
#
# PCOD9387625 Si02
#       6
#     8   8   8   8   8   4
#     4   9  17  30  48  70  97 129 164 203 250 302
#     4   9  19  37  60  84 109 139 177 218 258 304
#     4  10  21  37  57  79 102 132 173 218 261 309
#     4  11  24  38  53  78 111 143 175 214 260 309
#     4   9  16  25  39  62  93 127 162 202 247 295
#     4   9  15  23  37  59  90 127 164 201 244 296
#
# _framework density 18.626269000000001
#
# number of rings (size 3 to 8) (size 9 to 14) (size 15 to 20)
#    0.000    2.455    0.000    3.000    0.000    9.818 
#    0.000    4.545    0.000    0.000    0.000    0.636 
#    0.000    5.091    0.000    0.000    0.000    0.000 
#
# Total GULP energy -245606.118223 kJ/mol
# GULP energy per Si atom -5581.957232 kJ/mol
# Density = 1.858388 g / cm^3
# Si number density = 18.626269 Si / 1000 Ang^3
#
#
#
# Elastic Constant Matrix: (Units=GPa)
#
#
# Indices 1 2 3 4 5 6 
#
# 1 10.9630 24.5089 30.9287 0.0000 0.0000 0.0000
# 2 24.5089 152.1761 141.1848 0.0000 0.0000 0.0000
# 3 30.9287 141.1848 213.4347 0.0000 0.0000 0.0000
# 4 0.0000 0.0000 0.0000 -14.3220 0.0000 0.0000
# 5 0.0000 0.0000 0.0000 0.0000 95.2571 0.0000
# 6 0.0000 0.0000 0.0000 0.0000 0.0000 13.4133
#
#
#
# Elastic Compliance Matrix: (Units=1/GPa)
#
#
# Indices 1 2 3 4 5 6 
#
# 1 0.161234 -0.011108 -0.016016 0.000000 0.000000 0.000000
# 2 -0.011108 0.017777 -0.010149 0.000000 0.000000 0.000000
# 3 -0.016016 -0.010149 0.013720 0.000000 0.000000 0.000000
# 4 0.000000 0.000000 0.000000 -0.069823 0.000000 0.000000
# 5 0.000000 0.000000 0.000000 0.000000 0.010498 0.000000
# 6 0.000000 0.000000 0.000000 0.000000 0.000000 0.074553
#
#
# Mechanical properties :
#
#
# Convention : Reuss Voigt Hill
#
# Bulk Modulus (GPa) = 8.46147 85.53542 46.99844
# Shear Modulus (GPa) = 15.53272 30.86646 23.19959
#
# Velocity S-wave (km/s) = 2.89089 4.07522 3.53304
# Velocity P-wave (km/s) = 3.96177 8.25620 6.47536
#
# Compressibility (1/GPa) = 0.11818274
#
# Stress axis : x y z
#
# Youngs Moduli (GPa) = 6.20216 56.25323 72.88652
#
# Poissons Ratio (x) = 0.62487 1.16738
# Poissons Ratio (y) = 0.06889 0.73976
# Poissons Ratio (z) = 0.09934 0.57094
#
# Static dielectric constant tensor:
#      x y z
#    x 1.636190 0.000000 0.000000 
#    y 0.000000 1.632680 0.000000 
#    z 0.000000 0.000000 1.614190 
# 
# From -- ./inp_files/33911.got.cif
#   From: 2010.05.17/outbox.cif.g08.bks.cpg/sg47_17_cif.got.tgz:33911.got - 2010.06.03 20:15:42.
