data_PCOD9387855
_publ_section_title
;
Structure prediction by ZEFSAII (Michael W. Deem and Ramdas Pophale) SiO2 
 PCOD9387855
Probable space group: P M M M
;
_chemical_formula_sum "Si O2"
_cell_formula_units_Z 33
_cell_length_a 10.409813
_cell_length_b 20.292669
_cell_length_c 7.803112
_cell_angle_alpha 90.000000
_cell_angle_beta 90.000000
_cell_angle_gamma 90.000000
_cell_volume 1648.351926
_symmetry_space_group_name_H-M "P M M M"
_symmetry_group_IT_number 47
_symmetry_cell_setting 'orthorhombic'
loop_
_space_group_symop_operation_xyz
x,y,z
-x,-y,z
x,-y,-z
-x,y,-z
-x,-y,-z
x,y,-z
-x,y,z
x,-y,z
loop_
_atom_site_type_symbol
_atom_site_label
_atom_site_fract_x
_atom_site_fract_y
_atom_site_fract_z
Si Si1 0.856882 0.818173 0.293840
Si Si2 0.500000 0.500000 0.000000
Si Si3 0.500000 0.384684 0.291062
Si Si4 0.000000 0.574386 0.202922
Si Si5 0.224382 0.674695 0.295693
Si Si6 0.355447 0.074629 0.206262
O O1 0.862895 0.813572 0.500000
O O2 0.818424 0.745721 0.225633
O O3 0.750662 0.872479 0.254471
O O4 0.000000 0.835565 0.231561
O O5 0.500000 0.556474 0.845672
O O6 0.500000 0.401583 0.500000
O O7 0.629738 0.343942 0.255292
O O8 0.125643 0.616769 0.248185
O O9 0.000000 0.500000 0.277265
O O10 0.000000 0.567865 0.000000
O O11 0.216794 0.679648 0.500000
O O12 0.500000 0.091926 0.266423
O O13 0.326146 0.000000 0.266167
O O14 0.359512 0.072606 0.000000
#
# Coordination Sequence:
#
# PCOD9387855 Si02
#       6
#     8   1   4   4   8   8
#     4  10  21  38  60  87 121 159 201 251 302 358
#     4  12  26  44  68  92 136 160 204 270 324 370
#     4  10  25  43  67  94 124 166 211 258 321 385
#     4  11  25  39  61  91 122 155 204 257 308 365
#     4  10  22  43  62  86 122 163 205 251 311 377
#     4   9  20  39  60  86 121 159 200 246 299 362
#
# _framework density 20.019997
#
# number of rings (size 3 to 8) (size 9 to 14) (size 15 to 20)
#    0.000    2.061    1.212    1.273    5.091    3.879 
#    0.000    3.636    0.000    0.000    0.000    0.000 
#    0.000    0.000    0.000    0.000    0.000    0.000 
#
# Total GULP energy -183870.251921 kJ/mol
# GULP energy per Si atom -5571.825816 kJ/mol
# Density = 1.997443 g / cm^3
# Si number density = 20.019997 Si / 1000 Ang^3
#
#
#
# Elastic Constant Matrix: (Units=GPa)
#
#
# Indices 1 2 3 4 5 6 
#
# 1 210.4671 136.8102 25.5566 0.0000 0.0000 0.0000
# 2 136.8102 184.3302 18.5313 0.0000 0.0000 0.0000
# 3 25.5566 18.5313 33.5715 0.0000 0.0000 0.0000
# 4 0.0000 0.0000 0.0000 31.4045 0.0000 0.0000
# 5 0.0000 0.0000 0.0000 0.0000 28.5214 0.0000
# 6 0.0000 0.0000 0.0000 0.0000 0.0000 83.8437
#
#
#
# Elastic Compliance Matrix: (Units=1/GPa)
#
#
# Indices 1 2 3 4 5 6 
#
# 1 0.009566 -0.006742 -0.003561 0.000000 0.000000 0.000000
# 2 -0.006742 0.010496 -0.000661 0.000000 0.000000 0.000000
# 3 -0.003561 -0.000661 0.032863 0.000000 0.000000 0.000000
# 4 0.000000 0.000000 0.000000 0.031843 0.000000 0.000000
# 5 0.000000 0.000000 0.000000 0.000000 0.035061 0.000000
# 6 0.000000 0.000000 0.000000 0.000000 0.000000 0.011927
#
#
# Mechanical properties :
#
#
# Convention : Reuss Voigt Hill
#
# Bulk Modulus (GPa) = 32.26149 87.79611 60.02880
# Shear Modulus (GPa) = 30.48490 45.25197 37.86843
#
# Velocity S-wave (km/s) = 3.90644 4.75946 4.35389
# Velocity P-wave (km/s) = 6.04125 8.61120 7.43806
#
# Compressibility (1/GPa) = 0.03099671
#
# Stress axis : x y z
#
# Youngs Moduli (GPa) = 104.53309 95.27845 30.42964
#
# Poissons Ratio (x) = 0.64238 0.10835
# Poissons Ratio (y) = 0.70478 0.02011
# Poissons Ratio (z) = 0.37222 0.06297
#
# Static dielectric constant tensor:
#      x y z
#    x 1.683860 0.000000 0.000000 
#    y 0.000000 1.705980 0.000000 
#    z 0.000000 0.000000 1.735300 
# 
# From -- ./inp_files/1181.got.cif
#   From: 2010.05.17/outbox.cif.g08.bks.cpg/sg47_1_cif.got.tgz:1181.got - 2010.06.03 20:15:42.
