data_PCOD9387347
_publ_section_title
;
Structure prediction by ZEFSAII (Michael W. Deem and Ramdas Pophale) SiO2 
 PCOD9387347
Probable space group: P M M M
;
_chemical_formula_sum "Si O2"
_cell_formula_units_Z 52
_cell_length_a 21.803268
_cell_length_b 8.865363
_cell_length_c 13.951478
_cell_angle_alpha 90.000000
_cell_angle_beta 90.000000
_cell_angle_gamma 90.000000
_cell_volume 2696.735390
_symmetry_space_group_name_H-M "P M M M"
_symmetry_group_IT_number 47
_symmetry_cell_setting 'orthorhombic'
loop_
_space_group_symop_operation_xyz
x,y,z
-x,-y,z
x,-y,-z
-x,y,-z
-x,-y,-z
x,y,-z
-x,y,z
x,-y,z
loop_
_atom_site_type_symbol
_atom_site_label
_atom_site_fract_x
_atom_site_fract_y
_atom_site_fract_z
Si Si1 0.881171 0.678941 0.297119
Si Si2 0.000000 0.830290 0.386048
Si Si3 0.430774 0.682171 0.189312
Si Si4 0.745948 0.682229 0.702149
Si Si5 0.073105 0.820985 0.890055
Si Si6 0.691141 0.180707 0.891874
Si Si7 0.619899 0.316994 0.393967
O O1 0.885016 0.500000 0.306700
O O2 0.813668 0.728964 0.330573
O O3 0.889596 0.727152 0.186796
O O4 0.938330 0.751045 0.351164
O O5 0.000000 0.833860 0.500000
O O6 0.000000 0.000000 0.346544
O O7 0.500000 0.718798 0.160146
O O8 0.422816 0.500000 0.183101
O O9 0.377892 0.761046 0.128401
O O10 0.419956 0.725982 0.301175
O O11 0.744942 0.500000 0.708604
O O12 0.731249 0.747559 0.807099
O O13 0.689861 0.726151 0.632846
O O14 0.000000 0.794945 0.875966
O O15 0.083789 0.000000 0.876770
O O16 0.087692 0.783497 0.000000
O O17 0.693179 0.000000 0.884108
O O18 0.709844 0.223172 0.000000
O O19 0.602309 0.261989 0.500000
O O20 0.617542 0.500000 0.397132
#
# Coordination Sequence:
#
# PCOD9387347 Si02
#       7
#     8   4   8   8   8   8   8
#     4  11  22  36  57  84 111 139 175 226 279 322
#     4  11  25  43  60  79 108 147 185 220 266 329
#     4   9  18  32  51  78 110 142 177 219 269 321
#     4   9  20  36  54  79 108 138 174 217 267 320
#     4   9  18  33  53  76 104 139 173 207 255 318
#     4  10  21  36  54  77 106 143 185 225 263 306
#     4   8  14  28  51  76 102 133 170 213 259 309
#
# _framework density 19.282574
#
# number of rings (size 3 to 8) (size 9 to 14) (size 15 to 20)
#    0.000    2.538    0.769    2.538    0.000    5.538 
#    0.000    8.462    0.000    7.385    0.000    4.308 
#    0.000    0.000    0.000    0.000    0.000    0.000 
#
# Total GULP energy -290100.658958 kJ/mol
# GULP energy per Si atom -5578.858826 kJ/mol
# Density = 1.923869 g / cm^3
# Si number density = 19.282574 Si / 1000 Ang^3
#
#
#
# Elastic Constant Matrix: (Units=GPa)
#
#
# Indices 1 2 3 4 5 6 
#
# 1 71.4699 12.3654 -17.4115 0.0000 0.0000 0.0000
# 2 12.3654 14.0909 -2.2716 0.0000 0.0000 0.0000
# 3 -17.4115 -2.2716 40.9977 0.0000 0.0000 0.0000
# 4 0.0000 0.0000 0.0000 45.5294 0.0000 0.0000
# 5 0.0000 0.0000 0.0000 0.0000 2.5932 0.0000
# 6 0.0000 0.0000 0.0000 0.0000 0.0000 3.2955
#
#
#
# Elastic Compliance Matrix: (Units=1/GPa)
#
#
# Indices 1 2 3 4 5 6 
#
# 1 0.018259 -0.014906 0.006928 0.000000 0.000000 0.000000
# 2 -0.014906 0.083776 -0.001689 0.000000 0.000000 0.000000
# 3 0.006928 -0.001689 0.027241 0.000000 0.000000 0.000000
# 4 0.000000 0.000000 0.000000 0.021964 0.000000 0.000000
# 5 0.000000 0.000000 0.000000 0.000000 0.385621 0.000000
# 6 0.000000 0.000000 0.000000 0.000000 0.000000 0.303441
#
#
# Mechanical properties :
#
#
# Convention : Reuss Voigt Hill
#
# Bulk Modulus (GPa) = 9.09559 12.43592 10.76576
# Shear Modulus (GPa) = 5.57860 19.20871 12.39365
#
# Velocity S-wave (km/s) = 1.70275 3.15964 2.53798
# Velocity P-wave (km/s) = 2.93139 4.44684 3.76613
#
# Compressibility (1/GPa) = 0.10994336
#
# Stress axis : x y z
#
# Youngs Moduli (GPa) = 54.76814 11.93652 36.71001
#
# Poissons Ratio (x) = 0.17793 -0.25434
# Poissons Ratio (y) = 0.81638 0.06199
# Poissons Ratio (z) = -0.37946 0.02016
#
# Static dielectric constant tensor:
#      x y z
#    x 1.688850 0.000000 0.000000 
#    y 0.000000 1.649070 0.000000 
#    z 0.000000 0.000000 1.674800 
# 
# From -- ./inp_files/25005.got.cif
#   From: 2010.05.17/outbox.cif.g08.bks.cpg/sg47_13_cif.got.tgz:25005.got - 2010.06.03 20:15:42.
