data_PCOD9387754
_publ_section_title
;
Structure prediction by ZEFSAII (Michael W. Deem and Ramdas Pophale) SiO2 
 PCOD9387754
Probable space group: P M M M
;
_chemical_formula_sum "Si O2"
_cell_formula_units_Z 64
_cell_length_a 17.169164
_cell_length_b 13.653402
_cell_length_c 14.293464
_cell_angle_alpha 90.000000
_cell_angle_beta 90.000000
_cell_angle_gamma 90.000000
_cell_volume 3350.638070
_symmetry_space_group_name_H-M "P M M M"
_symmetry_group_IT_number 47
_symmetry_cell_setting 'orthorhombic'
loop_
_space_group_symop_operation_xyz
x,y,z
-x,-y,z
x,-y,-z
-x,y,-z
-x,-y,-z
x,y,-z
-x,y,z
x,-y,z
loop_
_atom_site_type_symbol
_atom_site_label
_atom_site_fract_x
_atom_site_fract_y
_atom_site_fract_z
Si Si1 0.590258 0.890067 0.189100
Si Si2 0.714288 0.390635 0.248525
Si Si3 0.140494 0.393148 0.108350
Si Si4 0.623490 0.884482 0.601434
Si Si5 0.906619 0.888098 0.302219
Si Si6 0.909904 0.824479 0.897282
Si Si7 0.594145 0.691346 0.106625
Si Si8 0.775018 0.768466 0.394350
O O1 0.500000 0.899383 0.162602
O O2 0.591880 0.853697 0.297298
O O3 0.622227 0.803596 0.124759
O O4 0.625157 0.000000 0.183811
O O5 0.709573 0.500000 0.288453
O O6 0.785543 0.387299 0.175157
O O7 0.637944 0.368578 0.186833
O O8 0.735923 0.311275 0.326673
O O9 0.101675 0.500000 0.124917
O O10 0.093141 0.292828 0.120122
O O11 0.165336 0.392899 0.000000
O O12 0.595493 0.843942 0.500000
O O13 0.714645 0.859200 0.605574
O O14 0.608552 0.000000 0.598716
O O15 0.877889 0.876500 0.194608
O O16 0.857324 0.809576 0.359685
O O17 0.000000 0.869734 0.305356
O O18 0.893816 0.000000 0.333546
O O19 0.000000 0.854596 0.902451
O O20 0.874369 0.843849 0.000000
O O21 0.500000 0.687084 0.116874
O O22 0.612757 0.661396 0.000000
O O23 0.780903 0.730879 0.500000
#
# Coordination Sequence:
#
# PCOD9387754 Si02
#       8
#     8   8   8   8   8   8   8   8
#     4   9  17  30  50  78 113 150 186 225 272 331
#     4  11  22  38  59  82 109 143 184 234 288 340
#     4   9  17  30  51  78 105 137 179 226 276 328
#     4   9  17  30  51  78 105 137 179 226 276 328
#     4  10  21  37  58  85 117 154 194 233 278 336
#     4   9  17  30  50  78 113 150 186 225 272 331
#     4  10  21  37  58  85 117 154 194 233 278 336
#     4  11  22  38  59  82 109 143 184 234 288 340
#
# _framework density 19.100839000000001
#
# number of rings (size 3 to 8) (size 9 to 14) (size 15 to 20)
#    0.000    2.250    2.500    0.750    0.000    3.250 
#    0.000    6.250    0.000    0.750    0.000    1.750 
#    0.000    0.000    0.000    0.000    0.000    0.000 
#
# Total GULP energy -356301.437422 kJ/mol
# GULP energy per Si atom -5567.209960 kJ/mol
# Density = 1.905736 g / cm^3
# Si number density = 19.100839 Si / 1000 Ang^3
#
#
#
# Elastic Constant Matrix: (Units=GPa)
#
#
# Indices 1 2 3 4 5 6 
#
# 1 43.1772 15.7769 28.2469 0.0000 0.0000 0.0000
# 2 15.7769 50.1833 29.6451 0.0000 0.0000 0.0000
# 3 28.2469 29.6451 89.7334 0.0000 0.0000 0.0000
# 4 0.0000 0.0000 0.0000 14.3655 0.0000 0.0000
# 5 0.0000 0.0000 0.0000 0.0000 22.5839 0.0000
# 6 0.0000 0.0000 0.0000 0.0000 0.0000 20.6353
#
#
#
# Elastic Compliance Matrix: (Units=1/GPa)
#
#
# Indices 1 2 3 4 5 6 
#
# 1 0.030069 -0.004798 -0.007880 0.000000 0.000000 0.000000
# 2 -0.004798 0.025525 -0.006922 0.000000 0.000000 0.000000
# 3 -0.007880 -0.006922 0.015912 0.000000 0.000000 0.000000
# 4 0.000000 0.000000 0.000000 0.069611 0.000000 0.000000
# 5 0.000000 0.000000 0.000000 0.000000 0.044279 0.000000
# 6 0.000000 0.000000 0.000000 0.000000 0.000000 0.048461
#
#
# Mechanical properties :
#
#
# Convention : Reuss Voigt Hill
#
# Bulk Modulus (GPa) = 30.95572 36.71462 33.83517
# Shear Modulus (GPa) = 17.61648 18.81193 18.21421
#
# Velocity S-wave (km/s) = 3.04021 3.14168 3.09136
# Velocity P-wave (km/s) = 5.34467 5.69415 5.52218
#
# Compressibility (1/GPa) = 0.03230420
#
# Stress axis : x y z
#
# Youngs Moduli (GPa) = 33.25699 39.17795 62.84744
#
# Poissons Ratio (x) = 0.18798 0.49525
# Poissons Ratio (y) = 0.15957 0.43504
# Poissons Ratio (z) = 0.26207 0.27119
#
# Static dielectric constant tensor:
#      x y z
#    x 1.660730 0.000000 0.000000 
#    y 0.000000 1.701620 0.000000 
#    z 0.000000 0.000000 1.697500 
# 
# From -- ./inp_files/24692.got.cif
#   From: 2010.05.17/outbox.cif.g08.bks.cpg/sg47_13_cif.got.tgz:24692.got - 2010.06.03 20:15:42.
