data_PCOD9387758
_publ_section_title
;
Structure prediction by ZEFSAII (Michael W. Deem and Ramdas Pophale) SiO2 
 PCOD9387758
Probable space group: P M M M
;
_chemical_formula_sum "Si O2"
_cell_formula_units_Z 48
_cell_length_a 9.879257
_cell_length_b 29.918789
_cell_length_c 8.144208
_cell_angle_alpha 90.000000
_cell_angle_beta 90.000000
_cell_angle_gamma 90.000000
_cell_volume 2407.227583
_symmetry_space_group_name_H-M "P M M M"
_symmetry_group_IT_number 47
_symmetry_cell_setting 'orthorhombic'
loop_
_space_group_symop_operation_xyz
x,y,z
-x,-y,z
x,-y,-z
-x,y,-z
-x,-y,-z
x,y,-z
-x,y,z
x,-y,z
loop_
_atom_site_type_symbol
_atom_site_label
_atom_site_fract_x
_atom_site_fract_y
_atom_site_fract_z
Si Si1 0.246779 0.389616 0.303751
Si Si2 0.656081 0.211059 0.303027
Si Si3 0.842822 0.707298 0.805334
Si Si4 0.000000 0.449680 0.700522
Si Si5 0.652618 0.948238 0.801667
Si Si6 0.500000 0.551933 0.803274
Si Si7 0.155463 0.130096 0.302720
O O1 0.241010 0.384256 0.500000
O O2 0.223585 0.340825 0.229892
O O3 0.126836 0.421414 0.245750
O O4 0.375954 0.418331 0.257238
O O5 0.646885 0.206423 0.500000
O O6 0.500000 0.212659 0.240892
O O7 0.744610 0.255010 0.267271
O O8 0.745561 0.169396 0.239162
O O9 0.000000 0.708645 0.742992
O O10 0.848641 0.714150 0.000000
O O11 0.000000 0.500000 0.760808
O O12 0.000000 0.451168 0.500000
O O13 0.500000 0.934214 0.748650
O O14 0.769092 0.916075 0.737134
O O15 0.671340 0.000000 0.752421
O O16 0.654517 0.946834 0.000000
O O17 0.500000 0.500000 0.743517
O O18 0.500000 0.550172 0.000000
O O19 0.148650 0.134664 0.500000
O O20 0.000000 0.132586 0.241111
#
# Coordination Sequence:
#
# PCOD9387758 Si02
#       7
#     8   8   8   4   8   4   8
#     4  11  22  39  64  90 119 156 198 244 291 344
#     4  10  22  40  63  88 114 149 196 244 293 352
#     4  11  24  41  61  87 121 156 192 237 295 358
#     4   9  18  34  59  91 119 145 189 243 288 335
#     4   9  19  36  57  82 115 157 203 248 294 349
#     4  11  25  43  61  87 125 163 197 239 292 347
#     4  10  21  37  58  86 119 154 194 245 300 354
#
# _framework density 19.93995
#
# number of rings (size 3 to 8) (size 9 to 14) (size 15 to 20)
#    0.000    1.833    0.833    3.250    1.167    6.000 
#    0.000    2.500    0.000    2.000    0.000    0.000 
#    0.000    0.000    0.000    0.000    0.000    0.000 
#
# Total GULP energy -267928.690821 kJ/mol
# GULP energy per Si atom -5581.847725 kJ/mol
# Density = 1.989457 g / cm^3
# Si number density = 19.939950 Si / 1000 Ang^3
#
#
#
# Elastic Constant Matrix: (Units=GPa)
#
#
# Indices 1 2 3 4 5 6 
#
# 1 211.3611 98.9169 8.3072 0.0000 0.0000 0.0000
# 2 98.9169 140.7284 -2.5475 0.0000 0.0000 0.0000
# 3 8.3072 -2.5475 12.2426 0.0000 0.0000 0.0000
# 4 0.0000 0.0000 0.0000 23.4401 0.0000 0.0000
# 5 0.0000 0.0000 0.0000 0.0000 15.4650 0.0000
# 6 0.0000 0.0000 0.0000 0.0000 0.0000 37.1156
#
#
#
# Elastic Compliance Matrix: (Units=1/GPa)
#
#
# Indices 1 2 3 4 5 6 
#
# 1 0.007492 -0.005378 -0.006203 0.000000 0.000000 0.000000
# 2 -0.005378 0.010994 0.005937 0.000000 0.000000 0.000000
# 3 -0.006203 0.005937 0.087127 0.000000 0.000000 0.000000
# 4 0.000000 0.000000 0.000000 0.042662 0.000000 0.000000
# 5 0.000000 0.000000 0.000000 0.000000 0.064662 0.000000
# 6 0.000000 0.000000 0.000000 0.000000 0.000000 0.026943
#
#
# Mechanical properties :
#
#
# Convention : Reuss Voigt Hill
#
# Bulk Modulus (GPa) = 10.60171 63.74281 37.17226
# Shear Modulus (GPa) = 17.69226 32.51453 25.10339
#
# Velocity S-wave (km/s) = 2.98195 4.04248 3.55202
# Velocity P-wave (km/s) = 4.14541 7.33659 5.95861
#
# Compressibility (1/GPa) = 0.09432442
#
# Stress axis : x y z
#
# Youngs Moduli (GPa) = 133.47274 90.95988 11.47752
#
# Poissons Ratio (x) = 0.48923 0.07120
# Poissons Ratio (y) = 0.71788 -0.06815
# Poissons Ratio (z) = 0.82793 -0.54005
#
# Static dielectric constant tensor:
#      x y z
#    x 1.623990 0.000000 0.000000 
#    y 0.000000 1.696210 0.000000 
#    z 0.000000 0.000000 1.711100 
# 
# From -- ./inp_files/2542.got.cif
#   From: 2010.05.17/outbox.cif.g08.bks.cpg/sg47_2_cif.got.tgz:2542.got - 2010.06.03 20:15:42.
