data_PCOD9387139
_publ_section_title
;
Structure prediction by ZEFSAII (Michael W. Deem and Ramdas Pophale) SiO2 
 PCOD9387139
Probable space group: P M M M
;
_chemical_formula_sum "Si O2"
_cell_formula_units_Z 48
_cell_length_a 33.702604
_cell_length_b 7.925342
_cell_length_c 9.361100
_cell_angle_alpha 90.000000
_cell_angle_beta 90.000000
_cell_angle_gamma 90.000000
_cell_volume 2500.393461
_symmetry_space_group_name_H-M "P M M M"
_symmetry_group_IT_number 47
_symmetry_cell_setting 'orthorhombic'
loop_
_space_group_symop_operation_xyz
x,y,z
-x,-y,z
x,-y,-z
-x,y,-z
-x,-y,-z
x,y,-z
-x,y,z
x,-y,z
loop_
_atom_site_type_symbol
_atom_site_label
_atom_site_fract_x
_atom_site_fract_y
_atom_site_fract_z
Si Si1 0.653709 0.298503 0.661208
Si Si2 0.045401 0.000000 0.673894
Si Si3 0.102820 0.302978 0.328063
Si Si4 0.421780 0.296779 0.162428
Si Si5 0.730149 0.799807 0.836788
Si Si6 0.817742 0.702990 0.163590
Si Si7 0.500000 0.201730 0.662918
O O1 0.653081 0.229880 0.500000
O O2 0.648197 0.500000 0.651851
O O3 0.617390 0.231570 0.756670
O O4 0.695488 0.268800 0.737877
O O5 0.069253 0.169018 0.716211
O O6 0.044625 0.000000 0.500000
O O7 0.000000 0.000000 0.723995
O O8 0.106185 0.297292 0.500000
O O9 0.094617 0.500000 0.289073
O O10 0.144574 0.249457 0.258313
O O11 0.418683 0.500000 0.154396
O O12 0.460887 0.256935 0.252444
O O13 0.424437 0.232467 0.000000
O O14 0.774620 0.761024 0.784384
O O15 0.725543 0.000000 0.842931
O O16 0.726907 0.732030 0.000000
O O17 0.816929 0.500000 0.160952
O O18 0.822472 0.764305 0.000000
O O19 0.500000 0.267484 0.500000
O O20 0.500000 0.000000 0.657123
#
# Coordination Sequence:
#
# PCOD9387139 Si02
#       7
#     8   4   8   8   8   8   4
#     4  10  21  37  57  80 106 139 178 219 265 315
#     4   9  18  32  51  77 107 139 177 223 275 326
#     4   9  18  32  51  76 104 136 177 223 270 323
#     4  10  21  38  61  85 107 137 179 223 267 318
#     4  10  21  35  52  77 107 140 178 217 261 317
#     4   9  18  33  53  76 103 137 175 217 265 315
#     4  11  24  39  56  82 114 145 176 215 266 320
#
# _framework density 19.196978999999999
#
# number of rings (size 3 to 8) (size 9 to 14) (size 15 to 20)
#    0.000    2.333    0.000    2.000    1.167    6.333 
#    0.000    3.333    0.000    1.000    0.000    2.333 
#    0.000    0.000    0.000    0.000    0.000    0.000 
#
# Total GULP energy -267874.309954 kJ/mol
# GULP energy per Si atom -5580.714791 kJ/mol
# Density = 1.915329 g / cm^3
# Si number density = 19.196979 Si / 1000 Ang^3
#
#
#
# Elastic Constant Matrix: (Units=GPa)
#
#
# Indices 1 2 3 4 5 6 
#
# 1 185.1735 39.0323 89.0189 0.0000 0.0000 0.0000
# 2 39.0323 41.7729 28.7677 0.0000 0.0000 0.0000
# 3 89.0189 28.7677 106.4629 0.0000 0.0000 0.0000
# 4 0.0000 0.0000 0.0000 15.7521 0.0000 0.0000
# 5 0.0000 0.0000 0.0000 0.0000 36.8105 0.0000
# 6 0.0000 0.0000 0.0000 0.0000 0.0000 53.4399
#
#
#
# Elastic Compliance Matrix: (Units=1/GPa)
#
#
# Indices 1 2 3 4 5 6 
#
# 1 0.009602 -0.004230 -0.006886 0.000000 0.000000 0.000000
# 2 -0.004230 0.031276 -0.004914 0.000000 0.000000 0.000000
# 3 -0.006886 -0.004914 0.016478 0.000000 0.000000 0.000000
# 4 0.000000 0.000000 0.000000 0.063484 0.000000 0.000000
# 5 0.000000 0.000000 0.000000 0.000000 0.027166 0.000000
# 6 0.000000 0.000000 0.000000 0.000000 0.000000 0.018713
#
#
# Mechanical properties :
#
#
# Convention : Reuss Voigt Hill
#
# Bulk Modulus (GPa) = 39.53164 71.89413 55.71289
# Shear Modulus (GPa) = 24.12995 32.97319 28.55157
#
# Velocity S-wave (km/s) = 3.54922 4.14892 3.86073
# Velocity P-wave (km/s) = 6.11827 7.77711 6.99702
#
# Compressibility (1/GPa) = 0.02529619
#
# Stress axis : x y z
#
# Youngs Moduli (GPa) = 104.14185 31.97361 60.68536
#
# Poissons Ratio (x) = 0.13525 0.41787
# Poissons Ratio (y) = 0.44054 0.29821
# Poissons Ratio (z) = 0.71711 0.15712
#
# Static dielectric constant tensor:
#      x y z
#    x 1.634540 0.000000 0.000000 
#    y 0.000000 1.685200 0.000000 
#    z 0.000000 0.000000 1.676160 
# 
# From -- ./inp_files/13861.got.cif
#   From: 2010.05.17/outbox.cif.g08.bks.cpg/sg47_7_cif.got.tgz:13861.got - 2010.06.03 20:15:42.
