data_PCOD9387420
_publ_section_title
;
Structure prediction by ZEFSAII (Michael W. Deem and Ramdas Pophale) SiO2 
 PCOD9387420
Probable space group: P M M M
;
_chemical_formula_sum "Si O2"
_cell_formula_units_Z 52
_cell_length_a 9.076381
_cell_length_b 16.614945
_cell_length_c 17.752192
_cell_angle_alpha 90.000000
_cell_angle_beta 90.000000
_cell_angle_gamma 90.000000
_cell_volume 2677.093949
_symmetry_space_group_name_H-M "P M M M"
_symmetry_group_IT_number 47
_symmetry_cell_setting 'orthorhombic'
loop_
_space_group_symop_operation_xyz
x,y,z
-x,-y,z
x,-y,-z
-x,y,-z
-x,-y,-z
x,y,-z
-x,y,z
x,-y,z
loop_
_atom_site_type_symbol
_atom_site_label
_atom_site_fract_x
_atom_site_fract_y
_atom_site_fract_z
Si Si1 0.825226 0.203385 0.913850
Si Si2 0.324080 0.349941 0.150575
Si Si3 0.335507 0.905011 0.183202
Si Si4 0.165444 0.406186 0.000000
Si Si5 0.822416 0.093256 0.659481
Si Si6 0.677476 0.591812 0.317328
Si Si7 0.177098 0.736590 0.412237
O O1 0.751455 0.262858 0.853424
O O2 0.753315 0.120150 0.890579
O O3 0.000000 0.202506 0.906512
O O4 0.786653 0.225695 0.000000
O O5 0.500000 0.345118 0.143216
O O6 0.289684 0.394381 0.228517
O O7 0.254012 0.388074 0.075925
O O8 0.500000 0.868911 0.185001
O O9 0.244836 0.887328 0.258889
O O10 0.350011 0.000000 0.182927
O O11 0.144784 0.500000 0.000000
O O12 0.000000 0.368222 0.000000
O O13 0.780011 0.170966 0.609137
O O14 0.000000 0.092063 0.663028
O O15 0.777999 0.000000 0.638209
O O16 0.500000 0.596366 0.325789
O O17 0.722892 0.500000 0.338639
O O18 0.749092 0.665578 0.363218
O O19 0.211074 0.723230 0.500000
O O20 0.000000 0.731478 0.401900
#
# Coordination Sequence:
#
# PCOD9387420 Si02
#       7
#     8   8   8   4   8   8   8
#     4  11  23  37  54  78 112 150 191 241 297 357
#     4  11  22  38  61  85 112 148 193 244 295 350
#     4  10  21  36  55  80 111 148 193 244 292 343
#     4  11  23  37  55  83 118 151 184 227 281 341
#     4   9  18  35  60  88 119 156 194 235 290 355
#     4  10  23  42  62  86 116 154 202 251 301 358
#     4  10  22  39  60  90 124 156 195 244 298 358
#
# _framework density 19.424047999999999
#
# number of rings (size 3 to 8) (size 9 to 14) (size 15 to 20)
#    0.000    1.769    0.769    3.000    0.000    8.923 
#    0.000    4.615    0.000    0.000    0.000    3.231 
#    0.000    0.000    0.000    0.000    0.000    0.000 
#
# Total GULP energy -289890.509805 kJ/mol
# GULP energy per Si atom -5574.817496 kJ/mol
# Density = 1.937984 g / cm^3
# Si number density = 19.424048 Si / 1000 Ang^3
#
#
#
# Elastic Constant Matrix: (Units=GPa)
#
#
# Indices 1 2 3 4 5 6 
#
# 1 46.1660 35.1886 45.0747 0.0000 0.0000 0.0000
# 2 35.1886 100.5292 79.9097 0.0000 0.0000 0.0000
# 3 45.0747 79.9097 99.5253 0.0000 0.0000 0.0000
# 4 0.0000 0.0000 0.0000 26.0428 0.0000 0.0000
# 5 0.0000 0.0000 0.0000 0.0000 26.9611 0.0000
# 6 0.0000 0.0000 0.0000 0.0000 0.0000 30.3769
#
#
#
# Elastic Compliance Matrix: (Units=1/GPa)
#
#
# Indices 1 2 3 4 5 6 
#
# 1 0.038874 0.001071 -0.018466 0.000000 0.000000 0.000000
# 2 0.001071 0.027525 -0.022586 0.000000 0.000000 0.000000
# 3 -0.018466 -0.022586 0.036545 0.000000 0.000000 0.000000
# 4 0.000000 0.000000 0.000000 0.038398 0.000000 0.000000
# 5 0.000000 0.000000 0.000000 0.000000 0.037090 0.000000
# 6 0.000000 0.000000 0.000000 0.000000 0.000000 0.032920
#
#
# Mechanical properties :
#
#
# Convention : Reuss Voigt Hill
#
# Bulk Modulus (GPa) = 43.50901 62.95184 53.23042
# Shear Modulus (GPa) = 16.72382 22.41266 19.56824
#
# Velocity S-wave (km/s) = 2.93744 3.40054 3.17744
# Velocity P-wave (km/s) = 5.82691 6.92082 6.39729
#
# Compressibility (1/GPa) = 0.02298375
#
# Stress axis : x y z
#
# Youngs Moduli (GPa) = 25.72422 36.33006 27.36351
#
# Poissons Ratio (x) = -0.03892 0.50529
# Poissons Ratio (y) = -0.02756 0.61802
# Poissons Ratio (z) = 0.47502 0.82053
#
# Static dielectric constant tensor:
#      x y z
#    x 1.664990 0.000000 0.000000 
#    y 0.000000 1.792140 0.000000 
#    z 0.000000 0.000000 1.653800 
# 
# From -- ./inp_files/26742.got.cif
#   From: 2010.05.17/outbox.cif.g08.bks.cpg/sg47_14_cif.got.tgz:26742.got - 2010.06.03 20:15:42.
