data_PCOD9387716
_publ_section_title
;
Structure prediction by ZEFSAII (Michael W. Deem and Ramdas Pophale) SiO2 
 PCOD9387716
Probable space group: P M M M
;
_chemical_formula_sum "Si O2"
_cell_formula_units_Z 49
_cell_length_a 10.336945
_cell_length_b 30.187417
_cell_length_c 8.053312
_cell_angle_alpha 90.000000
_cell_angle_beta 90.000000
_cell_angle_gamma 90.000000
_cell_volume 2513.001132
_symmetry_space_group_name_H-M "P M M M"
_symmetry_group_IT_number 47
_symmetry_cell_setting 'orthorhombic'
loop_
_space_group_symop_operation_xyz
x,y,z
-x,-y,z
x,-y,-z
-x,y,-z
-x,-y,-z
x,y,-z
-x,y,z
x,-y,z
loop_
_atom_site_type_symbol
_atom_site_label
_atom_site_fract_x
_atom_site_fract_y
_atom_site_fract_z
Si Si1 0.000000 0.000000 0.500000
Si Si2 0.500000 0.050908 0.702783
Si Si3 0.000000 0.929106 0.188470
Si Si4 0.647215 0.550398 0.700479
Si Si5 0.740778 0.889261 0.695314
Si Si6 0.146566 0.376518 0.802300
Si Si7 0.852789 0.722838 0.303821
Si Si8 0.646763 0.205560 0.804297
O O1 0.000000 0.037891 0.347982
O O2 0.500000 0.050749 0.500000
O O3 0.372658 0.077650 0.754464
O O4 0.500000 0.000000 0.757923
O O5 0.128147 0.899567 0.209227
O O6 0.000000 0.948132 0.000000
O O7 0.647156 0.550382 0.500000
O O8 0.500000 0.560875 0.754772
O O9 0.677195 0.500000 0.755080
O O10 0.751086 0.585900 0.758236
O O11 0.761701 0.898036 0.500000
O O12 0.693545 0.839165 0.716340
O O13 0.178921 0.328706 0.725984
O O14 0.000000 0.388294 0.747412
O O15 0.145100 0.370992 0.000000
O O16 0.854183 0.731342 0.500000
O O17 0.746909 0.754974 0.226624
O O18 0.000000 0.730105 0.239580
O O19 0.500000 0.216718 0.750675
O O20 0.644043 0.196078 0.000000
#
# Coordination Sequence:
#
# PCOD9387716 Si02
#       8
#     1   4   4   8   8   8   8   8
#     4  12  26  52  68 100 136 172 214 270 312 378
#     4   9  20  36  65  95 127 167 210 254 311 364
#     4  12  27  45  71 100 133 173 214 263 318 371
#     4   9  19  36  57  82 114 155 203 252 300 354
#     4  11  22  42  67  95 130 168 211 260 309 372
#     4  10  21  37  57  84 119 155 195 246 304 367
#     4  10  22  40  63  89 116 154 204 255 311 374
#     4  11  24  41  62  90 127 164 206 257 310 373
#
# _framework density 19.498598999999999
#
# number of rings (size 3 to 8) (size 9 to 14) (size 15 to 20)
#    0.000    1.714    1.633    2.571    2.286    4.571 
#    0.000    2.449    0.000    1.959    0.000    0.000 
#    0.000    0.000    0.000    0.000    0.000    0.000 
#
# Total GULP energy -273388.975600 kJ/mol
# GULP energy per Si atom -5579.366849 kJ/mol
# Density = 1.945422 g / cm^3
# Si number density = 19.498599 Si / 1000 Ang^3
#
#
#
# Elastic Constant Matrix: (Units=GPa)
#
#
# Indices 1 2 3 4 5 6 
#
# 1 149.8729 86.1887 20.2368 0.0000 0.0000 0.0000
# 2 86.1887 105.5199 6.8808 0.0000 0.0000 0.0000
# 3 20.2368 6.8808 62.0756 0.0000 0.0000 0.0000
# 4 0.0000 0.0000 0.0000 -23.3484 0.0000 0.0000
# 5 0.0000 0.0000 0.0000 0.0000 16.2522 0.0000
# 6 0.0000 0.0000 0.0000 0.0000 0.0000 30.7949
#
#
#
# Elastic Compliance Matrix: (Units=1/GPa)
#
#
# Indices 1 2 3 4 5 6 
#
# 1 0.013157 -0.010543 -0.003120 0.000000 0.000000 0.000000
# 2 -0.010543 0.017994 0.001442 0.000000 0.000000 0.000000
# 3 -0.003120 0.001442 0.016967 0.000000 0.000000 0.000000
# 4 0.000000 0.000000 0.000000 -0.042829 0.000000 0.000000
# 5 0.000000 0.000000 0.000000 0.000000 0.061530 0.000000
# 6 0.000000 0.000000 0.000000 0.000000 0.000000 0.032473
#
#
# Mechanical properties :
#
#
# Convention : Reuss Voigt Hill
#
# Bulk Modulus (GPa) = 42.23715 60.45344 51.34530
# Shear Modulus (GPa) = 37.98674 18.35056 28.16865
#
# Velocity S-wave (km/s) = 4.41861 3.07110 3.80498
# Velocity P-wave (km/s) = 6.90947 6.60658 6.75972
#
# Compressibility (1/GPa) = 0.02367584
#
# Stress axis : x y z
#
# Youngs Moduli (GPa) = 76.00717 55.57325 58.93873
#
# Poissons Ratio (x) = 0.58590 0.18392
# Poissons Ratio (y) = 0.80133 -0.08501
# Poissons Ratio (z) = 0.23718 -0.08016
#
# Static dielectric constant tensor:
#      x y z
#    x 1.673770 0.000000 0.000000 
#    y 0.000000 1.638820 0.000000 
#    z 0.000000 0.000000 1.698950 
# 
# From -- ./inp_files/2821.got.cif
#   From: 2010.05.17/outbox.cif.g08.bks.cpg/sg47_2_cif.got.tgz:2821.got - 2010.06.03 20:15:42.
