data_PCOD9387824
_publ_section_title
;
Structure prediction by ZEFSAII (Michael W. Deem and Ramdas Pophale) SiO2 
 PCOD9387824
Probable space group: P M M M
;
_chemical_formula_sum "Si O2"
_cell_formula_units_Z 40
_cell_length_a 15.009915
_cell_length_b 16.108278
_cell_length_c 7.627800
_cell_angle_alpha 90.000000
_cell_angle_beta 90.000000
_cell_angle_gamma 90.000000
_cell_volume 1844.279107
_symmetry_space_group_name_H-M "P M M M"
_symmetry_group_IT_number 47
_symmetry_cell_setting 'orthorhombic'
loop_
_space_group_symop_operation_xyz
x,y,z
-x,-y,z
x,-y,-z
-x,y,-z
-x,-y,-z
x,y,-z
-x,y,z
x,-y,z
loop_
_atom_site_type_symbol
_atom_site_label
_atom_site_fract_x
_atom_site_fract_y
_atom_site_fract_z
Si Si1 0.400165 0.747458 0.707034
Si Si2 0.098350 0.150747 0.711813
Si Si3 0.097550 0.654412 0.713372
Si Si4 0.290813 0.909965 0.204358
Si Si5 0.287181 0.591523 0.285137
O O1 0.408318 0.731928 0.500000
O O2 0.500000 0.756922 0.779424
O O3 0.342333 0.830725 0.722964
O O4 0.347099 0.667891 0.778659
O O5 0.100265 0.146706 0.500000
O O6 0.106370 0.248173 0.760187
O O7 0.184858 0.103629 0.777345
O O8 0.000000 0.121511 0.768903
O O9 0.096895 0.651263 0.500000
O O10 0.185107 0.606498 0.771654
O O11 0.000000 0.624893 0.772628
O O12 0.314458 0.000000 0.281994
O O13 0.312775 0.911706 0.000000
O O14 0.286674 0.593656 0.500000
O O15 0.318143 0.500000 0.232698
#
# Coordination Sequence:
#
# PCOD9387824 Si02
#       5
#     8   8   8   8   8
#     4  10  21  38  59  81 107 140 181 231 282 331
#     4   9  17  32  56  83 112 147 185 224 265 314
#     4   8  13  23  43  73 108 142 174 211 256 306
#     4  11  24  39  56  80 110 144 182 227 278 331
#     4   9  16  27  48  80 114 143 173 216 271 325
#
# _framework density 21.688693000000001
#
# number of rings (size 3 to 8) (size 9 to 14) (size 15 to 20)
#    0.000    2.600    2.000    1.800    0.000    4.000 
#    0.000    8.000    0.000    0.600    0.000    1.400 
#    0.000    3.200    0.000    0.000    0.000    0.000 
#
# Total GULP energy -223248.076920 kJ/mol
# GULP energy per Si atom -5581.201923 kJ/mol
# Density = 2.163933 g / cm^3
# Si number density = 21.688693 Si / 1000 Ang^3
#
#
#
# Elastic Constant Matrix: (Units=GPa)
#
#
# Indices 1 2 3 4 5 6 
#
# 1 148.5355 89.8357 -0.3614 0.0000 0.0000 0.0000
# 2 89.8357 158.2179 1.1680 0.0000 0.0000 0.0000
# 3 -0.3614 1.1680 38.9268 0.0000 0.0000 0.0000
# 4 0.0000 0.0000 0.0000 24.5249 0.0000 0.0000
# 5 0.0000 0.0000 0.0000 0.0000 -23.8536 0.0000
# 6 0.0000 0.0000 0.0000 0.0000 0.0000 -5.0904
#
#
#
# Elastic Compliance Matrix: (Units=1/GPa)
#
#
# Indices 1 2 3 4 5 6 
#
# 1 0.010256 -0.005826 0.000270 0.000000 0.000000 0.000000
# 2 -0.005826 0.009631 -0.000343 0.000000 0.000000 0.000000
# 3 0.000270 -0.000343 0.025702 0.000000 0.000000 0.000000
# 4 0.000000 0.000000 0.000000 0.040775 0.000000 0.000000
# 5 0.000000 0.000000 0.000000 0.000000 -0.041922 0.000000
# 6 0.000000 0.000000 0.000000 0.000000 0.000000 -0.196448
#
#
# Mechanical properties :
#
#
# Convention : Reuss Voigt Hill
#
# Bulk Modulus (GPa) = 29.59287 58.55164 44.07226
# Shear Modulus (GPa) = -38.77617 16.11870 -11.32874
#
# Velocity S-wave (km/s) = -4.23289 2.72910 -2.28794
# Velocity P-wave (km/s) = 3.19621 6.08158 3.65854
#
# Compressibility (1/GPa) = 0.03379192
#
# Stress axis : x y z
#
# Youngs Moduli (GPa) = 97.50005 103.83499 38.90742
#
# Poissons Ratio (x) = 0.60490 -0.01051
# Poissons Ratio (y) = 0.56799 0.01335
# Poissons Ratio (z) = -0.02633 0.03562
#
# Static dielectric constant tensor:
#      x y z
#    x 1.778160 0.000000 0.000000 
#    y 0.000000 1.789770 0.000000 
#    z 0.000000 0.000000 1.817140 
# 
# From -- ./inp_files/5661.got.cif
#   From: 2010.05.17/outbox.cif.g08.bks.cpg/sg47_3_cif.got.tgz:5661.got - 2010.06.03 20:15:42.
