data_PCOD9387104
_publ_section_title
;
Structure prediction by ZEFSAII (Michael W. Deem and Ramdas Pophale) SiO2 
 PCOD9387104
Probable space group: P M M M
;
_chemical_formula_sum "Si O2"
_cell_formula_units_Z 44
_cell_length_a 7.780185
_cell_length_b 31.206909
_cell_length_c 9.695991
_cell_angle_alpha 90.000000
_cell_angle_beta 90.000000
_cell_angle_gamma 90.000000
_cell_volume 2354.143228
_symmetry_space_group_name_H-M "P M M M"
_symmetry_group_IT_number 47
_symmetry_cell_setting 'orthorhombic'
loop_
_space_group_symop_operation_xyz
x,y,z
-x,-y,z
x,-y,-z
-x,y,-z
-x,-y,-z
x,y,-z
-x,y,z
x,-y,z
loop_
_atom_site_type_symbol
_atom_site_label
_atom_site_fract_x
_atom_site_fract_y
_atom_site_fract_z
Si Si1 0.205301 0.196487 0.343748
Si Si2 0.707248 0.277175 0.158225
Si Si3 0.500000 0.951376 0.167021
Si Si4 0.204253 0.114566 0.164581
Si Si5 0.206551 0.547014 0.342672
Si Si6 0.293759 0.627320 0.155704
O O1 0.275108 0.196393 0.500000
O O2 0.240799 0.240295 0.262809
O O3 0.261279 0.156105 0.251331
O O4 0.000000 0.192442 0.353082
O O5 0.500000 0.277525 0.154965
O O6 0.766652 0.325128 0.199188
O O7 0.765726 0.268923 0.000000
O O8 0.671116 0.924637 0.203758
O O9 0.500000 0.000000 0.219923
O O10 0.500000 0.953513 0.000000
O O11 0.000000 0.106266 0.187976
O O12 0.224459 0.122745 0.000000
O O13 0.268698 0.552117 0.500000
O O14 0.266499 0.500000 0.291543
O O15 0.251853 0.587724 0.252164
O O16 0.000000 0.545379 0.347127
O O17 0.500000 0.629854 0.149799
O O18 0.229843 0.619733 0.000000
#
# Coordination Sequence:
#
# PCOD9387104 Si02
#       6
#     8   8   4   8   8   8
#     4  10  21  35  51  75 106 137 172 215 260 307
#     4   9  19  35  53  73 100 134 169 207 253 306
#     4   9  18  32  53  83 111 137 179 229 272 319
#     4   9  18  33  53  77 107 143 180 221 270 320
#     4   9  19  35  52  71  97 129 165 205 250 301
#     4   9  19  35  52  73 101 130 163 205 253 304
#
# _framework density 18.690452000000001
#
# number of rings (size 3 to 8) (size 9 to 14) (size 15 to 20)
#    0.000    2.818    0.000    2.182    1.273    4.727 
#    0.000   10.000    0.000    1.091    0.000    2.545 
#    0.000    0.000    0.000    0.000    0.000    0.000 
#
# Total GULP energy -245236.376037 kJ/mol
# GULP energy per Si atom -5573.554001 kJ/mol
# Density = 1.864791 g / cm^3
# Si number density = 18.690452 Si / 1000 Ang^3
#
#
#
# Elastic Constant Matrix: (Units=GPa)
#
#
# Indices 1 2 3 4 5 6 
#
# 1 41.7872 40.8134 27.9071 0.0000 0.0000 0.0000
# 2 40.8134 211.2048 104.2301 0.0000 0.0000 0.0000
# 3 27.9071 104.2301 88.9146 0.0000 0.0000 0.0000
# 4 0.0000 0.0000 0.0000 -20.7513 0.0000 0.0000
# 5 0.0000 0.0000 0.0000 0.0000 20.2374 0.0000
# 6 0.0000 0.0000 0.0000 0.0000 0.0000 34.1387
#
#
#
# Elastic Compliance Matrix: (Units=1/GPa)
#
#
# Indices 1 2 3 4 5 6 
#
# 1 0.030968 -0.002818 -0.006417 0.000000 0.000000 0.000000
# 2 -0.002818 0.011490 -0.012584 0.000000 0.000000 0.000000
# 3 -0.006417 -0.012584 0.028013 0.000000 0.000000 0.000000
# 4 0.000000 0.000000 0.000000 -0.048190 0.000000 0.000000
# 5 0.000000 0.000000 0.000000 0.000000 0.049414 0.000000
# 6 0.000000 0.000000 0.000000 0.000000 0.000000 0.029292
#
#
# Mechanical properties :
#
#
# Convention : Reuss Voigt Hill
#
# Bulk Modulus (GPa) = 37.26770 76.42308 56.84539
# Shear Modulus (GPa) = 32.55873 17.98869 25.27371
#
# Velocity S-wave (km/s) = 4.17825 3.10571 3.68125
# Velocity P-wave (km/s) = 6.57722 7.33745 6.96771
#
# Compressibility (1/GPa) = 0.02683289
#
# Stress axis : x y z
#
# Youngs Moduli (GPa) = 32.29131 87.03499 35.69794
#
# Poissons Ratio (x) = 0.24523 0.22907
# Poissons Ratio (y) = 0.09098 0.44924
# Poissons Ratio (z) = 0.20721 1.09528
#
# Static dielectric constant tensor:
#      x y z
#    x 1.680230 0.000000 0.000000 
#    y 0.000000 1.644300 0.000000 
#    z 0.000000 0.000000 1.641020 
# 
# From -- ./inp_files/2132.got.cif
#   From: 2010.05.17/outbox.cif.g08.bks.cpg/sg47_2_cif.got.tgz:2132.got - 2010.06.03 20:15:42.
