data_PCOD9387156
_publ_section_title
;
Structure prediction by ZEFSAII (Michael W. Deem and Ramdas Pophale) SiO2 
 PCOD9387156
Probable space group: P M M M
;
_chemical_formula_sum "Si O2"
_cell_formula_units_Z 29
_cell_length_a 22.239519
_cell_length_b 7.553580
_cell_length_c 9.290522
_cell_angle_alpha 90.000000
_cell_angle_beta 90.000000
_cell_angle_gamma 90.000000
_cell_volume 1560.696079
_symmetry_space_group_name_H-M "P M M M"
_symmetry_group_IT_number 47
_symmetry_cell_setting 'orthorhombic'
loop_
_space_group_symop_operation_xyz
x,y,z
-x,-y,z
x,-y,-z
-x,y,-z
-x,-y,-z
x,y,-z
-x,y,z
x,-y,z
loop_
_atom_site_type_symbol
_atom_site_label
_atom_site_fract_x
_atom_site_fract_y
_atom_site_fract_z
Si Si1 0.500000 0.000000 0.500000
Si Si2 0.624417 0.000000 0.340318
Si Si3 0.304670 0.712224 0.170603
Si Si4 0.067000 0.787007 0.164105
Si Si5 0.814016 0.289594 0.661528
O O1 0.553921 0.000000 0.376746
O O2 0.645897 0.827772 0.253307
O O3 0.654272 0.000000 0.500000
O O4 0.312436 0.500000 0.192863
O O5 0.240321 0.770800 0.236398
O O6 0.305944 0.744895 0.000000
O O7 0.121225 0.738966 0.267584
O O8 0.000000 0.725795 0.207695
O O9 0.065127 0.000000 0.159671
O O10 0.078280 0.724962 0.000000
O O11 0.810770 0.215525 0.500000
O O12 0.805958 0.500000 0.651196
#
# Coordination Sequence:
#
# PCOD9387156 Si02
#       5
#     1   4   8   8   8
#     4   8  24  44  64 100 128 162 208 228 282 356
#     4  10  21  41  65  91 124 163 197 237 290 347
#     4  10  21  38  62  92 124 160 204 252 300 352
#     4   9  19  35  52  71 101 144 193 243 297 357
#     4  10  21  35  52  79 112 146 189 242 297 354
#
# _framework density 18.581454000000001
#
# number of rings (size 3 to 8) (size 9 to 14) (size 15 to 20)
#    0.414    1.931    0.000    2.897    1.931    4.966 
#    0.000    6.897    0.000    1.655    0.000    0.000 
#    0.000    0.000    0.000    0.000    0.000    0.000 
#
# Total GULP energy -161443.870132 kJ/mol
# GULP energy per Si atom -5567.030005 kJ/mol
# Density = 1.853916 g / cm^3
# Si number density = 18.581454 Si / 1000 Ang^3
#
#
#
# Elastic Constant Matrix: (Units=GPa)
#
#
# Indices 1 2 3 4 5 6 
#
# 1 163.7952 35.5430 98.7465 0.0000 0.0000 0.0000
# 2 35.5430 61.9578 51.8028 0.0000 0.0000 0.0000
# 3 98.7465 51.8028 156.6296 0.0000 0.0000 0.0000
# 4 0.0000 0.0000 0.0000 14.8818 0.0000 0.0000
# 5 0.0000 0.0000 0.0000 0.0000 46.3297 0.0000
# 6 0.0000 0.0000 0.0000 0.0000 0.0000 10.0445
#
#
#
# Elastic Compliance Matrix: (Units=1/GPa)
#
#
# Indices 1 2 3 4 5 6 
#
# 1 0.009866 -0.000635 -0.006010 0.000000 0.000000 0.000000
# 2 -0.000635 0.022350 -0.006992 0.000000 0.000000 0.000000
# 3 -0.006010 -0.006992 0.012486 0.000000 0.000000 0.000000
# 4 0.000000 0.000000 0.000000 0.067196 0.000000 0.000000
# 5 0.000000 0.000000 0.000000 0.000000 0.021584 0.000000
# 6 0.000000 0.000000 0.000000 0.000000 0.000000 0.099557
#
#
# Mechanical properties :
#
#
# Convention : Reuss Voigt Hill
#
# Bulk Modulus (GPa) = 57.37627 83.84077 70.60852
# Shear Modulus (GPa) = 18.78835 27.33722 23.06278
#
# Velocity S-wave (km/s) = 3.18328 3.83980 3.52685
# Velocity P-wave (km/s) = 6.66756 8.05465 7.39370
#
# Compressibility (1/GPa) = 0.01742881
#
# Stress axis : x y z
#
# Youngs Moduli (GPa) = 101.35530 44.74290 80.08984
#
# Poissons Ratio (x) = 0.02840 0.48136
# Poissons Ratio (y) = 0.06434 0.55996
# Poissons Ratio (z) = 0.60917 0.31283
#
# Static dielectric constant tensor:
#      x y z
#    x 1.615010 0.000000 0.000000 
#    y 0.000000 1.680030 0.000000 
#    z 0.000000 0.000000 1.643810 
# 
# From -- ./inp_files/881.got.cif
#   From: 2010.05.17/outbox.cif.g08.bks.cpg/sg47_1_cif.got.tgz:881.got - 2010.06.03 20:15:42.
