data_PCOD9387853
_publ_section_title
;
Structure prediction by ZEFSAII (Michael W. Deem and Ramdas Pophale) SiO2 
 PCOD9387853
Probable space group: P M M M
;
_chemical_formula_sum "Si O2"
_cell_formula_units_Z 48
_cell_length_a 29.933661
_cell_length_b 8.286951
_cell_length_c 9.863396
_cell_angle_alpha 90.000000
_cell_angle_beta 90.000000
_cell_angle_gamma 90.000000
_cell_volume 2446.701998
_symmetry_space_group_name_H-M "P M M M"
_symmetry_group_IT_number 47
_symmetry_cell_setting 'orthorhombic'
loop_
_space_group_symop_operation_xyz
x,y,z
-x,-y,z
x,-y,-z
-x,y,-z
-x,-y,-z
x,y,-z
-x,y,z
x,-y,z
loop_
_atom_site_type_symbol
_atom_site_label
_atom_site_fract_x
_atom_site_fract_y
_atom_site_fract_z
Si Si1 0.050350 0.196832 0.500000
Si Si2 0.110030 0.806795 0.748876
Si Si3 0.206229 0.694026 0.342795
Si Si4 0.629776 0.807632 0.343343
Si Si5 0.552105 0.694873 0.846385
Si Si6 0.288584 0.305423 0.157143
Si Si7 0.051792 0.306861 0.000000
O O1 0.078862 0.249020 0.373278
O O2 0.000000 0.256507 0.500000
O O3 0.048685 0.000000 0.500000
O O4 0.159201 0.737458 0.725833
O O5 0.081430 0.753305 0.876083
O O6 0.114034 0.000000 0.747241
O O7 0.208297 0.753698 0.500000
O O8 0.209742 0.500000 0.349378
O O9 0.246171 0.753360 0.245614
O O10 0.632514 0.748235 0.500000
O O11 0.583262 0.764633 0.270239
O O12 0.667980 0.738216 0.244941
O O13 0.634761 0.000000 0.346944
O O14 0.500000 0.738391 0.829495
O O15 0.555131 0.500000 0.842091
O O16 0.565968 0.744609 0.000000
O O17 0.285966 0.500000 0.150311
O O18 0.289622 0.247234 0.000000
O O19 0.049993 0.500000 0.000000
O O20 0.000000 0.247570 0.000000
#
# Coordination Sequence:
#
# PCOD9387853 Si02
#       7
#     4   8   8   8   8   8   4
#     4   9  18  34  57  85 117 151 189 233 282 339
#     4  11  22  38  61  89 120 155 194 239 291 348
#     4  10  21  38  60  87 121 157 193 237 291 352
#     4  11  24  39  56  84 122 160 198 246 300 352
#     4   9  19  37  61  88 118 155 201 250 297 351
#     4  10  22  40  63  89 115 151 198 245 294 350
#     4  11  25  43  61  85 119 157 197 243 292 343
#
# _framework density 19.618247
#
# number of rings (size 3 to 8) (size 9 to 14) (size 15 to 20)
#    0.000    1.833    0.833    3.250    1.167    7.333 
#    0.000    2.500    0.000    2.000    0.000    0.000 
#    0.000    0.000    0.000    0.000    0.000    0.000 
#
# Total GULP energy -267917.342700 kJ/mol
# GULP energy per Si atom -5581.611306 kJ/mol
# Density = 1.957360 g / cm^3
# Si number density = 19.618247 Si / 1000 Ang^3
#
#
#
# Elastic Constant Matrix: (Units=GPa)
#
#
# Indices 1 2 3 4 5 6 
#
# 1 135.9167 7.0427 94.0413 0.0000 0.0000 0.0000
# 2 7.0427 7.4359 13.9066 0.0000 0.0000 0.0000
# 3 94.0413 13.9066 205.2024 0.0000 0.0000 0.0000
# 4 0.0000 0.0000 0.0000 0.9709 0.0000 0.0000
# 5 0.0000 0.0000 0.0000 0.0000 39.4175 0.0000
# 6 0.0000 0.0000 0.0000 0.0000 0.0000 -34.5330
#
#
#
# Elastic Compliance Matrix: (Units=1/GPa)
#
#
# Indices 1 2 3 4 5 6 
#
# 1 0.010782 -0.001112 -0.004866 0.000000 0.000000 0.000000
# 2 -0.001112 0.154115 -0.009935 0.000000 0.000000 0.000000
# 3 -0.004866 -0.009935 0.007776 0.000000 0.000000 0.000000
# 4 0.000000 0.000000 0.000000 1.029938 0.000000 0.000000
# 5 0.000000 0.000000 0.000000 0.000000 0.025369 0.000000
# 6 0.000000 0.000000 0.000000 0.000000 0.000000 -0.028958
#
#
# Mechanical properties :
#
#
# Convention : Reuss Voigt Hill
#
# Bulk Modulus (GPa) = 7.09981 64.28181 35.69081
# Shear Modulus (GPa) = 3.91298 16.74205 10.32752
#
# Velocity S-wave (km/s) = 1.41382 2.92446 2.29688
# Velocity P-wave (km/s) = 2.50839 6.65137 5.02657
#
# Compressibility (1/GPa) = 0.14084878
#
# Stress axis : x y z
#
# Youngs Moduli (GPa) = 92.74985 6.48864 128.59337
#
# Poissons Ratio (x) = 0.00721 0.62570
# Poissons Ratio (y) = 0.10310 1.27758
# Poissons Ratio (z) = 0.45130 0.06446
#
# Static dielectric constant tensor:
#      x y z
#    x 1.681220 0.000000 0.000000 
#    y 0.000000 1.686710 0.000000 
#    z 0.000000 0.000000 1.641440 
# 
# From -- ./inp_files/13949.got.cif
#   From: 2010.05.17/outbox.cif.g08.bks.cpg/sg47_7_cif.got.tgz:13949.got - 2010.06.03 20:15:42.
