data_PCOD9387995
_publ_section_title
;
Structure prediction by ZEFSAII (Michael W. Deem and Ramdas Pophale) SiO2 
 PCOD9387995
Probable space group: P M M M
;
_chemical_formula_sum "Si O2"
_cell_formula_units_Z 52
_cell_length_a 7.381850
_cell_length_b 11.011509
_cell_length_c 29.947213
_cell_angle_alpha 90.000000
_cell_angle_beta 90.000000
_cell_angle_gamma 90.000000
_cell_volume 2434.268424
_symmetry_space_group_name_H-M "P M M M"
_symmetry_group_IT_number 47
_symmetry_cell_setting 'orthorhombic'
loop_
_space_group_symop_operation_xyz
x,y,z
-x,-y,z
x,-y,-z
-x,y,-z
-x,-y,-z
x,y,-z
-x,y,z
x,-y,z
loop_
_atom_site_type_symbol
_atom_site_label
_atom_site_fract_x
_atom_site_fract_y
_atom_site_fract_z
Si Si1 0.218144 0.364660 0.291737
Si Si2 0.791877 0.500000 0.945632
Si Si3 0.778336 0.141486 0.646936
Si Si4 0.219450 0.235597 0.949214
Si Si5 0.288060 0.871103 0.858338
Si Si6 0.286011 0.631869 0.186327
Si Si7 0.783707 0.145764 0.452120
O O1 0.279937 0.500000 0.307023
O O2 0.281027 0.245616 0.318596
O O3 0.265762 0.355313 0.239561
O O4 0.000000 0.364995 0.295110
O O5 0.712046 0.630537 0.934064
O O6 0.000000 0.500000 0.930457
O O7 0.794666 0.500000 0.000000
O O8 0.718289 0.181296 0.596986
O O9 0.000000 0.139177 0.646983
O O10 0.723547 0.000000 0.655349
O O11 0.274914 0.142319 0.911602
O O12 0.000000 0.240970 0.950215
O O13 0.278368 0.211076 0.000000
O O14 0.500000 0.872717 0.846070
O O15 0.206747 0.749962 0.837219
O O16 0.209028 0.000000 0.844023
O O17 0.500000 0.628191 0.176216
O O18 0.210453 0.500000 0.173011
O O19 0.712730 0.192737 0.500000
O O20 0.000000 0.168260 0.452318
O O21 0.759452 0.000000 0.452778
#
# Coordination Sequence:
#
# PCOD9387995 Si02
#       7
#     8   4   8   8   8   8   8
#     4   9  17  29  45  66  90 113 140 179 228 273
#     4   7  12  26  47  71  97 121 147 183 221 249
#     4   8  13  21  35  57  84 114 147 181 218 261
#     4   9  18  33  53  76 101 128 157 187 220 261
#     4  10  22  37  51  71  99 126 151 185 230 271
#     4   9  19  36  54  68  86 117 154 187 221 268
#     4   7   9  14  26  46  74 109 147 181 210 247
#
# _framework density 21.361654999999999
#
# number of rings (size 3 to 8) (size 9 to 14) (size 15 to 20)
#    0.000    3.462    0.000    2.308    1.077    2.154 
#    0.000    1.538    0.000    1.846    0.000    3.231 
#    0.000    0.615    0.000    7.692    0.000    7.077 
#
# Total GULP energy -289736.478953 kJ/mol
# GULP energy per Si atom -5571.855364 kJ/mol
# Density = 2.131303 g / cm^3
# Si number density = 21.361655 Si / 1000 Ang^3
#
#
#
# Elastic Constant Matrix: (Units=GPa)
#
#
# Indices 1 2 3 4 5 6 
#
# 1 74.9770 11.0152 -1.8489 0.0000 0.0000 0.0000
# 2 11.0152 184.0202 83.6391 0.0000 0.0000 0.0000
# 3 -1.8489 83.6391 84.5249 0.0000 0.0000 0.0000
# 4 0.0000 0.0000 0.0000 11.9884 0.0000 0.0000
# 5 0.0000 0.0000 0.0000 0.0000-1555.3427 0.0000
# 6 0.0000 0.0000 0.0000 0.0000 0.0000 -7.3443
#
#
#
# Elastic Compliance Matrix: (Units=1/GPa)
#
#
# Indices 1 2 3 4 5 6 
#
# 1 0.013641 -0.001730 0.002011 0.000000 0.000000 0.000000
# 2 -0.001730 0.010095 -0.010027 0.000000 0.000000 0.000000
# 3 0.002011 -0.010027 0.021797 0.000000 0.000000 0.000000
# 4 0.000000 0.000000 0.000000 0.083414 0.000000 0.000000
# 5 0.000000 0.000000 0.000000 0.000000 -0.000643 0.000000
# 6 0.000000 0.000000 0.000000 0.000000 0.000000 -0.136161
#
#
# Mechanical properties :
#
#
# Convention : Reuss Voigt Hill
#
# Bulk Modulus (GPa) = 38.40331 58.79253 48.59792
# Shear Modulus (GPa) = 246.09116 -293.42526 -23.66705
#
# Velocity S-wave (km/s) = 10.74488 -11.73281 -3.33216
# Velocity P-wave (km/s) = 13.11309 12.48852 2.82756
#
# Compressibility (1/GPa) = 0.02603942
#
# Stress axis : x y z
#
# Youngs Moduli (GPa) = 73.30716 99.05591 45.87766
#
# Poissons Ratio (x) = 0.17141 -0.09224
# Poissons Ratio (y) = 0.12685 0.46003
# Poissons Ratio (z) = -0.14740 0.99327
#
# Static dielectric constant tensor:
#      x y z
#    x 1.823040 0.000000 0.000000 
#    y 0.000000 1.802360 0.000000 
#    z 0.000000 0.000000 1.775760 
# 
# From -- ./inp_files/34270.got.cif
#   From: 2010.05.17/outbox.cif.g08.bks.cpg/sg47_18_cif.got.tgz:34270.got - 2010.06.03 20:15:42.
