data_PCOD9387767
_publ_section_title
;
Structure prediction by ZEFSAII (Michael W. Deem and Ramdas Pophale) SiO2 
 PCOD9387767
Probable space group: P M M M
;
_chemical_formula_sum "Si O2"
_cell_formula_units_Z 40
_cell_length_a 8.557137
_cell_length_b 15.548395
_cell_length_c 15.009130
_cell_angle_alpha 90.000000
_cell_angle_beta 90.000000
_cell_angle_gamma 90.000000
_cell_volume 1996.960936
_symmetry_space_group_name_H-M "P M M M"
_symmetry_group_IT_number 47
_symmetry_cell_setting 'orthorhombic'
loop_
_space_group_symop_operation_xyz
x,y,z
-x,-y,z
x,-y,-z
-x,y,-z
-x,-y,-z
x,y,-z
-x,y,z
x,-y,z
loop_
_atom_site_type_symbol
_atom_site_label
_atom_site_fract_x
_atom_site_fract_y
_atom_site_fract_z
Si Si1 0.811384 0.594745 0.296525
Si Si2 0.679243 0.229619 0.642732
Si Si3 0.186243 0.637746 0.903258
Si Si4 0.317373 0.184539 0.149348
Si Si5 0.321662 0.000000 0.105769
Si Si6 0.813805 0.900646 0.500000
O O1 0.765948 0.500000 0.329419
O O2 0.752161 0.674840 0.354412
O O3 0.755716 0.602720 0.192549
O O4 0.000000 0.599725 0.294358
O O5 0.500000 0.235626 0.613919
O O6 0.684471 0.201277 0.745605
O O7 0.760772 0.156915 0.583861
O O8 0.224687 0.738919 0.897046
O O9 0.000000 0.623143 0.903482
O O10 0.246288 0.606025 0.000000
O O11 0.500000 0.186553 0.119002
O O12 0.249222 0.090231 0.132987
O O13 0.500000 0.000000 0.143679
O O14 0.332133 0.000000 0.000000
O O15 0.000000 0.905479 0.500000
O O16 0.753562 0.000000 0.500000
#
# Coordination Sequence:
#
# PCOD9387767 Si02
#       6
#     8   8   8   8   4   4
#     4   9  18  34  56  80 111 152 192 232 280 334
#     4  10  21  37  59  85 113 144 180 229 280 330
#     4   9  17  29  46  71 105 143 186 235 279 319
#     4   9  18  31  49  71  99 139 181 222 272 327
#     4   9  16  26  43  68  97 132 178 223 257 305
#     4  11  25  43  64  89 116 145 179 218 268 333
#
# _framework density 20.030436999999999
#
# number of rings (size 3 to 8) (size 9 to 14) (size 15 to 20)
#    0.000    2.600    0.000    1.500    1.400    3.600 
#    0.000    3.000    0.000    4.800    0.000    5.600 
#    0.000    0.000    0.000    0.000    0.000    0.000 
#
# Total GULP energy -222923.691894 kJ/mol
# GULP energy per Si atom -5573.092297 kJ/mol
# Density = 1.998485 g / cm^3
# Si number density = 20.030437 Si / 1000 Ang^3
#
#
#
# Elastic Constant Matrix: (Units=GPa)
#
#
# Indices 1 2 3 4 5 6 
#
# 1 30.9283 29.2463 18.8557 0.0000 0.0000 0.0000
# 2 29.2463 182.1335 34.9074 0.0000 0.0000 0.0000
# 3 18.8557 34.9074 64.5503 0.0000 0.0000 0.0000
# 4 0.0000 0.0000 0.0000 -8.7583 0.0000 0.0000
# 5 0.0000 0.0000 0.0000 0.0000 15.7618 0.0000
# 6 0.0000 0.0000 0.0000 0.0000 0.0000 12.6666
#
#
#
# Elastic Compliance Matrix: (Units=1/GPa)
#
#
# Indices 1 2 3 4 5 6 
#
# 1 0.043108 -0.005030 -0.009872 0.000000 0.000000 0.000000
# 2 -0.005030 0.006712 -0.002161 0.000000 0.000000 0.000000
# 3 -0.009872 -0.002161 0.019544 0.000000 0.000000 0.000000
# 4 0.000000 0.000000 0.000000 -0.114178 0.000000 0.000000
# 5 0.000000 0.000000 0.000000 0.000000 0.063444 0.000000
# 6 0.000000 0.000000 0.000000 0.000000 0.000000 0.078948
#
#
# Mechanical properties :
#
#
# Convention : Reuss Voigt Hill
#
# Bulk Modulus (GPa) = 28.37780 49.29232 38.83506
# Shear Modulus (GPa) = 34.85530 16.90754 25.88142
#
# Velocity S-wave (km/s) = 4.17600 2.90848 3.59849
# Velocity P-wave (km/s) = 6.11964 5.99509 6.05769
#
# Compressibility (1/GPa) = 0.03523881
#
# Stress axis : x y z
#
# Youngs Moduli (GPa) = 23.19754 148.98094 51.16687
#
# Poissons Ratio (x) = 0.74938 0.50512
# Poissons Ratio (y) = 0.11668 0.11055
# Poissons Ratio (z) = 0.22901 0.32188
#
# Static dielectric constant tensor:
#      x y z
#    x 1.703970 0.000000 0.000000 
#    y 0.000000 1.725380 0.000000 
#    z 0.000000 0.000000 1.725800 
# 
# From -- ./inp_files/20651.got.cif
#   From: 2010.05.17/outbox.cif.g08.bks.cpg/sg47_11_cif.got.tgz:20651.got - 2010.06.03 20:15:42.
