data_PCOD9387979
_publ_section_title
;
Structure prediction by ZEFSAII (Michael W. Deem and Ramdas Pophale) SiO2 
 PCOD9387979
Probable space group: P M M M
;
_chemical_formula_sum "Si O2"
_cell_formula_units_Z 41
_cell_length_a 7.349413
_cell_length_b 30.666503
_cell_length_c 8.380608
_cell_angle_alpha 90.000000
_cell_angle_beta 90.000000
_cell_angle_gamma 90.000000
_cell_volume 1888.828100
_symmetry_space_group_name_H-M "P M M M"
_symmetry_group_IT_number 47
_symmetry_cell_setting 'orthorhombic'
loop_
_space_group_symop_operation_xyz
x,y,z
-x,-y,z
x,-y,-z
-x,y,-z
-x,-y,-z
x,y,-z
-x,y,z
x,-y,z
loop_
_atom_site_type_symbol
_atom_site_label
_atom_site_fract_x
_atom_site_fract_y
_atom_site_fract_z
Si Si1 0.715861 0.094118 0.319392
Si Si2 0.785765 0.000000 0.681720
Si Si3 0.000000 0.500000 0.500000
Si Si4 0.720722 0.634820 0.176480
Si Si5 0.278012 0.185377 0.181923
Si Si6 0.722064 0.418261 0.500000
Si Si7 0.278493 0.723707 0.679399
O O1 0.789317 0.091387 0.500000
O O2 0.500000 0.099877 0.330141
O O3 0.786265 0.137916 0.238379
O O4 0.740195 0.046546 0.241398
O O5 0.705048 0.000000 0.500000
O O6 0.000000 0.000000 0.667059
O O7 0.160224 0.538147 0.500000
O O8 0.500000 0.634455 0.173900
O O9 0.768637 0.607837 0.335819
O O10 0.778677 0.684962 0.204163
O O11 0.780857 0.619320 0.000000
O O12 0.500000 0.184775 0.189313
O O13 0.217782 0.227485 0.280265
O O14 0.226389 0.192304 0.000000
O O15 0.500000 0.424504 0.500000
O O16 0.225725 0.711996 0.500000
O O17 0.500000 0.724537 0.684745
#
# Coordination Sequence:
#
# PCOD9387979 Si02
#       7
#     8   4   1   8   8   4   8
#     4   9  16  27  43  63  86 114 149 195 250 304
#     4   9  17  29  46  65  80 104 148 201 248 302
#     4  12  26  44  70  94 124 174 210 260 314 356
#     4   9  16  29  53  84 119 158 197 242 294 346
#     4   9  16  24  36  61  98 132 161 201 255 313
#     4  10  21  41  63  92 127 163 210 258 304 357
#     4   9  14  22  40  72 110 143 178 220 268 327
#
# _framework density 21.706581
#
# number of rings (size 3 to 8) (size 9 to 14) (size 15 to 20)
#    0.000    2.829    0.976    1.610    0.000    5.854 
#    0.000    1.951    0.000    5.854    2.537    0.000 
#    0.000    0.000    0.000    0.000    0.000    0.000 
#
# Total GULP energy -228347.355620 kJ/mol
# GULP energy per Si atom -5569.447698 kJ/mol
# Density = 2.165718 g / cm^3
# Si number density = 21.706581 Si / 1000 Ang^3
#
#
#
# Elastic Constant Matrix: (Units=GPa)
#
#
# Indices 1 2 3 4 5 6 
#
# 1 89.0886 16.0312 7.3661 0.0000 0.0000 0.0000
# 2 16.0312 170.7735 68.5011 0.0000 0.0000 0.0000
# 3 7.3661 68.5011 121.1011 0.0000 0.0000 0.0000
# 4 0.0000 0.0000 0.0000 -6.2478 0.0000 0.0000
# 5 0.0000 0.0000 0.0000 0.0000 -10.7843 0.0000
# 6 0.0000 0.0000 0.0000 0.0000 0.0000 -246.6244
#
#
#
# Elastic Compliance Matrix: (Units=1/GPa)
#
#
# Indices 1 2 3 4 5 6 
#
# 1 0.011419 -0.001026 -0.000114 0.000000 0.000000 0.000000
# 2 -0.001026 0.007666 -0.004274 0.000000 0.000000 0.000000
# 3 -0.000114 -0.004274 0.010682 0.000000 0.000000 0.000000
# 4 0.000000 0.000000 0.000000 -0.160058 0.000000 0.000000
# 5 0.000000 0.000000 0.000000 0.000000 -0.092727 0.000000
# 6 0.000000 0.000000 0.000000 0.000000 0.000000 -0.004055
#
#
# Mechanical properties :
#
#
# Convention : Reuss Voigt Hill
#
# Bulk Modulus (GPa) = 52.80196 62.75113 57.77655
# Shear Modulus (GPa) = -23.81744 -33.46030 -28.63887
#
# Velocity S-wave (km/s) = -3.31606 -3.93043 -3.63624
# Velocity P-wave (km/s) = 3.11712 2.89376 3.00751
#
# Compressibility (1/GPa) = 0.01893869
#
# Stress axis : x y z
#
# Youngs Moduli (GPa) = 87.57436 130.43770 93.61384
#
# Poissons Ratio (x) = 0.13385 0.01068
# Poissons Ratio (y) = 0.08987 0.40012
# Poissons Ratio (z) = 0.00999 0.55751
#
# Static dielectric constant tensor:
#      x y z
#    x 1.837910 0.000000 0.000000 
#    y 0.000000 1.789990 0.000000 
#    z 0.000000 0.000000 1.786260 
# 
# From -- ./inp_files/1905.got.cif
#   From: 2010.05.17/outbox.cif.g08.bks.cpg/sg47_1_cif.got.tgz:1905.got - 2010.06.03 20:15:42.
