data_PCOD9387079
_publ_section_title
;
Structure prediction by ZEFSAII (Michael W. Deem and Ramdas Pophale) SiO2 
 PCOD9387079
Probable space group: P M M M
;
_chemical_formula_sum "Si O2"
_cell_formula_units_Z 36
_cell_length_a 7.919841
_cell_length_b 9.542645
_cell_length_c 24.142700
_cell_angle_alpha 90.000000
_cell_angle_beta 90.000000
_cell_angle_gamma 90.000000
_cell_volume 1824.614275
_symmetry_space_group_name_H-M "P M M M"
_symmetry_group_IT_number 47
_symmetry_cell_setting 'orthorhombic'
loop_
_space_group_symop_operation_xyz
x,y,z
-x,-y,z
x,-y,-z
-x,y,-z
-x,-y,-z
x,y,-z
-x,y,z
x,-y,z
loop_
_atom_site_type_symbol
_atom_site_label
_atom_site_fract_x
_atom_site_fract_y
_atom_site_fract_z
Si Si1 0.206875 0.161575 0.107636
Si Si2 0.798316 0.660368 0.787812
Si Si3 0.700581 0.658444 0.666685
Si Si4 0.203489 0.838934 0.561028
Si Si5 0.206307 0.338109 0.000000
O O1 0.264730 0.238919 0.163645
O O2 0.258831 0.253290 0.054653
O O3 0.000000 0.159954 0.107808
O O4 0.261582 0.000000 0.104270
O O5 0.731563 0.500000 0.791969
O O6 0.764542 0.713899 0.725778
O O7 0.000000 0.651844 0.794658
O O8 0.500000 0.651183 0.670884
O O9 0.769342 0.500000 0.660504
O O10 0.743512 0.748046 0.613075
O O11 0.260747 0.788152 0.500000
O O12 0.000000 0.840151 0.560145
O O13 0.260546 0.000000 0.567223
O O14 0.262053 0.500000 0.000000
O O15 0.000000 0.340449 0.000000
#
# Coordination Sequence:
#
# PCOD9387079 Si02
#       5
#     8   8   8   8   4
#     4   9  16  25  39  62  91 121 155 197 242 286
#     4   9  17  30  47  66  91 125 163 200 240 288
#     4  10  21  35  51  74 103 133 166 205 248 294
#     4   9  19  36  56  77 101 130 165 204 246 294
#     4   9  15  23  37  59  90 125 156 189 236 292
#
# _framework density 19.730197
#
# number of rings (size 3 to 8) (size 9 to 14) (size 15 to 20)
#    0.000    2.778    0.000    2.333    0.000    7.556 
#    0.000    5.556    0.000    0.000    0.000    0.778 
#    0.000    6.222    0.000    0.000    0.000    0.000 
#
# Total GULP energy -200810.814461 kJ/mol
# GULP energy per Si atom -5578.078179 kJ/mol
# Density = 1.968529 g / cm^3
# Si number density = 19.730197 Si / 1000 Ang^3
#
#
#
# Elastic Constant Matrix: (Units=GPa)
#
#
# Indices 1 2 3 4 5 6 
#
# 1 15.7039 7.2244 5.5352 0.0000 0.0000 0.0000
# 2 7.2244 128.6460 123.5705 0.0000 0.0000 0.0000
# 3 5.5352 123.5705 226.5678 0.0000 0.0000 0.0000
# 4 0.0000 0.0000 0.0000 36.6718 0.0000 0.0000
# 5 0.0000 0.0000 0.0000 0.0000 -34.4006 0.0000
# 6 0.0000 0.0000 0.0000 0.0000 0.0000 6.1866
#
#
#
# Elastic Compliance Matrix: (Units=1/GPa)
#
#
# Indices 1 2 3 4 5 6 
#
# 1 0.065445 -0.004493 0.000852 0.000000 0.000000 0.000000
# 2 -0.004493 0.016635 -0.008963 0.000000 0.000000 0.000000
# 3 0.000852 -0.008963 0.009281 0.000000 0.000000 0.000000
# 4 0.000000 0.000000 0.000000 0.027269 0.000000 0.000000
# 5 0.000000 0.000000 0.000000 0.000000 -0.029069 0.000000
# 6 0.000000 0.000000 0.000000 0.000000 0.000000 0.161639
#
#
# Mechanical properties :
#
#
# Convention : Reuss Voigt Hill
#
# Bulk Modulus (GPa) = 15.11658 71.50865 43.31262
# Shear Modulus (GPa) = 16.75263 17.33073 17.04168
#
# Velocity S-wave (km/s) = 2.91707 2.96697 2.94213
# Velocity P-wave (km/s) = 4.36165 6.93247 5.79151
#
# Compressibility (1/GPa) = 0.06615252
#
# Stress axis : x y z
#
# Youngs Moduli (GPa) = 15.27991 60.11442 107.74367
#
# Poissons Ratio (x) = 0.27012 -0.09178
# Poissons Ratio (y) = 0.06866 0.96570
# Poissons Ratio (z) = -0.01302 0.53880
#
# Static dielectric constant tensor:
#      x y z
#    x 1.701540 0.000000 0.000000 
#    y 0.000000 1.684710 0.000000 
#    z 0.000000 0.000000 1.680450 
# 
# From -- ./inp_files/1414.got.cif
#   From: 2010.05.17/outbox.cif.g08.bks.cpg/sg47_1_cif.got.tgz:1414.got - 2010.06.03 20:15:42.
