data_PCOD9387780
_publ_section_title
;
Structure prediction by ZEFSAII (Michael W. Deem and Ramdas Pophale) SiO2 
 PCOD9387780
Probable space group: P M M M
;
_chemical_formula_sum "Si O2"
_cell_formula_units_Z 48
_cell_length_a 8.729263
_cell_length_b 17.532300
_cell_length_c 17.137218
_cell_angle_alpha 90.000000
_cell_angle_beta 90.000000
_cell_angle_gamma 90.000000
_cell_volume 2622.749380
_symmetry_space_group_name_H-M "P M M M"
_symmetry_group_IT_number 47
_symmetry_cell_setting 'orthorhombic'
loop_
_space_group_symop_operation_xyz
x,y,z
-x,-y,z
x,-y,-z
-x,y,-z
-x,-y,-z
x,y,-z
-x,y,z
x,-y,z
loop_
_atom_site_type_symbol
_atom_site_label
_atom_site_fract_x
_atom_site_fract_y
_atom_site_fract_z
Si Si1 0.824338 0.277380 0.226906
Si Si2 0.329239 0.231041 0.500000
Si Si3 0.816098 0.832803 0.088891
Si Si4 0.822938 0.613840 0.500000
Si Si5 0.826744 0.152902 0.636386
Si Si6 0.682383 0.585917 0.671827
Si Si7 0.674420 0.000000 0.119846
Si Si8 0.323750 0.000000 0.693865
O O1 0.759796 0.230713 0.151685
O O2 0.828059 0.213270 0.293837
O O3 0.744056 0.349765 0.268523
O O4 0.000000 0.300032 0.208665
O O5 0.500000 0.264437 0.500000
O O6 0.200727 0.295621 0.500000
O O7 0.297327 0.180954 0.425118
O O8 0.752527 0.919282 0.097621
O O9 0.000000 0.837993 0.100335
O O10 0.785110 0.808150 0.000000
O O11 0.748929 0.590724 0.583142
O O12 0.000000 0.591910 0.500000
O O13 0.000000 0.148907 0.604132
O O14 0.770539 0.072750 0.667150
O O15 0.500000 0.595445 0.665287
O O16 0.716314 0.500000 0.700337
O O17 0.500000 0.000000 0.090509
O O18 0.670606 0.000000 0.213137
O O19 0.500000 0.000000 0.664943
#
# Coordination Sequence:
#
# PCOD9387780 Si02
#       8
#     8   4   8   4   8   8   4   4
#     4  10  21  37  60  86 114 150 191 236 286 342
#     4  12  24  38  58  82 113 151 192 240 288 340
#     4  10  21  38  60  86 117 153 193 236 285 341
#     4  12  23  37  59  88 119 154 191 233 284 337
#     4  11  22  38  59  82 110 149 198 245 287 335
#     4  11  24  40  60  88 120 153 190 234 286 342
#     4  11  22  34  54  85 121 154 189 234 286 341
#     4  11  23  37  55  81 113 154 198 241 287 338
#
# _framework density 18.301406
#
# number of rings (size 3 to 8) (size 9 to 14) (size 15 to 20)
#    0.000    1.167    3.333    3.500    0.000    6.000 
#    0.000    1.667    0.000    0.500    0.000    3.500 
#    0.000    0.000    0.000    0.000    0.000    0.000 
#
# Total GULP energy -267745.435951 kJ/mol
# GULP energy per Si atom -5578.029916 kJ/mol
# Density = 1.825975 g / cm^3
# Si number density = 18.301406 Si / 1000 Ang^3
#
#
#
# Elastic Constant Matrix: (Units=GPa)
#
#
# Indices 1 2 3 4 5 6 
#
# 1 72.8399 49.6393 28.5260 0.0000 0.0000 0.0000
# 2 49.6393 148.7880 60.5252 0.0000 0.0000 0.0000
# 3 28.5260 60.5252 103.2016 0.0000 0.0000 0.0000
# 4 0.0000 0.0000 0.0000 45.3349 0.0000 0.0000
# 5 0.0000 0.0000 0.0000 0.0000 17.2736 0.0000
# 6 0.0000 0.0000 0.0000 0.0000 0.0000 7.2637
#
#
#
# Elastic Compliance Matrix: (Units=1/GPa)
#
#
# Indices 1 2 3 4 5 6 
#
# 1 0.018052 -0.005244 -0.001914 0.000000 0.000000 0.000000
# 2 -0.005244 0.010350 -0.004621 0.000000 0.000000 0.000000
# 3 -0.001914 -0.004621 0.012929 0.000000 0.000000 0.000000
# 4 0.000000 0.000000 0.000000 0.022058 0.000000 0.000000
# 5 0.000000 0.000000 0.000000 0.000000 0.057892 0.000000
# 6 0.000000 0.000000 0.000000 0.000000 0.000000 0.137671
#
#
# Mechanical properties :
#
#
# Convention : Reuss Voigt Hill
#
# Bulk Modulus (GPa) = 56.26435 66.91227 61.58831
# Shear Modulus (GPa) = 17.33498 26.38369 21.85934
#
# Velocity S-wave (km/s) = 3.08099 3.80099 3.45977
# Velocity P-wave (km/s) = 6.59292 7.47690 7.04878
#
# Compressibility (1/GPa) = 0.01777324
#
# Stress axis : x y z
#
# Youngs Moduli (GPa) = 55.39527 96.61787 77.34676
#
# Poissons Ratio (x) = 0.50665 0.14807
# Poissons Ratio (y) = 0.29048 0.35739
# Poissons Ratio (z) = 0.10605 0.44643
#
# Static dielectric constant tensor:
#      x y z
#    x 1.651500 0.000000 0.000000 
#    y 0.000000 1.608510 0.000000 
#    z 0.000000 0.000000 1.634340 
# 
# From -- ./inp_files/26590.got.cif
#   From: 2010.05.17/outbox.cif.g08.bks.cpg/sg47_14_cif.got.tgz:26590.got - 2010.06.03 20:15:42.
