data_PCOD9387740
_publ_section_title
;
Structure prediction by ZEFSAII (Michael W. Deem and Ramdas Pophale) SiO2 
 PCOD9387740
Probable space group: P M M M
;
_chemical_formula_sum "Si O2"
_cell_formula_units_Z 56
_cell_length_a 8.214359
_cell_length_b 14.595233
_cell_length_c 22.093134
_cell_angle_alpha 90.000000
_cell_angle_beta 90.000000
_cell_angle_gamma 90.000000
_cell_volume 2648.756518
_symmetry_space_group_name_H-M "P M M M"
_symmetry_group_IT_number 47
_symmetry_cell_setting 'orthorhombic'
loop_
_space_group_symop_operation_xyz
x,y,z
-x,-y,z
x,-y,-z
-x,y,-z
-x,-y,-z
x,y,-z
-x,y,z
x,-y,z
loop_
_atom_site_type_symbol
_atom_site_label
_atom_site_fract_x
_atom_site_fract_y
_atom_site_fract_z
Si Si1 0.699340 0.714834 0.066421
Si Si2 0.690463 0.894827 0.388131
Si Si3 0.697107 0.391464 0.184779
Si Si4 0.304554 0.605318 0.316805
Si Si5 0.185259 0.111164 0.742313
Si Si6 0.304315 0.896444 0.125999
Si Si7 0.809430 0.710995 0.434625
O O1 0.500000 0.711200 0.066750
O O2 0.758320 0.657941 0.124467
O O3 0.747258 0.820330 0.078152
O O4 0.752602 0.683185 0.000000
O O5 0.500000 0.891893 0.403113
O O6 0.713203 0.867271 0.317545
O O7 0.782670 0.819510 0.426635
O O8 0.747892 0.000000 0.395175
O O9 0.500000 0.380692 0.184132
O O10 0.730300 0.500000 0.181823
O O11 0.755331 0.358409 0.251179
O O12 0.500000 0.602952 0.312733
O O13 0.247405 0.500000 0.323358
O O14 0.261619 0.662307 0.375799
O O15 0.256580 0.138435 0.806994
O O16 0.000000 0.143034 0.734633
O O17 0.183628 0.000000 0.744777
O O18 0.500000 0.901155 0.124391
O O19 0.241217 0.000000 0.116817
O O20 0.739419 0.682236 0.500000
O O21 0.000000 0.691216 0.434884
#
# Coordination Sequence:
#
# PCOD9387740 Si02
#       7
#     8   8   8   8   8   8   8
#     4   9  17  27  42  69 103 140 182 226 274 325
#     4  10  21  37  58  83 112 148 190 233 276 327
#     4   8  15  29  49  74 103 134 172 223 279 327
#     4   9  19  37  61  86 111 144 188 238 290 342
#     4   9  17  30  49  74 103 135 176 227 279 325
#     4   9  17  28  43  67 101 140 182 225 270 321
#     4  11  25  41  57  83 118 153 188 229 281 337
#
# _framework density 21.141997
#
# number of rings (size 3 to 8) (size 9 to 14) (size 15 to 20)
#    0.000    2.714    0.000    2.143    2.000    5.143 
#    0.000    5.714    0.000    0.429    0.000    2.000 
#    0.000    0.000    0.000    4.429    0.000    4.571 
#
# Total GULP energy -312403.036526 kJ/mol
# GULP energy per Si atom -5578.625652 kJ/mol
# Density = 2.109388 g / cm^3
# Si number density = 21.141997 Si / 1000 Ang^3
#
#
#
# Elastic Constant Matrix: (Units=GPa)
#
#
# Indices 1 2 3 4 5 6 
#
# 1 8.9550 2.4336 6.0741 0.0000 0.0000 0.0000
# 2 2.4336 61.7813 71.1743 0.0000 0.0000 0.0000
# 3 6.0741 71.1743 184.1485 0.0000 0.0000 0.0000
# 4 0.0000 0.0000 0.0000 15.1941 0.0000 0.0000
# 5 0.0000 0.0000 0.0000 0.0000 62.2961 0.0000
# 6 0.0000 0.0000 0.0000 0.0000 0.0000 3.4843
#
#
#
# Elastic Compliance Matrix: (Units=1/GPa)
#
#
# Indices 1 2 3 4 5 6 
#
# 1 0.114228 -0.000286 -0.003657 0.000000 0.000000 0.000000
# 2 -0.000286 0.029179 -0.011268 0.000000 0.000000 0.000000
# 3 -0.003657 -0.011268 0.009906 0.000000 0.000000 0.000000
# 4 0.000000 0.000000 0.000000 0.065815 0.000000 0.000000
# 5 0.000000 0.000000 0.000000 0.000000 0.016052 0.000000
# 6 0.000000 0.000000 0.000000 0.000000 0.000000 0.287003
#
#
# Mechanical properties :
#
#
# Convention : Reuss Voigt Hill
#
# Bulk Modulus (GPa) = 8.13737 46.02763 27.08250
# Shear Modulus (GPa) = 8.42360 27.87509 18.14934
#
# Velocity S-wave (km/s) = 1.99824 3.63501 2.93311
# Velocity P-wave (km/s) = 3.03005 6.27979 4.93036
#
# Compressibility (1/GPa) = 0.12288987
#
# Stress axis : x y z
#
# Youngs Moduli (GPa) = 8.75441 34.27122 100.94573
#
# Poissons Ratio (x) = 0.00981 0.36917
# Poissons Ratio (y) = 0.00251 1.13749
# Poissons Ratio (z) = 0.03202 0.38618
#
# Static dielectric constant tensor:
#      x y z
#    x 1.736530 0.000000 0.000000 
#    y 0.000000 1.781750 0.000000 
#    z 0.000000 0.000000 1.787150 
# 
# From -- ./inp_files/7277.got.cif
#   From: 2010.05.17/outbox.cif.g08.bks.cpg/sg47_4_cif.got.tgz:7277.got - 2010.06.03 20:15:42.
