data_PCOD9387363
_publ_section_title
;
Structure prediction by ZEFSAII (Michael W. Deem and Ramdas Pophale) SiO2 
 PCOD9387363
Probable space group: P M M M
;
_chemical_formula_sum "Si O2"
_cell_formula_units_Z 64
_cell_length_a 14.435247
_cell_length_b 9.027404
_cell_length_c 26.940865
_cell_angle_alpha 90.000000
_cell_angle_beta 90.000000
_cell_angle_gamma 90.000000
_cell_volume 3510.739728
_symmetry_space_group_name_H-M "P M M M"
_symmetry_group_IT_number 47
_symmetry_cell_setting 'orthorhombic'
loop_
_space_group_symop_operation_xyz
x,y,z
-x,-y,z
x,-y,-z
-x,y,-z
-x,-y,-z
x,y,-z
-x,y,z
x,-y,z
loop_
_atom_site_type_symbol
_atom_site_label
_atom_site_fract_x
_atom_site_fract_y
_atom_site_fract_z
Si Si1 0.890568 0.177475 0.056451
Si Si2 0.889041 0.675719 0.346130
Si Si3 0.387605 0.168023 0.295649
Si Si4 0.111613 0.174266 0.756702
Si Si5 0.395116 0.322457 0.805421
Si Si6 0.209113 0.677560 0.851105
Si Si7 0.215326 0.678363 0.554084
Si Si8 0.607396 0.179258 0.406799
O O1 0.834043 0.258215 0.098968
O O2 0.000000 0.209279 0.062585
O O3 0.879627 0.000000 0.061215
O O4 0.864503 0.219005 0.000000
O O5 0.870752 0.500000 0.339484
O O6 0.857598 0.761323 0.296658
O O7 0.842336 0.726523 0.397509
O O8 0.000000 0.694277 0.350433
O O9 0.500000 0.161288 0.296090
O O10 0.362908 0.264780 0.248408
O O11 0.364778 0.224564 0.350459
O O12 0.353136 0.000000 0.289703
O O13 0.156260 0.257898 0.803145
O O14 0.000000 0.192628 0.759258
O O15 0.132226 0.000000 0.759778
O O16 0.500000 0.268032 0.814938
O O17 0.398359 0.500000 0.803603
O O18 0.317005 0.279225 0.844593
O O19 0.201888 0.500000 0.850652
O O20 0.174992 0.718578 0.500000
O O21 0.220703 0.500000 0.556131
O O22 0.317577 0.746611 0.558385
O O23 0.500000 0.220061 0.416019
O O24 0.612151 0.000000 0.408938
#
# Coordination Sequence:
#
# PCOD9387363 Si02
#       8
#     8   8   8   8   8   8   8   8
#     4   9  19  37  59  82 111 147 185 225 269 317
#     4   9  19  37  58  77 101 133 168 211 263 317
#     4   8  15  29  48  70  95 125 166 212 255 303
#     4  10  21  36  54  78 109 142 173 208 258 320
#     4   9  19  34  49  70 105 145 181 217 259 307
#     4  11  22  33  52  83 114 145 182 223 265 311
#     4  10  22  37  53  76 102 129 168 216 263 316
#     4   9  19  35  53  74 101 133 169 210 258 313
#
# _framework density 18.229776999999999
#
# number of rings (size 3 to 8) (size 9 to 14) (size 15 to 20)
#    0.000    2.625    0.000    2.250    1.750    5.750 
#    0.000    4.375    0.000    0.375    0.000    5.250 
#    0.000    0.000    0.000    0.000    0.000    0.000 
#
# Total GULP energy -357040.755765 kJ/mol
# GULP energy per Si atom -5578.761809 kJ/mol
# Density = 1.818829 g / cm^3
# Si number density = 18.229777 Si / 1000 Ang^3
#
#
#
# Elastic Constant Matrix: (Units=GPa)
#
#
# Indices 1 2 3 4 5 6 
#
# 1 63.2004 32.5405 68.7608 0.0000 0.0000 0.0000
# 2 32.5405 26.0165 49.9138 0.0000 0.0000 0.0000
# 3 68.7608 49.9138 158.7562 0.0000 0.0000 0.0000
# 4 0.0000 0.0000 0.0000 33.3690 0.0000 0.0000
# 5 0.0000 0.0000 0.0000 0.0000 31.8495 0.0000
# 6 0.0000 0.0000 0.0000 0.0000 0.0000 18.3716
#
#
#
# Elastic Compliance Matrix: (Units=1/GPa)
#
#
# Indices 1 2 3 4 5 6 
#
# 1 0.045738 -0.048389 -0.004596 0.000000 0.000000 0.000000
# 2 -0.048389 0.148061 -0.025593 0.000000 0.000000 0.000000
# 3 -0.004596 -0.025593 0.016336 0.000000 0.000000 0.000000
# 4 0.000000 0.000000 0.000000 0.029968 0.000000 0.000000
# 5 0.000000 0.000000 0.000000 0.000000 0.031398 0.000000
# 6 0.000000 0.000000 0.000000 0.000000 0.000000 0.054432
#
#
# Mechanical properties :
#
#
# Convention : Reuss Voigt Hill
#
# Bulk Modulus (GPa) = 18.87543 61.15592 40.01567
# Shear Modulus (GPa) = 9.98507 23.16856 16.57682
#
# Velocity S-wave (km/s) = 2.34291 3.56886 3.01878
# Velocity P-wave (km/s) = 4.20662 7.11354 5.84372
#
# Compressibility (1/GPa) = 0.05297893
#
# Stress axis : x y z
#
# Youngs Moduli (GPa) = 21.86379 6.75399 61.21339
#
# Poissons Ratio (x) = 0.32682 0.28136
# Poissons Ratio (y) = 1.05796 1.56663
# Poissons Ratio (z) = 0.10049 0.17285
#
# Static dielectric constant tensor:
#      x y z
#    x 1.652940 0.000000 0.000000 
#    y 0.000000 1.610150 0.000000 
#    z 0.000000 0.000000 1.617480 
# 
# From -- ./inp_files/7809.got.cif
#   From: 2010.05.17/outbox.cif.g08.bks.cpg/sg47_4_cif.got.tgz:7809.got - 2010.06.03 20:15:42.
