data_PCOD9387989
_publ_section_title
;
Structure prediction by ZEFSAII (Michael W. Deem and Ramdas Pophale) SiO2 
 PCOD9387989
Probable space group: P M M M
;
_chemical_formula_sum "Si O2"
_cell_formula_units_Z 38
_cell_length_a 7.316971
_cell_length_b 19.891425
_cell_length_c 12.200791
_cell_angle_alpha 90.000000
_cell_angle_beta 90.000000
_cell_angle_gamma 90.000000
_cell_volume 1775.763881
_symmetry_space_group_name_H-M "P M M M"
_symmetry_group_IT_number 47
_symmetry_cell_setting 'orthorhombic'
loop_
_space_group_symop_operation_xyz
x,y,z
-x,-y,z
x,-y,-z
-x,y,-z
-x,-y,-z
x,y,-z
-x,y,z
x,-y,z
loop_
_atom_site_type_symbol
_atom_site_label
_atom_site_fract_x
_atom_site_fract_y
_atom_site_fract_z
Si Si1 0.779193 0.577752 0.623106
Si Si2 0.723857 0.077693 0.500000
Si Si3 0.000000 0.683834 0.000000
Si Si4 0.287387 0.308933 0.797080
Si Si5 0.220665 0.074042 0.872980
Si Si6 0.705037 0.175136 0.689911
O O1 0.721665 0.599081 0.500000
O O2 0.723861 0.500000 0.638296
O O3 0.715597 0.625449 0.720308
O O4 0.000000 0.579106 0.624514
O O5 0.500000 0.074213 0.500000
O O6 0.785209 0.122114 0.603778
O O7 0.785170 0.000000 0.500000
O O8 0.840225 0.684396 0.097265
O O9 0.500000 0.294422 0.826521
O O10 0.216071 0.247176 0.720901
O O11 0.297759 0.133580 0.802295
O O12 0.000000 0.077541 0.868249
O O13 0.275834 0.000000 0.831595
O O14 0.272036 0.078920 0.000000
O O15 0.500000 0.188916 0.649385
#
# Coordination Sequence:
#
# PCOD9387989 Si02
#       6
#     8   4   2   8   8   8
#     4   9  19  40  71 105 141 179 221 271 329 393
#     4   9  18  36  59  83 120 165 202 252 330 399
#     4  12  26  48  67  90 135 188 214 278 348 384
#     4  11  25  42  67 101 132 172 231 276 329 403
#     4   9  19  34  53  77 106 146 197 249 305 367
#     4  10  22  36  56  86 117 154 203 260 311 383
#
# _framework density 21.399242000000001
#
# number of rings (size 3 to 8) (size 9 to 14) (size 15 to 20)
#    0.000    2.211    1.053    2.211    4.421    2.526 
#    0.000    3.684    0.000    3.158    0.000    0.000 
#    0.000    0.000    0.000    0.000    0.000    0.211 
#
# Total GULP energy -211589.108861 kJ/mol
# GULP energy per Si atom -5568.134444 kJ/mol
# Density = 2.135054 g / cm^3
# Si number density = 21.399242 Si / 1000 Ang^3
#
#
#
# Elastic Constant Matrix: (Units=GPa)
#
#
# Indices 1 2 3 4 5 6 
#
# 1 121.2555 18.4993 32.0509 0.0000 0.0000 0.0000
# 2 18.4993 117.4064 79.9239 0.0000 0.0000 0.0000
# 3 32.0509 79.9239 128.0212 0.0000 0.0000 0.0000
# 4 0.0000 0.0000 0.0000 -25.1282 0.0000 0.0000
# 5 0.0000 0.0000 0.0000 0.0000 27.5857 0.0000
# 6 0.0000 0.0000 0.0000 0.0000 0.0000 6.7544
#
#
#
# Elastic Compliance Matrix: (Units=1/GPa)
#
#
# Indices 1 2 3 4 5 6 
#
# 1 0.008834 0.000198 -0.002335 0.000000 0.000000 0.000000
# 2 0.000198 0.014817 -0.009300 0.000000 0.000000 0.000000
# 3 -0.002335 -0.009300 0.014202 0.000000 0.000000 0.000000
# 4 0.000000 0.000000 0.000000 -0.039796 0.000000 0.000000
# 5 0.000000 0.000000 0.000000 0.000000 0.036251 0.000000
# 6 0.000000 0.000000 0.000000 0.000000 0.000000 0.148051
#
#
# Mechanical properties :
#
#
# Convention : Reuss Voigt Hill
#
# Bulk Modulus (GPa) = 66.76281 69.73683 68.24982
# Shear Modulus (GPa) = 23.78391 17.58966 20.68678
#
# Velocity S-wave (km/s) = 3.33744 2.87012 3.11256
# Velocity P-wave (km/s) = 6.79100 6.60626 6.69927
#
# Compressibility (1/GPa) = 0.01497840
#
# Stress axis : x y z
#
# Youngs Moduli (GPa) = 113.19758 67.48961 70.41410
#
# Poissons Ratio (x) = -0.01334 0.16442
# Poissons Ratio (y) = -0.02237 0.65484
# Poissons Ratio (z) = 0.26432 0.62764
#
# Static dielectric constant tensor:
#      x y z
#    x 1.848440 0.000000 0.000000 
#    y 0.000000 1.782970 0.000000 
#    z 0.000000 0.000000 1.752960 
# 
# From -- ./inp_files/14900.got.cif
#   From: 2010.05.17/outbox.cif.g08.bks.cpg/sg47_8_cif.got.tgz:14900.got - 2010.06.03 20:15:42.
