data_PCOD9387815
_publ_section_title
;
Structure prediction by ZEFSAII (Michael W. Deem and Ramdas Pophale) SiO2 
 PCOD9387815
Probable space group: P M M M
;
_chemical_formula_sum "Si O2"
_cell_formula_units_Z 33
_cell_length_a 20.575376
_cell_length_b 10.291364
_cell_length_c 7.751758
_cell_angle_alpha 90.000000
_cell_angle_beta 90.000000
_cell_angle_gamma 90.000000
_cell_volume 1641.424554
_symmetry_space_group_name_H-M "P M M M"
_symmetry_group_IT_number 47
_symmetry_cell_setting 'orthorhombic'
loop_
_space_group_symop_operation_xyz
x,y,z
-x,-y,z
x,-y,-z
-x,y,-z
-x,-y,-z
x,y,-z
-x,y,z
x,-y,z
loop_
_atom_site_type_symbol
_atom_site_label
_atom_site_fract_x
_atom_site_fract_y
_atom_site_fract_z
Si Si1 0.000000 0.000000 0.000000
Si Si2 0.500000 0.352087 0.703615
Si Si3 0.000000 0.225241 0.293609
Si Si4 0.610207 0.146315 0.205234
Si Si5 0.138424 0.355408 0.291488
Si Si6 0.759592 0.854901 0.706847
O O1 0.000000 0.888469 0.154287
O O2 0.500000 0.500000 0.778122
O O3 0.500000 0.366786 0.500000
O O4 0.438077 0.262069 0.746867
O O5 0.934789 0.307957 0.263845
O O6 0.000000 0.185923 0.500000
O O7 0.684213 0.174589 0.258662
O O8 0.593061 0.000000 0.273163
O O9 0.608095 0.137376 0.000000
O O10 0.146638 0.360282 0.500000
O O11 0.149144 0.500000 0.223809
O O12 0.190424 0.251200 0.224428
O O13 0.767670 0.859959 0.500000
O O14 0.773159 0.000000 0.775353
#
# Coordination Sequence:
#
# PCOD9387815 Si02
#       6
#     1   4   4   8   8   8
#     4  12  26  40  58  98 120 160 204 258 312 362
#     4  11  24  39  58  84 112 145 188 239 288 340
#     4  10  22  41  63  89 124 161 204 254 310 366
#     4  10  21  38  58  84 115 152 189 231 287 348
#     4   9  18  35  61  88 117 158 200 243 299 359
#     4   9  18  33  55  84 117 153 198 243 285 342
#
# _framework density 20.104486000000001
#
# number of rings (size 3 to 8) (size 9 to 14) (size 15 to 20)
#    0.000    2.303    0.000    2.000    1.697    6.303 
#    2.182    3.636    0.000    0.000    0.000    0.000 
#    0.000    0.000    0.000    0.000    0.000    0.000 
#
# Total GULP energy -183847.666272 kJ/mol
# GULP energy per Si atom -5571.141402 kJ/mol
# Density = 2.005873 g / cm^3
# Si number density = 20.104486 Si / 1000 Ang^3
#
#
#
# Elastic Constant Matrix: (Units=GPa)
#
#
# Indices 1 2 3 4 5 6 
#
# 1 150.0338 142.4947 14.9237 0.0000 0.0000 0.0000
# 2 142.4947 215.6544 31.0037 0.0000 0.0000 0.0000
# 3 14.9237 31.0037 52.7538 0.0000 0.0000 0.0000
# 4 0.0000 0.0000 0.0000 9.7721 0.0000 0.0000
# 5 0.0000 0.0000 0.0000 0.0000 161.4676 0.0000
# 6 0.0000 0.0000 0.0000 0.0000 0.0000 -10.7874
#
#
#
# Elastic Compliance Matrix: (Units=1/GPa)
#
#
# Indices 1 2 3 4 5 6 
#
# 1 0.018103 -0.012261 0.002085 0.000000 0.000000 0.000000
# 2 -0.012261 0.013370 -0.004389 0.000000 0.000000 0.000000
# 3 0.002085 -0.004389 0.020946 0.000000 0.000000 0.000000
# 4 0.000000 0.000000 0.000000 0.102332 0.000000 0.000000
# 5 0.000000 0.000000 0.000000 0.000000 0.006193 0.000000
# 6 0.000000 0.000000 0.000000 0.000000 0.000000 -0.092701
#
#
# Mechanical properties :
#
#
# Convention : Reuss Voigt Hill
#
# Bulk Modulus (GPa) = 42.94129 88.36514 65.65322
# Shear Modulus (GPa) = 47.55730 47.42512 47.49121
#
# Velocity S-wave (km/s) = 4.86892 4.86215 4.86554
# Velocity P-wave (km/s) = 7.28107 8.69305 8.01820
#
# Compressibility (1/GPa) = 0.02328761
#
# Stress axis : x y z
#
# Youngs Moduli (GPa) = 55.23924 74.79542 47.74294
#
# Poissons Ratio (x) = 0.91710 -0.09954
# Poissons Ratio (y) = 0.67731 0.20954
# Poissons Ratio (z) = -0.11517 0.32826
#
# Static dielectric constant tensor:
#      x y z
#    x 1.651270 0.000000 0.000000 
#    y 0.000000 1.716500 0.000000 
#    z 0.000000 0.000000 1.715470 
# 
# From -- ./inp_files/1133.got.cif
#   From: 2010.05.17/outbox.cif.g08.bks.cpg/sg47_1_cif.got.tgz:1133.got - 2010.06.03 20:15:42.
