data_PCOD9387221
_publ_section_title
;
Structure prediction by ZEFSAII (Michael W. Deem and Ramdas Pophale) SiO2 
 PCOD9387221
Probable space group: P M M M
;
_chemical_formula_sum "Si O2"
_cell_formula_units_Z 56
_cell_length_a 14.847114
_cell_length_b 7.909365
_cell_length_c 24.430118
_cell_angle_alpha 90.000000
_cell_angle_beta 90.000000
_cell_angle_gamma 90.000000
_cell_volume 2868.859143
_symmetry_space_group_name_H-M "P M M M"
_symmetry_group_IT_number 47
_symmetry_cell_setting 'orthorhombic'
loop_
_space_group_symop_operation_xyz
x,y,z
-x,-y,z
x,-y,-z
-x,y,-z
-x,-y,-z
x,y,-z
-x,y,z
x,-y,z
loop_
_atom_site_type_symbol
_atom_site_label
_atom_site_fract_x
_atom_site_fract_y
_atom_site_fract_z
Si Si1 0.238876 0.204818 0.062594
Si Si2 0.605340 0.704091 0.438888
Si Si3 0.263246 0.698114 0.770707
Si Si4 0.601435 0.799588 0.859253
Si Si5 0.895832 0.793642 0.438845
Si Si6 0.898086 0.297010 0.154155
Si Si7 0.751329 0.197434 0.353011
O O1 0.327085 0.267205 0.095904
O O2 0.151288 0.257354 0.097042
O O3 0.241473 0.000000 0.062558
O O4 0.237800 0.263015 0.000000
O O5 0.634725 0.758632 0.500000
O O6 0.500000 0.745685 0.433250
O O7 0.613209 0.500000 0.436479
O O8 0.664286 0.781668 0.391172
O O9 0.267817 0.500000 0.783227
O O10 0.349471 0.776608 0.800923
O O11 0.171920 0.766308 0.799468
O O12 0.260544 0.721575 0.706031
O O13 0.500000 0.729134 0.861150
O O14 0.594673 0.000000 0.869154
O O15 0.867596 0.738253 0.500000
O O16 0.832423 0.731527 0.390351
O O17 0.000000 0.746769 0.431113
O O18 0.891615 0.000000 0.438871
O O19 0.903385 0.500000 0.159678
O O20 0.000000 0.230261 0.157799
O O21 0.768705 0.000000 0.343308
#
# Coordination Sequence:
#
# PCOD9387221 Si02
#       7
#     8   8   8   8   8   8   8
#     4   9  18  32  51  79 111 136 162 200 246 298
#     4   9  19  36  55  74  99 132 167 203 248 302
#     4  10  21  36  52  71  98 132 169 210 254 298
#     4   9  18  34  55  76 100 132 168 206 247 291
#     4   8  15  29  48  71 100 130 158 192 239 295
#     4   9  19  36  55  73  97 134 176 213 250 292
#     4  11  21  32  51  78 103 129 165 208 252 297
#
# _framework density 19.519956000000001
#
# number of rings (size 3 to 8) (size 9 to 14) (size 15 to 20)
#    0.000    2.714    0.000    2.143    0.000    4.286 
#    0.000    3.571    0.000    1.286    0.000    9.000 
#    0.000    0.000    0.000    0.000    0.000    0.000 
#
# Total GULP energy -312354.800312 kJ/mol
# GULP energy per Si atom -5577.764291 kJ/mol
# Density = 1.947553 g / cm^3
# Si number density = 19.519956 Si / 1000 Ang^3
#
#
#
# Elastic Constant Matrix: (Units=GPa)
#
#
# Indices 1 2 3 4 5 6 
#
# 1 117.9881 -0.4388 45.3781 0.0000 0.0000 0.0000
# 2 -0.4388 16.3208 -9.0977 0.0000 0.0000 0.0000
# 3 45.3781 -9.0977 119.4238 0.0000 0.0000 0.0000
# 4 0.0000 0.0000 0.0000 12.5964 0.0000 0.0000
# 5 0.0000 0.0000 0.0000 0.0000 17.0518 0.0000
# 6 0.0000 0.0000 0.0000 0.0000 0.0000 10.5004
#
#
#
# Elastic Compliance Matrix: (Units=1/GPa)
#
#
# Indices 1 2 3 4 5 6 
#
# 1 0.009984 -0.001928 -0.003940 0.000000 0.000000 0.000000
# 2 -0.001928 0.064361 0.005636 0.000000 0.000000 0.000000
# 3 -0.003940 0.005636 0.010300 0.000000 0.000000 0.000000
# 4 0.000000 0.000000 0.000000 0.079388 0.000000 0.000000
# 5 0.000000 0.000000 0.000000 0.000000 0.058645 0.000000
# 6 0.000000 0.000000 0.000000 0.000000 0.000000 0.095234
#
#
# Mechanical properties :
#
#
# Convention : Reuss Voigt Hill
#
# Bulk Modulus (GPa) = 11.87943 36.15734 24.01839
# Shear Modulus (GPa) = 14.43262 22.55580 18.49421
#
# Velocity S-wave (km/s) = 2.72210 3.40299 3.08141
# Velocity P-wave (km/s) = 3.99735 5.83129 4.99913
#
# Compressibility (1/GPa) = 0.08417913
#
# Stress axis : x y z
#
# Youngs Moduli (GPa) = 100.16269 15.53734 97.08603
#
# Poissons Ratio (x) = 0.02996 0.38256
# Poissons Ratio (y) = 0.19313 -0.54714
# Poissons Ratio (z) = 0.39469 -0.08756
#
# Static dielectric constant tensor:
#      x y z
#    x 1.689230 0.000000 0.000000 
#    y 0.000000 1.725630 0.000000 
#    z 0.000000 0.000000 1.657270 
# 
# From -- ./inp_files/7248.got.cif
#   From: 2010.05.17/outbox.cif.g08.bks.cpg/sg47_4_cif.got.tgz:7248.got - 2010.06.03 20:15:42.
