data_PCOD9387380
_publ_section_title
;
Structure prediction by ZEFSAII (Michael W. Deem and Ramdas Pophale) SiO2 
 PCOD9387380
Probable space group: P M M M
;
_chemical_formula_sum "Si O2"
_cell_formula_units_Z 56
_cell_length_a 21.752739
_cell_length_b 9.020359
_cell_length_c 14.199403
_cell_angle_alpha 90.000000
_cell_angle_beta 90.000000
_cell_angle_gamma 90.000000
_cell_volume 2786.171571
_symmetry_space_group_name_H-M "P M M M"
_symmetry_group_IT_number 47
_symmetry_cell_setting 'orthorhombic'
loop_
_space_group_symop_operation_xyz
x,y,z
-x,-y,z
x,-y,-z
-x,y,-z
-x,-y,-z
x,y,-z
-x,y,z
x,-y,z
loop_
_atom_site_type_symbol
_atom_site_label
_atom_site_fract_x
_atom_site_fract_y
_atom_site_fract_z
Si Si1 0.310312 0.676429 0.388066
Si Si2 0.372228 0.176302 0.110828
Si Si3 0.183657 0.827617 0.613749
Si Si4 0.432399 0.321737 0.722075
Si Si5 0.244470 0.668651 0.114088
Si Si6 0.883210 0.823322 0.889832
Si Si7 0.067893 0.323169 0.288077
O O1 0.315310 0.702111 0.500000
O O2 0.303463 0.500000 0.373285
O O3 0.248110 0.755589 0.354188
O O4 0.373908 0.725225 0.340136
O O5 0.423725 0.244979 0.177204
O O6 0.308465 0.255482 0.140120
O O7 0.367037 0.000000 0.123204
O O8 0.382574 0.205362 0.000000
O O9 0.182201 0.816757 0.500000
O O10 0.124049 0.746773 0.654598
O O11 0.182110 0.000000 0.640477
O O12 0.500000 0.286537 0.682428
O O13 0.428910 0.500000 0.732512
O O14 0.239402 0.500000 0.150120
O O15 0.185144 0.766505 0.136614
O O16 0.245312 0.660992 0.000000
O O17 0.927124 0.740887 0.817451
O O18 0.887298 0.000000 0.879367
O O19 0.894115 0.787421 0.000000
O O20 0.074478 0.500000 0.286099
O O21 0.000000 0.286695 0.326837
#
# Coordination Sequence:
#
# PCOD9387380 Si02
#       7
#     8   8   8   8   8   8   8
#     4   9  19  38  64  91 119 152 191 239 295 357
#     4  10  21  36  54  78 112 155 201 247 296 351
#     4  10  22  41  66  94 122 154 194 244 303 364
#     4  10  22  38  57  85 119 156 198 244 298 357
#     4   9  17  31  53  80 109 144 190 243 295 346
#     4  10  21  37  58  85 119 159 202 248 298 352
#     4  11  25  42  61  88 122 162 205 248 298 356
#
# _framework density 20.099264999999999
#
# number of rings (size 3 to 8) (size 9 to 14) (size 15 to 20)
#    0.000    2.143    0.000    2.143    2.000    7.429 
#    0.000    5.714    0.000    0.000    0.000    3.000 
#    0.000    0.000    0.000    0.000    0.000    0.000 
#
# Total GULP energy -312879.441474 kJ/mol
# GULP energy per Si atom -5587.132883 kJ/mol
# Density = 2.005352 g / cm^3
# Si number density = 20.099265 Si / 1000 Ang^3
#
#
#
# Elastic Constant Matrix: (Units=GPa)
#
#
# Indices 1 2 3 4 5 6 
#
# 1 175.9990 68.8756 52.4667 0.0000 0.0000 0.0000
# 2 68.8756 72.7256 32.6948 0.0000 0.0000 0.0000
# 3 52.4667 32.6948 54.2384 0.0000 0.0000 0.0000
# 4 0.0000 0.0000 0.0000 26.0424 0.0000 0.0000
# 5 0.0000 0.0000 0.0000 0.0000 20.5225 0.0000
# 6 0.0000 0.0000 0.0000 0.0000 0.0000 -7.2938
#
#
#
# Elastic Compliance Matrix: (Units=1/GPa)
#
#
# Indices 1 2 3 4 5 6 
#
# 1 0.010093 -0.007091 -0.005489 0.000000 0.000000 0.000000
# 2 -0.007091 0.023844 -0.007513 0.000000 0.000000 0.000000
# 3 -0.005489 -0.007513 0.028276 0.000000 0.000000 0.000000
# 4 0.000000 0.000000 0.000000 0.038399 0.000000 0.000000
# 5 0.000000 0.000000 0.000000 0.000000 0.048727 0.000000
# 6 0.000000 0.000000 0.000000 0.000000 0.000000 -0.137102
#
#
# Mechanical properties :
#
#
# Convention : Reuss Voigt Hill
#
# Bulk Modulus (GPa) = 45.40148 67.89301 56.64725
# Shear Modulus (GPa) = 83.65922 17.78261 50.72092
#
# Velocity S-wave (km/s) = 6.45859 2.97768 5.02892
# Velocity P-wave (km/s) = 8.84621 6.75828 7.87178
#
# Compressibility (1/GPa) = 0.02202571
#
# Stress axis : x y z
#
# Youngs Moduli (GPa) = 99.07606 41.93927 35.36590
#
# Poissons Ratio (x) = 0.29740 0.19412
# Poissons Ratio (y) = 0.70258 0.26572
# Poissons Ratio (z) = 0.54382 0.31511
#
# Static dielectric constant tensor:
#      x y z
#    x 1.706830 0.000000 0.000000 
#    y 0.000000 1.668630 0.000000 
#    z 0.000000 0.000000 1.741110 
# 
# From -- ./inp_files/7275.got.cif
#   From: 2010.05.17/outbox.cif.g08.bks.cpg/sg47_4_cif.got.tgz:7275.got - 2010.06.03 20:15:42.
