data_PCOD9387556
_publ_section_title
;
Structure prediction by ZEFSAII (Michael W. Deem and Ramdas Pophale) SiO2 
 PCOD9387556
Probable space group: P M M M
;
_chemical_formula_sum "Si O2"
_cell_formula_units_Z 56
_cell_length_a 14.373312
_cell_length_b 21.501976
_cell_length_c 9.418865
_cell_angle_alpha 90.000000
_cell_angle_beta 90.000000
_cell_angle_gamma 90.000000
_cell_volume 2910.943646
_symmetry_space_group_name_H-M "P M M M"
_symmetry_group_IT_number 47
_symmetry_cell_setting 'orthorhombic'
loop_
_space_group_symop_operation_xyz
x,y,z
-x,-y,z
x,-y,-z
-x,y,-z
-x,-y,-z
x,y,-z
-x,y,z
x,-y,z
loop_
_atom_site_type_symbol
_atom_site_label
_atom_site_fract_x
_atom_site_fract_y
_atom_site_fract_z
Si Si1 0.609918 0.805038 0.330220
Si Si2 0.886764 0.071060 0.842936
Si Si3 0.612869 0.069547 0.165725
Si Si4 0.892230 0.301107 0.168308
Si Si5 0.713397 0.675698 0.330539
Si Si6 0.611742 0.429336 0.162585
Si Si7 0.111257 0.821209 0.656127
O O1 0.616492 0.814038 0.500000
O O2 0.500000 0.793582 0.297306
O O3 0.639864 0.868485 0.251414
O O4 0.669804 0.743664 0.292650
O O5 0.852454 0.114358 0.717481
O O6 0.000000 0.071494 0.839879
O O7 0.857785 0.000000 0.829015
O O8 0.860469 0.094086 0.000000
O O9 0.500000 0.069075 0.170351
O O10 0.642152 0.000000 0.215909
O O11 0.639914 0.075051 0.000000
O O12 0.813205 0.335533 0.256986
O O13 0.878348 0.230963 0.225113
O O14 0.000000 0.318237 0.199295
O O15 0.878201 0.305522 0.000000
O O16 0.720444 0.673066 0.500000
O O17 0.647969 0.622027 0.269667
O O18 0.500000 0.429068 0.163774
O O19 0.642127 0.500000 0.196485
O O20 0.641455 0.415225 0.000000
O O21 0.148806 0.804400 0.500000
O O22 0.000000 0.827624 0.641168
#
# Coordination Sequence:
#
# PCOD9387556 Si02
#       7
#     8   8   8   8   8   8   8
#     4   9  18  31  47  73 110 147 181 218 265 325
#     4   8  13  21  34  54  81 113 150 194 248 315
#     4   8  14  25  42  66  97 135 180 226 270 319
#     4  10  21  37  56  76 100 135 181 231 281 333
#     4  11  22  35  55  84 117 150 186 232 283 333
#     4   9  19  37  61  90 125 163 198 227 258 308
#     4   9  16  26  42  64  89 117 153 203 264 325
#
# _framework density 19.237748
#
# number of rings (size 3 to 8) (size 9 to 14) (size 15 to 20)
#    0.000    2.857    0.000    3.000    0.000    5.429 
#    0.000    5.000    0.000    1.286    0.000    7.000 
#    0.000    0.000    0.000    0.000    0.000    0.000 
#
# Total GULP energy -312239.092202 kJ/mol
# GULP energy per Si atom -5575.698075 kJ/mol
# Density = 1.919396 g / cm^3
# Si number density = 19.237748 Si / 1000 Ang^3
#
#
#
# Elastic Constant Matrix: (Units=GPa)
#
#
# Indices 1 2 3 4 5 6 
#
# 1 95.0702 30.4087 37.1331 0.0000 0.0000 0.0000
# 2 30.4087 89.8261 53.9554 0.0000 0.0000 0.0000
# 3 37.1331 53.9554 77.6611 0.0000 0.0000 0.0000
# 4 0.0000 0.0000 0.0000 21.5209 0.0000 0.0000
# 5 0.0000 0.0000 0.0000 0.0000 10.6505 0.0000
# 6 0.0000 0.0000 0.0000 0.0000 0.0000 -16.4662
#
#
#
# Elastic Compliance Matrix: (Units=1/GPa)
#
#
# Indices 1 2 3 4 5 6 
#
# 1 0.013002 -0.001145 -0.005421 0.000000 0.000000 0.000000
# 2 -0.001145 0.019207 -0.012796 0.000000 0.000000 0.000000
# 3 -0.005421 -0.012796 0.024359 0.000000 0.000000 0.000000
# 4 0.000000 0.000000 0.000000 0.046466 0.000000 0.000000
# 5 0.000000 0.000000 0.000000 0.000000 0.093892 0.000000
# 6 0.000000 0.000000 0.000000 0.000000 0.000000 -0.060730
#
#
# Mechanical properties :
#
#
# Convention : Reuss Voigt Hill
#
# Bulk Modulus (GPa) = 56.04705 56.17241 56.10973
# Shear Modulus (GPa) = 27.64427 12.54506 20.09466
#
# Velocity S-wave (km/s) = 3.79487 2.55641 3.23545
# Velocity P-wave (km/s) = 6.95690 6.16247 6.57170
#
# Compressibility (1/GPa) = 0.01784215
#
# Stress axis : x y z
#
# Youngs Moduli (GPa) = 76.90921 52.06549 41.05281
#
# Poissons Ratio (x) = 0.05963 0.22256
# Poissons Ratio (y) = 0.08808 0.52532
# Poissons Ratio (z) = 0.41695 0.66624
#
# Static dielectric constant tensor:
#      x y z
#    x 1.748270 0.000000 0.000000 
#    y 0.000000 1.667710 0.000000 
#    z 0.000000 0.000000 1.788290 
# 
# From -- ./inp_files/7321.got.cif
#   From: 2010.05.17/outbox.cif.g08.bks.cpg/sg47_4_cif.got.tgz:7321.got - 2010.06.03 20:15:42.
