data_PCOD9387791
_publ_section_title
;
Structure prediction by ZEFSAII (Michael W. Deem and Ramdas Pophale) SiO2 
 PCOD9387791
Probable space group: P M M M
;
_chemical_formula_sum "Si O2"
_cell_formula_units_Z 32
_cell_length_a 7.400799
_cell_length_b 15.284967
_cell_length_c 14.308199
_cell_angle_alpha 90.000000
_cell_angle_beta 90.000000
_cell_angle_gamma 90.000000
_cell_volume 1618.557328
_symmetry_space_group_name_H-M "P M M M"
_symmetry_group_IT_number 47
_symmetry_cell_setting 'orthorhombic'
loop_
_space_group_symop_operation_xyz
x,y,z
-x,-y,z
x,-y,-z
-x,y,-z
-x,-y,-z
x,y,-z
-x,y,z
x,-y,z
loop_
_atom_site_type_symbol
_atom_site_label
_atom_site_fract_x
_atom_site_fract_y
_atom_site_fract_z
Si Si1 0.787934 0.693503 0.605222
Si Si2 0.500000 0.895904 0.889221
Si Si3 0.285113 0.500000 0.392257
Si Si4 0.219496 0.225231 0.790657
Si Si5 0.218942 0.405005 0.109324
O O1 0.709423 0.695994 0.500000
O O2 0.772681 0.594247 0.645005
O O3 0.722559 0.761020 0.682795
O O4 0.000000 0.710049 0.596656
O O5 0.674519 0.851774 0.841298
O O6 0.500000 0.000000 0.876865
O O7 0.500000 0.876681 0.000000
O O8 0.500000 0.500000 0.393171
O O9 0.216935 0.500000 0.500000
O O10 0.273949 0.316577 0.840205
O O11 0.000000 0.216232 0.796150
O O12 0.281814 0.500000 0.146371
O O13 0.000000 0.406265 0.113632
O O14 0.268827 0.400430 0.000000
#
# Coordination Sequence:
#
# PCOD9387791 Si02
#       5
#     8   4   4   8   8
#     4   9  18  32  51  79 118 162 204 245 283 328
#     4  11  26  46  66  90 115 138 180 248 313 365
#     4   9  17  27  43  73 115 164 209 244 278 318
#     4  10  21  37  61  88 116 156 197 234 286 353
#     4   8  14  26  46  74 109 147 186 226 268 323
#
# _framework density 19.770693999999999
#
# number of rings (size 3 to 8) (size 9 to 14) (size 15 to 20)
#    0.000    2.750    0.000    1.875    3.500    3.500 
#    0.000    1.875    0.000    3.750    0.000    3.500 
#    0.000    0.000    0.000    0.000    0.000    0.000 
#
# Total GULP energy -178505.206775 kJ/mol
# GULP energy per Si atom -5578.287712 kJ/mol
# Density = 1.972569 g / cm^3
# Si number density = 19.770694 Si / 1000 Ang^3
#
#
#
# Elastic Constant Matrix: (Units=GPa)
#
#
# Indices 1 2 3 4 5 6 
#
# 1 86.3503 32.6159 32.9058 0.0000 0.0000 0.0000
# 2 32.6159 107.8861 75.7675 0.0000 0.0000 0.0000
# 3 32.9058 75.7675 117.2554 0.0000 0.0000 0.0000
# 4 0.0000 0.0000 0.0000 30.2365 0.0000 0.0000
# 5 0.0000 0.0000 0.0000 0.0000 9.5390 0.0000
# 6 0.0000 0.0000 0.0000 0.0000 0.0000 29.0334
#
#
#
# Elastic Compliance Matrix: (Units=1/GPa)
#
#
# Indices 1 2 3 4 5 6 
#
# 1 0.013346 -0.002571 -0.002084 0.000000 0.000000 0.000000
# 2 -0.002571 0.017466 -0.010564 0.000000 0.000000 0.000000
# 3 -0.002084 -0.010564 0.015939 0.000000 0.000000 0.000000
# 4 0.000000 0.000000 0.000000 0.033073 0.000000 0.000000
# 5 0.000000 0.000000 0.000000 0.000000 0.104833 0.000000
# 6 0.000000 0.000000 0.000000 0.000000 0.000000 0.034443
#
#
# Mechanical properties :
#
#
# Convention : Reuss Voigt Hill
#
# Bulk Modulus (GPa) = 61.30296 66.00781 63.65538
# Shear Modulus (GPa) = 19.60971 25.10863 22.35917
#
# Velocity S-wave (km/s) = 3.15279 3.56756 3.36657
# Velocity P-wave (km/s) = 6.65791 7.10135 6.88320
#
# Compressibility (1/GPa) = 0.01631243
#
# Stress axis : x y z
#
# Youngs Moduli (GPa) = 74.92852 57.25569 62.73724
#
# Poissons Ratio (x) = 0.14722 0.13073
# Poissons Ratio (y) = 0.19266 0.66277
# Poissons Ratio (z) = 0.15614 0.60486
#
# Static dielectric constant tensor:
#      x y z
#    x 1.718080 0.000000 0.000000 
#    y 0.000000 1.659440 0.000000 
#    z 0.000000 0.000000 1.761990 
# 
# From -- ./inp_files/3373.got.cif
#   From: 2010.05.17/outbox.cif.g08.bks.cpg/sg47_2_cif.got.tgz:3373.got - 2010.06.03 20:15:42.
