data_PCOD9387833
_publ_section_title
;
Structure prediction by ZEFSAII (Michael W. Deem and Ramdas Pophale) SiO2 
 PCOD9387833
Probable space group: P M M M
;
_chemical_formula_sum "Si O2"
_cell_formula_units_Z 40
_cell_length_a 15.490839
_cell_length_b 15.659384
_cell_length_c 8.103486
_cell_angle_alpha 90.000000
_cell_angle_beta 90.000000
_cell_angle_gamma 90.000000
_cell_volume 1965.719294
_symmetry_space_group_name_H-M "P M M M"
_symmetry_group_IT_number 47
_symmetry_cell_setting 'orthorhombic'
loop_
_space_group_symop_operation_xyz
x,y,z
-x,-y,z
x,-y,-z
-x,y,-z
-x,-y,-z
x,y,-z
-x,y,z
x,-y,z
loop_
_atom_site_type_symbol
_atom_site_label
_atom_site_fract_x
_atom_site_fract_y
_atom_site_fract_z
Si Si1 0.641765 0.731827 0.189019
Si Si2 0.825492 0.678931 0.302109
Si Si3 0.903116 0.500000 0.298806
Si Si4 0.500000 0.598137 0.694602
Si Si5 0.712301 0.093820 0.198761
Si Si6 0.905031 0.143361 0.696794
O O1 0.739564 0.700030 0.204043
O O2 0.581320 0.658468 0.262222
O O3 0.653570 0.827584 0.263667
O O4 0.614056 0.741334 0.000000
O O5 0.806244 0.678465 0.500000
O O6 0.858011 0.586979 0.250282
O O7 0.893966 0.754748 0.276922
O O8 0.905017 0.500000 0.500000
O O9 0.000000 0.500000 0.237715
O O10 0.500000 0.500000 0.765284
O O11 0.500000 0.587874 0.500000
O O12 0.814647 0.106233 0.236745
O O13 0.686390 0.000000 0.258625
O O14 0.704981 0.096082 0.000000
O O15 0.904476 0.127501 0.500000
O O16 0.000000 0.115442 0.759718
#
# Coordination Sequence:
#
# PCOD9387833 Si02
#       6
#     8   8   4   4   8   8
#     4  10  21  38  59  83 110 140 175 219 269 320
#     4   9  17  30  49  72 103 142 182 223 270 322
#     4   9  16  26  45  72  99 134 183 227 260 307
#     4  11  25  43  64  87 112 140 173 211 258 321
#     4   9  19  36  56  78 107 145 185 223 268 324
#     4   9  17  29  46  71 105 144 187 235 279 314
#
# _framework density 20.348783000000001
#
# number of rings (size 3 to 8) (size 9 to 14) (size 15 to 20)
#    0.000    2.600    0.000    1.500    1.400    5.200 
#    0.000    2.500    0.000    5.400    0.000    0.000 
#    0.000    0.000    0.000    0.000    0.000    0.000 
#
# Total GULP energy -222819.994810 kJ/mol
# GULP energy per Si atom -5570.499870 kJ/mol
# Density = 2.030247 g / cm^3
# Si number density = 20.348783 Si / 1000 Ang^3
#
#
#
# Elastic Constant Matrix: (Units=GPa)
#
#
# Indices 1 2 3 4 5 6 
#
# 1 71.1220 42.5982 11.0457 0.0000 0.0000 0.0000
# 2 42.5982 179.5045 18.1787 0.0000 0.0000 0.0000
# 3 11.0457 18.1787 17.4649 0.0000 0.0000 0.0000
# 4 0.0000 0.0000 0.0000 13.9829 0.0000 0.0000
# 5 0.0000 0.0000 0.0000 0.0000 36.1916 0.0000
# 6 0.0000 0.0000 0.0000 0.0000 0.0000 5.7534
#
#
#
# Elastic Compliance Matrix: (Units=1/GPa)
#
#
# Indices 1 2 3 4 5 6 
#
# 1 0.017208 -0.003333 -0.007414 0.000000 0.000000 0.000000
# 2 -0.003333 0.006873 -0.005046 0.000000 0.000000 0.000000
# 3 -0.007414 -0.005046 0.067199 0.000000 0.000000 0.000000
# 4 0.000000 0.000000 0.000000 0.071516 0.000000 0.000000
# 5 0.000000 0.000000 0.000000 0.000000 0.027631 0.000000
# 6 0.000000 0.000000 0.000000 0.000000 0.000000 0.173810
#
#
# Mechanical properties :
#
#
# Convention : Reuss Voigt Hill
#
# Bulk Modulus (GPa) = 16.75209 45.74852 31.25030
# Shear Modulus (GPa) = 12.02731 24.27017 18.14874
#
# Velocity S-wave (km/s) = 2.43381 3.45731 2.98968
# Velocity P-wave (km/s) = 4.01849 6.20228 5.22573
#
# Compressibility (1/GPa) = 0.05969405
#
# Stress axis : x y z
#
# Youngs Moduli (GPa) = 58.11260 145.50126 14.88115
#
# Poissons Ratio (x) = 0.48492 0.11033
# Poissons Ratio (y) = 0.19368 0.07509
# Poissons Ratio (z) = 0.43086 0.73418
#
# Static dielectric constant tensor:
#      x y z
#    x 1.700280 0.000000 0.000000 
#    y 0.000000 1.699830 0.000000 
#    z 0.000000 0.000000 1.735490 
# 
# From -- ./inp_files/5712.got.cif
#   From: 2010.05.17/outbox.cif.g08.bks.cpg/sg47_3_cif.got.tgz:5712.got - 2010.06.03 20:15:42.
