data_PCOD9387730
_publ_section_title
;
Structure prediction by ZEFSAII (Michael W. Deem and Ramdas Pophale) SiO2 
 PCOD9387730
Probable space group: P M M M
;
_chemical_formula_sum "Si O2"
_cell_formula_units_Z 48
_cell_length_a 9.259728
_cell_length_b 31.921543
_cell_length_c 9.031870
_cell_angle_alpha 90.000000
_cell_angle_beta 90.000000
_cell_angle_gamma 90.000000
_cell_volume 2669.683537
_symmetry_space_group_name_H-M "P M M M"
_symmetry_group_IT_number 47
_symmetry_cell_setting 'orthorhombic'
loop_
_space_group_symop_operation_xyz
x,y,z
-x,-y,z
x,-y,-z
-x,y,-z
-x,-y,-z
x,y,-z
-x,y,z
x,-y,z
loop_
_atom_site_type_symbol
_atom_site_label
_atom_site_fract_x
_atom_site_fract_y
_atom_site_fract_z
Si Si1 0.175351 0.000000 0.672909
Si Si2 0.829838 0.663760 0.823304
Si Si3 0.828618 0.091793 0.321068
Si Si4 0.329020 0.829787 0.824051
Si Si5 0.330243 0.421669 0.821919
Si Si6 0.830505 0.500000 0.322765
Si Si7 0.171853 0.751534 0.324283
O O1 0.219490 0.045380 0.733409
O O2 0.217669 0.000000 0.500000
O O3 0.000000 0.000000 0.675762
O O4 0.737975 0.623150 0.780670
O O5 0.786999 0.706128 0.739888
O O6 0.000000 0.655826 0.793984
O O7 0.813700 0.670274 0.000000
O O8 0.812634 0.093099 0.500000
O O9 0.742087 0.129189 0.247645
O O10 0.000000 0.096439 0.290750
O O11 0.500000 0.829555 0.796105
O O12 0.256951 0.788728 0.753928
O O13 0.304594 0.829933 0.000000
O O14 0.500000 0.423204 0.786957
O O15 0.246179 0.459116 0.743501
O O16 0.314514 0.426205 0.000000
O O17 0.817759 0.500000 0.500000
O O18 0.000000 0.500000 0.283574
O O19 0.195160 0.752911 0.500000
O O20 0.000000 0.756894 0.296571
#
# Coordination Sequence:
#
# PCOD9387730 Si02
#       7
#     4   8   8   8   8   4   8
#     4   7  12  26  50  79 106 130 162 209 260 309
#     4   9  18  34  56  81 110 144 179 215 258 311
#     4   9  17  32  56  82 105 132 170 215 262 313
#     4  11  24  38  51  72 105 143 180 218 262 312
#     4  10  21  37  58  84 113 145 181 220 264 317
#     4  11  24  39  56  80 110 145 186 231 274 314
#     4  10  21  37  58  83 108 136 174 220 267 315
#
# _framework density 17.979659999999999
#
# number of rings (size 3 to 8) (size 9 to 14) (size 15 to 20)
#    0.000    2.333    0.000    3.500    0.000    8.667 
#    0.000    4.167    0.000    4.000    0.000    0.000 
#    0.000    0.000    0.000    0.000    0.000    0.000 
#
# Total GULP energy -267904.719595 kJ/mol
# GULP energy per Si atom -5581.348325 kJ/mol
# Density = 1.793874 g / cm^3
# Si number density = 17.979660 Si / 1000 Ang^3
#
#
#
# Elastic Constant Matrix: (Units=GPa)
#
#
# Indices 1 2 3 4 5 6 
#
# 1 99.2194 114.5348 67.3570 0.0000 0.0000 0.0000
# 2 114.5348 223.8622 83.1553 0.0000 0.0000 0.0000
# 3 67.3570 83.1553 50.2998 0.0000 0.0000 0.0000
# 4 0.0000 0.0000 0.0000 34.3896 0.0000 0.0000
# 5 0.0000 0.0000 0.0000 0.0000 24.4607 0.0000
# 6 0.0000 0.0000 0.0000 0.0000 0.0000 -23.8684
#
#
#
# Elastic Compliance Matrix: (Units=1/GPa)
#
#
# Indices 1 2 3 4 5 6 
#
# 1 0.112313 -0.004135 -0.143564 0.000000 0.000000 0.000000
# 2 -0.004135 0.011728 -0.013851 0.000000 0.000000 0.000000
# 3 -0.143564 -0.013851 0.235027 0.000000 0.000000 0.000000
# 4 0.000000 0.000000 0.000000 0.029079 0.000000 0.000000
# 5 0.000000 0.000000 0.000000 0.000000 0.040882 0.000000
# 6 0.000000 0.000000 0.000000 0.000000 0.000000 -0.041896
#
#
# Mechanical properties :
#
#
# Convention : Reuss Voigt Hill
#
# Bulk Modulus (GPa) = 27.80226 100.38620 64.09423
# Shear Modulus (GPa) = 6.92310 14.21867 10.57088
#
# Velocity S-wave (km/s) = 1.96440 2.81520 2.42737
# Velocity P-wave (km/s) = 4.54334 8.15608 6.60165
#
# Compressibility (1/GPa) = 0.03596830
#
# Stress axis : x y z
#
# Youngs Moduli (GPa) = 8.90369 85.26898 4.25483
#
# Poissons Ratio (x) = 0.35258 0.61084
# Poissons Ratio (y) = 0.03682 0.05893
# Poissons Ratio (z) = 1.27825 1.18105
#
# Static dielectric constant tensor:
#      x y z
#    x 1.594890 0.000000 0.000000 
#    y 0.000000 1.601880 0.000000 
#    z 0.000000 0.000000 1.600930 
# 
# From -- ./inp_files/2580.got.cif
#   From: 2010.05.17/outbox.cif.g08.bks.cpg/sg47_2_cif.got.tgz:2580.got - 2010.06.03 20:15:42.
