data_PCOD9387538
_publ_section_title
;
Structure prediction by ZEFSAII (Michael W. Deem and Ramdas Pophale) SiO2 
 PCOD9387538
Probable space group: P M M M
;
_chemical_formula_sum "Si O2"
_cell_formula_units_Z 64
_cell_length_a 8.790822
_cell_length_b 20.566785
_cell_length_c 20.546136
_cell_angle_alpha 90.000000
_cell_angle_beta 90.000000
_cell_angle_gamma 90.000000
_cell_volume 3714.719734
_symmetry_space_group_name_H-M "P M M M"
_symmetry_group_IT_number 47
_symmetry_cell_setting 'orthorhombic'
loop_
_space_group_symop_operation_xyz
x,y,z
-x,-y,z
x,-y,-z
-x,y,-z
-x,-y,-z
x,y,-z
-x,y,z
x,-y,z
loop_
_atom_site_type_symbol
_atom_site_label
_atom_site_fract_x
_atom_site_fract_y
_atom_site_fract_z
Si Si1 0.183016 0.424973 0.924265
Si Si2 0.683002 0.075207 0.075859
Si Si3 0.314731 0.925602 0.573822
Si Si4 0.684171 0.176206 0.682750
Si Si5 0.317782 0.320264 0.826813
Si Si6 0.816658 0.425375 0.574298
Si Si7 0.818814 0.178559 0.175109
Si Si8 0.317634 0.325677 0.677163
O O1 0.223849 0.500000 0.909498
O O2 0.261796 0.374448 0.876661
O O3 0.000000 0.419451 0.918340
O O4 0.221716 0.412612 0.000000
O O5 0.500000 0.081014 0.082209
O O6 0.761981 0.125659 0.123523
O O7 0.722952 0.000000 0.090543
O O8 0.720944 0.087427 0.000000
O O9 0.266813 0.909218 0.500000
O O10 0.500000 0.924733 0.573961
O O11 0.264897 0.874671 0.628096
O O12 0.268565 0.000000 0.587831
O O13 0.500000 0.173309 0.688613
O O14 0.754319 0.162303 0.753206
O O15 0.723835 0.250384 0.663949
O O16 0.500000 0.313959 0.828680
O O17 0.245789 0.250050 0.841718
O O18 0.274059 0.338304 0.752429
O O19 0.768857 0.409701 0.500000
O O20 0.769463 0.500000 0.588108
O O21 0.754374 0.375247 0.626653
O O22 0.000000 0.423929 0.575650
O O23 0.000000 0.180800 0.176759
O O24 0.500000 0.330833 0.672693
#
# Coordination Sequence:
#
# PCOD9387538 Si02
#       8
#     8   8   8   8   8   8   8   8
#     4   9  19  36  56  79 108 139 171 209 254 305
#     4   9  19  37  59  80 103 134 172 212 255 306
#     4   8  14  26  47  75 102 129 166 209 249 292
#     4   9  18  33  51  73 103 135 168 209 253 299
#     4  10  21  37  55  76 104 137 175 217 257 303
#     4   9  19  35  52  71  97 129 165 204 247 301
#     4  11  22  35  53  77 106 138 172 213 259 308
#     4   9  19  33  49  72 100 129 164 208 254 297
#
# _framework density 17.228756000000001
#
# number of rings (size 3 to 8) (size 9 to 14) (size 15 to 20)
#    0.000    2.750    0.000    3.750    0.000    6.000 
#    0.000    6.875    0.000    0.375    0.000    0.875 
#    0.000    0.000    0.000    0.000    0.000    0.000 
#
# Total GULP energy -356923.062628 kJ/mol
# GULP energy per Si atom -5576.922854 kJ/mol
# Density = 1.718954 g / cm^3
# Si number density = 17.228756 Si / 1000 Ang^3
#
#
#
# Elastic Constant Matrix: (Units=GPa)
#
#
# Indices 1 2 3 4 5 6 
#
# 1 37.6800 55.3342 54.4820 0.0000 0.0000 0.0000
# 2 55.3342 153.3143 138.7146 0.0000 0.0000 0.0000
# 3 54.4820 138.7146 146.4470 0.0000 0.0000 0.0000
# 4 0.0000 0.0000 0.0000 43.4909 0.0000 0.0000
# 5 0.0000 0.0000 0.0000 0.0000 22.3999 0.0000
# 6 0.0000 0.0000 0.0000 0.0000 0.0000 -41.5319
#
#
#
# Elastic Compliance Matrix: (Units=1/GPa)
#
#
# Indices 1 2 3 4 5 6 
#
# 1 0.059605 -0.010138 -0.012572 0.000000 0.000000 0.000000
# 2 -0.010138 0.047337 -0.041066 0.000000 0.000000 0.000000
# 3 -0.012572 -0.041066 0.050403 0.000000 0.000000 0.000000
# 4 0.000000 0.000000 0.000000 0.022993 0.000000 0.000000
# 5 0.000000 0.000000 0.000000 0.000000 0.044643 0.000000
# 6 0.000000 0.000000 0.000000 0.000000 0.000000 -0.024078
#
#
# Mechanical properties :
#
#
# Convention : Reuss Voigt Hill
#
# Bulk Modulus (GPa) = 33.56436 92.72255 63.14346
# Shear Modulus (GPa) = 14.77601 10.79915 12.78758
#
# Velocity S-wave (km/s) = 2.93172 2.50633 2.72733
# Velocity P-wave (km/s) = 5.56632 7.89373 6.82989
#
# Compressibility (1/GPa) = 0.02979351
#
# Stress axis : x y z
#
# Youngs Moduli (GPa) = 16.77709 21.12522 19.84000
#
# Poissons Ratio (x) = 0.21416 0.24943
# Poissons Ratio (y) = 0.17008 0.81475
# Poissons Ratio (z) = 0.21092 0.86753
#
# Static dielectric constant tensor:
#      x y z
#    x 1.579490 0.000000 0.000000 
#    y 0.000000 1.565820 0.000000 
#    z 0.000000 0.000000 1.566720 
# 
# From -- ./inp_files/29962.got.cif
#   From: 2010.05.17/outbox.cif.g08.bks.cpg/sg47_15_cif.got.tgz:29962.got - 2010.06.03 20:15:42.
