data_PCOD9387822
_publ_section_title
;
Structure prediction by ZEFSAII (Michael W. Deem and Ramdas Pophale) SiO2 
 PCOD9387822
Probable space group: P M M M
;
_chemical_formula_sum "Si O2"
_cell_formula_units_Z 44
_cell_length_a 15.189113
_cell_length_b 8.229777
_cell_length_c 17.958520
_cell_angle_alpha 90.000000
_cell_angle_beta 90.000000
_cell_angle_gamma 90.000000
_cell_volume 2244.869106
_symmetry_space_group_name_H-M "P M M M"
_symmetry_group_IT_number 47
_symmetry_cell_setting 'orthorhombic'
loop_
_space_group_symop_operation_xyz
x,y,z
-x,-y,z
x,-y,-z
-x,y,-z
-x,-y,-z
x,y,-z
-x,y,z
x,-y,z
loop_
_atom_site_type_symbol
_atom_site_label
_atom_site_fract_x
_atom_site_fract_y
_atom_site_fract_z
Si Si1 0.897688 0.698624 0.000000
Si Si2 0.791980 0.301147 0.853151
Si Si3 0.146410 0.313828 0.304785
Si Si4 0.403325 0.696629 0.192518
Si Si5 0.331495 0.189054 0.344399
Si Si6 0.395615 0.684502 0.500000
Si Si7 0.000000 0.808609 0.415922
O O1 0.843459 0.749910 0.926862
O O2 0.898654 0.500000 0.000000
O O3 0.000000 0.750763 0.000000
O O4 0.791599 0.500000 0.851246
O O5 0.844536 0.245115 0.779145
O O6 0.688626 0.251440 0.847077
O O7 0.118376 0.500000 0.297688
O O8 0.245380 0.298352 0.334073
O O9 0.083354 0.235812 0.365295
O O10 0.500000 0.745391 0.161980
O O11 0.401595 0.500000 0.194030
O O12 0.395126 0.761202 0.276875
O O13 0.368458 0.223432 0.425502
O O14 0.307898 0.000000 0.336433
O O15 0.359169 0.500000 0.500000
O O16 0.500000 0.673030 0.500000
O O17 0.000000 0.736031 0.500000
O O18 0.000000 0.000000 0.424559
#
# Coordination Sequence:
#
# PCOD9387822 Si02
#       7
#     4   8   8   8   8   4   4
#     4   9  16  26  47  79 117 146 174 228 289 333
#     4   8  16  30  49  79 112 143 182 227 276 332
#     4  10  21  38  59  80 108 146 189 228 272 336
#     4   9  17  32  52  73 104 145 185 226 273 330
#     4  11  22  35  53  77 107 138 177 229 281 329
#     4  11  23  37  53  74 103 140 181 225 275 331
#     4  11  25  41  57  80 111 142 184 239 290 330
#
# _framework density 19.600251
#
# number of rings (size 3 to 8) (size 9 to 14) (size 15 to 20)
#    0.000    2.273    0.000    4.364    2.545    4.000 
#    0.000    0.455    0.000    2.727    0.000   16.545 
#    0.000    5.818    0.000    0.000    0.000    0.000 
#
# Total GULP energy -245294.432753 kJ/mol
# GULP energy per Si atom -5574.873472 kJ/mol
# Density = 1.955564 g / cm^3
# Si number density = 19.600251 Si / 1000 Ang^3
#
#
#
# Elastic Constant Matrix: (Units=GPa)
#
#
# Indices 1 2 3 4 5 6 
#
# 1 124.8696 5.8766 89.8366 0.0000 0.0000 0.0000
# 2 5.8766 25.2533 8.5889 0.0000 0.0000 0.0000
# 3 89.8366 8.5889 161.6067 0.0000 0.0000 0.0000
# 4 0.0000 0.0000 0.0000 -16.2629 0.0000 0.0000
# 5 0.0000 0.0000 0.0000 0.0000 11.7715 0.0000
# 6 0.0000 0.0000 0.0000 0.0000 0.0000 22.1268
#
#
#
# Elastic Compliance Matrix: (Units=1/GPa)
#
#
# Indices 1 2 3 4 5 6 
#
# 1 0.013355 -0.000594 -0.007392 0.000000 0.000000 0.000000
# 2 -0.000594 0.040354 -0.001815 0.000000 0.000000 0.000000
# 3 -0.007392 -0.001815 0.010394 0.000000 0.000000 0.000000
# 4 0.000000 0.000000 0.000000 -0.061490 0.000000 0.000000
# 5 0.000000 0.000000 0.000000 0.000000 0.084951 0.000000
# 6 0.000000 0.000000 0.000000 0.000000 0.000000 0.045194
#
#
# Mechanical properties :
#
#
# Convention : Reuss Voigt Hill
#
# Bulk Modulus (GPa) = 22.47127 57.81486 40.14307
# Shear Modulus (GPa) = 29.90564 17.35558 23.63061
#
# Velocity S-wave (km/s) = 3.91036 2.97893 3.47598
# Velocity P-wave (km/s) = 5.64602 6.43374 6.05271
#
# Compressibility (1/GPa) = 0.04450127
#
# Stress axis : x y z
#
# Youngs Moduli (GPa) = 74.88072 24.78064 96.21283
#
# Poissons Ratio (x) = 0.01471 0.71123
# Poissons Ratio (y) = 0.04444 0.17460
# Poissons Ratio (z) = 0.55353 0.04497
#
# Static dielectric constant tensor:
#      x y z
#    x 1.716040 0.000000 0.000000 
#    y 0.000000 1.689210 0.000000 
#    z 0.000000 0.000000 1.662970 
# 
# From -- ./inp_files/27902.got.cif
#   From: 2010.05.17/outbox.cif.g08.bks.cpg/sg47_14_cif.got.tgz:27902.got - 2010.06.03 20:15:42.
