data_PCOD9387910
_publ_section_title
;
Structure prediction by ZEFSAII (Michael W. Deem and Ramdas Pophale) SiO2 
 PCOD9387910
Probable space group: P M M M
;
_chemical_formula_sum "Si O2"
_cell_formula_units_Z 25
_cell_length_a 7.391504
_cell_length_b 7.416264
_cell_length_c 22.490314
_cell_angle_alpha 90.000000
_cell_angle_beta 90.000000
_cell_angle_gamma 90.000000
_cell_volume 1232.859302
_symmetry_space_group_name_H-M "P M M M"
_symmetry_group_IT_number 47
_symmetry_cell_setting 'orthorhombic'
loop_
_space_group_symop_operation_xyz
x,y,z
-x,-y,z
x,-y,-z
-x,y,-z
-x,-y,-z
x,y,-z
-x,y,z
x,-y,z
loop_
_atom_site_type_symbol
_atom_site_label
_atom_site_fract_x
_atom_site_fract_y
_atom_site_fract_z
Si Si1 0.280541 0.500000 0.389824
Si Si2 0.000000 0.500000 0.500000
Si Si3 0.280280 0.794530 0.292526
Si Si4 0.706787 0.779899 0.162053
Si Si5 0.000000 0.779768 0.067863
O O1 0.500000 0.500000 0.400919
O O2 0.159297 0.500000 0.447954
O O3 0.235115 0.670541 0.347898
O O4 0.500000 0.796696 0.288888
O O5 0.222472 0.726063 0.227377
O O6 0.219205 0.000000 0.300719
O O7 0.500000 0.721566 0.155212
O O8 0.828215 0.723515 0.106997
O O9 0.707581 0.000000 0.163748
O O10 0.000000 0.000000 0.066526
O O11 0.000000 0.718226 0.000000
#
# Coordination Sequence:
#
# PCOD9387910 Si02
#       5
#     4   1   8   8   4
#     4  10  21  39  59  78 107 139 165 206 253 296
#     4  12  26  40  54  82 112 138 176 200 234 310
#     4   8  15  31  56  81 102 130 170 214 261 302
#     4   8  14  25  41  63  91 120 157 208 252 288
#     4   9  16  23  34  58  92 131 168 197 241 302
#
# _framework density 20.278065999999999
#
# number of rings (size 3 to 8) (size 9 to 14) (size 15 to 20)
#    0.000    3.360    0.000    2.160    0.000    1.920 
#    0.000    7.200    0.000    3.840    0.000    2.240 
#    0.000    6.400    0.000    0.640    0.000    0.000 
#
# Total GULP energy -139236.349767 kJ/mol
# GULP energy per Si atom -5569.453991 kJ/mol
# Density = 2.023191 g / cm^3
# Si number density = 20.278066 Si / 1000 Ang^3
#
#
#
# Elastic Constant Matrix: (Units=GPa)
#
#
# Indices 1 2 3 4 5 6 
#
# 1 122.7885 21.6800 102.3042 0.0000 0.0000 0.0000
# 2 21.6800 79.9622 58.8313 0.0000 0.0000 0.0000
# 3 102.3042 58.8313 265.9143 0.0000 0.0000 0.0000
# 4 0.0000 0.0000 0.0000 -2.0972 0.0000 0.0000
# 5 0.0000 0.0000 0.0000 0.0000 43.9194 0.0000
# 6 0.0000 0.0000 0.0000 0.0000 0.0000 -3.5145
#
#
#
# Elastic Compliance Matrix: (Units=1/GPa)
#
#
# Indices 1 2 3 4 5 6 
#
# 1 0.011988 0.000171 -0.004650 0.000000 0.000000 0.000000
# 2 0.000171 0.014940 -0.003371 0.000000 0.000000 0.000000
# 3 -0.004650 -0.003371 0.006295 0.000000 0.000000 0.000000
# 4 0.000000 0.000000 0.000000 -0.476820 0.000000 0.000000
# 5 0.000000 0.000000 0.000000 0.000000 0.022769 0.000000
# 6 0.000000 0.000000 0.000000 0.000000 0.000000 -0.284536
#
#
# Mechanical properties :
#
#
# Convention : Reuss Voigt Hill
#
# Bulk Modulus (GPa) = 57.06781 92.69955 74.88368
# Shear Modulus (GPa) = -7.31183 26.71817 9.70317
#
# Velocity S-wave (km/s) = -1.90095 3.63380 2.18985
# Velocity P-wave (km/s) = 4.83586 7.96363 6.58806
#
# Compressibility (1/GPa) = 0.01752301
#
# Stress axis : x y z
#
# Youngs Moduli (GPa) = 83.41576 66.93532 158.84675
#
# Poissons Ratio (x) = -0.01143 0.73863
# Poissons Ratio (y) = -0.01425 0.53548
# Poissons Ratio (z) = 0.38788 0.22564
#
# Static dielectric constant tensor:
#      x y z
#    x 1.770130 0.000000 0.000000 
#    y 0.000000 1.799610 0.000000 
#    z 0.000000 0.000000 1.666880 
# 
# From -- ./inp_files/25957.got.cif
#   From: 2010.05.17/outbox.cif.g08.bks.cpg/sg47_13_cif.got.tgz:25957.got - 2010.06.03 20:15:42.
