data_PCOD9387195
_publ_section_title
;
Structure prediction by ZEFSAII (Michael W. Deem and Ramdas Pophale) SiO2 
 PCOD9387195
Probable space group: P M M M
;
_chemical_formula_sum "Si O2"
_cell_formula_units_Z 37
_cell_length_a 9.488015
_cell_length_b 15.355390
_cell_length_c 14.512714
_cell_angle_alpha 90.000000
_cell_angle_beta 90.000000
_cell_angle_gamma 90.000000
_cell_volume 2114.388805
_symmetry_space_group_name_H-M "P M M M"
_symmetry_group_IT_number 47
_symmetry_cell_setting 'orthorhombic'
loop_
_space_group_symop_operation_xyz
x,y,z
-x,-y,z
x,-y,-z
-x,y,-z
-x,-y,-z
x,y,-z
-x,y,z
x,-y,z
loop_
_atom_site_type_symbol
_atom_site_label
_atom_site_fract_x
_atom_site_fract_y
_atom_site_fract_z
Si Si1 0.343454 0.685134 0.000000
Si Si2 0.664499 0.149912 0.500000
Si Si3 0.500000 0.500000 0.000000
Si Si4 0.833718 0.101339 0.684653
Si Si5 0.338591 0.359518 0.500000
Si Si6 0.838399 0.404298 0.676682
Si Si7 0.833480 0.747326 0.175430
O O1 0.258680 0.719218 0.088615
O O2 0.500000 0.725318 0.000000
O O3 0.378010 0.580364 0.000000
O O4 0.500000 0.122784 0.500000
O O5 0.744008 0.118881 0.592378
O O6 0.669151 0.254754 0.500000
O O7 0.793418 0.164849 0.768980
O O8 0.000000 0.119096 0.664446
O O9 0.820072 0.000000 0.709587
O O10 0.500000 0.386368 0.500000
O O11 0.262045 0.393290 0.409534
O O12 0.819005 0.500000 0.718843
O O13 0.815882 0.329355 0.750084
O O14 0.000000 0.397634 0.643777
O O15 0.000000 0.753312 0.150981
#
# Coordination Sequence:
#
# PCOD9387195 Si02
#       7
#     4   4   1   8   4   8   8
#     4  10  23  41  62  86 120 149 188 230 291 344
#     4  11  22  35  54  83 121 160 199 244 291 346
#     4   8  24  44  62  92 118 154 190 232 296 348
#     4  10  21  38  62  89 116 152 199 247 294 344
#     4  11  22  35  50  77 113 154 195 230 281 341
#     4  10  21  35  55  80 109 147 192 236 285 342
#     4  10  21  39  62  87 115 149 192 242 293 348
#
# _framework density 17.499144999999999
#
# number of rings (size 3 to 8) (size 9 to 14) (size 15 to 20)
#    0.324    1.514    2.162    1.622    1.514    6.054 
#    0.000    1.081    0.000    3.243    0.000    0.000 
#    0.000    0.000    0.000    0.000    0.000    0.000 
#
# Total GULP energy -206105.668376 kJ/mol
# GULP energy per Si atom -5570.423470 kJ/mol
# Density = 1.745932 g / cm^3
# Si number density = 17.499145 Si / 1000 Ang^3
#
#
#
# Elastic Constant Matrix: (Units=GPa)
#
#
# Indices 1 2 3 4 5 6 
#
# 1 98.3067 59.7622 89.2138 0.0000 0.0000 0.0000
# 2 59.7622 124.8488 60.9107 0.0000 0.0000 0.0000
# 3 89.2138 60.9107 114.8443 0.0000 0.0000 0.0000
# 4 0.0000 0.0000 0.0000 7.1500 0.0000 0.0000
# 5 0.0000 0.0000 0.0000 0.0000 215.7208 0.0000
# 6 0.0000 0.0000 0.0000 0.0000 0.0000 24.4339
#
#
#
# Elastic Compliance Matrix: (Units=1/GPa)
#
#
# Indices 1 2 3 4 5 6 
#
# 1 0.036590 -0.004921 -0.025814 0.000000 0.000000 0.000000
# 2 -0.004921 0.011467 -0.002260 0.000000 0.000000 0.000000
# 3 -0.025814 -0.002260 0.029959 0.000000 0.000000 0.000000
# 4 0.000000 0.000000 0.000000 0.139860 0.000000 0.000000
# 5 0.000000 0.000000 0.000000 0.000000 0.004636 0.000000
# 6 0.000000 0.000000 0.000000 0.000000 0.000000 0.040927
#
#
# Mechanical properties :
#
#
# Convention : Reuss Voigt Hill
#
# Bulk Modulus (GPa) = 83.14232 84.19700 83.66966
# Shear Modulus (GPa) = 14.99531 58.00183 36.49857
#
# Velocity S-wave (km/s) = 2.93049 5.76346 4.57194
# Velocity P-wave (km/s) = 7.68542 9.61818 8.70560
#
# Compressibility (1/GPa) = 0.01202757
#
# Stress axis : x y z
#
# Youngs Moduli (GPa) = 27.32969 87.20299 33.37888
#
# Poissons Ratio (x) = 0.42910 0.86165
# Poissons Ratio (y) = 0.13448 0.07542
# Poissons Ratio (z) = 0.70550 0.19704
#
# Static dielectric constant tensor:
#      x y z
#    x 1.598280 0.000000 0.000000 
#    y 0.000000 1.612050 0.000000 
#    z 0.000000 0.000000 1.563090 
# 
# From -- ./inp_files/20633.got.cif
#   From: 2010.05.17/outbox.cif.g08.bks.cpg/sg47_11_cif.got.tgz:20633.got - 2010.06.03 20:15:42.
