data_PCOD9387562
_publ_section_title
;
Structure prediction by ZEFSAII (Michael W. Deem and Ramdas Pophale) SiO2 
 PCOD9387562
Probable space group: P M M M
;
_chemical_formula_sum "Si O2"
_cell_formula_units_Z 48
_cell_length_a 9.391655
_cell_length_b 8.037195
_cell_length_c 33.906459
_cell_angle_alpha 90.000000
_cell_angle_beta 90.000000
_cell_angle_gamma 90.000000
_cell_volume 2559.346414
_symmetry_space_group_name_H-M "P M M M"
_symmetry_group_IT_number 47
_symmetry_cell_setting 'orthorhombic'
loop_
_space_group_symop_operation_xyz
x,y,z
-x,-y,z
x,-y,-z
-x,y,-z
-x,-y,-z
x,y,-z
-x,y,z
x,-y,z
loop_
_atom_site_type_symbol
_atom_site_label
_atom_site_fract_x
_atom_site_fract_y
_atom_site_fract_z
Si Si1 0.163561 0.200056 0.084715
Si Si2 0.673872 0.500000 0.545497
Si Si3 0.662862 0.799466 0.311819
Si Si4 0.326599 0.808701 0.599069
Si Si5 0.838771 0.302069 0.764077
Si Si6 0.338997 0.800179 0.159884
Si Si7 0.164082 0.301660 0.000000
O O1 0.255147 0.263433 0.121431
O O2 0.225617 0.243797 0.041729
O O3 0.000000 0.263162 0.087041
O O4 0.157535 0.000000 0.087240
O O5 0.500000 0.500000 0.546061
O O6 0.718747 0.500000 0.500000
O O7 0.719481 0.332515 0.568404
O O8 0.500000 0.738677 0.306223
O O9 0.711924 0.757571 0.356175
O O10 0.763305 0.738983 0.277133
O O11 0.658231 0.000000 0.310425
O O12 0.500000 0.812847 0.598609
O O13 0.279796 0.000000 0.591324
O O14 0.844610 0.500000 0.768050
O O15 0.746869 0.235674 0.800421
O O16 0.000000 0.235197 0.765258
O O17 0.500000 0.735020 0.162126
O O18 0.346909 0.000000 0.155995
O O19 0.161112 0.500000 0.000000
O O20 0.000000 0.236825 0.000000
#
# Coordination Sequence:
#
# PCOD9387562 Si02
#       7
#     8   4   8   8   8   8   4
#     4   9  17  31  52  75  99 130 167 206 250 299
#     4   9  16  24  38  64  97 137 179 213 257 314
#     4   9  18  33  53  75  98 130 173 215 257 308
#     4   8  15  27  42  64  95 130 171 217 261 310
#     4  11  24  37  50  74 105 134 167 208 255 308
#     4  10  21  37  56  77 101 132 171 211 253 304
#     4   9  17  29  48  75 102 128 162 205 250 295
#
# _framework density 18.754787
#
# number of rings (size 3 to 8) (size 9 to 14) (size 15 to 20)
#    0.000    2.667    0.000    2.750    1.167    6.667 
#    0.000    3.750    0.000    2.500    0.000    0.000 
#    0.000    1.333    0.000    3.667    0.000    3.667 
#
# Total GULP energy -267645.420227 kJ/mol
# GULP energy per Si atom -5575.946255 kJ/mol
# Density = 1.871210 g / cm^3
# Si number density = 18.754787 Si / 1000 Ang^3
#
#
#
# Elastic Constant Matrix: (Units=GPa)
#
#
# Indices 1 2 3 4 5 6 
#
# 1 80.9998 21.7163 71.3053 0.0000 0.0000 0.0000
# 2 21.7163 40.7760 49.3421 0.0000 0.0000 0.0000
# 3 71.3053 49.3421 182.7977 0.0000 0.0000 0.0000
# 4 0.0000 0.0000 0.0000 51.3853 0.0000 0.0000
# 5 0.0000 0.0000 0.0000 0.0000 41.5791 0.0000
# 6 0.0000 0.0000 0.0000 0.0000 0.0000 13.3046
#
#
#
# Elastic Compliance Matrix: (Units=1/GPa)
#
#
# Indices 1 2 3 4 5 6 
#
# 1 0.018881 -0.001698 -0.006907 0.000000 0.000000 0.000000
# 2 -0.001698 0.036573 -0.009210 0.000000 0.000000 0.000000
# 3 -0.006907 -0.009210 0.010651 0.000000 0.000000 0.000000
# 4 0.000000 0.000000 0.000000 0.019461 0.000000 0.000000
# 5 0.000000 0.000000 0.000000 0.000000 0.024051 0.000000
# 6 0.000000 0.000000 0.000000 0.000000 0.000000 0.075162
#
#
# Mechanical properties :
#
#
# Convention : Reuss Voigt Hill
#
# Bulk Modulus (GPa) = 32.81275 65.47787 49.14531
# Shear Modulus (GPa) = 21.68582 32.06779 26.87681
#
# Velocity S-wave (km/s) = 3.40410 4.13951 3.78969
# Velocity P-wave (km/s) = 5.74319 7.60499 6.73870
#
# Compressibility (1/GPa) = 0.03047596
#
# Stress axis : x y z
#
# Youngs Moduli (GPa) = 52.96314 27.34257 93.89073
#
# Poissons Ratio (x) = 0.04642 0.64848
# Poissons Ratio (y) = 0.08992 0.86471
# Poissons Ratio (z) = 0.36581 0.25182
#
# Static dielectric constant tensor:
#      x y z
#    x 1.653990 0.000000 0.000000 
#    y 0.000000 1.658690 0.000000 
#    z 0.000000 0.000000 1.643760 
# 
# From -- ./inp_files/2733.got.cif
#   From: 2010.05.17/outbox.cif.g08.bks.cpg/sg47_2_cif.got.tgz:2733.got - 2010.06.03 20:15:42.
