data_PCOD9387827
_publ_section_title
;
Structure prediction by ZEFSAII (Michael W. Deem and Ramdas Pophale) SiO2 
 PCOD9387827
Probable space group: P M M M
;
_chemical_formula_sum "Si O2"
_cell_formula_units_Z 48
_cell_length_a 10.274262
_cell_length_b 29.869194
_cell_length_c 8.465019
_cell_angle_alpha 90.000000
_cell_angle_beta 90.000000
_cell_angle_gamma 90.000000
_cell_volume 2597.778255
_symmetry_space_group_name_H-M "P M M M"
_symmetry_group_IT_number 47
_symmetry_cell_setting 'orthorhombic'
loop_
_space_group_symop_operation_xyz
x,y,z
-x,-y,z
x,-y,-z
-x,y,-z
-x,-y,-z
x,y,-z
-x,y,z
x,-y,z
loop_
_atom_site_type_symbol
_atom_site_label
_atom_site_fract_x
_atom_site_fract_y
_atom_site_fract_z
Si Si1 0.350861 0.774486 0.309214
Si Si2 0.248017 0.396835 0.813332
Si Si3 0.000000 0.446650 0.316838
Si Si4 0.849111 0.301840 0.309191
Si Si5 0.500000 0.448249 0.689049
Si Si6 0.149167 0.050842 0.192681
Si Si7 0.648877 0.125832 0.808989
O O1 0.350687 0.774120 0.500000
O O2 0.500000 0.763681 0.257962
O O3 0.243038 0.738914 0.254563
O O4 0.320186 0.824541 0.252054
O O5 0.216630 0.348194 0.742471
O O6 0.374481 0.421015 0.744983
O O7 0.126024 0.427576 0.768032
O O8 0.261051 0.392675 0.000000
O O9 0.000000 0.500000 0.314891
O O10 0.000000 0.431375 0.500000
O O11 0.852276 0.300740 0.500000
O O12 0.000000 0.299501 0.254108
O O13 0.500000 0.500000 0.747073
O O14 0.500000 0.449872 0.500000
O O15 0.250202 0.088277 0.247188
O O16 0.000000 0.060203 0.240314
O O17 0.182371 0.000000 0.241432
O O18 0.151174 0.051145 0.000000
O O19 0.500000 0.115400 0.761569
O O20 0.652824 0.126716 0.000000
#
# Coordination Sequence:
#
# PCOD9387827 Si02
#       7
#     8   8   4   8   4   8   8
#     4   9  19  35  54  76 102 139 182 222 268 325
#     4  12  25  40  61  92 124 151 186 239 294 335
#     4  11  23  41  65  89 117 159 201 231 272 337
#     4  10  21  38  59  81 109 146 187 227 271 333
#     4  11  25  45  67  89 117 157 199 233 274 339
#     4   8  14  25  42  66  97 132 170 211 258 315
#     4   9  17  29  46  71 100 129 165 215 270 317
#
# _framework density 18.477326999999999
#
# number of rings (size 3 to 8) (size 9 to 14) (size 15 to 20)
#    0.000    2.167    0.833    3.000    1.167    5.000 
#    0.000    1.667    0.000    0.500    0.000    3.500 
#    0.000    0.000    0.000    0.000    0.000    0.000 
#
# Total GULP energy -267907.134200 kJ/mol
# GULP energy per Si atom -5581.398629 kJ/mol
# Density = 1.843527 g / cm^3
# Si number density = 18.477327 Si / 1000 Ang^3
#
#
#
# Elastic Constant Matrix: (Units=GPa)
#
#
# Indices 1 2 3 4 5 6 
#
# 1 178.5871 128.8556 22.8368 0.0000 0.0000 0.0000
# 2 128.8556 168.0782 18.4155 0.0000 0.0000 0.0000
# 3 22.8368 18.4155 14.6831 0.0000 0.0000 0.0000
# 4 0.0000 0.0000 0.0000 26.1752 0.0000 0.0000
# 5 0.0000 0.0000 0.0000 0.0000 11.3199 0.0000
# 6 0.0000 0.0000 0.0000 0.0000 0.0000 35.2173
#
#
#
# Elastic Compliance Matrix: (Units=1/GPa)
#
#
# Indices 1 2 3 4 5 6 
#
# 1 0.013550 -0.009366 -0.009328 0.000000 0.000000 0.000000
# 2 -0.009366 0.013371 -0.002203 0.000000 0.000000 0.000000
# 3 -0.009328 -0.002203 0.085376 0.000000 0.000000 0.000000
# 4 0.000000 0.000000 0.000000 0.038204 0.000000 0.000000
# 5 0.000000 0.000000 0.000000 0.000000 0.088340 0.000000
# 6 0.000000 0.000000 0.000000 0.000000 0.000000 0.028395
#
#
# Mechanical properties :
#
#
# Convention : Reuss Voigt Hill
#
# Bulk Modulus (GPa) = 14.18369 77.95160 46.06764
# Shear Modulus (GPa) = 15.03614 27.29187 21.16401
#
# Velocity S-wave (km/s) = 2.85575 3.84741 3.38805
# Velocity P-wave (km/s) = 4.30890 7.87502 6.34754
#
# Compressibility (1/GPa) = 0.07050351
#
# Stress axis : x y z
#
# Youngs Moduli (GPa) = 73.79937 74.78593 11.71289
#
# Poissons Ratio (x) = 0.70046 0.10925
# Poissons Ratio (y) = 0.69122 0.02581
# Poissons Ratio (z) = 0.68838 0.16477
#
# Static dielectric constant tensor:
#      x y z
#    x 1.640610 0.000000 0.000000 
#    y 0.000000 1.612050 0.000000 
#    z 0.000000 0.000000 1.636990 
# 
# From -- ./inp_files/2814.got.cif
#   From: 2010.05.17/outbox.cif.g08.bks.cpg/sg47_2_cif.got.tgz:2814.got - 2010.06.03 20:15:42.
