data_PCOD9387928
_publ_section_title
;
Structure prediction by ZEFSAII (Michael W. Deem and Ramdas Pophale) SiO2 
 PCOD9387928
Probable space group: P M M M
;
_chemical_formula_sum "Si O2"
_cell_formula_units_Z 44
_cell_length_a 15.976170
_cell_length_b 14.913263
_cell_length_c 9.910977
_cell_angle_alpha 90.000000
_cell_angle_beta 90.000000
_cell_angle_gamma 90.000000
_cell_volume 2361.357912
_symmetry_space_group_name_H-M "P M M M"
_symmetry_group_IT_number 47
_symmetry_cell_setting 'orthorhombic'
loop_
_space_group_symop_operation_xyz
x,y,z
-x,-y,z
x,-y,-z
-x,y,-z
-x,-y,-z
x,y,-z
-x,y,z
x,-y,z
loop_
_atom_site_type_symbol
_atom_site_label
_atom_site_fract_x
_atom_site_fract_y
_atom_site_fract_z
Si Si1 0.598725 0.601464 0.500000
Si Si2 0.599582 0.607424 0.000000
Si Si3 0.132605 0.705848 0.340511
Si Si4 0.327584 0.291687 0.253819
Si Si5 0.851702 0.903213 0.655428
Si Si6 0.000000 0.392681 0.157886
Si Si7 0.312882 0.900847 0.838317
O O1 0.635285 0.500000 0.500000
O O2 0.500000 0.592180 0.500000
O O3 0.625789 0.659768 0.373919
O O4 0.647343 0.649827 0.874200
O O5 0.604950 0.500000 0.000000
O O6 0.500000 0.630591 0.000000
O O7 0.126905 0.681134 0.500000
O O8 0.229268 0.706094 0.292800
O O9 0.101784 0.809284 0.327350
O O10 0.079056 0.644363 0.241742
O O11 0.353494 0.188659 0.223359
O O12 0.818083 0.898942 0.500000
O O13 0.776827 0.904036 0.763362
O O14 0.895762 0.000000 0.666943
O O15 0.000000 0.500000 0.159628
O O16 0.000000 0.363826 0.000000
O O17 0.351894 0.000000 0.815845
O O18 0.303918 0.889025 0.000000
#
# Coordination Sequence:
#
# PCOD9387928 Si02
#       7
#     4   4   8   8   8   4   8
#     4  11  24  42  63  88 120 154 194 252 313 363
#     4  11  24  40  59  86 120 158 200 250 309 363
#     4  10  21  39  62  89 118 153 196 239 289 353
#     4  11  21  39  63  92 120 157 202 246 297 359
#     4   8  15  29  54  87 119 150 188 234 285 341
#     4  11  27  45  60  81 114 156 199 251 302 341
#     4   9  17  30  52  84 119 156 197 239 287 346
#
# _framework density 18.633347000000001
#
# number of rings (size 3 to 8) (size 9 to 14) (size 15 to 20)
#    0.000    2.091    1.818    1.364    2.545    4.364 
#    0.000    0.455    0.000    6.000    0.000    0.000 
#    0.000    0.000    0.000    0.000    0.000    0.000 
#
# Total GULP energy -245056.189808 kJ/mol
# GULP energy per Si atom -5569.458859 kJ/mol
# Density = 1.859094 g / cm^3
# Si number density = 18.633347 Si / 1000 Ang^3
#
#
#
# Elastic Constant Matrix: (Units=GPa)
#
#
# Indices 1 2 3 4 5 6 
#
# 1 60.4620 42.8958 34.6189 0.0000 0.0000 0.0000
# 2 42.8958 160.3326 83.3664 0.0000 0.0000 0.0000
# 3 34.6189 83.3664 155.6476 0.0000 0.0000 0.0000
# 4 0.0000 0.0000 0.0000 43.0553 0.0000 0.0000
# 5 0.0000 0.0000 0.0000 0.0000 20.7748 0.0000
# 6 0.0000 0.0000 0.0000 0.0000 0.0000 51.2852
#
#
#
# Elastic Compliance Matrix: (Units=1/GPa)
#
#
# Indices 1 2 3 4 5 6 
#
# 1 0.020993 -0.004420 -0.002302 0.000000 0.000000 0.000000
# 2 -0.004420 0.009575 -0.004145 0.000000 0.000000 0.000000
# 3 -0.002302 -0.004145 0.009157 0.000000 0.000000 0.000000
# 4 0.000000 0.000000 0.000000 0.023226 0.000000 0.000000
# 5 0.000000 0.000000 0.000000 0.000000 0.048135 0.000000
# 6 0.000000 0.000000 0.000000 0.000000 0.000000 0.019499
#
#
# Mechanical properties :
#
#
# Convention : Reuss Voigt Hill
#
# Bulk Modulus (GPa) = 55.58367 77.57828 66.58098
# Shear Modulus (GPa) = 31.58240 37.39380 34.48810
#
# Velocity S-wave (km/s) = 4.12143 4.48462 4.30685
# Velocity P-wave (km/s) = 7.24867 8.27890 7.78086
#
# Compressibility (1/GPa) = 0.01799090
#
# Stress axis : x y z
#
# Youngs Moduli (GPa) = 47.63513 104.43979 109.20460
#
# Poissons Ratio (x) = 0.46157 0.25140
# Poissons Ratio (y) = 0.21052 0.45270
# Poissons Ratio (z) = 0.10966 0.43295
#
# Static dielectric constant tensor:
#      x y z
#    x 1.632950 0.000000 0.000000 
#    y 0.000000 1.692030 0.000000 
#    z 0.000000 0.000000 1.616180 
# 
# From -- ./inp_files/9065.got.cif
#   From: 2010.05.17/outbox.cif.g08.bks.cpg/sg47_5_cif.got.tgz:9065.got - 2010.06.03 20:15:42.
