data_PCOD9387167
_publ_section_title
;
Structure prediction by ZEFSAII (Michael W. Deem and Ramdas Pophale) SiO2 
 PCOD9387167
Probable space group: P M M M
;
_chemical_formula_sum "Si O2"
_cell_formula_units_Z 52
_cell_length_a 14.307557
_cell_length_b 7.649887
_cell_length_c 23.797032
_cell_angle_alpha 90.000000
_cell_angle_beta 90.000000
_cell_angle_gamma 90.000000
_cell_volume 2604.613573
_symmetry_space_group_name_H-M "P M M M"
_symmetry_group_IT_number 47
_symmetry_cell_setting 'orthorhombic'
loop_
_space_group_symop_operation_xyz
x,y,z
-x,-y,z
x,-y,-z
-x,y,-z
-x,-y,-z
x,y,-z
-x,y,z
x,-y,z
loop_
_atom_site_type_symbol
_atom_site_label
_atom_site_fract_x
_atom_site_fract_y
_atom_site_fract_z
Si Si1 0.895570 0.706057 0.673775
Si Si2 0.286672 0.796946 0.132967
Si Si3 0.712162 0.203481 0.739584
Si Si4 0.107354 0.711686 0.064669
Si Si5 0.605683 0.214132 0.368965
Si Si6 0.213283 0.788413 0.436745
Si Si7 0.388506 0.500000 0.064523
O O1 0.896744 0.500000 0.685438
O O2 0.815581 0.784576 0.713234
O O3 0.861477 0.731675 0.609731
O O4 0.000000 0.776366 0.681858
O O5 0.290305 0.728862 0.197168
O O6 0.182056 0.784739 0.108065
O O7 0.348833 0.670807 0.095044
O O8 0.316031 0.000000 0.130689
O O9 0.642768 0.276805 0.691973
O O10 0.687654 0.000000 0.744343
O O11 0.112394 0.500000 0.066937
O O12 0.000000 0.761735 0.076476
O O13 0.128788 0.763055 0.000000
O O14 0.500000 0.270138 0.380432
O O15 0.684565 0.266872 0.413813
O O16 0.606112 0.000000 0.368404
O O17 0.195942 0.727132 0.500000
O O18 0.212586 0.000000 0.437038
O O19 0.500000 0.500000 0.066078
O O20 0.356109 0.500000 0.000000
#
# Coordination Sequence:
#
# PCOD9387167 Si02
#       7
#     8   8   8   8   8   8   4
#     4  10  21  35  53  77 107 147 189 232 282 335
#     4  11  23  39  63  92 122 159 202 249 301 360
#     4   9  20  36  55  82 112 142 181 231 282 340
#     4   9  18  34  57  85 118 154 191 235 288 349
#     4   8  14  28  51  76 103 134 170 220 279 333
#     4   9  18  32  50  75 107 142 183 231 281 335
#     4  11  26  46  65  89 123 161 203 252 304 358
#
# _framework density 19.964573000000001
#
# number of rings (size 3 to 8) (size 9 to 14) (size 15 to 20)
#    0.000    2.538    0.769    2.308    1.077    5.231 
#    0.000    9.231    0.000    4.154    0.000    4.308 
#    0.000    0.000    0.000    0.000    0.000    0.000 
#
# Total GULP energy -290201.055733 kJ/mol
# GULP energy per Si atom -5580.789533 kJ/mol
# Density = 1.991913 g / cm^3
# Si number density = 19.964573 Si / 1000 Ang^3
#
#
#
# Elastic Constant Matrix: (Units=GPa)
#
#
# Indices 1 2 3 4 5 6 
#
# 1 41.0477 -3.5723 -13.3632 0.0000 0.0000 0.0000
# 2 -3.5723 55.5968 11.8697 0.0000 0.0000 0.0000
# 3 -13.3632 11.8697 91.1184 0.0000 0.0000 0.0000
# 4 0.0000 0.0000 0.0000 58.2112 0.0000 0.0000
# 5 0.0000 0.0000 0.0000 0.0000 130.8678 0.0000
# 6 0.0000 0.0000 0.0000 0.0000 0.0000 16.2364
#
#
#
# Elastic Compliance Matrix: (Units=1/GPa)
#
#
# Indices 1 2 3 4 5 6 
#
# 1 0.025624 0.000868 0.003645 0.000000 0.000000 0.000000
# 2 0.000868 0.018531 -0.002287 0.000000 0.000000 0.000000
# 3 0.003645 -0.002287 0.011807 0.000000 0.000000 0.000000
# 4 0.000000 0.000000 0.000000 0.017179 0.000000 0.000000
# 5 0.000000 0.000000 0.000000 0.000000 0.007641 0.000000
# 6 0.000000 0.000000 0.000000 0.000000 0.000000 0.061590
#
#
# Mechanical properties :
#
#
# Convention : Reuss Voigt Hill
#
# Bulk Modulus (GPa) = 16.55222 19.73683 18.14453
# Shear Modulus (GPa) = 31.63414 53.91831 42.77623
#
# Velocity S-wave (km/s) = 3.98491 5.20246 4.63385
# Velocity P-wave (km/s) = 5.42969 6.78195 6.14314
#
# Compressibility (1/GPa) = 0.06041486
#
# Stress axis : x y z
#
# Youngs Moduli (GPa) = 39.02583 53.96471 84.69454
#
# Poissons Ratio (x) = -0.04686 -0.30870
# Poissons Ratio (y) = -0.03389 0.19366
# Poissons Ratio (z) = -0.14224 0.12340
#
# Static dielectric constant tensor:
#      x y z
#    x 1.687150 0.000000 0.000000 
#    y 0.000000 1.746510 0.000000 
#    z 0.000000 0.000000 1.694070 
# 
# From -- ./inp_files/32668.got.cif
#   From: 2010.05.17/outbox.cif.g08.bks.cpg/sg47_17_cif.got.tgz:32668.got - 2010.06.03 20:15:42.
