data_PCOD9387942
_publ_section_title
;
Structure prediction by ZEFSAII (Michael W. Deem and Ramdas Pophale) SiO2 
 PCOD9387942
Probable space group: P M M M
;
_chemical_formula_sum "Si O2"
_cell_formula_units_Z 40
_cell_length_a 9.345403
_cell_length_b 29.042794
_cell_length_c 7.892117
_cell_angle_alpha 90.000000
_cell_angle_beta 90.000000
_cell_angle_gamma 90.000000
_cell_volume 2142.051675
_symmetry_space_group_name_H-M "P M M M"
_symmetry_group_IT_number 47
_symmetry_cell_setting 'orthorhombic'
loop_
_space_group_symop_operation_xyz
x,y,z
-x,-y,z
x,-y,-z
-x,y,-z
-x,-y,-z
x,y,-z
-x,y,z
x,-y,z
loop_
_atom_site_type_symbol
_atom_site_label
_atom_site_fract_x
_atom_site_fract_y
_atom_site_fract_z
Si Si1 0.328411 0.105258 0.500000
Si Si2 0.336361 0.641737 0.700115
Si Si3 0.832418 0.055357 0.196404
Si Si4 0.830604 0.730682 0.811475
Si Si5 0.834123 0.448439 0.795133
Si Si6 0.172144 0.202733 0.500000
O O1 0.500000 0.105833 0.500000
O O2 0.266943 0.079508 0.666256
O O3 0.261007 0.156124 0.500000
O O4 0.334344 0.651693 0.500000
O O5 0.500000 0.639978 0.758902
O O6 0.252074 0.682947 0.788872
O O7 0.261357 0.592852 0.729131
O O8 0.000000 0.067040 0.228194
O O9 0.819917 0.000000 0.211501
O O10 0.800333 0.067467 0.000000
O O11 0.793243 0.766670 0.665074
O O12 0.000000 0.721026 0.794813
O O13 0.804431 0.749402 0.000000
O O14 0.789538 0.500000 0.741441
O O15 0.000000 0.441921 0.744314
O O16 0.830101 0.447372 0.000000
O O17 0.000000 0.193609 0.500000
#
# Coordination Sequence:
#
# PCOD9387942 Si02
#       6
#     4   8   8   8   8   4
#     4  12  25  37  56  89 130 167 199 244 307 370
#     4  11  23  36  53  80 114 147 180 222 277 343
#     4   9  19  38  64  91 120 161 214 262 299 345
#     4  10  21  39  64  88 108 139 188 241 290 340
#     4   9  19  36  56  78 105 139 182 229 275 328
#     4  10  22  41  61  84 115 152 198 248 291 341
#
# _framework density 18.673687000000001
#
# number of rings (size 3 to 8) (size 9 to 14) (size 15 to 20)
#    0.000    2.000    1.000    3.600    0.000    8.800 
#    0.000    6.000    0.000    0.000    0.000    0.000 
#    0.000    0.000    0.000    0.000    0.000    0.000 
#
# Total GULP energy -223416.092301 kJ/mol
# GULP energy per Si atom -5585.402308 kJ/mol
# Density = 1.863118 g / cm^3
# Si number density = 18.673687 Si / 1000 Ang^3
#
#
#
# Elastic Constant Matrix: (Units=GPa)
#
#
# Indices 1 2 3 4 5 6 
#
# 1 89.8075 74.5577 72.0334 0.0000 0.0000 0.0000
# 2 74.5577 105.7474 69.3245 0.0000 0.0000 0.0000
# 3 72.0334 69.3245 120.2923 0.0000 0.0000 0.0000
# 4 0.0000 0.0000 0.0000 -1.0523 0.0000 0.0000
# 5 0.0000 0.0000 0.0000 0.0000 16.8328 0.0000
# 6 0.0000 0.0000 0.0000 0.0000 0.0000 -43.9444
#
#
#
# Elastic Compliance Matrix: (Units=1/GPa)
#
#
# Indices 1 2 3 4 5 6 
#
# 1 0.033249 -0.016699 -0.010287 0.000000 0.000000 0.000000
# 2 -0.016699 0.023585 -0.003593 0.000000 0.000000 0.000000
# 3 -0.010287 -0.003593 0.016543 0.000000 0.000000 0.000000
# 4 0.000000 0.000000 0.000000 -0.950293 0.000000 0.000000
# 5 0.000000 0.000000 0.000000 0.000000 0.059408 0.000000
# 6 0.000000 0.000000 0.000000 0.000000 0.000000 -0.022756
#
#
# Mechanical properties :
#
#
# Convention : Reuss Voigt Hill
#
# Bulk Modulus (GPa) = 81.82301 83.07539 82.44920
# Shear Modulus (GPa) = -6.45133 1.02932 -2.71101
#
# Velocity S-wave (km/s) = -1.86072 0.74324 -1.20621
# Velocity P-wave (km/s) = 6.26866 6.73209 6.50450
#
# Compressibility (1/GPa) = 0.01222150
#
# Stress axis : x y z
#
# Youngs Moduli (GPa) = 30.07620 42.39941 60.44720
#
# Poissons Ratio (x) = 0.70802 0.62180
# Poissons Ratio (y) = 0.50223 0.21717
# Poissons Ratio (z) = 0.30938 0.15233
#
# Static dielectric constant tensor:
#      x y z
#    x 1.621910 0.000000 0.000000 
#    y 0.000000 1.609420 0.000000 
#    z 0.000000 0.000000 1.664750 
# 
# From -- ./inp_files/1737.got.cif
#   From: 2010.05.17/outbox.cif.g08.bks.cpg/sg47_1_cif.got.tgz:1737.got - 2010.06.03 20:15:42.
