data_PCOD9387644
_publ_section_title
;
Structure prediction by ZEFSAII (Michael W. Deem and Ramdas Pophale) SiO2 
 PCOD9387644
Probable space group: P M M M
;
_chemical_formula_sum "Si O2"
_cell_formula_units_Z 36
_cell_length_a 24.091010
_cell_length_b 9.561636
_cell_length_c 7.654004
_cell_angle_alpha 90.000000
_cell_angle_beta 90.000000
_cell_angle_gamma 90.000000
_cell_volume 1763.095753
_symmetry_space_group_name_H-M "P M M M"
_symmetry_group_IT_number 47
_symmetry_cell_setting 'orthorhombic'
loop_
_space_group_symop_operation_xyz
x,y,z
-x,-y,z
x,-y,-z
-x,y,-z
-x,-y,-z
x,y,-z
-x,y,z
x,-y,z
loop_
_atom_site_type_symbol
_atom_site_label
_atom_site_fract_x
_atom_site_fract_y
_atom_site_fract_z
Si Si1 0.891821 0.158677 0.790818
Si Si2 0.789116 0.660179 0.790616
Si Si3 0.665443 0.340541 0.289650
Si Si4 0.000000 0.340577 0.291827
Si Si5 0.438606 0.837933 0.713297
O O1 0.837488 0.239588 0.722248
O O2 0.945676 0.253452 0.759799
O O3 0.897841 0.000000 0.722930
O O4 0.885541 0.147962 0.000000
O O5 0.793863 0.500000 0.723070
O O6 0.726954 0.712854 0.753894
O O7 0.795194 0.652671 0.000000
O O8 0.661666 0.344167 0.500000
O O9 0.662110 0.500000 0.224393
O O10 0.613730 0.250574 0.224350
O O11 0.000000 0.500000 0.221309
O O12 0.000000 0.350055 0.500000
O O13 0.438040 0.834747 0.500000
O O14 0.500000 0.787289 0.767345
O O15 0.433327 0.000000 0.764429
#
# Coordination Sequence:
#
# PCOD9387644 Si02
#       5
#     8   8   8   4   8
#     4  10  21  37  57  80 104 132 169 209 247 292
#     4   9  18  33  51  70  96 131 165 196 237 290
#     4   9  17  28  44  68  94 119 153 199 243 281
#     4  11  24  39  56  80 108 137 168 203 246 294
#     4   8  14  25  41  62  89 120 153 190 235 288
#
# _framework density 20.41863
#
# number of rings (size 3 to 8) (size 9 to 14) (size 15 to 20)
#    0.000    2.778    0.000    2.000    0.000    5.778 
#    0.000    4.444    0.000    0.667    0.000    4.667 
#    0.000    0.000    0.000    0.000    0.000    0.000 
#
# Total GULP energy -200857.566288 kJ/mol
# GULP energy per Si atom -5579.376841 kJ/mol
# Density = 2.037216 g / cm^3
# Si number density = 20.418630 Si / 1000 Ang^3
#
#
#
# Elastic Constant Matrix: (Units=GPa)
#
#
# Indices 1 2 3 4 5 6 
#
# 1 237.9373 127.6307 -1.9788 0.0000 0.0000 0.0000
# 2 127.6307 133.2268 5.8097 0.0000 0.0000 0.0000
# 3 -1.9788 5.8097 37.9460 0.0000 0.0000 0.0000
# 4 0.0000 0.0000 0.0000 8.8243 0.0000 0.0000
# 5 0.0000 0.0000 0.0000 0.0000 23.8045 0.0000
# 6 0.0000 0.0000 0.0000 0.0000 0.0000 54.6828
#
#
#
# Elastic Compliance Matrix: (Units=1/GPa)
#
#
# Indices 1 2 3 4 5 6 
#
# 1 0.008760 -0.008468 0.001753 0.000000 0.000000 0.000000
# 2 -0.008468 0.015743 -0.002852 0.000000 0.000000 0.000000
# 3 0.001753 -0.002852 0.026881 0.000000 0.000000 0.000000
# 4 0.000000 0.000000 0.000000 0.113323 0.000000 0.000000
# 5 0.000000 0.000000 0.000000 0.000000 0.042009 0.000000
# 6 0.000000 0.000000 0.000000 0.000000 0.000000 0.018287
#
#
# Mechanical properties :
#
#
# Convention : Reuss Voigt Hill
#
# Bulk Modulus (GPa) = 31.00749 74.67037 52.83893
# Shear Modulus (GPa) = 19.61649 35.97222 27.79436
#
# Velocity S-wave (km/s) = 3.10290 4.20186 3.69348
# Velocity P-wave (km/s) = 5.29681 7.75822 6.64252
#
# Compressibility (1/GPa) = 0.03225027
#
# Stress axis : x y z
#
# Youngs Moduli (GPa) = 114.15747 63.52030 37.20061
#
# Poissons Ratio (x) = 0.53791 -0.06523
# Poissons Ratio (y) = 0.96672 0.10609
# Poissons Ratio (z) = -0.20016 0.18115
#
# Static dielectric constant tensor:
#      x y z
#    x 1.708120 0.000000 0.000000 
#    y 0.000000 1.720780 0.000000 
#    z 0.000000 0.000000 1.766420 
# 
# From -- ./inp_files/1434.got.cif
#   From: 2010.05.17/outbox.cif.g08.bks.cpg/sg47_1_cif.got.tgz:1434.got - 2010.06.03 20:15:42.
