data_PCOD9387311
_publ_section_title
;
Structure prediction by ZEFSAII (Michael W. Deem and Ramdas Pophale) SiO2 
 PCOD9387311
Probable space group: P M M M
;
_chemical_formula_sum "Si O2"
_cell_formula_units_Z 48
_cell_length_a 8.013970
_cell_length_b 32.135314
_cell_length_c 9.535687
_cell_angle_alpha 90.000000
_cell_angle_beta 90.000000
_cell_angle_gamma 90.000000
_cell_volume 2455.739227
_symmetry_space_group_name_H-M "P M M M"
_symmetry_group_IT_number 47
_symmetry_cell_setting 'orthorhombic'
loop_
_space_group_symop_operation_xyz
x,y,z
-x,-y,z
x,-y,-z
-x,y,-z
-x,-y,-z
x,y,-z
-x,y,z
x,-y,z
loop_
_atom_site_type_symbol
_atom_site_label
_atom_site_fract_x
_atom_site_fract_y
_atom_site_fract_z
Si Si1 0.700352 0.920945 0.339412
Si Si2 0.799758 0.340068 0.160859
Si Si3 0.204354 0.419070 0.661746
Si Si4 0.203928 0.500000 0.837957
Si Si5 0.698902 0.248823 0.840615
Si Si6 0.704720 0.000000 0.161178
Si Si7 0.801128 0.169924 0.659471
O O1 0.764065 0.924328 0.500000
O O2 0.500000 0.924195 0.345526
O O3 0.760502 0.958710 0.243453
O O4 0.742436 0.874912 0.285011
O O5 0.739345 0.376926 0.260977
O O6 0.758771 0.293745 0.212976
O O7 0.000000 0.343711 0.154444
O O8 0.736226 0.344086 0.000000
O O9 0.258284 0.421555 0.500000
O O10 0.255989 0.458918 0.753224
O O11 0.000000 0.418974 0.660519
O O12 0.000000 0.500000 0.840138
O O13 0.258829 0.500000 0.000000
O O14 0.500000 0.250160 0.846015
O O15 0.749643 0.209461 0.749465
O O16 0.764694 0.244440 0.000000
O O17 0.500000 0.000000 0.161780
O O18 0.758056 0.000000 0.000000
O O19 0.734849 0.173765 0.500000
O O20 0.000000 0.168883 0.653794
#
# Coordination Sequence:
#
# PCOD9387311 Si02
#       7
#     8   8   8   4   8   4   8
#     4   9  17  31  51  73  99 133 170 206 247 296
#     4   9  17  30  47  67  94 128 163 199 243 295
#     4   9  16  25  39  62  92 124 159 200 243 286
#     4   9  15  23  37  59  90 127 162 195 236 288
#     4  10  21  36  54  76 101 131 168 209 253 302
#     4   9  17  29  48  75 102 128 164 209 250 289
#     4  10  21  36  54  77 104 134 169 209 254 303
#
# _framework density 19.546050000000001
#
# number of rings (size 3 to 8) (size 9 to 14) (size 15 to 20)
#    0.000    2.667    0.000    2.000    0.000    7.333 
#    0.000    3.750    0.000    2.500    0.000    0.583 
#    0.000    4.667    0.000    0.000    0.000    0.000 
#
# Total GULP energy -267820.629545 kJ/mol
# GULP energy per Si atom -5579.596449 kJ/mol
# Density = 1.950156 g / cm^3
# Si number density = 19.546050 Si / 1000 Ang^3
#
#
#
# Elastic Constant Matrix: (Units=GPa)
#
#
# Indices 1 2 3 4 5 6 
#
# 1 13.6139 7.1421 7.6121 0.0000 0.0000 0.0000
# 2 7.1421 232.8825 124.5147 0.0000 0.0000 0.0000
# 3 7.6121 124.5147 124.7478 0.0000 0.0000 0.0000
# 4 0.0000 0.0000 0.0000 37.6917 0.0000 0.0000
# 5 0.0000 0.0000 0.0000 0.0000 9.8467 0.0000
# 6 0.0000 0.0000 0.0000 0.0000 0.0000 23.5477
#
#
#
# Elastic Compliance Matrix: (Units=1/GPa)
#
#
# Indices 1 2 3 4 5 6 
#
# 1 0.076060 0.000319 -0.004960 0.000000 0.000000 0.000000
# 2 0.000319 0.009209 -0.009212 0.000000 0.000000 0.000000
# 3 -0.004960 -0.009212 0.017513 0.000000 0.000000 0.000000
# 4 0.000000 0.000000 0.000000 0.026531 0.000000 0.000000
# 5 0.000000 0.000000 0.000000 0.000000 0.101557 0.000000
# 6 0.000000 0.000000 0.000000 0.000000 0.000000 0.042467
#
#
# Mechanical properties :
#
#
# Convention : Reuss Voigt Hill
#
# Bulk Modulus (GPa) = 13.31940 72.19801 42.75871
# Shear Modulus (GPa) = 15.33419 29.68224 22.50821
#
# Velocity S-wave (km/s) = 2.80396 3.90112 3.39713
# Velocity P-wave (km/s) = 4.16078 7.57029 6.10825
#
# Compressibility (1/GPa) = 0.07507845
#
# Stress axis : x y z
#
# Youngs Moduli (GPa) = 13.14746 108.58469 57.09953
#
# Poissons Ratio (x) = -0.03466 0.28320
# Poissons Ratio (y) = -0.00420 0.52598
# Poissons Ratio (z) = 0.06521 1.00025
#
# Static dielectric constant tensor:
#      x y z
#    x 1.700170 0.000000 0.000000 
#    y 0.000000 1.663060 0.000000 
#    z 0.000000 0.000000 1.674240 
# 
# From -- ./inp_files/2575.got.cif
#   From: 2010.05.17/outbox.cif.g08.bks.cpg/sg47_2_cif.got.tgz:2575.got - 2010.06.03 20:15:42.
