data_PCOD9387126
_publ_section_title
;
Structure prediction by ZEFSAII (Michael W. Deem and Ramdas Pophale) SiO2 
 PCOD9387126
Probable space group: P M M M
;
_chemical_formula_sum "Si O2"
_cell_formula_units_Z 48
_cell_length_a 17.736476
_cell_length_b 18.743564
_cell_length_c 8.047624
_cell_angle_alpha 90.000000
_cell_angle_beta 90.000000
_cell_angle_gamma 90.000000
_cell_volume 2675.390534
_symmetry_space_group_name_H-M "P M M M"
_symmetry_group_IT_number 47
_symmetry_cell_setting 'orthorhombic'
loop_
_space_group_symop_operation_xyz
x,y,z
-x,-y,z
x,-y,-z
-x,y,-z
-x,-y,-z
x,y,-z
-x,y,z
x,-y,z
loop_
_atom_site_type_symbol
_atom_site_label
_atom_site_fract_x
_atom_site_fract_y
_atom_site_fract_z
Si Si1 0.082980 0.271166 0.195798
Si Si2 0.311173 0.360215 0.698552
Si Si3 0.855071 0.579132 0.698142
Si Si4 0.662909 0.919631 0.801485
Si Si5 0.412136 0.585673 0.000000
Si Si6 0.239270 0.791053 0.304915
Si Si7 0.500000 0.086888 0.809188
O O1 0.101100 0.354762 0.223678
O O2 0.152430 0.226954 0.268803
O O3 0.000000 0.254834 0.264992
O O4 0.082447 0.257672 0.000000
O O5 0.331315 0.363756 0.500000
O O6 0.234211 0.405927 0.719865
O O7 0.286881 0.279295 0.743535
O O8 0.371729 0.386283 0.832206
O O9 0.869129 0.581723 0.500000
O O10 0.874383 0.500000 0.759572
O O11 0.727429 0.862399 0.772129
O O12 0.581088 0.894044 0.732792
O O13 0.678976 0.000000 0.739263
O O14 0.652751 0.925195 0.000000
O O15 0.406694 0.500000 0.000000
O O16 0.500000 0.606141 0.000000
O O17 0.248299 0.798264 0.500000
O O18 0.500000 0.000000 0.814057
O O19 0.500000 0.113655 0.000000
#
# Coordination Sequence:
#
# PCOD9387126 Si02
#       7
#     8   8   8   8   4   8   4
#     4  10  21  35  52  76 104 134 171 217 267 319
#     4   9  20  38  55  77 109 142 184 234 279 328
#     4   9  18  32  52  77 102 134 172 210 263 325
#     4   9  17  31  54  83 112 143 179 219 264 315
#     4  11  24  38  56  82 104 140 194 235 286 342
#     4  10  21  36  55  78 105 143 183 217 266 327
#     4   7  12  26  47  75 109 139 169 204 249 304
#
# _framework density 17.941306999999998
#
# number of rings (size 3 to 8) (size 9 to 14) (size 15 to 20)
#    0.000    2.667    0.000    3.500    5.833    3.667 
#    1.500    2.917    0.000    2.000    0.000    3.500 
#    0.000    0.000    0.000    0.000    0.000    0.000 
#
# Total GULP energy -267481.731207 kJ/mol
# GULP energy per Si atom -5572.536067 kJ/mol
# Density = 1.790047 g / cm^3
# Si number density = 17.941307 Si / 1000 Ang^3
#
#
#
# Elastic Constant Matrix: (Units=GPa)
#
#
# Indices 1 2 3 4 5 6 
#
# 1 107.9092 47.9601 26.2815 0.0000 0.0000 0.0000
# 2 47.9601 85.7263 9.7953 0.0000 0.0000 0.0000
# 3 26.2815 9.7953 33.9526 0.0000 0.0000 0.0000
# 4 0.0000 0.0000 0.0000 34.7443 0.0000 0.0000
# 5 0.0000 0.0000 0.0000 0.0000 -56.5215 0.0000
# 6 0.0000 0.0000 0.0000 0.0000 0.0000 7.9107
#
#
#
# Elastic Compliance Matrix: (Units=1/GPa)
#
#
# Indices 1 2 3 4 5 6 
#
# 1 0.014728 -0.007173 -0.009331 0.000000 0.000000 0.000000
# 2 -0.007173 0.015557 0.001065 0.000000 0.000000 0.000000
# 3 -0.009331 0.001065 0.036368 0.000000 0.000000 0.000000
# 4 0.000000 0.000000 0.000000 0.028782 0.000000 0.000000
# 5 0.000000 0.000000 0.000000 0.000000 -0.017692 0.000000
# 6 0.000000 0.000000 0.000000 0.000000 0.000000 0.126411
#
#
# Mechanical properties :
#
#
# Convention : Reuss Voigt Hill
#
# Bulk Modulus (GPa) = 27.95356 43.96243 35.95800
# Shear Modulus (GPa) = 20.24649 6.79677 13.52163
#
# Velocity S-wave (km/s) = 3.36294 1.94848 2.74826
# Velocity P-wave (km/s) = 5.54017 5.44231 5.49146
#
# Compressibility (1/GPa) = 0.03577362
#
# Stress axis : x y z
#
# Youngs Moduli (GPa) = 67.89886 64.28142 27.49644
#
# Poissons Ratio (x) = 0.46112 0.25656
# Poissons Ratio (y) = 0.48707 -0.02927
# Poissons Ratio (z) = 0.63355 -0.06843
#
# Static dielectric constant tensor:
#      x y z
#    x 1.651570 0.000000 0.000000 
#    y 0.000000 1.635010 0.000000 
#    z 0.000000 0.000000 1.638970 
# 
# From -- ./inp_files/6459.got.cif
#   From: 2010.05.17/outbox.cif.g08.bks.cpg/sg47_4_cif.got.tgz:6459.got - 2010.06.03 20:15:42.
