data_PCOD9387913
_publ_section_title
;
Structure prediction by ZEFSAII (Michael W. Deem and Ramdas Pophale) SiO2 
 PCOD9387913
Probable space group: P M M M
;
_chemical_formula_sum "Si O2"
_cell_formula_units_Z 37
_cell_length_a 7.399104
_cell_length_b 12.919978
_cell_length_c 19.834063
_cell_angle_alpha 90.000000
_cell_angle_beta 90.000000
_cell_angle_gamma 90.000000
_cell_volume 1896.062261
_symmetry_space_group_name_H-M "P M M M"
_symmetry_group_IT_number 47
_symmetry_cell_setting 'orthorhombic'
loop_
_space_group_symop_operation_xyz
x,y,z
-x,-y,z
x,-y,-z
-x,y,-z
-x,-y,-z
x,y,-z
-x,y,z
x,-y,z
loop_
_atom_site_type_symbol
_atom_site_label
_atom_site_fract_x
_atom_site_fract_y
_atom_site_fract_z
Si Si1 0.219585 0.886749 0.387032
Si Si2 0.500000 0.000000 0.000000
Si Si3 0.778521 0.000000 0.125546
Si Si4 0.789491 0.162220 0.236831
Si Si5 0.718158 0.612836 0.721559
Si Si6 0.709113 0.660354 0.571971
O O1 0.284130 0.874223 0.309360
O O2 0.284918 0.785053 0.424651
O O3 0.000000 0.882338 0.388464
O O4 0.273002 0.000000 0.412334
O O5 0.659695 0.000000 0.058998
O O6 0.726664 0.900790 0.172172
O O7 0.000000 0.000000 0.114080
O O8 0.771582 0.286172 0.236497
O O9 0.000000 0.136040 0.240827
O O10 0.500000 0.614993 0.718955
O O11 0.774445 0.500000 0.747188
O O12 0.785567 0.625273 0.644110
O O13 0.788712 0.627407 0.500000
O O14 0.500000 0.627143 0.571965
#
# Coordination Sequence:
#
# PCOD9387913 Si02
#       6
#     8   1   4   8   8   8
#     4   9  16  28  45  65  88 122 170 217 266 319
#     4  12  26  36  60  98 126 164 184 200 248 324
#     4  10  21  39  59  88 126 156 183 218 257 311
#     4   9  17  32  54  76 104 140 175 217 269 315
#     4   9  18  31  48  73 101 130 177 236 279 322
#     4   9  18  30  41  58  89 130 172 218 277 335
#
# _framework density 19.514127999999999
#
# number of rings (size 3 to 8) (size 9 to 14) (size 15 to 20)
#    0.000    2.811    1.081    0.162    1.514    2.162 
#    0.000    4.324    0.000    0.000    0.000    7.568 
#    0.000    3.459    0.000    0.000    0.000    0.000 
#
# Total GULP energy -206034.477345 kJ/mol
# GULP energy per Si atom -5568.499388 kJ/mol
# Density = 1.946971 g / cm^3
# Si number density = 19.514128 Si / 1000 Ang^3
#
#
#
# Elastic Constant Matrix: (Units=GPa)
#
#
# Indices 1 2 3 4 5 6 
#
# 1 81.1465 1.3680 23.4284 0.0000 0.0000 0.0000
# 2 1.3680 140.8261 45.0278 0.0000 0.0000 0.0000
# 3 23.4284 45.0278 129.8595 0.0000 0.0000 0.0000
# 4 0.0000 0.0000 0.0000 0.3099 0.0000 0.0000
# 5 0.0000 0.0000 0.0000 0.0000 34.6623 0.0000
# 6 0.0000 0.0000 0.0000 0.0000 0.0000 12.3713
#
#
#
# Elastic Compliance Matrix: (Units=1/GPa)
#
#
# Indices 1 2 3 4 5 6 
#
# 1 0.013062 0.000705 -0.002601 0.000000 0.000000 0.000000
# 2 0.000705 0.008024 -0.002910 0.000000 0.000000 0.000000
# 3 -0.002601 -0.002910 0.009179 0.000000 0.000000 0.000000
# 4 0.000000 0.000000 0.000000 3.226472 0.000000 0.000000
# 5 0.000000 0.000000 0.000000 0.000000 0.028850 0.000000
# 6 0.000000 0.000000 0.000000 0.000000 0.000000 0.080832
#
#
# Mechanical properties :
#
#
# Convention : Reuss Voigt Hill
#
# Bulk Modulus (GPa) = 48.41672 54.60893 51.51282
# Shear Modulus (GPa) = 1.47801 28.26922 14.87362
#
# Velocity S-wave (km/s) = 0.87124 3.81025 2.76379
# Velocity P-wave (km/s) = 5.08695 6.88494 6.05307
#
# Compressibility (1/GPa) = 0.02065402
#
# Stress axis : x y z
#
# Youngs Moduli (GPa) = 76.55518 124.61967 108.94720
#
# Poissons Ratio (x) = -0.08783 0.28337
# Poissons Ratio (y) = -0.05395 0.31699
# Poissons Ratio (z) = 0.19912 0.36259
#
# Static dielectric constant tensor:
#      x y z
#    x 1.759330 0.000000 0.000000 
#    y 0.000000 1.718730 0.000000 
#    z 0.000000 0.000000 1.653770 
# 
# From -- ./inp_files/18232.got.cif
#   From: 2010.05.17/outbox.cif.g08.bks.cpg/sg47_10_cif.got.tgz:18232.got - 2010.06.03 20:15:42.
