data_PCOD9387994
_publ_section_title
;
Structure prediction by ZEFSAII (Michael W. Deem and Ramdas Pophale) SiO2 
 PCOD9387994
Probable space group: P M M M
;
_chemical_formula_sum "Si O2"
_cell_formula_units_Z 40
_cell_length_a 23.255799
_cell_length_b 10.969572
_cell_length_c 7.780206
_cell_angle_alpha 90.000000
_cell_angle_beta 90.000000
_cell_angle_gamma 90.000000
_cell_volume 1984.778489
_symmetry_space_group_name_H-M "P M M M"
_symmetry_group_IT_number 47
_symmetry_cell_setting 'orthorhombic'
loop_
_space_group_symop_operation_xyz
x,y,z
-x,-y,z
x,-y,-z
-x,y,-z
-x,-y,-z
x,y,-z
-x,y,z
x,-y,z
loop_
_atom_site_type_symbol
_atom_site_label
_atom_site_fract_x
_atom_site_fract_y
_atom_site_fract_z
Si Si1 0.317557 0.631329 0.295395
Si Si2 0.000000 0.860836 0.704122
Si Si3 0.434408 0.734623 0.791114
Si Si4 0.122801 0.860238 0.795926
Si Si5 0.569727 0.000000 0.804490
Si Si6 0.751022 0.860725 0.297763
O O1 0.306434 0.631287 0.500000
O O2 0.297645 0.500000 0.226291
O O3 0.385667 0.643467 0.266845
O O4 0.288381 0.753701 0.221804
O O5 0.060814 0.802404 0.756363
O O6 0.000000 0.869170 0.500000
O O7 0.000000 0.000000 0.779599
O O8 0.500000 0.708767 0.737043
O O9 0.416209 0.869864 0.724718
O O10 0.435045 0.740024 0.000000
O O11 0.182901 0.816261 0.720173
O O12 0.118467 0.000000 0.729688
O O13 0.129608 0.862331 0.000000
O O14 0.500000 0.000000 0.815080
O O15 0.592417 0.000000 0.000000
O O16 0.737854 0.870891 0.500000
O O17 0.745891 0.000000 0.226172
#
# Coordination Sequence:
#
# PCOD9387994 Si02
#       6
#     8   4   8   8   4   8
#     4  10  22  37  51  71 100 131 163 203 252 300
#     4   9  15  23  39  65 100 139 170 197 238 292
#     4   9  18  33  53  75  98 125 159 200 247 300
#     4   9  16  26  42  68 100 130 163 205 249 288
#     4   7  12  26  47  71  97 121 147 186 237 288
#     4   9  18  33  51  69  93 128 168 205 242 291
#
# _framework density 20.153382000000001
#
# number of rings (size 3 to 8) (size 9 to 14) (size 15 to 20)
#    0.000    3.000    0.000    2.100    1.400    5.600 
#    0.000    2.000    0.000    1.800    0.000    0.700 
#    0.000    5.600    0.000    0.000    0.000    0.000 
#
# Total GULP energy -222720.316008 kJ/mol
# GULP energy per Si atom -5568.007900 kJ/mol
# Density = 2.010751 g / cm^3
# Si number density = 20.153382 Si / 1000 Ang^3
#
#
#
# Elastic Constant Matrix: (Units=GPa)
#
#
# Indices 1 2 3 4 5 6 
#
# 1 105.6605 59.4922 -7.8832 0.0000 0.0000 0.0000
# 2 59.4922 103.0141 9.3923 0.0000 0.0000 0.0000
# 3 -7.8832 9.3923 33.4634 0.0000 0.0000 0.0000
# 4 0.0000 0.0000 0.0000 4.7379 0.0000 0.0000
# 5 0.0000 0.0000 0.0000 0.0000 25.0177 0.0000
# 6 0.0000 0.0000 0.0000 0.0000 0.0000 1.0807
#
#
#
# Elastic Compliance Matrix: (Units=1/GPa)
#
#
# Indices 1 2 3 4 5 6 
#
# 1 0.015181 -0.009332 0.006196 0.000000 0.000000 0.000000
# 2 -0.009332 0.015699 -0.006605 0.000000 0.000000 0.000000
# 3 0.006196 -0.006605 0.033197 0.000000 0.000000 0.000000
# 4 0.000000 0.000000 0.000000 0.211063 0.000000 0.000000
# 5 0.000000 0.000000 0.000000 0.000000 0.039972 0.000000
# 6 0.000000 0.000000 0.000000 0.000000 0.000000 0.925297
#
#
# Mechanical properties :
#
#
# Convention : Reuss Voigt Hill
#
# Bulk Modulus (GPa) = 22.42446 40.46007 31.44227
# Shear Modulus (GPa) = 3.92232 18.24304 11.08268
#
# Velocity S-wave (km/s) = 1.39659 3.01193 2.34757
# Velocity P-wave (km/s) = 3.70832 5.67585 4.79411
#
# Compressibility (1/GPa) = 0.04459416
#
# Stress axis : x y z
#
# Youngs Moduli (GPa) = 65.87194 63.69821 30.12342
#
# Poissons Ratio (x) = 0.59444 -0.18663
# Poissons Ratio (y) = 0.61472 0.19896
# Poissons Ratio (z) = -0.40811 0.42071
#
# Static dielectric constant tensor:
#      x y z
#    x 1.760640 0.000000 0.000000 
#    y 0.000000 1.752200 0.000000 
#    z 0.000000 0.000000 1.725830 
# 
# From -- ./inp_files/10649.got.cif
#   From: 2010.05.17/outbox.cif.g08.bks.cpg/sg47_6_cif.got.tgz:10649.got - 2010.06.03 20:15:42.
