data_PCOD9387242
_publ_section_title
;
Structure prediction by ZEFSAII (Michael W. Deem and Ramdas Pophale) SiO2 
 PCOD9387242
Probable space group: P M M M
;
_chemical_formula_sum "Si O2"
_cell_formula_units_Z 56
_cell_length_a 20.785977
_cell_length_b 16.151020
_cell_length_c 8.070332
_cell_angle_alpha 90.000000
_cell_angle_beta 90.000000
_cell_angle_gamma 90.000000
_cell_volume 2709.329330
_symmetry_space_group_name_H-M "P M M M"
_symmetry_group_IT_number 47
_symmetry_cell_setting 'orthorhombic'
loop_
_space_group_symop_operation_xyz
x,y,z
-x,-y,z
x,-y,-z
-x,y,-z
-x,-y,-z
x,y,-z
-x,y,z
x,-y,z
loop_
_atom_site_type_symbol
_atom_site_label
_atom_site_fract_x
_atom_site_fract_y
_atom_site_fract_z
Si Si1 0.686975 0.092684 0.191512
Si Si2 0.827858 0.092507 0.309095
Si Si3 0.819067 0.723725 0.305645
Si Si4 0.716139 0.590317 0.804501
Si Si5 0.074145 0.594417 0.799709
Si Si6 0.431009 0.800830 0.199872
Si Si7 0.570894 0.385106 0.693030
O O1 0.750520 0.092788 0.299314
O O2 0.631292 0.150668 0.254031
O O3 0.660844 0.000000 0.186284
O O4 0.704546 0.114840 0.000000
O O5 0.850510 0.091994 0.500000
O O6 0.839075 0.185041 0.233819
O O7 0.846619 0.000000 0.238156
O O8 0.811434 0.738454 0.500000
O O9 0.754548 0.672500 0.253728
O O10 0.876511 0.660081 0.271072
O O11 0.739359 0.500000 0.736313
O O12 0.639218 0.591862 0.773057
O O13 0.727115 0.588892 0.000000
O O14 0.089348 0.500000 0.748920
O O15 0.000000 0.611392 0.753620
O O16 0.078232 0.597053 0.000000
O O17 0.500000 0.842542 0.231173
O O18 0.430966 0.713176 0.286843
O O19 0.426346 0.788411 0.000000
O O20 0.573735 0.407670 0.500000
O O21 0.500000 0.412375 0.758918
#
# Coordination Sequence:
#
# PCOD9387242 Si02
#       7
#     8   8   8   8   8   8   8
#     4   9  17  28  43  65  91 120 160 211 264 316
#     4   9  19  35  52  72 102 139 176 215 263 318
#     4  11  22  35  57  87 115 145 183 229 275 316
#     4  11  24  39  55  77 107 143 180 220 271 332
#     4   9  19  37  60  86 119 158 192 220 260 319
#     4   9  17  29  45  64  88 121 160 203 256 322
#     4  10  21  36  53  72  96 129 171 222 275 322
#
# _framework density 20.669321
#
# number of rings (size 3 to 8) (size 9 to 14) (size 15 to 20)
#    0.000    2.286    0.000    3.000    0.000    8.857 
#    0.000    3.571    0.000    0.429    0.000    7.000 
#    0.000    0.000    0.000    0.000    0.000    0.000 
#
# Total GULP energy -311826.195328 kJ/mol
# GULP energy per Si atom -5568.324917 kJ/mol
# Density = 2.062228 g / cm^3
# Si number density = 20.669321 Si / 1000 Ang^3
#
#
#
# Elastic Constant Matrix: (Units=GPa)
#
#
# Indices 1 2 3 4 5 6 
#
# 1 66.8656 52.3874 0.8721 0.0000 0.0000 0.0000
# 2 52.3874 133.5735 2.8833 0.0000 0.0000 0.0000
# 3 0.8721 2.8833 13.9890 0.0000 0.0000 0.0000
# 4 0.0000 0.0000 0.0000 16.2536 0.0000 0.0000
# 5 0.0000 0.0000 0.0000 0.0000 25.4234 0.0000
# 6 0.0000 0.0000 0.0000 0.0000 0.0000 31.7164
#
#
#
# Elastic Compliance Matrix: (Units=1/GPa)
#
#
# Indices 1 2 3 4 5 6 
#
# 1 0.021591 -0.008477 0.000401 0.000000 0.000000 0.000000
# 2 -0.008477 0.010848 -0.001707 0.000000 0.000000 0.000000
# 3 0.000401 -0.001707 0.071811 0.000000 0.000000 0.000000
# 4 0.000000 0.000000 0.000000 0.061525 0.000000 0.000000
# 5 0.000000 0.000000 0.000000 0.000000 0.039334 0.000000
# 6 0.000000 0.000000 0.000000 0.000000 0.000000 0.031529
#
#
# Mechanical properties :
#
#
# Convention : Reuss Voigt Hill
#
# Bulk Modulus (GPa) = 11.80851 36.30150 24.05501
# Shear Modulus (GPa) = 17.57881 25.23105 21.40493
#
# Velocity S-wave (km/s) = 2.91946 3.49764 3.22155
# Velocity P-wave (km/s) = 4.13398 5.82344 5.04986
#
# Compressibility (1/GPa) = 0.08468467
#
# Stress axis : x y z
#
# Youngs Moduli (GPa) = 46.31455 92.18316 13.92536
#
# Poissons Ratio (x) = 0.78142 -0.00559
# Poissons Ratio (y) = 0.39260 0.02378
# Poissons Ratio (z) = -0.01858 0.15739
#
# Static dielectric constant tensor:
#      x y z
#    x 1.720940 0.000000 0.000000 
#    y 0.000000 1.821820 0.000000 
#    z 0.000000 0.000000 1.756460 
# 
# From -- ./inp_files/11244.got.cif
#   From: 2010.05.17/outbox.cif.g08.bks.cpg/sg47_6_cif.got.tgz:11244.got - 2010.06.03 20:15:42.
