data_PCOD9387353
_publ_section_title
;
Structure prediction by ZEFSAII (Michael W. Deem and Ramdas Pophale) SiO2 
 PCOD9387353
Probable space group: P M M M
;
_chemical_formula_sum "Si O2"
_cell_formula_units_Z 40
_cell_length_a 10.670179
_cell_length_b 22.943024
_cell_length_c 9.232283
_cell_angle_alpha 90.000000
_cell_angle_beta 90.000000
_cell_angle_gamma 90.000000
_cell_volume 2260.119868
_symmetry_space_group_name_H-M "P M M M"
_symmetry_group_IT_number 47
_symmetry_cell_setting 'orthorhombic'
loop_
_space_group_symop_operation_xyz
x,y,z
-x,-y,z
x,-y,-z
-x,y,-z
-x,-y,-z
x,y,-z
-x,y,z
x,-y,z
loop_
_atom_site_type_symbol
_atom_site_label
_atom_site_fract_x
_atom_site_fract_y
_atom_site_fract_z
Si Si1 0.153078 0.500000 0.832623
Si Si2 0.848152 0.616029 0.665650
Si Si3 0.000000 0.929679 0.836632
Si Si4 0.638487 0.827047 0.171637
Si Si5 0.145105 0.263409 0.825776
Si Si6 0.255829 0.068057 0.327305
O O1 0.194770 0.441578 0.750336
O O2 0.000000 0.500000 0.831511
O O3 0.191852 0.500000 0.000000
O O4 0.803291 0.617223 0.500000
O O5 0.821081 0.675647 0.750013
O O6 0.000000 0.612533 0.661169
O O7 0.875806 0.915358 0.748179
O O8 0.000000 0.000000 0.848477
O O9 0.000000 0.904873 0.000000
O O10 0.500000 0.800637 0.192677
O O11 0.752366 0.784835 0.215022
O O12 0.647743 0.886848 0.259717
O O13 0.652888 0.839441 0.000000
O O14 0.000000 0.248139 0.787899
O O15 0.149352 0.270442 0.000000
O O16 0.246992 0.073526 0.500000
O O17 0.282394 0.000000 0.294229
#
# Coordination Sequence:
#
# PCOD9387353 Si02
#       6
#     4   8   4   8   8   8
#     4   9  15  23  39  65 100 139 172 205 250 302
#     4   9  16  26  42  68 101 134 169 210 255 303
#     4   9  17  31  53  79 105 133 165 202 249 306
#     4  10  22  38  55  77 104 136 177 222 267 317
#     4   9  18  33  52  73  99 133 173 216 260 309
#     4  10  21  36  54  78 107 136 169 213 266 321
#
# _framework density 17.698176
#
# number of rings (size 3 to 8) (size 9 to 14) (size 15 to 20)
#    0.000    2.600    0.000    1.800    1.400    7.600 
#    0.000    2.000    0.000    0.000    0.000    0.700 
#    0.000    5.600    0.000    0.000    0.000    0.000 
#
# Total GULP energy -223008.247518 kJ/mol
# GULP energy per Si atom -5575.206188 kJ/mol
# Density = 1.765789 g / cm^3
# Si number density = 17.698176 Si / 1000 Ang^3
#
#
#
# Elastic Constant Matrix: (Units=GPa)
#
#
# Indices 1 2 3 4 5 6 
#
# 1 74.3651 57.3376 36.5387 0.0000 0.0000 0.0000
# 2 57.3376 121.8130 62.3898 0.0000 0.0000 0.0000
# 3 36.5387 62.3898 70.5626 0.0000 0.0000 0.0000
# 4 0.0000 0.0000 0.0000 22.9625 0.0000 0.0000
# 5 0.0000 0.0000 0.0000 0.0000 9.2599 0.0000
# 6 0.0000 0.0000 0.0000 0.0000 0.0000 3.7774
#
#
#
# Elastic Compliance Matrix: (Units=1/GPa)
#
#
# Indices 1 2 3 4 5 6 
#
# 1 0.021718 -0.008157 -0.004034 0.000000 0.000000 0.000000
# 2 -0.008157 0.018067 -0.011751 0.000000 0.000000 0.000000
# 3 -0.004034 -0.011751 0.026651 0.000000 0.000000 0.000000
# 4 0.000000 0.000000 0.000000 0.043549 0.000000 0.000000
# 5 0.000000 0.000000 0.000000 0.000000 0.107993 0.000000
# 6 0.000000 0.000000 0.000000 0.000000 0.000000 0.264734
#
#
# Mechanical properties :
#
#
# Convention : Reuss Voigt Hill
#
# Bulk Modulus (GPa) = 53.90080 64.36365 59.13222
# Shear Modulus (GPa) = 9.31480 14.56494 11.93987
#
# Velocity S-wave (km/s) = 2.29664 2.87184 2.60020
# Velocity P-wave (km/s) = 6.12817 6.88789 6.51910
#
# Compressibility (1/GPa) = 0.01855260
#
# Stress axis : x y z
#
# Youngs Moduli (GPa) = 46.04406 55.34907 37.52238
#
# Poissons Ratio (x) = 0.45146 0.15138
# Poissons Ratio (y) = 0.37556 0.44092
# Poissons Ratio (z) = 0.18576 0.65040
#
# Static dielectric constant tensor:
#      x y z
#    x 1.600360 0.000000 0.000000 
#    y 0.000000 1.599260 0.000000 
#    z 0.000000 0.000000 1.593530 
# 
# From -- ./inp_files/4065.got.cif
#   From: 2010.05.17/outbox.cif.g08.bks.cpg/sg47_3_cif.got.tgz:4065.got - 2010.06.03 20:15:42.
