data_PCOD9387643
_publ_section_title
;
Structure prediction by ZEFSAII (Michael W. Deem and Ramdas Pophale) SiO2 
 PCOD9387643
Probable space group: P M M M
;
_chemical_formula_sum "Si O2"
_cell_formula_units_Z 44
_cell_length_a 31.694451
_cell_length_b 9.283981
_cell_length_c 7.785210
_cell_angle_alpha 90.000000
_cell_angle_beta 90.000000
_cell_angle_gamma 90.000000
_cell_volume 2290.803343
_symmetry_space_group_name_H-M "P M M M"
_symmetry_group_IT_number 47
_symmetry_cell_setting 'orthorhombic'
loop_
_space_group_symop_operation_xyz
x,y,z
-x,-y,z
x,-y,-z
-x,y,-z
-x,-y,-z
x,y,-z
-x,y,z
x,-y,z
loop_
_atom_site_type_symbol
_atom_site_label
_atom_site_fract_x
_atom_site_fract_y
_atom_site_fract_z
Si Si1 0.888115 0.672974 0.202084
Si Si2 0.636773 0.165175 0.792870
Si Si3 0.048097 0.675107 0.500000
Si Si4 0.803806 0.162442 0.794520
Si Si5 0.545379 0.174630 0.204145
Si Si6 0.279582 0.338197 0.704243
O O1 0.882672 0.500000 0.213898
O O2 0.925782 0.716358 0.329607
O O3 0.844987 0.749217 0.261630
O O4 0.896122 0.706338 0.000000
O O5 0.591125 0.221436 0.727876
O O6 0.676626 0.261696 0.750091
O O7 0.643145 0.000000 0.732370
O O8 0.633641 0.158953 0.000000
O O9 0.046709 0.500000 0.500000
O O10 0.000000 0.727529 0.500000
O O11 0.760505 0.244744 0.758885
O O12 0.802990 0.000000 0.724474
O O13 0.807428 0.153410 0.000000
O O14 0.500000 0.223765 0.276628
O O15 0.546113 0.000000 0.217962
O O16 0.544528 0.207660 0.000000
O O17 0.277851 0.347548 0.500000
O O18 0.277421 0.500000 0.776957
#
# Coordination Sequence:
#
# PCOD9387643 Si02
#       6
#     8   8   4   8   8   8
#     4   9  18  33  54  80 111 146 182 224 272 318
#     4   9  17  30  50  75 100 126 160 204 252 303
#     4   9  18  32  53  83 115 147 187 231 268 311
#     4  10  21  37  57  80 104 131 168 215 265 316
#     4   7  10  19  39  68  97 121 149 192 246 298
#     4  11  24  37  49  69  99 135 172 209 251 304
#
# _framework density 19.207236999999999
#
# number of rings (size 3 to 8) (size 9 to 14) (size 15 to 20)
#    0.000    2.818    0.000    3.273    1.273    5.455 
#    0.000    1.818    0.000    2.182    0.000    8.909 
#    0.000    0.000    0.000    0.000    0.000    0.000 
#
# Total GULP energy -245206.651831 kJ/mol
# GULP energy per Si atom -5572.878451 kJ/mol
# Density = 1.916352 g / cm^3
# Si number density = 19.207237 Si / 1000 Ang^3
#
#
#
# Elastic Constant Matrix: (Units=GPa)
#
#
# Indices 1 2 3 4 5 6 
#
# 1 224.7032 72.5892 42.6318 0.0000 0.0000 0.0000
# 2 72.5892 70.4381 23.1497 0.0000 0.0000 0.0000
# 3 42.6318 23.1497 46.2435 0.0000 0.0000 0.0000
# 4 0.0000 0.0000 0.0000 16.7539 0.0000 0.0000
# 5 0.0000 0.0000 0.0000 0.0000 69.8890 0.0000
# 6 0.0000 0.0000 0.0000 0.0000 0.0000 25.6307
#
#
#
# Elastic Compliance Matrix: (Units=1/GPa)
#
#
# Indices 1 2 3 4 5 6 
#
# 1 0.007104 -0.006186 -0.003452 0.000000 0.000000 0.000000
# 2 -0.006186 0.022380 -0.005500 0.000000 0.000000 0.000000
# 3 -0.003452 -0.005500 0.027561 0.000000 0.000000 0.000000
# 4 0.000000 0.000000 0.000000 0.059688 0.000000 0.000000
# 5 0.000000 0.000000 0.000000 0.000000 0.014308 0.000000
# 6 0.000000 0.000000 0.000000 0.000000 0.000000 0.039016
#
#
# Mechanical properties :
#
#
# Convention : Reuss Voigt Hill
#
# Bulk Modulus (GPa) = 37.35970 68.68071 53.02020
# Shear Modulus (GPa) = 23.89431 35.98899 29.94165
#
# Velocity S-wave (km/s) = 3.53090 4.33335 3.95254
# Velocity P-wave (km/s) = 6.00967 7.80208 6.96379
#
# Compressibility (1/GPa) = 0.02676681
#
# Stress axis : x y z
#
# Youngs Moduli (GPa) = 140.77319 44.68369 36.28360
#
# Poissons Ratio (x) = 0.27641 0.12525
# Poissons Ratio (y) = 0.87083 0.19957
# Poissons Ratio (z) = 0.48596 0.24578
#
# Static dielectric constant tensor:
#      x y z
#    x 1.687750 0.000000 0.000000 
#    y 0.000000 1.671020 0.000000 
#    z 0.000000 0.000000 1.697570 
# 
# From -- ./inp_files/2204.got.cif
#   From: 2010.05.17/outbox.cif.g08.bks.cpg/sg47_2_cif.got.tgz:2204.got - 2010.06.03 20:15:42.
