data_PCOD9387029
_publ_section_title
;
Structure prediction by ZEFSAII (Michael W. Deem and Ramdas Pophale) SiO2 
 PCOD9387029
Probable space group: P M M M
;
_chemical_formula_sum "Si O2"
_cell_formula_units_Z 64
_cell_length_a 25.590238
_cell_length_b 15.085218
_cell_length_c 7.590566
_cell_angle_alpha 90.000000
_cell_angle_beta 90.000000
_cell_angle_gamma 90.000000
_cell_volume 2930.218976
_symmetry_space_group_name_H-M "P M M M"
_symmetry_group_IT_number 47
_symmetry_cell_setting 'orthorhombic'
loop_
_space_group_symop_operation_xyz
x,y,z
-x,-y,z
x,-y,-z
-x,y,-z
-x,-y,-z
x,y,-z
-x,y,z
x,-y,z
loop_
_atom_site_type_symbol
_atom_site_label
_atom_site_fract_x
_atom_site_fract_y
_atom_site_fract_z
Si Si1 0.827736 0.394609 0.699670
Si Si2 0.284761 0.398962 0.290126
Si Si3 0.279983 0.102149 0.701941
Si Si4 0.056694 0.363148 0.291012
Si Si5 0.438820 0.901191 0.215067
Si Si6 0.360524 0.242451 0.195041
Si Si7 0.944685 0.155513 0.786605
Si Si8 0.833081 0.105508 0.198619
O O1 0.832063 0.356399 0.500000
O O2 0.820244 0.500000 0.686641
O O3 0.772073 0.364622 0.780165
O O4 0.885586 0.385257 0.782294
O O5 0.276850 0.404523 0.500000
O O6 0.295133 0.500000 0.225896
O O7 0.332010 0.330332 0.264887
O O8 0.297696 0.105164 0.500000
O O9 0.315027 0.168716 0.809198
O O10 0.219765 0.132610 0.707210
O O11 0.283222 0.000000 0.763732
O O12 0.057821 0.385808 0.500000
O O13 0.053688 0.258251 0.262616
O O14 0.000000 0.397645 0.223369
O O15 0.500000 0.895140 0.259086
O O16 0.406843 0.815843 0.281568
O O17 0.419828 0.000000 0.271705
O O18 0.434701 0.900879 0.000000
O O19 0.378865 0.266288 0.000000
O O20 0.889137 0.123607 0.717974
O O21 0.000000 0.115120 0.726463
O O22 0.943476 0.144620 0.000000
O O23 0.830162 0.000000 0.185446
O O24 0.831991 0.143517 0.000000
#
# Coordination Sequence:
#
# PCOD9387029 Si02
#       8
#     8   8   8   8   8   8   8   8
#     4   8  15  29  48  68  89 117 156 202 252 304
#     4   9  19  36  54  73 103 144 187 227 268 318
#     4  10  21  35  50  72 105 141 174 209 255 316
#     4   9  17  28  44  67  90 113 147 194 246 304
#     4   8  15  30  53  82 116 150 180 212 256 311
#     4  11  21  32  54  85 111 139 177 222 267 311
#     4   9  18  31  45  62  86 116 150 192 244 303
#     4   9  18  32  48  66  89 118 157 206 254 299
#
# _framework density 21.841373000000001
#
# number of rings (size 3 to 8) (size 9 to 14) (size 15 to 20)
#    0.000    2.875    0.000    2.250    1.750    2.500 
#    0.000    2.500    0.000    3.000    0.000   12.250 
#    0.000    0.000    0.000    0.000    0.000    0.000 
#
# Total GULP energy -356338.424107 kJ/mol
# GULP energy per Si atom -5567.787877 kJ/mol
# Density = 2.179166 g / cm^3
# Si number density = 21.841373 Si / 1000 Ang^3
#
#
#
# Elastic Constant Matrix: (Units=GPa)
#
#
# Indices 1 2 3 4 5 6 
#
# 1 135.6273 55.0212 5.0833 0.0000 0.0000 0.0000
# 2 55.0212 77.8567 2.0890 0.0000 0.0000 0.0000
# 3 5.0833 2.0890 46.2734 0.0000 0.0000 0.0000
# 4 0.0000 0.0000 0.0000 9.1532 0.0000 0.0000
# 5 0.0000 0.0000 0.0000 0.0000 3.5465 0.0000
# 6 0.0000 0.0000 0.0000 0.0000 0.0000 37.2106
#
#
#
# Elastic Compliance Matrix: (Units=1/GPa)
#
#
# Indices 1 2 3 4 5 6 
#
# 1 0.010367 -0.007304 -0.000809 0.000000 0.000000 0.000000
# 2 -0.007304 0.018006 -0.000010 0.000000 0.000000 0.000000
# 3 -0.000809 -0.000010 0.021700 0.000000 0.000000 0.000000
# 4 0.000000 0.000000 0.000000 0.109251 0.000000 0.000000
# 5 0.000000 0.000000 0.000000 0.000000 0.281966 0.000000
# 6 0.000000 0.000000 0.000000 0.000000 0.000000 0.026874
#
#
# Mechanical properties :
#
#
# Convention : Reuss Voigt Hill
#
# Bulk Modulus (GPa) = 29.56374 42.68272 36.12323
# Shear Modulus (GPa) = 10.08699 23.15300 16.61999
#
# Velocity S-wave (km/s) = 2.15135 3.25938 2.76151
# Velocity P-wave (km/s) = 4.44254 5.80941 5.17134
#
# Compressibility (1/GPa) = 0.03382522
#
# Stress axis : x y z
#
# Youngs Moduli (GPa) = 96.46240 55.53568 46.08285
#
# Poissons Ratio (x) = 0.40566 0.03728
# Poissons Ratio (y) = 0.70460 0.00048
# Poissons Ratio (z) = 0.07804 0.00058
#
# Static dielectric constant tensor:
#      x y z
#    x 1.867680 0.000000 0.000000 
#    y 0.000000 1.793620 0.000000 
#    z 0.000000 0.000000 1.898580 
# 
# From -- ./inp_files/12714.got.cif
#   From: 2010.05.17/outbox.cif.g08.bks.cpg/sg47_7_cif.got.tgz:12714.got - 2010.06.03 20:15:42.
