data_PCOD9387293
_publ_section_title
;
Structure prediction by ZEFSAII (Michael W. Deem and Ramdas Pophale) SiO2 
 PCOD9387293
Probable space group: P M M M
;
_chemical_formula_sum "Si O2"
_cell_formula_units_Z 64
_cell_length_a 15.798593
_cell_length_b 8.014503
_cell_length_c 24.523225
_cell_angle_alpha 90.000000
_cell_angle_beta 90.000000
_cell_angle_gamma 90.000000
_cell_volume 3105.078539
_symmetry_space_group_name_H-M "P M M M"
_symmetry_group_IT_number 47
_symmetry_cell_setting 'orthorhombic'
loop_
_space_group_symop_operation_xyz
x,y,z
-x,-y,z
x,-y,-z
-x,y,-z
-x,-y,-z
x,y,-z
-x,y,z
x,-y,z
loop_
_atom_site_type_symbol
_atom_site_label
_atom_site_fract_x
_atom_site_fract_y
_atom_site_fract_z
Si Si1 0.398105 0.196606 0.940330
Si Si2 0.094884 0.700966 0.563208
Si Si3 0.903694 0.703553 0.060752
Si Si4 0.228216 0.801925 0.652710
Si Si5 0.091892 0.798290 0.262393
Si Si6 0.813962 0.695669 0.834885
Si Si7 0.637242 0.809534 0.180974
Si Si8 0.407955 0.302958 0.300996
O O1 0.500000 0.204653 0.941751
O O2 0.375009 0.266386 0.880114
O O3 0.373776 0.000000 0.939593
O O4 0.368323 0.265314 0.000000
O O5 0.104139 0.752353 0.500000
O O6 0.092626 0.500000 0.564772
O O7 0.176102 0.754358 0.598417
O O8 0.000000 0.760052 0.581525
O O9 0.904092 0.500000 0.061867
O O10 0.837061 0.757736 0.105238
O O11 0.000000 0.756302 0.072860
O O12 0.882219 0.757655 0.000000
O O13 0.167632 0.732182 0.700440
O O14 0.325129 0.755573 0.665830
O O15 0.225186 0.000000 0.655968
O O16 0.105267 0.723065 0.202899
O O17 0.000000 0.752670 0.284665
O O18 0.095828 0.000000 0.259044
O O19 0.791267 0.500000 0.835477
O O20 0.737663 0.800695 0.810759
O O21 0.600646 0.730137 0.235819
O O22 0.606366 0.000000 0.178671
O O23 0.500000 0.232278 0.318205
O O24 0.409973 0.500000 0.308408
#
# Coordination Sequence:
#
# PCOD9387293 Si02
#       8
#     8   8   8   8   8   8   8   8
#     4   8  15  29  49  72  96 125 167 220 279 347
#     4   9  19  37  62  94 134 178 216 247 284 333
#     4   8  15  29  47  66  90 124 171 225 277 333
#     4  11  22  37  60  90 123 160 201 245 293 344
#     4  10  21  36  53  77 112 150 184 227 284 340
#     4  11  21  32  49  73 101 136 180 226 277 338
#     4  11  21  34  53  77 106 141 182 230 289 352
#     4  11  24  41  61  85 114 151 197 249 302 356
#
# _framework density 20.611394000000001
#
# number of rings (size 3 to 8) (size 9 to 14) (size 15 to 20)
#    0.000    2.125    1.250    3.750    0.000    4.250 
#    0.000    0.625    0.000    2.625    0.000   11.375 
#    0.000    0.000    0.000    0.000    0.000    0.000 
#
# Total GULP energy -356780.057443 kJ/mol
# GULP energy per Si atom -5574.688398 kJ/mol
# Density = 2.056448 g / cm^3
# Si number density = 20.611394 Si / 1000 Ang^3
#
#
#
# Elastic Constant Matrix: (Units=GPa)
#
#
# Indices 1 2 3 4 5 6 
#
# 1 141.0496 17.8363 57.9803 0.0000 0.0000 0.0000
# 2 17.8363 29.7408 8.8710 0.0000 0.0000 0.0000
# 3 57.9803 8.8710 97.8678 0.0000 0.0000 0.0000
# 4 0.0000 0.0000 0.0000 17.0185 0.0000 0.0000
# 5 0.0000 0.0000 0.0000 0.0000 25.3821 0.0000
# 6 0.0000 0.0000 0.0000 0.0000 0.0000 8.7976
#
#
#
# Elastic Compliance Matrix: (Units=1/GPa)
#
#
# Indices 1 2 3 4 5 6 
#
# 1 0.009878 -0.004295 -0.005463 0.000000 0.000000 0.000000
# 2 -0.004295 0.036425 -0.000757 0.000000 0.000000 0.000000
# 3 -0.005463 -0.000757 0.013523 0.000000 0.000000 0.000000
# 4 0.000000 0.000000 0.000000 0.058760 0.000000 0.000000
# 5 0.000000 0.000000 0.000000 0.000000 0.039398 0.000000
# 6 0.000000 0.000000 0.000000 0.000000 0.000000 0.113668
#
#
# Mechanical properties :
#
#
# Convention : Reuss Voigt Hill
#
# Bulk Modulus (GPa) = 25.77549 48.67038 37.22294
# Shear Modulus (GPa) = 16.36048 22.50434 19.43241
#
# Velocity S-wave (km/s) = 2.82043 3.30788 3.07383
# Velocity P-wave (km/s) = 4.81030 6.18499 5.54045
#
# Compressibility (1/GPa) = 0.03879655
#
# Stress axis : x y z
#
# Youngs Moduli (GPa) = 101.23031 27.45332 73.94806
#
# Poissons Ratio (x) = 0.11791 0.40398
# Poissons Ratio (y) = 0.43477 0.05600
# Poissons Ratio (z) = 0.55303 0.02079
#
# Static dielectric constant tensor:
#      x y z
#    x 1.787510 0.000000 0.000000 
#    y 0.000000 1.734740 0.000000 
#    z 0.000000 0.000000 1.778590 
# 
# From -- ./inp_files/32813.got.cif
#   From: 2010.05.17/outbox.cif.g08.bks.cpg/sg47_17_cif.got.tgz:32813.got - 2010.06.03 20:15:42.
