data_PCOD9387523
_publ_section_title
;
Structure prediction by ZEFSAII (Michael W. Deem and Ramdas Pophale) SiO2 
 PCOD9387523
Probable space group: P M M M
;
_chemical_formula_sum "Si O2"
_cell_formula_units_Z 48
_cell_length_a 9.482366
_cell_length_b 15.132980
_cell_length_c 17.519747
_cell_angle_alpha 90.000000
_cell_angle_beta 90.000000
_cell_angle_gamma 90.000000
_cell_volume 2514.021588
_symmetry_space_group_name_H-M "P M M M"
_symmetry_group_IT_number 47
_symmetry_cell_setting 'orthorhombic'
loop_
_space_group_symop_operation_xyz
x,y,z
-x,-y,z
x,-y,-z
-x,y,-z
-x,-y,-z
x,y,-z
-x,y,z
x,-y,z
loop_
_atom_site_type_symbol
_atom_site_label
_atom_site_fract_x
_atom_site_fract_y
_atom_site_fract_z
Si Si1 0.348372 0.101208 0.116777
Si Si2 0.665377 0.599338 0.176583
Si Si3 0.169467 0.280248 0.292823
Si Si4 0.661110 0.637985 0.000000
Si Si5 0.336669 0.898809 0.700549
Si Si6 0.162115 0.194889 0.000000
Si Si7 0.661230 0.394356 0.589842
O O1 0.500000 0.141082 0.095794
O O2 0.338642 0.099882 0.207313
O O3 0.227238 0.151535 0.074883
O O4 0.346201 0.000000 0.091020
O O5 0.500000 0.616209 0.194728
O O6 0.701751 0.500000 0.205103
O O7 0.758721 0.675392 0.216834
O O8 0.674445 0.595542 0.084192
O O9 0.233976 0.183719 0.314484
O O10 0.224829 0.344858 0.359394
O O11 0.000000 0.276999 0.285692
O O12 0.786535 0.706399 0.000000
O O13 0.500000 0.673298 0.000000
O O14 0.500000 0.882711 0.675757
O O15 0.297980 0.000000 0.676114
O O16 0.000000 0.183012 0.000000
O O17 0.677419 0.374504 0.500000
O O18 0.500000 0.369247 0.612244
O O19 0.672315 0.500000 0.598678
#
# Coordination Sequence:
#
# PCOD9387523 Si02
#       7
#     8   8   8   4   8   4   8
#     4   9  18  33  51  68  88 121 169 224 278 327
#     4  10  21  38  59  80 104 140 191 245 287 328
#     4  12  24  35  54  87 123 155 184 220 277 345
#     4  10  21  37  55  72  95 135 186 237 285 325
#     4   9  19  37  59  79 101 137 187 236 276 318
#     4  12  23  30  41  66  97 128 165 211 271 341
#     4   9  19  38  64  91 118 151 192 235 276 320
#
# _framework density 19.092915000000001
#
# number of rings (size 3 to 8) (size 9 to 14) (size 15 to 20)
#    0.000    2.000    0.000    5.750    0.000   11.000 
#    0.000    2.500    0.000    2.000    0.000    3.500 
#    0.000    0.000    0.000    0.000    0.000    0.000 
#
# Total GULP energy -267591.437328 kJ/mol
# GULP energy per Si atom -5574.821611 kJ/mol
# Density = 1.904946 g / cm^3
# Si number density = 19.092915 Si / 1000 Ang^3
#
#
#
# Elastic Constant Matrix: (Units=GPa)
#
#
# Indices 1 2 3 4 5 6 
#
# 1 134.8402 58.4635 24.3803 0.0000 0.0000 0.0000
# 2 58.4635 90.5186 19.5846 0.0000 0.0000 0.0000
# 3 24.3803 19.5846 62.0976 0.0000 0.0000 0.0000
# 4 0.0000 0.0000 0.0000 12.0737 0.0000 0.0000
# 5 0.0000 0.0000 0.0000 0.0000 31.6550 0.0000
# 6 0.0000 0.0000 0.0000 0.0000 0.0000 26.0083
#
#
#
# Elastic Compliance Matrix: (Units=1/GPa)
#
#
# Indices 1 2 3 4 5 6 
#
# 1 0.010559 -0.006357 -0.002141 0.000000 0.000000 0.000000
# 2 -0.006357 0.015683 -0.002450 0.000000 0.000000 0.000000
# 3 -0.002141 -0.002450 0.017717 0.000000 0.000000 0.000000
# 4 0.000000 0.000000 0.000000 0.082825 0.000000 0.000000
# 5 0.000000 0.000000 0.000000 0.000000 0.031591 0.000000
# 6 0.000000 0.000000 0.000000 0.000000 0.000000 0.038449
#
#
# Mechanical properties :
#
#
# Convention : Reuss Voigt Hill
#
# Bulk Modulus (GPa) = 45.32405 54.70147 50.01276
# Shear Modulus (GPa) = 22.11650 26.28259 24.19955
#
# Velocity S-wave (km/s) = 3.40716 3.71423 3.56401
# Velocity P-wave (km/s) = 6.26646 6.86341 6.57172
#
# Compressibility (1/GPa) = 0.02206334
#
# Stress axis : x y z
#
# Youngs Moduli (GPa) = 94.70173 63.76186 56.44267
#
# Poissons Ratio (x) = 0.40533 0.12084
# Poissons Ratio (y) = 0.60201 0.13831
# Poissons Ratio (z) = 0.20275 0.15625
#
# Static dielectric constant tensor:
#      x y z
#    x 1.636250 0.000000 0.000000 
#    y 0.000000 1.719850 0.000000 
#    z 0.000000 0.000000 1.678710 
# 
# From -- ./inp_files/26512.got.cif
#   From: 2010.05.17/outbox.cif.g08.bks.cpg/sg47_14_cif.got.tgz:26512.got - 2010.06.03 20:15:42.
