data_PCOD9387419
_publ_section_title
;
Structure prediction by ZEFSAII (Michael W. Deem and Ramdas Pophale) SiO2 
 PCOD9387419
Probable space group: P M M M
;
_chemical_formula_sum "Si O2"
_cell_formula_units_Z 52
_cell_length_a 8.559244
_cell_length_b 11.838355
_cell_length_c 29.316676
_cell_angle_alpha 90.000000
_cell_angle_beta 90.000000
_cell_angle_gamma 90.000000
_cell_volume 2970.581647
_symmetry_space_group_name_H-M "P M M M"
_symmetry_group_IT_number 47
_symmetry_cell_setting 'orthorhombic'
loop_
_space_group_symop_operation_xyz
x,y,z
-x,-y,z
x,-y,-z
-x,y,-z
-x,-y,-z
x,y,-z
-x,y,z
x,-y,z
loop_
_atom_site_type_symbol
_atom_site_label
_atom_site_fract_x
_atom_site_fract_y
_atom_site_fract_z
Si Si1 0.308753 0.631362 0.649018
Si Si2 0.185974 0.633122 0.819017
Si Si3 0.812890 0.238410 0.912025
Si Si4 0.685829 0.000000 0.881625
Si Si5 0.687225 0.369177 0.000000
Si Si6 0.685250 0.772522 0.736441
Si Si7 0.315248 0.363213 0.549042
Si Si8 0.184328 0.000000 0.221698
O O1 0.500000 0.630750 0.648193
O O2 0.262070 0.500000 0.656700
O O3 0.259626 0.713470 0.689682
O O4 0.253193 0.670614 0.598740
O O5 0.211933 0.500000 0.822773
O O6 0.230054 0.694539 0.865882
O O7 0.279127 0.685874 0.777236
O O8 0.000000 0.652537 0.811521
O O9 0.746367 0.303586 0.955458
O O10 0.000000 0.236111 0.915240
O O11 0.750618 0.111937 0.905825
O O12 0.500000 0.000000 0.883452
O O13 0.737232 0.000000 0.828412
O O14 0.741705 0.500000 0.000000
O O15 0.500000 0.369480 0.000000
O O16 0.500000 0.792237 0.733004
O O17 0.766327 0.888981 0.750514
O O18 0.248102 0.324902 0.500000
O O19 0.500000 0.334735 0.548516
O O20 0.306721 0.500000 0.549398
O O21 0.000000 0.000000 0.213927
#
# Coordination Sequence:
#
# PCOD9387419 Si02
#       8
#     8   8   8   4   4   8   8   4
#     4   8  14  24  39  66 104 138 169 210 262 318
#     4  10  21  36  55  80 111 146 181 216 259 318
#     4  11  23  41  65  89 116 153 189 224 269 322
#     4  12  24  41  65  92 116 141 180 230 277 321
#     4  11  25  44  65  92 125 155 187 231 274 315
#     4  11  21  33  52  77 104 138 176 222 274 320
#     4   7   9  15  30  54  89 134 174 204 245 309
#     4  12  24  40  57  75 103 141 182 225 268 322
#
# _framework density 17.504989999999999
#
# number of rings (size 3 to 8) (size 9 to 14) (size 15 to 20)
#    0.000    2.077    1.538    4.846    0.000    3.077 
#    0.000    1.538    0.000    0.000    0.000    0.538 
#    0.000    6.769    0.000   17.385    0.000   14.154 
#
# Total GULP energy -290090.054680 kJ/mol
# GULP energy per Si atom -5578.654898 kJ/mol
# Density = 1.746515 g / cm^3
# Si number density = 17.504990 Si / 1000 Ang^3
#
#
#
# Elastic Constant Matrix: (Units=GPa)
#
#
# Indices 1 2 3 4 5 6 
#
# 1 30.6535 22.0507 31.1616 0.0000 0.0000 0.0000
# 2 22.0507 101.5509 66.1826 0.0000 0.0000 0.0000
# 3 31.1616 66.1826 167.2353 0.0000 0.0000 0.0000
# 4 0.0000 0.0000 0.0000 -5.2933 0.0000 0.0000
# 5 0.0000 0.0000 0.0000 0.0000 -30.2484 0.0000
# 6 0.0000 0.0000 0.0000 0.0000 0.0000 16.8225
#
#
#
# Elastic Compliance Matrix: (Units=1/GPa)
#
#
# Indices 1 2 3 4 5 6 
#
# 1 0.042384 -0.005466 -0.005734 0.000000 0.000000 0.000000
# 2 -0.005466 0.013975 -0.004512 0.000000 0.000000 0.000000
# 3 -0.005734 -0.004512 0.008834 0.000000 0.000000 0.000000
# 4 0.000000 0.000000 0.000000 -0.188919 0.000000 0.000000
# 5 0.000000 0.000000 0.000000 0.000000 -0.033060 0.000000
# 6 0.000000 0.000000 0.000000 0.000000 0.000000 0.059444
#
#
# Mechanical properties :
#
#
# Convention : Reuss Voigt Hill
#
# Bulk Modulus (GPa) = 29.61403 59.80327 44.70865
# Shear Modulus (GPa) = -91.47297 8.25914 -41.60691
#
# Velocity S-wave (km/s) = -7.23663 2.17449 -4.88059
# Velocity P-wave (km/s) = 7.27124 6.36728 2.48280
#
# Compressibility (1/GPa) = 0.03376777
#
# Stress axis : x y z
#
# Youngs Moduli (GPa) = 23.59368 71.55805 113.20310
#
# Poissons Ratio (x) = 0.39114 0.64916
# Poissons Ratio (y) = 0.12896 0.51076
# Poissons Ratio (z) = 0.13530 0.32286
#
# Static dielectric constant tensor:
#      x y z
#    x 1.600310 0.000000 0.000000 
#    y 0.000000 1.572580 0.000000 
#    z 0.000000 0.000000 1.616190 
# 
# From -- ./inp_files/33327.got.cif
#   From: 2010.05.17/outbox.cif.g08.bks.cpg/sg47_17_cif.got.tgz:33327.got - 2010.06.03 20:15:42.
