data_PCOD9387446
_publ_section_title
;
Structure prediction by ZEFSAII (Michael W. Deem and Ramdas Pophale) SiO2 
 PCOD9387446
Probable space group: P M M M
;
_chemical_formula_sum "Si O2"
_cell_formula_units_Z 56
_cell_length_a 21.733565
_cell_length_b 15.600605
_cell_length_c 8.293638
_cell_angle_alpha 90.000000
_cell_angle_beta 90.000000
_cell_angle_gamma 90.000000
_cell_volume 2812.014052
_symmetry_space_group_name_H-M "P M M M"
_symmetry_group_IT_number 47
_symmetry_cell_setting 'orthorhombic'
loop_
_space_group_symop_operation_xyz
x,y,z
-x,-y,z
x,-y,-z
-x,y,-z
-x,-y,-z
x,y,-z
-x,y,z
x,-y,z
loop_
_atom_site_type_symbol
_atom_site_label
_atom_site_fract_x
_atom_site_fract_y
_atom_site_fract_z
Si Si1 0.120387 0.841422 0.672401
Si Si2 0.668437 0.761208 0.186191
Si Si3 0.000000 0.397568 0.314018
Si Si4 0.739933 0.404356 0.308245
Si Si5 0.428143 0.097562 0.803865
Si Si6 0.928532 0.092863 0.000000
Si Si7 0.866997 0.663514 0.189218
Si Si8 0.746433 0.094044 0.685160
O O1 0.088308 0.853204 0.500000
O O2 0.142113 0.744187 0.693206
O O3 0.180399 0.900100 0.676047
O O4 0.084832 0.859821 0.834536
O O5 0.693482 0.673131 0.262858
O O6 0.612653 0.821388 0.253307
O O7 0.723461 0.829868 0.203520
O O8 0.654997 0.742468 0.000000
O O9 0.064258 0.370547 0.229854
O O10 0.000000 0.500000 0.317918
O O11 0.000000 0.365352 0.500000
O O12 0.749876 0.400077 0.500000
O O13 0.715958 0.500000 0.268362
O O14 0.806943 0.393770 0.224893
O O15 0.500000 0.109817 0.765064
O O16 0.411336 0.000000 0.749053
O O17 0.422417 0.096530 0.000000
O O18 0.000000 0.080891 0.000000
O O19 0.896231 0.000000 0.000000
O O20 0.865249 0.686382 0.000000
O O21 0.724188 0.106577 0.500000
O O22 0.727905 0.000000 0.742797
#
# Coordination Sequence:
#
# PCOD9387446 Si02
#       8
#     8   8   4   8   8   4   8   8
#     4  11  23  41  61  84 117 154 193 240 301 368
#     4  11  21  33  56  91 120 151 198 248 299 352
#     4  11  25  43  63  89 117 150 191 237 303 383
#     4  11  24  42  61  82 115 159 203 251 312 377
#     4   8  15  30  53  85 128 170 201 234 285 351
#     4  11  26  44  62  86 112 148 201 253 304 363
#     4  12  24  40  63  90 118 150 195 248 308 373
#     4  10  21  36  55  81 115 154 191 233 290 352
#
# _framework density 19.914550999999999
#
# number of rings (size 3 to 8) (size 9 to 14) (size 15 to 20)
#    0.000    1.429    2.143    4.071    2.000    5.429 
#    0.000    0.714    0.000    2.143    0.000    8.000 
#    0.000    0.000    0.000    0.000    0.000    0.000 
#
# Total GULP energy -312192.485710 kJ/mol
# GULP energy per Si atom -5574.865816 kJ/mol
# Density = 1.986922 g / cm^3
# Si number density = 19.914551 Si / 1000 Ang^3
#
#
#
# Elastic Constant Matrix: (Units=GPa)
#
#
# Indices 1 2 3 4 5 6 
#
# 1 100.4124 48.6261 23.7616 0.0000 0.0000 0.0000
# 2 48.6261 138.1128 28.6835 0.0000 0.0000 0.0000
# 3 23.7616 28.6835 95.6134 0.0000 0.0000 0.0000
# 4 0.0000 0.0000 0.0000 18.5425 0.0000 0.0000
# 5 0.0000 0.0000 0.0000 0.0000 30.5879 0.0000
# 6 0.0000 0.0000 0.0000 0.0000 0.0000 16.9376
#
#
#
# Elastic Compliance Matrix: (Units=1/GPa)
#
#
# Indices 1 2 3 4 5 6 
#
# 1 0.012314 -0.003946 -0.001877 0.000000 0.000000 0.000000
# 2 -0.003946 0.008986 -0.001715 0.000000 0.000000 0.000000
# 3 -0.001877 -0.001715 0.011440 0.000000 0.000000 0.000000
# 4 0.000000 0.000000 0.000000 0.053930 0.000000 0.000000
# 5 0.000000 0.000000 0.000000 0.000000 0.032693 0.000000
# 6 0.000000 0.000000 0.000000 0.000000 0.000000 0.059040
#
#
# Mechanical properties :
#
#
# Convention : Reuss Voigt Hill
#
# Bulk Modulus (GPa) = 56.61027 59.58678 58.09853
# Shear Modulus (GPa) = 25.07963 28.75144 26.91553
#
# Velocity S-wave (km/s) = 3.55260 3.80378 3.68033
# Velocity P-wave (km/s) = 6.73173 7.01982 6.87728
#
# Compressibility (1/GPa) = 0.01766464
#
# Stress axis : x y z
#
# Youngs Moduli (GPa) = 81.21030 111.28648 87.41517
#
# Poissons Ratio (x) = 0.43910 0.16404
# Poissons Ratio (y) = 0.32043 0.14993
# Poissons Ratio (z) = 0.15239 0.19087
#
# Static dielectric constant tensor:
#      x y z
#    x 1.722390 0.000000 0.000000 
#    y 0.000000 1.853850 0.000000 
#    z 0.000000 0.000000 1.457960 
# 
# From -- ./inp_files/11295.got.cif
#   From: 2010.05.17/outbox.cif.g08.bks.cpg/sg47_6_cif.got.tgz:11295.got - 2010.06.03 20:15:42.
