data_PCOD9387586
_publ_section_title
;
Structure prediction by ZEFSAII (Michael W. Deem and Ramdas Pophale) SiO2 
 PCOD9387586
Probable space group: P M M M
;
_chemical_formula_sum "Si O2"
_cell_formula_units_Z 40
_cell_length_a 9.340415
_cell_length_b 13.856127
_cell_length_c 16.591762
_cell_angle_alpha 90.000000
_cell_angle_beta 90.000000
_cell_angle_gamma 90.000000
_cell_volume 2147.338631
_symmetry_space_group_name_H-M "P M M M"
_symmetry_group_IT_number 47
_symmetry_cell_setting 'orthorhombic'
loop_
_space_group_symop_operation_xyz
x,y,z
-x,-y,z
x,-y,-z
-x,y,-z
-x,-y,-z
x,y,-z
-x,y,z
x,-y,z
loop_
_atom_site_type_symbol
_atom_site_label
_atom_site_fract_x
_atom_site_fract_y
_atom_site_fract_z
Si Si1 0.164927 0.116771 0.000000
Si Si2 0.835463 0.755734 0.292561
Si Si3 0.668563 0.610295 0.403066
Si Si4 0.342279 0.617901 0.000000
Si Si5 0.667816 0.883655 0.166593
Si Si6 0.158434 0.390646 0.852992
O O1 0.248243 0.141004 0.916898
O O2 0.000000 0.153654 0.000000
O O3 0.157077 0.000000 0.000000
O O4 0.755851 0.698951 0.364520
O O5 0.745721 0.837662 0.244958
O O6 0.843439 0.673017 0.225015
O O7 0.000000 0.785188 0.311952
O O8 0.678823 0.614451 0.500000
O O9 0.500000 0.618893 0.381127
O O10 0.714817 0.500000 0.379366
O O11 0.264266 0.647108 0.080402
O O12 0.341597 0.500000 0.000000
O O13 0.500000 0.655520 0.000000
O O14 0.500000 0.854284 0.162567
O O15 0.671892 0.000000 0.173112
O O16 0.197734 0.500000 0.831827
O O17 0.000000 0.391906 0.889511
#
# Coordination Sequence:
#
# PCOD9387586 Si02
#       6
#     4   8   8   4   8   8
#     4   9  17  32  55  80 106 138 180 232 285 330
#     4  11  22  34  53  81 109 138 175 222 274 324
#     4   9  19  37  60  85 114 147 180 216 263 322
#     4   9  17  28  43  64  90 126 172 214 249 289
#     4  10  21  37  56  78 107 145 188 232 278 329
#     4   9  18  32  47  65  95 133 168 203 248 303
#
# _framework density 18.62771
#
# number of rings (size 3 to 8) (size 9 to 14) (size 15 to 20)
#    0.000    2.400    0.000    3.000    0.000    7.600 
#    0.000    4.000    0.000    0.600    0.000    4.200 
#    0.000    0.000    0.000    0.000    0.000    0.000 
#
# Total GULP energy -223012.729715 kJ/mol
# GULP energy per Si atom -5575.318243 kJ/mol
# Density = 1.858531 g / cm^3
# Si number density = 18.627710 Si / 1000 Ang^3
#
#
#
# Elastic Constant Matrix: (Units=GPa)
#
#
# Indices 1 2 3 4 5 6 
#
# 1 119.5533 38.1731 46.0943 0.0000 0.0000 0.0000
# 2 38.1731 79.5027 18.8725 0.0000 0.0000 0.0000
# 3 46.0943 18.8725 62.0388 0.0000 0.0000 0.0000
# 4 0.0000 0.0000 0.0000 47.6774 0.0000 0.0000
# 5 0.0000 0.0000 0.0000 0.0000 31.9367 0.0000
# 6 0.0000 0.0000 0.0000 0.0000 0.0000 23.2161
#
#
#
# Elastic Compliance Matrix: (Units=1/GPa)
#
#
# Indices 1 2 3 4 5 6 
#
# 1 0.012920 -0.004230 -0.008313 0.000000 0.000000 0.000000
# 2 -0.004230 0.014942 -0.001402 0.000000 0.000000 0.000000
# 3 -0.008313 -0.001402 0.022722 0.000000 0.000000 0.000000
# 4 0.000000 0.000000 0.000000 0.020974 0.000000 0.000000
# 5 0.000000 0.000000 0.000000 0.000000 0.031312 0.000000
# 6 0.000000 0.000000 0.000000 0.000000 0.000000 0.043074
#
#
# Mechanical properties :
#
#
# Convention : Reuss Voigt Hill
#
# Bulk Modulus (GPa) = 44.06567 51.93053 47.99810
# Shear Modulus (GPa) = 27.56347 31.09637 29.32992
#
# Velocity S-wave (km/s) = 3.85086 4.09021 3.97234
# Velocity P-wave (km/s) = 6.59390 7.08838 6.84561
#
# Compressibility (1/GPa) = 0.02269341
#
# Stress axis : x y z
#
# Youngs Moduli (GPa) = 77.39803 66.92411 44.01051
#
# Poissons Ratio (x) = 0.28311 0.36585
# Poissons Ratio (y) = 0.32742 0.06172
# Poissons Ratio (z) = 0.64339 0.09386
#
# Static dielectric constant tensor:
#      x y z
#    x 1.686550 0.000000 0.000000 
#    y 0.000000 1.688090 0.000000 
#    z 0.000000 0.000000 1.610030 
# 
# From -- ./inp_files/20677.got.cif
#   From: 2010.05.17/outbox.cif.g08.bks.cpg/sg47_11_cif.got.tgz:20677.got - 2010.06.03 20:15:42.
