data_PCOD9387477
_publ_section_title
;
Structure prediction by ZEFSAII (Michael W. Deem and Ramdas Pophale) SiO2 
 PCOD9387477
Probable space group: P M M M
;
_chemical_formula_sum "Si O2"
_cell_formula_units_Z 40
_cell_length_a 9.123391
_cell_length_b 8.083800
_cell_length_c 28.106972
_cell_angle_alpha 90.000000
_cell_angle_beta 90.000000
_cell_angle_gamma 90.000000
_cell_volume 2072.936072
_symmetry_space_group_name_H-M "P M M M"
_symmetry_group_IT_number 47
_symmetry_cell_setting 'orthorhombic'
loop_
_space_group_symop_operation_xyz
x,y,z
-x,-y,z
x,-y,-z
-x,y,-z
-x,-y,-z
x,y,-z
-x,y,z
x,-y,z
loop_
_atom_site_type_symbol
_atom_site_label
_atom_site_fract_x
_atom_site_fract_y
_atom_site_fract_z
Si Si1 0.163887 0.196943 0.000000
Si Si2 0.675971 0.696404 0.610789
Si Si3 0.834296 0.301820 0.708978
Si Si4 0.666546 0.303022 0.905976
Si Si5 0.827331 0.000000 0.443015
Si Si6 0.332723 0.196786 0.196715
O O1 0.245952 0.248331 0.047912
O O2 0.000000 0.267250 0.000000
O O3 0.156413 0.000000 0.000000
O O4 0.500000 0.710246 0.608454
O O5 0.712770 0.500000 0.601366
O O6 0.734126 0.740103 0.663670
O O7 0.750964 0.832995 0.577029
O O8 0.842391 0.500000 0.709436
O O9 0.762452 0.249331 0.758436
O O10 0.000000 0.235986 0.703592
O O11 0.500000 0.235524 0.908658
O O12 0.659620 0.500000 0.906543
O O13 0.727874 0.250708 0.854646
O O14 0.816319 0.000000 0.500000
O O15 0.000000 0.000000 0.429784
O O16 0.500000 0.264153 0.200970
O O17 0.340828 0.000000 0.196679
#
# Coordination Sequence:
#
# PCOD9387477 Si02
#       6
#     4   8   8   8   4   8
#     4  11  24  39  56  80 110 143 180 227 284 346
#     4  10  22  41  66  94 126 167 215 266 316 370
#     4  10  21  37  58  85 118 157 198 242 297 359
#     4  10  21  38  60  83 107 141 187 235 284 343
#     4  11  25  43  65  95 131 171 213 260 317 378
#     4  10  21  36  56  83 114 149 189 235 288 346
#
# _framework density 19.296302000000001
#
# number of rings (size 3 to 8) (size 9 to 14) (size 15 to 20)
#    0.000    1.800    0.000    3.300    1.400    8.800 
#    0.000    2.000    0.000    0.000    0.000    0.000 
#    0.000    0.000    0.000    0.000    0.000    0.000 
#
# Total GULP energy -223330.375363 kJ/mol
# GULP energy per Si atom -5583.259384 kJ/mol
# Density = 1.925238 g / cm^3
# Si number density = 19.296302 Si / 1000 Ang^3
#
#
#
# Elastic Constant Matrix: (Units=GPa)
#
#
# Indices 1 2 3 4 5 6 
#
# 1 108.7802 49.4319 75.6694 0.0000 0.0000 0.0000
# 2 49.4319 67.2870 58.2143 0.0000 0.0000 0.0000
# 3 75.6694 58.2143 152.8384 0.0000 0.0000 0.0000
# 4 0.0000 0.0000 0.0000 42.7419 0.0000 0.0000
# 5 0.0000 0.0000 0.0000 0.0000 53.0535 0.0000
# 6 0.0000 0.0000 0.0000 0.0000 0.0000 26.7568
#
#
#
# Elastic Compliance Matrix: (Units=1/GPa)
#
#
# Indices 1 2 3 4 5 6 
#
# 1 0.016155 -0.007380 -0.005187 0.000000 0.000000 0.000000
# 2 -0.007380 0.025538 -0.006073 0.000000 0.000000 0.000000
# 3 -0.005187 -0.006073 0.011424 0.000000 0.000000 0.000000
# 4 0.000000 0.000000 0.000000 0.023396 0.000000 0.000000
# 5 0.000000 0.000000 0.000000 0.000000 0.018849 0.000000
# 6 0.000000 0.000000 0.000000 0.000000 0.000000 0.037374
#
#
# Mechanical properties :
#
#
# Convention : Reuss Voigt Hill
#
# Bulk Modulus (GPa) = 63.14819 77.28187 70.21503
# Shear Modulus (GPa) = 28.52329 34.21645 31.36987
#
# Velocity S-wave (km/s) = 3.84887 4.21552 4.03636
# Velocity P-wave (km/s) = 7.24902 7.98944 7.62822
#
# Compressibility (1/GPa) = 0.01583577
#
# Stress axis : x y z
#
# Youngs Moduli (GPa) = 61.90089 39.15752 87.53415
#
# Poissons Ratio (x) = 0.28900 0.45405
# Poissons Ratio (y) = 0.45685 0.53160
# Poissons Ratio (z) = 0.32108 0.23781
#
# Static dielectric constant tensor:
#      x y z
#    x 1.692000 0.000000 0.000000 
#    y 0.000000 1.669590 0.000000 
#    z 0.000000 0.000000 1.866840 
# 
# From -- ./inp_files/33013.got.cif
#   From: 2010.05.17/outbox.cif.g08.bks.cpg/sg47_17_cif.got.tgz:33013.got - 2010.06.03 20:15:42.
