data_PCOD9387787
_publ_section_title
;
Structure prediction by ZEFSAII (Michael W. Deem and Ramdas Pophale) SiO2 
 PCOD9387787
Probable space group: P M M M
;
_chemical_formula_sum "Si O2"
_cell_formula_units_Z 56
_cell_length_a 8.834703
_cell_length_b 20.434376
_cell_length_c 15.813834
_cell_angle_alpha 90.000000
_cell_angle_beta 90.000000
_cell_angle_gamma 90.000000
_cell_volume 2854.897433
_symmetry_space_group_name_H-M "P M M M"
_symmetry_group_IT_number 47
_symmetry_cell_setting 'orthorhombic'
loop_
_space_group_symop_operation_xyz
x,y,z
-x,-y,z
x,-y,-z
-x,y,-z
-x,-y,-z
x,y,-z
-x,y,z
x,-y,z
loop_
_atom_site_type_symbol
_atom_site_label
_atom_site_fract_x
_atom_site_fract_y
_atom_site_fract_z
Si Si1 0.680655 0.572545 0.724940
Si Si2 0.334531 0.735725 0.100065
Si Si3 0.318910 0.924475 0.500000
Si Si4 0.180075 0.169315 0.638716
Si Si5 0.180517 0.000000 0.100563
Si Si6 0.321784 0.872920 0.812953
Si Si7 0.817132 0.319510 0.598377
Si Si8 0.176897 0.606212 0.098731
O O1 0.500000 0.579382 0.724038
O O2 0.721009 0.500000 0.691390
O O3 0.750832 0.629193 0.665964
O O4 0.736401 0.574536 0.822647
O O5 0.500000 0.713673 0.134757
O O6 0.308659 0.808850 0.129177
O O7 0.205778 0.683104 0.118230
O O8 0.345469 0.736398 0.000000
O O9 0.500000 0.924984 0.500000
O O10 0.258461 0.883004 0.421659
O O11 0.266460 0.000000 0.500000
O O12 0.227191 0.146714 0.731180
O O13 0.228351 0.244460 0.620500
O O14 0.000000 0.167031 0.625931
O O15 0.255124 0.063746 0.141943
O O16 0.000000 0.000000 0.115164
O O17 0.207121 0.000000 0.000000
O O18 0.500000 0.882754 0.793051
O O19 0.774210 0.332883 0.500000
O O20 0.000000 0.322444 0.603370
O O21 0.000000 0.590020 0.102551
O O22 0.226585 0.593533 0.000000
#
# Coordination Sequence:
#
# PCOD9387787 Si02
#       8
#     8   8   4   8   4   8   8   8
#     4  11  25  42  61  90 127 167 211 259 315 378
#     4   9  18  34  57  85 116 152 195 244 300 359
#     4  11  25  43  65  93 126 161 202 251 304 363
#     4  11  23  42  66  94 127 162 204 252 308 370
#     4  11  25  43  61  84 117 162 213 261 313 369
#     4  11  23  38  59  87 119 156 202 251 304 364
#     4  10  22  43  69  97 127 163 211 262 317 380
#     4  10  21  37  60  90 122 159 204 255 312 373
#
# _framework density 19.615414000000001
#
# number of rings (size 3 to 8) (size 9 to 14) (size 15 to 20)
#    0.000    1.571    0.714    3.429    1.000    9.143 
#    0.000    4.286    0.000    0.000    0.000    0.000 
#    0.000    0.000    0.000    0.000    0.000    0.000 
#
# Total GULP energy -312605.793344 kJ/mol
# GULP energy per Si atom -5582.246310 kJ/mol
# Density = 1.957077 g / cm^3
# Si number density = 19.615414 Si / 1000 Ang^3
#
#
#
# Elastic Constant Matrix: (Units=GPa)
#
#
# Indices 1 2 3 4 5 6 
#
# 1 54.4364 45.8686 38.0664 0.0000 0.0000 0.0000
# 2 45.8686 150.2223 67.4606 0.0000 0.0000 0.0000
# 3 38.0664 67.4606 83.2460 0.0000 0.0000 0.0000
# 4 0.0000 0.0000 0.0000 31.8647 0.0000 0.0000
# 5 0.0000 0.0000 0.0000 0.0000 29.3051 0.0000
# 6 0.0000 0.0000 0.0000 0.0000 0.0000 36.6842
#
#
#
# Elastic Compliance Matrix: (Units=1/GPa)
#
#
# Indices 1 2 3 4 5 6 
#
# 1 0.028845 -0.004534 -0.009516 0.000000 0.000000 0.000000
# 2 -0.004534 0.011178 -0.006985 0.000000 0.000000 0.000000
# 3 -0.009516 -0.006985 0.022024 0.000000 0.000000 0.000000
# 4 0.000000 0.000000 0.000000 0.031383 0.000000 0.000000
# 5 0.000000 0.000000 0.000000 0.000000 0.034124 0.000000
# 6 0.000000 0.000000 0.000000 0.000000 0.000000 0.027260
#
#
# Mechanical properties :
#
#
# Convention : Reuss Voigt Hill
#
# Bulk Modulus (GPa) = 50.05644 65.63287 57.84466
# Shear Modulus (GPa) = 24.56495 28.67141 26.61818
#
# Velocity S-wave (km/s) = 3.54266 3.82734 3.68775
# Velocity P-wave (km/s) = 6.50448 7.28449 6.90551
#
# Compressibility (1/GPa) = 0.01997745
#
# Stress axis : x y z
#
# Youngs Moduli (GPa) = 34.66845 89.46097 45.40423
#
# Poissons Ratio (x) = 0.40563 0.43205
# Poissons Ratio (y) = 0.15719 0.31715
# Poissons Ratio (z) = 0.32989 0.62489
#
# Static dielectric constant tensor:
#      x y z
#    x 1.686800 0.000000 0.000000 
#    y 0.000000 1.729470 0.000000 
#    z 0.000000 0.000000 1.580060 
# 
# From -- ./inp_files/21670.got.cif
#   From: 2010.05.17/outbox.cif.g08.bks.cpg/sg47_11_cif.got.tgz:21670.got - 2010.06.03 20:15:42.
