data_PCOD9387841
_publ_section_title
;
Structure prediction by ZEFSAII (Michael W. Deem and Ramdas Pophale) SiO2 
 PCOD9387841
Probable space group: P M M M
;
_chemical_formula_sum "Si O2"
_cell_formula_units_Z 48
_cell_length_a 33.080026
_cell_length_b 9.580836
_cell_length_c 8.390124
_cell_angle_alpha 90.000000
_cell_angle_beta 90.000000
_cell_angle_gamma 90.000000
_cell_volume 2659.118110
_symmetry_space_group_name_H-M "P M M M"
_symmetry_group_IT_number 47
_symmetry_cell_setting 'orthorhombic'
loop_
_space_group_symop_operation_xyz
x,y,z
-x,-y,z
x,-y,-z
-x,y,-z
-x,-y,-z
x,y,-z
-x,y,z
x,-y,z
loop_
_atom_site_type_symbol
_atom_site_label
_atom_site_fract_x
_atom_site_fract_y
_atom_site_fract_z
Si Si1 0.453006 0.670170 0.500000
Si Si2 0.163076 0.660292 0.190367
Si Si3 0.405178 0.330436 0.817481
Si Si4 0.000000 0.840979 0.190382
Si Si5 0.762180 0.841028 0.689876
Si Si6 0.074815 0.660526 0.309564
Si Si7 0.311540 0.339886 0.809501
O O1 0.450926 0.500000 0.500000
O O2 0.500000 0.709878 0.500000
O O3 0.431670 0.716278 0.334303
O O4 0.170135 0.500000 0.245225
O O5 0.199731 0.757072 0.242557
O O6 0.119600 0.705725 0.257141
O O7 0.160770 0.659418 0.000000
O O8 0.407550 0.500000 0.822015
O O9 0.358129 0.296813 0.784571
O O10 0.415621 0.283841 0.000000
O O11 0.039662 0.758523 0.245777
O O12 0.000000 0.000000 0.251425
O O13 0.000000 0.844750 0.000000
O O14 0.765983 0.843952 0.500000
O O15 0.721165 0.760966 0.734058
O O16 0.761391 0.000000 0.750314
O O17 0.072881 0.659442 0.500000
O O18 0.069152 0.500000 0.252440
O O19 0.306588 0.500000 0.752027
O O20 0.305143 0.341236 0.000000
#
# Coordination Sequence:
#
# PCOD9387841 Si02
#       7
#     4   8   8   4   8   8   8
#     4   9  16  24  38  64  97 135 175 211 261 324
#     4  10  21  38  60  83 106 137 178 219 261 314
#     4   8  15  27  42  64  95 129 170 218 263 314
#     4  11  24  39  56  82 114 147 182 217 260 314
#     4  11  24  37  50  75 109 141 174 214 263 318
#     4  10  21  38  61  86 110 138 175 219 265 312
#     4   9  18  33  53  75  98 131 177 222 263 312
#
# _framework density 18.051098
#
# number of rings (size 3 to 8) (size 9 to 14) (size 15 to 20)
#    0.000    2.333    0.000    3.500    1.167    8.333 
#    0.000    1.667    0.000    0.000    0.000    0.000 
#    0.000    1.333    0.000    3.667    0.000    3.667 
#
# Total GULP energy -267790.149101 kJ/mol
# GULP energy per Si atom -5578.961440 kJ/mol
# Density = 1.801001 g / cm^3
# Si number density = 18.051098 Si / 1000 Ang^3
#
#
#
# Elastic Constant Matrix: (Units=GPa)
#
#
# Indices 1 2 3 4 5 6 
#
# 1 129.8119 62.9658 72.4652 0.0000 0.0000 0.0000
# 2 62.9658 61.2032 34.6757 0.0000 0.0000 0.0000
# 3 72.4652 34.6757 81.6485 0.0000 0.0000 0.0000
# 4 0.0000 0.0000 0.0000 20.5150 0.0000 0.0000
# 5 0.0000 0.0000 0.0000 0.0000 39.3797 0.0000
# 6 0.0000 0.0000 0.0000 0.0000 0.0000 -7.6031
#
#
#
# Elastic Compliance Matrix: (Units=1/GPa)
#
#
# Indices 1 2 3 4 5 6 
#
# 1 0.023147 -0.016032 -0.013735 0.000000 0.000000 0.000000
# 2 -0.016032 0.032620 0.000375 0.000000 0.000000 0.000000
# 3 -0.013735 0.000375 0.024278 0.000000 0.000000 0.000000
# 4 0.000000 0.000000 0.000000 0.048745 0.000000 0.000000
# 5 0.000000 0.000000 0.000000 0.000000 0.025394 0.000000
# 6 0.000000 0.000000 0.000000 0.000000 0.000000 -0.131526
#
#
# Mechanical properties :
#
#
# Convention : Reuss Voigt Hill
#
# Bulk Modulus (GPa) = 47.03191 68.09743 57.56467
# Shear Modulus (GPa) = 56.47812 17.29543 36.88678
#
# Velocity S-wave (km/s) = 5.59963 3.09874 4.52537
# Velocity P-wave (km/s) = 8.24131 7.11404 7.69834
#
# Compressibility (1/GPa) = 0.02126216
#
# Stress axis : x y z
#
# Youngs Moduli (GPa) = 43.20188 30.65591 41.18881
#
# Poissons Ratio (x) = 0.49147 0.56573
# Poissons Ratio (y) = 0.69261 -0.01545
# Poissons Ratio (z) = 0.59338 -0.01150
#
# Static dielectric constant tensor:
#      x y z
#    x 1.592880 0.000000 0.000000 
#    y 0.000000 1.610560 0.000000 
#    z 0.000000 0.000000 1.624770 
# 
# From -- ./inp_files/13984.got.cif
#   From: 2010.05.17/outbox.cif.g08.bks.cpg/sg47_7_cif.got.tgz:13984.got - 2010.06.03 20:15:42.
