data_PCOD9387091
_publ_section_title
;
Structure prediction by ZEFSAII (Michael W. Deem and Ramdas Pophale) SiO2 
 PCOD9387091
Probable space group: P M M M
;
_chemical_formula_sum "Si O2"
_cell_formula_units_Z 36
_cell_length_a 8.734513
_cell_length_b 14.639859
_cell_length_c 13.797099
_cell_angle_alpha 90.000000
_cell_angle_beta 90.000000
_cell_angle_gamma 90.000000
_cell_volume 1764.263178
_symmetry_space_group_name_H-M "P M M M"
_symmetry_group_IT_number 47
_symmetry_cell_setting 'orthorhombic'
loop_
_space_group_symop_operation_xyz
x,y,z
-x,-y,z
x,-y,-z
-x,y,-z
-x,-y,-z
x,y,-z
-x,y,z
x,-y,z
loop_
_atom_site_type_symbol
_atom_site_label
_atom_site_fract_x
_atom_site_fract_y
_atom_site_fract_z
Si Si1 0.186989 0.894678 0.000000
Si Si2 0.317270 0.604721 0.885157
Si Si3 0.679179 0.209088 0.390345
Si Si4 0.182275 0.211139 0.191803
Si Si5 0.173372 0.399657 0.384221
O O1 0.239308 0.844245 0.097732
O O2 0.000000 0.891279 0.000000
O O3 0.232893 0.000000 0.000000
O O4 0.500000 0.610846 0.868017
O O5 0.269294 0.500000 0.865777
O O6 0.233414 0.684001 0.826617
O O7 0.291183 0.620513 0.000000
O O8 0.737428 0.186662 0.500000
O O9 0.500000 0.189101 0.388695
O O10 0.758162 0.170833 0.293811
O O11 0.709230 0.317284 0.374792
O O12 0.000000 0.207230 0.193107
O O13 0.158895 0.407459 0.500000
O O14 0.220084 0.500000 0.348166
O O15 0.000000 0.377876 0.348552
#
# Coordination Sequence:
#
# PCOD9387091 Si02
#       5
#     4   8   8   8   8
#     4   9  20  40  64  91 118 140 171 223 286 345
#     4   9  18  33  53  78 113 156 194 230 276 330
#     4  10  21  35  51  74 107 148 189 228 274 329
#     4  11  21  35  59  87 114 147 187 233 283 331
#     4   8  14  26  44  66  95 134 183 236 279 314
#
# _framework density 20.405118999999999
#
# number of rings (size 3 to 8) (size 9 to 14) (size 15 to 20)
#    0.000    2.556    1.111    2.667    0.000    3.111 
#    0.000    3.333    0.000    6.000    0.000    4.667 
#    0.000    0.000    0.000    0.000    0.000    0.000 
#
# Total GULP energy -200650.192188 kJ/mol
# GULP energy per Si atom -5573.616450 kJ/mol
# Density = 2.035868 g / cm^3
# Si number density = 20.405119 Si / 1000 Ang^3
#
#
#
# Elastic Constant Matrix: (Units=GPa)
#
#
# Indices 1 2 3 4 5 6 
#
# 1 30.1390 5.6618 41.1174 0.0000 0.0000 0.0000
# 2 5.6618 47.3725 43.4459 0.0000 0.0000 0.0000
# 3 41.1174 43.4459 196.3400 0.0000 0.0000 0.0000
# 4 0.0000 0.0000 0.0000 0.0523 0.0000 0.0000
# 5 0.0000 0.0000 0.0000 0.0000 32.4143 0.0000
# 6 0.0000 0.0000 0.0000 0.0000 0.0000 14.0883
#
#
#
# Elastic Compliance Matrix: (Units=1/GPa)
#
#
# Indices 1 2 3 4 5 6 
#
# 1 0.047136 0.004290 -0.010820 0.000000 0.000000 0.000000
# 2 0.004290 0.026874 -0.006845 0.000000 0.000000 0.000000
# 3 -0.010820 -0.006845 0.008874 0.000000 0.000000 0.000000
# 4 0.000000 0.000000 0.000000 19.106151 0.000000 0.000000
# 5 0.000000 0.000000 0.000000 0.000000 0.030851 0.000000
# 6 0.000000 0.000000 0.000000 0.000000 0.000000 0.070981
#
#
# Mechanical properties :
#
#
# Convention : Reuss Voigt Hill
#
# Bulk Modulus (GPa) = 17.81493 50.47795 34.14644
# Shear Modulus (GPa) = 0.25858 21.55274 10.90566
#
# Velocity S-wave (km/s) = 0.35637 3.25351 2.31434
# Velocity P-wave (km/s) = 2.98645 6.23742 4.89000
#
# Compressibility (1/GPa) = 0.05613269
#
# Stress axis : x y z
#
# Youngs Moduli (GPa) = 21.21542 37.21025 112.69034
#
# Poissons Ratio (x) = -0.15963 1.21935
# Poissons Ratio (y) = -0.09101 0.77138
# Poissons Ratio (z) = 0.22956 0.25471
#
# Static dielectric constant tensor:
#      x y z
#    x 1.708130 0.000000 0.000000 
#    y 0.000000 1.725670 0.000000 
#    z 0.000000 0.000000 1.819270 
# 
# From -- ./inp_files/20572.got.cif
#   From: 2010.05.17/outbox.cif.g08.bks.cpg/sg47_11_cif.got.tgz:20572.got - 2010.06.03 20:15:42.
