data_PCOD9387151
_publ_section_title
;
Structure prediction by ZEFSAII (Michael W. Deem and Ramdas Pophale) SiO2 
 PCOD9387151
Probable space group: P M M M
;
_chemical_formula_sum "Si O2"
_cell_formula_units_Z 48
_cell_length_a 31.201015
_cell_length_b 9.077784
_cell_length_c 9.563874
_cell_angle_alpha 90.000000
_cell_angle_beta 90.000000
_cell_angle_gamma 90.000000
_cell_volume 2708.834131
_symmetry_space_group_name_H-M "P M M M"
_symmetry_group_IT_number 47
_symmetry_cell_setting 'orthorhombic'
loop_
_space_group_symop_operation_xyz
x,y,z
-x,-y,z
x,-y,-z
-x,y,-z
-x,-y,-z
x,y,-z
-x,y,z
x,-y,z
loop_
_atom_site_type_symbol
_atom_site_label
_atom_site_fract_x
_atom_site_fract_y
_atom_site_fract_z
Si Si1 0.050116 0.324052 0.836523
Si Si2 0.708394 0.824192 0.835892
Si Si3 0.124705 0.824038 0.664372
Si Si4 0.375525 0.177532 0.337379
Si Si5 0.450826 0.677145 0.836930
Si Si6 0.201097 0.675634 0.164858
O O1 0.056343 0.500000 0.818991
O O2 0.081956 0.237167 0.737284
O O3 0.000000 0.292178 0.809784
O O4 0.058893 0.290351 0.000000
O O5 0.668108 0.778906 0.742199
O O6 0.752056 0.739816 0.800780
O O7 0.715244 0.000000 0.818445
O O8 0.698718 0.797834 0.000000
O O9 0.125035 0.787915 0.500000
O O10 0.164873 0.750694 0.742192
O O11 0.126869 0.000000 0.679515
O O12 0.373998 0.219219 0.500000
O O13 0.416141 0.247343 0.260647
O O14 0.378503 0.000000 0.328540
O O15 0.500000 0.718131 0.802503
O O16 0.447642 0.500000 0.825674
O O17 0.443259 0.715681 0.000000
O O18 0.200343 0.500000 0.183017
O O19 0.193149 0.707269 0.000000
#
# Coordination Sequence:
#
# PCOD9387151 Si02
#       6
#     8   8   8   8   8   8
#     4   9  19  37  60  84 109 139 178 223 268 315
#     4   9  18  34  55  77 104 140 179 217 259 309
#     4  11  24  38  53  78 112 147 181 219 264 314
#     4  10  21  35  52  78 111 143 174 212 260 314
#     4   9  19  36  56  77 102 135 177 223 267 311
#     4  10  21  37  58  83 108 136 175 222 268 315
#
# _framework density 17.719799999999999
#
# number of rings (size 3 to 8) (size 9 to 14) (size 15 to 20)
#    0.000    2.333    0.000    3.000    0.000    8.667 
#    0.000    8.333    0.000    0.000    0.000    0.000 
#    0.000    0.000    0.000    0.000    0.000    0.000 
#
# Total GULP energy -268010.454281 kJ/mol
# GULP energy per Si atom -5583.551131 kJ/mol
# Density = 1.767947 g / cm^3
# Si number density = 17.719800 Si / 1000 Ang^3
#
#
#
# Elastic Constant Matrix: (Units=GPa)
#
#
# Indices 1 2 3 4 5 6 
#
# 1 164.5652 73.5681 129.6332 0.0000 0.0000 0.0000
# 2 73.5681 46.7076 71.9192 0.0000 0.0000 0.0000
# 3 129.6332 71.9192 135.2491 0.0000 0.0000 0.0000
# 4 0.0000 0.0000 0.0000 28.4873 0.0000 0.0000
# 5 0.0000 0.0000 0.0000 0.0000 -18.1685 0.0000
# 6 0.0000 0.0000 0.0000 0.0000 0.0000 39.6849
#
#
#
# Elastic Compliance Matrix: (Units=1/GPa)
#
#
# Indices 1 2 3 4 5 6 
#
# 1 0.026472 -0.014496 -0.017664 0.000000 0.000000 0.000000
# 2 -0.014496 0.126082 -0.053150 0.000000 0.000000 0.000000
# 3 -0.017664 -0.053150 0.052587 0.000000 0.000000 0.000000
# 4 0.000000 0.000000 0.000000 0.035103 0.000000 0.000000
# 5 0.000000 0.000000 0.000000 0.000000 -0.055040 0.000000
# 6 0.000000 0.000000 0.000000 0.000000 0.000000 0.025199
#
#
# Mechanical properties :
#
#
# Convention : Reuss Voigt Hill
#
# Bulk Modulus (GPa) = 28.96897 99.64032 64.30464
# Shear Modulus (GPa) = 12.73792 14.76082 13.74937
#
# Velocity S-wave (km/s) = 2.68405 2.88933 2.78858
# Velocity P-wave (km/s) = 5.09798 8.21487 6.83643
#
# Compressibility (1/GPa) = 0.03451969
#
# Stress axis : x y z
#
# Youngs Moduli (GPa) = 37.77639 7.93138 19.01610
#
# Poissons Ratio (x) = 0.11497 0.33590
# Poissons Ratio (y) = 0.54761 1.01071
# Poissons Ratio (z) = 0.66728 0.42155
#
# Static dielectric constant tensor:
#      x y z
#    x 1.576940 0.000000 0.000000 
#    y 0.000000 1.589120 0.000000 
#    z 0.000000 0.000000 1.585860 
# 
# From -- ./inp_files/2431.got.cif
#   From: 2010.05.17/outbox.cif.g08.bks.cpg/sg47_2_cif.got.tgz:2431.got - 2010.06.03 20:15:42.
