data_PCOD9387044
_publ_section_title
;
Structure prediction by ZEFSAII (Michael W. Deem and Ramdas Pophale) SiO2 
 PCOD9387044
Probable space group: P M M M
;
_chemical_formula_sum "Si O2"
_cell_formula_units_Z 54
_cell_length_a 20.763297
_cell_length_b 17.920009
_cell_length_c 7.350448
_cell_angle_alpha 90.000000
_cell_angle_beta 90.000000
_cell_angle_gamma 90.000000
_cell_volume 2734.943439
_symmetry_space_group_name_H-M "P M M M"
_symmetry_group_IT_number 47
_symmetry_cell_setting 'orthorhombic'
loop_
_space_group_symop_operation_xyz
x,y,z
-x,-y,z
x,-y,-z
-x,y,-z
-x,-y,-z
x,y,-z
-x,y,z
x,-y,z
loop_
_atom_site_type_symbol
_atom_site_label
_atom_site_fract_x
_atom_site_fract_y
_atom_site_fract_z
Si Si1 0.805047 0.741254 0.703480
Si Si2 0.074295 0.665599 0.276721
Si Si3 0.755887 0.419658 0.218694
Si Si4 0.426900 0.914593 0.721407
Si Si5 0.500000 0.598577 0.500000
Si Si6 0.332881 0.216375 0.721468
Si Si7 0.078072 0.500000 0.714385
Si Si8 0.387709 0.620743 0.792245
O O1 0.812908 0.772211 0.500000
O O2 0.875946 0.729499 0.785471
O O3 0.783565 0.654433 0.694195
O O4 0.741605 0.780055 0.785542
O O5 0.076119 0.664392 0.500000
O O6 0.095465 0.582299 0.212533
O O7 0.000000 0.677580 0.225292
O O8 0.782782 0.500000 0.275478
O O9 0.679772 0.417703 0.257096
O O10 0.762279 0.412856 0.000000
O O11 0.426665 0.913956 0.500000
O O12 0.500000 0.893918 0.776529
O O13 0.373476 0.855524 0.779767
O O14 0.414825 0.000000 0.777790
O O15 0.443913 0.600745 0.657010
O O16 0.330885 0.218176 0.500000
O O17 0.370488 0.290852 0.779976
O O18 0.092404 0.500000 0.500000
O O19 0.000000 0.500000 0.728851
O O20 0.403630 0.602156 0.000000
#
# Coordination Sequence:
#
# PCOD9387044 Si02
#       8
#     8   8   8   8   2   8   4   8
#     4   9  17  26  41  67  85 107 149 188 229 276
#     4   8  13  21  33  53  84 112 139 182 231 274
#     4   9  19  35  49  61  85 117 148 187 232 281
#     4   8  14  23  39  64  90 119 150 178 223 282
#     4  12  22  36  53  72  93 114 154 202 240 286
#     4   9  16  28  45  65  94 119 146 191 227 272
#     4   7  10  16  26  42  69 103 130 162 215 266
#     4  10  21  35  51  71  92 120 155 191 241 289
#
# _framework density 19.744468000000001
#
# number of rings (size 3 to 8) (size 9 to 14) (size 15 to 20)
#    0.000    3.185    0.741    1.556    3.111    0.296 
#    0.000    0.741    0.000    2.667    0.000    2.074 
#    0.000    0.593    0.000    8.296    0.000    0.000 
#
# Total GULP energy -300679.151926 kJ/mol
# GULP energy per Si atom -5568.132443 kJ/mol
# Density = 1.969953 g / cm^3
# Si number density = 19.744468 Si / 1000 Ang^3
#
#
#
# Elastic Constant Matrix: (Units=GPa)
#
#
# Indices 1 2 3 4 5 6 
#
# 1 136.2534 45.4217 17.4053 0.0000 0.0000 0.0000
# 2 45.4217 80.6786 -8.9298 0.0000 0.0000 0.0000
# 3 17.4053 -8.9298 78.3869 0.0000 0.0000 0.0000
# 4 0.0000 0.0000 0.0000 -2.1967 0.0000 0.0000
# 5 0.0000 0.0000 0.0000 0.0000 31.6444 0.0000
# 6 0.0000 0.0000 0.0000 0.0000 0.0000 36.3906
#
#
#
# Elastic Compliance Matrix: (Units=1/GPa)
#
#
# Indices 1 2 3 4 5 6 
#
# 1 0.009599 -0.005712 -0.002782 0.000000 0.000000 0.000000
# 2 -0.005712 0.015952 0.003086 0.000000 0.000000 0.000000
# 3 -0.002782 0.003086 0.013726 0.000000 0.000000 0.000000
# 4 0.000000 0.000000 0.000000 -0.455224 0.000000 0.000000
# 5 0.000000 0.000000 0.000000 0.000000 0.031601 0.000000
# 6 0.000000 0.000000 0.000000 0.000000 0.000000 0.027480
#
#
# Mechanical properties :
#
#
# Convention : Reuss Voigt Hill
#
# Bulk Modulus (GPa) = 35.13641 44.79039 39.96340
# Shear Modulus (GPa) = -14.85612 29.26243 7.20316
#
# Velocity S-wave (km/s) = -2.74600 3.85393 1.91210
# Velocity P-wave (km/s) = 2.78930 6.52211 5.01588
#
# Compressibility (1/GPa) = 0.02846050
#
# Stress axis : x y z
#
# Youngs Moduli (GPa) = 104.17944 62.68720 72.85192
#
# Poissons Ratio (x) = 0.35807 0.20268
# Poissons Ratio (y) = 0.59508 -0.22479
# Poissons Ratio (z) = 0.28983 -0.19343
#
# Static dielectric constant tensor:
#      x y z
#    x 1.761520 0.000000 0.000000 
#    y 0.000000 1.666140 0.000000 
#    z 0.000000 0.000000 1.749600 
# 
# From -- ./inp_files/11543.got.cif
#   From: 2010.05.17/outbox.cif.g08.bks.cpg/sg47_6_cif.got.tgz:11543.got - 2010.06.03 20:15:42.
