data_PCOD9387799
_publ_section_title
;
Structure prediction by ZEFSAII (Michael W. Deem and Ramdas Pophale) SiO2 
 PCOD9387799
Probable space group: P M M M
;
_chemical_formula_sum "Si O2"
_cell_formula_units_Z 48
_cell_length_a 19.275049
_cell_length_b 8.728455
_cell_length_c 15.910493
_cell_angle_alpha 90.000000
_cell_angle_beta 90.000000
_cell_angle_gamma 90.000000
_cell_volume 2676.803582
_symmetry_space_group_name_H-M "P M M M"
_symmetry_group_IT_number 47
_symmetry_cell_setting 'orthorhombic'
loop_
_space_group_symop_operation_xyz
x,y,z
-x,-y,z
x,-y,-z
-x,y,-z
-x,-y,-z
x,y,-z
-x,y,z
x,-y,z
loop_
_atom_site_type_symbol
_atom_site_label
_atom_site_fract_x
_atom_site_fract_y
_atom_site_fract_z
Si Si1 0.584220 0.676784 0.500000
Si Si2 0.916305 0.818219 0.408218
Si Si3 0.417179 0.321779 0.000000
Si Si4 0.920194 0.315598 0.232219
Si Si5 0.193180 0.685470 0.902242
Si Si6 0.581385 0.686108 0.684039
Si Si7 0.338865 0.182537 0.842125
O O1 0.608008 0.500000 0.500000
O O2 0.500000 0.673147 0.500000
O O3 0.603312 0.742699 0.590790
O O4 0.890630 0.762736 0.500000
O O5 0.891905 0.739938 0.322608
O O6 0.000000 0.797123 0.409126
O O7 0.903329 0.000000 0.403434
O O8 0.387247 0.240867 0.082072
O O9 0.394737 0.500000 0.000000
O O10 0.500000 0.316962 0.000000
O O11 0.921428 0.500000 0.233408
O O12 0.871830 0.266812 0.155193
O O13 0.000000 0.261763 0.222680
O O14 0.197331 0.500000 0.900315
O O15 0.262800 0.753081 0.862405
O O16 0.187093 0.731561 0.000000
O O17 0.500000 0.726149 0.697890
O O18 0.584636 0.500000 0.684531
O O19 0.629271 0.752321 0.756351
O O20 0.337523 0.000000 0.840035
#
# Coordination Sequence:
#
# PCOD9387799 Si02
#       7
#     4   8   4   8   8   8   8
#     4   7  12  26  51  81 107 135 176 219 256 303
#     4   8  14  26  46  73 105 140 172 202 249 314
#     4  11  23  39  59  81 106 139 180 223 267 318
#     4   9  18  32  53  83 110 132 170 224 271 311
#     4  10  21  38  58  75 100 142 182 216 265 328
#     4   9  17  32  56  83 110 142 180 220 263 314
#     4  12  24  36  53  79 110 143 179 222 269 317
#
# _framework density 17.931836000000001
#
# number of rings (size 3 to 8) (size 9 to 14) (size 15 to 20)
#    0.000    2.500    0.833    3.750    0.000    4.333 
#    0.000    3.750    1.833    1.500    0.000    3.500 
#    0.000    0.000    0.000    0.000    0.000    0.000 
#
# Total GULP energy -267567.547968 kJ/mol
# GULP energy per Si atom -5574.323916 kJ/mol
# Density = 1.789102 g / cm^3
# Si number density = 17.931836 Si / 1000 Ang^3
#
#
#
# Elastic Constant Matrix: (Units=GPa)
#
#
# Indices 1 2 3 4 5 6 
#
# 1 74.6579 25.2719 82.1816 0.0000 0.0000 0.0000
# 2 25.2719 25.7532 41.3015 0.0000 0.0000 0.0000
# 3 82.1816 41.3015 214.8629 0.0000 0.0000 0.0000
# 4 0.0000 0.0000 0.0000 -15.3242 0.0000 0.0000
# 5 0.0000 0.0000 0.0000 0.0000 123.1569 0.0000
# 6 0.0000 0.0000 0.0000 0.0000 0.0000 1.8913
#
#
#
# Elastic Compliance Matrix: (Units=1/GPa)
#
#
# Indices 1 2 3 4 5 6 
#
# 1 0.026188 -0.013928 -0.007339 0.000000 0.000000 0.000000
# 2 -0.013928 0.063543 -0.006887 0.000000 0.000000 0.000000
# 3 -0.007339 -0.006887 0.008785 0.000000 0.000000 0.000000
# 4 0.000000 0.000000 0.000000 -0.065256 0.000000 0.000000
# 5 0.000000 0.000000 0.000000 0.000000 0.008120 0.000000
# 6 0.000000 0.000000 0.000000 0.000000 0.000000 0.528748
#
#
# Mechanical properties :
#
#
# Convention : Reuss Voigt Hill
#
# Bulk Modulus (GPa) = 23.69269 68.08709 45.88989
# Shear Modulus (GPa) = 7.80632 33.04606 20.42619
#
# Velocity S-wave (km/s) = 2.08873 4.29752 3.37872
# Velocity P-wave (km/s) = 4.36559 7.91690 6.39280
#
# Compressibility (1/GPa) = 0.04220711
#
# Stress axis : x y z
#
# Youngs Moduli (GPa) = 38.18548 15.73730 113.82952
#
# Poissons Ratio (x) = 0.21920 0.83541
# Poissons Ratio (y) = 0.53187 0.78395
# Poissons Ratio (z) = 0.28025 0.10838
#
# Static dielectric constant tensor:
#      x y z
#    x 1.601350 0.000000 0.000000 
#    y 0.000000 1.602170 0.000000 
#    z 0.000000 0.000000 1.640160 
# 
# From -- ./inp_files/24469.got.cif
#   From: 2010.05.17/outbox.cif.g08.bks.cpg/sg47_13_cif.got.tgz:24469.got - 2010.06.03 20:15:42.
