data_PCOD9387239
_publ_section_title
;
Structure prediction by ZEFSAII (Michael W. Deem and Ramdas Pophale) SiO2 
 PCOD9387239
Probable space group: P M M M
;
_chemical_formula_sum "Si O2"
_cell_formula_units_Z 64
_cell_length_a 25.103456
_cell_length_b 14.735841
_cell_length_c 8.892784
_cell_angle_alpha 90.000000
_cell_angle_beta 90.000000
_cell_angle_gamma 90.000000
_cell_volume 3289.623425
_symmetry_space_group_name_H-M "P M M M"
_symmetry_group_IT_number 47
_symmetry_cell_setting 'orthorhombic'
loop_
_space_group_symop_operation_xyz
x,y,z
-x,-y,z
x,-y,-z
-x,y,-z
-x,-y,-z
x,y,-z
-x,y,z
x,-y,z
loop_
_atom_site_type_symbol
_atom_site_label
_atom_site_fract_x
_atom_site_fract_y
_atom_site_fract_z
Si Si1 0.779092 0.393222 0.681300
Si Si2 0.441384 0.338223 0.320814
Si Si3 0.937496 0.102137 0.180665
Si Si4 0.666300 0.104891 0.335505
Si Si5 0.767514 0.109511 0.831205
Si Si6 0.441487 0.858470 0.177372
Si Si7 0.148106 0.771419 0.676587
Si Si8 0.332123 0.607605 0.169312
O O1 0.774199 0.387511 0.500000
O O2 0.788493 0.500000 0.718656
O O3 0.826565 0.324877 0.728181
O O4 0.722771 0.361610 0.752476
O O5 0.437837 0.320330 0.500000
O O6 0.500000 0.384128 0.297417
O O7 0.443612 0.246509 0.224256
O O8 0.386135 0.380868 0.265279
O O9 0.903203 0.184468 0.245304
O O10 0.000000 0.110383 0.218599
O O11 0.919629 0.000000 0.230139
O O12 0.932778 0.103218 0.000000
O O13 0.670125 0.149588 0.500000
O O14 0.707863 0.139589 0.213074
O O15 0.606923 0.105494 0.274135
O O16 0.681370 0.000000 0.352700
O O17 0.806067 0.155074 0.711949
O O18 0.772016 0.000000 0.829743
O O19 0.781349 0.139537 0.000000
O O20 0.500000 0.896595 0.211939
O O21 0.431771 0.870272 0.000000
O O22 0.137949 0.764258 0.500000
O O23 0.325211 0.500000 0.155853
O O24 0.338491 0.645929 0.000000
#
# Coordination Sequence:
#
# PCOD9387239 Si02
#       8
#     8   8   8   8   8   8   8   8
#     4   9  20  39  58  78 110 151 193 237 286 342
#     4  10  21  36  54  75 100 132 170 215 270 336
#     4   9  19  37  60  87 123 165 202 234 273 328
#     4  10  21  36  53  73  99 131 169 216 267 321
#     4  10  21  36  53  76 110 149 185 222 271 335
#     4  10  21  36  53  72  95 126 166 213 264 322
#     4  11  22  34  56  88 116 149 192 238 286 332
#     4  10  21  36  55  79 105 134 172 222 279 338
#
# _framework density 19.455116
#
# number of rings (size 3 to 8) (size 9 to 14) (size 15 to 20)
#    0.000    2.125    0.000    3.000    1.750    7.250 
#    0.000    3.125    0.000    0.375    0.000    2.625 
#    0.000    0.000    0.000    0.000    0.000    0.000 
#
# Total GULP energy -356782.463536 kJ/mol
# GULP energy per Si atom -5574.725993 kJ/mol
# Density = 1.941084 g / cm^3
# Si number density = 19.455116 Si / 1000 Ang^3
#
#
#
# Elastic Constant Matrix: (Units=GPa)
#
#
# Indices 1 2 3 4 5 6 
#
# 1 104.3553 40.8867 27.1159 0.0000 0.0000 0.0000
# 2 40.8867 75.3593 17.9002 0.0000 0.0000 0.0000
# 3 27.1159 17.9002 40.9754 0.0000 0.0000 0.0000
# 4 0.0000 0.0000 0.0000 21.7849 0.0000 0.0000
# 5 0.0000 0.0000 0.0000 0.0000 38.1031 0.0000
# 6 0.0000 0.0000 0.0000 0.0000 0.0000 2.0313
#
#
#
# Elastic Compliance Matrix: (Units=1/GPa)
#
#
# Indices 1 2 3 4 5 6 
#
# 1 0.013527 -0.005817 -0.006411 0.000000 0.000000 0.000000
# 2 -0.005817 0.017307 -0.003711 0.000000 0.000000 0.000000
# 3 -0.006411 -0.003711 0.030269 0.000000 0.000000 0.000000
# 4 0.000000 0.000000 0.000000 0.045903 0.000000 0.000000
# 5 0.000000 0.000000 0.000000 0.000000 0.026245 0.000000
# 6 0.000000 0.000000 0.000000 0.000000 0.000000 0.492288
#
#
# Mechanical properties :
#
#
# Convention : Reuss Voigt Hill
#
# Bulk Modulus (GPa) = 34.21686 43.61062 38.91374
# Shear Modulus (GPa) = 7.49446 21.36968 14.43207
#
# Velocity S-wave (km/s) = 1.96483 3.31782 2.72658
# Velocity P-wave (km/s) = 4.77212 6.09442 5.47335
#
# Compressibility (1/GPa) = 0.02922536
#
# Stress axis : x y z
#
# Youngs Moduli (GPa) = 73.92385 57.77948 33.03740
#
# Poissons Ratio (x) = 0.33608 0.21180
# Poissons Ratio (y) = 0.42999 0.12262
# Poissons Ratio (z) = 0.47392 0.21445
#
# Static dielectric constant tensor:
#      x y z
#    x 1.694380 0.000000 0.000000 
#    y 0.000000 1.731470 0.000000 
#    z 0.000000 0.000000 1.689240 
# 
# From -- ./inp_files/7815.got.cif
#   From: 2010.05.17/outbox.cif.g08.bks.cpg/sg47_4_cif.got.tgz:7815.got - 2010.06.03 20:15:42.
