data_PCOD9387083
_publ_section_title
;
Structure prediction by ZEFSAII (Michael W. Deem and Ramdas Pophale) SiO2 
 PCOD9387083
Probable space group: P M M M
;
_chemical_formula_sum "Si O2"
_cell_formula_units_Z 48
_cell_length_a 9.447279
_cell_length_b 31.717966
_cell_length_c 9.144372
_cell_angle_alpha 90.000000
_cell_angle_beta 90.000000
_cell_angle_gamma 90.000000
_cell_volume 2740.097117
_symmetry_space_group_name_H-M "P M M M"
_symmetry_group_IT_number 47
_symmetry_cell_setting 'orthorhombic'
loop_
_space_group_symop_operation_xyz
x,y,z
-x,-y,z
x,-y,-z
-x,y,-z
-x,-y,-z
x,y,-z
-x,y,z
x,-y,z
loop_
_atom_site_type_symbol
_atom_site_label
_atom_site_fract_x
_atom_site_fract_y
_atom_site_fract_z
Si Si1 0.163615 0.500000 0.678588
Si Si2 0.667267 0.924583 0.324614
Si Si3 0.668870 0.828204 0.672991
Si Si4 0.831895 0.753119 0.172865
Si Si5 0.833523 0.000000 0.174550
Si Si6 0.663256 0.417312 0.678362
Si Si7 0.166461 0.334241 0.675606
O O1 0.162845 0.500000 0.500000
O O2 0.247297 0.541891 0.725183
O O3 0.000000 0.500000 0.725486
O O4 0.684185 0.929072 0.500000
O O5 0.500000 0.930533 0.293325
O O6 0.705872 0.876369 0.285595
O O7 0.758942 0.959013 0.242339
O O8 0.698327 0.823379 0.500000
O O9 0.500000 0.823741 0.692723
O O10 0.750461 0.792783 0.761298
O O11 0.789019 0.709349 0.249613
O O12 0.000000 0.758289 0.199364
O O13 0.808560 0.750132 0.000000
O O14 0.000000 0.000000 0.209387
O O15 0.816778 0.000000 0.000000
O O16 0.663227 0.417683 0.500000
O O17 0.500000 0.419282 0.725662
O O18 0.740559 0.374169 0.722684
O O19 0.178710 0.329861 0.500000
O O20 0.000000 0.341801 0.708530
#
# Coordination Sequence:
#
# PCOD9387083 Si02
#       7
#     4   8   8   8   4   8   8
#     4   9  15  23  37  59  90 125 156 189 236 294
#     4   9  19  37  59  80 102 132 172 214 254 300
#     4   9  19  36  57  80 104 131 167 211 256 302
#     4  10  21  35  51  74 104 136 169 207 252 301
#     4  11  24  37  50  76 112 143 172 209 252 298
#     4   9  16  25  39  62  91 121 155 198 245 289
#     4   9  17  30  47  66  91 126 166 203 241 290
#
# _framework density 17.517627999999998
#
# number of rings (size 3 to 8) (size 9 to 14) (size 15 to 20)
#    0.000    2.667    0.000    2.750    0.000    8.333 
#    0.000    6.667    0.000    0.000    0.000    0.583 
#    0.000    4.667    0.000    0.000    0.000    0.000 
#
# Total GULP energy -267768.409455 kJ/mol
# GULP energy per Si atom -5578.508530 kJ/mol
# Density = 1.747776 g / cm^3
# Si number density = 17.517628 Si / 1000 Ang^3
#
#
#
# Elastic Constant Matrix: (Units=GPa)
#
#
# Indices 1 2 3 4 5 6 
#
# 1 105.6781 111.6595 44.1208 0.0000 0.0000 0.0000
# 2 111.6595 200.8945 62.4738 0.0000 0.0000 0.0000
# 3 44.1208 62.4738 24.1379 0.0000 0.0000 0.0000
# 4 0.0000 0.0000 0.0000 -9.4198 0.0000 0.0000
# 5 0.0000 0.0000 0.0000 0.0000 20.0828 0.0000
# 6 0.0000 0.0000 0.0000 0.0000 0.0000 38.4052
#
#
#
# Elastic Compliance Matrix: (Units=1/GPa)
#
#
# Indices 1 2 3 4 5 6 
#
# 1 0.040213 0.002600 -0.080233 0.000000 0.000000 0.000000
# 2 0.002600 0.025679 -0.071213 0.000000 0.000000 0.000000
# 3 -0.080233 -0.071213 0.372398 0.000000 0.000000 0.000000
# 4 0.000000 0.000000 0.000000 -0.106159 0.000000 0.000000
# 5 0.000000 0.000000 0.000000 0.000000 0.049794 0.000000
# 6 0.000000 0.000000 0.000000 0.000000 0.000000 0.026038
#
#
# Mechanical properties :
#
#
# Convention : Reuss Voigt Hill
#
# Bulk Modulus (GPa) = 7.11254 85.24654 46.17954
# Shear Modulus (GPa) = 6.64434 17.31074 11.97754
#
# Velocity S-wave (km/s) = 1.94966 3.14696 2.61768
# Velocity P-wave (km/s) = 3.02279 7.87232 5.96283
#
# Compressibility (1/GPa) = 0.14059665
#
# Stress axis : x y z
#
# Youngs Moduli (GPa) = 24.86749 38.94296 2.68530
#
# Poissons Ratio (x) = -0.10124 0.21545
# Poissons Ratio (y) = -0.06465 0.19123
# Poissons Ratio (z) = 1.99519 2.77326
#
# Static dielectric constant tensor:
#      x y z
#    x 1.583440 0.000000 0.000000 
#    y 0.000000 1.576100 0.000000 
#    z 0.000000 0.000000 1.571920 
# 
# From -- ./inp_files/2797.got.cif
#   From: 2010.05.17/outbox.cif.g08.bks.cpg/sg47_2_cif.got.tgz:2797.got - 2010.06.03 20:15:42.
