data_PCOD9387487
_publ_section_title
;
Structure prediction by ZEFSAII (Michael W. Deem and Ramdas Pophale) SiO2 
 PCOD9387487
Probable space group: P M M M
;
_chemical_formula_sum "Si O2"
_cell_formula_units_Z 48
_cell_length_a 8.178689
_cell_length_b 9.202178
_cell_length_c 32.914782
_cell_angle_alpha 90.000000
_cell_angle_beta 90.000000
_cell_angle_gamma 90.000000
_cell_volume 2477.224160
_symmetry_space_group_name_H-M "P M M M"
_symmetry_group_IT_number 47
_symmetry_cell_setting 'orthorhombic'
loop_
_space_group_symop_operation_xyz
x,y,z
-x,-y,z
x,-y,-z
-x,y,-z
-x,-y,-z
x,y,-z
-x,y,z
x,-y,z
loop_
_atom_site_type_symbol
_atom_site_label
_atom_site_fract_x
_atom_site_fract_y
_atom_site_fract_z
Si Si1 0.804767 0.667213 0.675956
Si Si2 0.806522 0.835632 0.842610
Si Si3 0.500000 0.329026 0.548712
Si Si4 0.305942 0.336614 0.921045
Si Si5 0.693479 0.667433 0.235404
Si Si6 0.193527 0.174479 0.591751
Si Si7 0.805659 0.162941 0.000000
O O1 0.751104 0.500000 0.667574
O O2 0.727627 0.715509 0.718469
O O3 0.772931 0.769018 0.637525
O O4 0.000000 0.664687 0.681796
O O5 0.733008 0.740339 0.878640
O O6 0.773562 0.765024 0.798944
O O7 0.000000 0.840394 0.849352
O O8 0.741335 0.000000 0.843976
O O9 0.500000 0.500000 0.560707
O O10 0.500000 0.321079 0.500000
O O11 0.334142 0.251635 0.565034
O O12 0.500000 0.345327 0.924958
O O13 0.237095 0.500000 0.921411
O O14 0.243846 0.246668 0.959397
O O15 0.500000 0.667595 0.228322
O O16 0.752984 0.500000 0.232303
O O17 0.000000 0.211137 0.582435
O O18 0.208216 0.000000 0.588962
O O19 0.000000 0.152863 0.000000
O O20 0.735329 0.000000 0.000000
#
# Coordination Sequence:
#
# PCOD9387487 Si02
#       7
#     8   8   4   8   8   8   4
#     4   9  18  34  57  85 118 158 202 248 299 357
#     4  11  24  40  58  82 113 151 195 241 290 346
#     4  11  25  43  65  93 125 165 215 267 317 376
#     4  11  24  41  62  88 116 147 187 234 284 342
#     4  10  21  36  56  85 118 153 196 243 291 347
#     4  10  22  40  63  93 129 167 208 259 320 383
#     4  11  24  41  62  90 120 149 186 229 276 336
#
# _framework density 19.376525999999998
#
# number of rings (size 3 to 8) (size 9 to 14) (size 15 to 20)
#    0.000    1.667    0.000    3.750    1.167   12.000 
#    0.000    3.333    0.000    0.000    0.000    0.000 
#    0.000    0.000    0.000    0.000    0.000    0.000 
#
# Total GULP energy -268115.408091 kJ/mol
# GULP energy per Si atom -5585.737669 kJ/mol
# Density = 1.933242 g / cm^3
# Si number density = 19.376526 Si / 1000 Ang^3
#
#
#
# Elastic Constant Matrix: (Units=GPa)
#
#
# Indices 1 2 3 4 5 6 
#
# 1 68.6153 48.6338 40.7025 0.0000 0.0000 0.0000
# 2 48.6338 136.6133 68.9542 0.0000 0.0000 0.0000
# 3 40.7025 68.9542 98.2319 0.0000 0.0000 0.0000
# 4 0.0000 0.0000 0.0000 98.1475 0.0000 0.0000
# 5 0.0000 0.0000 0.0000 0.0000 41.3195 0.0000
# 6 0.0000 0.0000 0.0000 0.0000 0.0000 25.5710
#
#
#
# Elastic Compliance Matrix: (Units=1/GPa)
#
#
# Indices 1 2 3 4 5 6 
#
# 1 0.021192 -0.004820 -0.005398 0.000000 0.000000 0.000000
# 2 -0.004820 0.012433 -0.006730 0.000000 0.000000 0.000000
# 3 -0.005398 -0.006730 0.017141 0.000000 0.000000 0.000000
# 4 0.000000 0.000000 0.000000 0.010189 0.000000 0.000000
# 5 0.000000 0.000000 0.000000 0.000000 0.024202 0.000000
# 6 0.000000 0.000000 0.000000 0.000000 0.000000 0.039107
#
#
# Mechanical properties :
#
#
# Convention : Reuss Voigt Hill
#
# Bulk Modulus (GPa) = 59.27554 68.89351 64.08453
# Shear Modulus (GPa) = 30.52847 42.68560 36.60703
#
# Velocity S-wave (km/s) = 3.97361 4.69866 4.35126
# Velocity P-wave (km/s) = 7.19101 8.06652 7.64132
#
# Compressibility (1/GPa) = 0.01687036
#
# Stress axis : x y z
#
# Youngs Moduli (GPa) = 47.18713 80.43277 58.34068
#
# Poissons Ratio (x) = 0.38768 0.31490
# Poissons Ratio (y) = 0.22744 0.39264
# Poissons Ratio (z) = 0.25470 0.54132
#
# Static dielectric constant tensor:
#      x y z
#    x 1.677080 0.000000 0.000000 
#    y 0.000000 1.692920 0.000000 
#    z 0.000000 0.000000 1.643420 
# 
# From -- ./inp_files/34199.got.cif
#   From: 2010.05.17/outbox.cif.g08.bks.cpg/sg47_18_cif.got.tgz:34199.got - 2010.06.03 20:15:42.
