data_PCOD9387931
_publ_section_title
;
Structure prediction by ZEFSAII (Michael W. Deem and Ramdas Pophale) SiO2 
 PCOD9387931
Probable space group: P M M M
;
_chemical_formula_sum "Si O2"
_cell_formula_units_Z 33
_cell_length_a 28.086039
_cell_length_b 7.358179
_cell_length_c 7.579823
_cell_angle_alpha 90.000000
_cell_angle_beta 90.000000
_cell_angle_gamma 90.000000
_cell_volume 1566.462157
_symmetry_space_group_name_H-M "P M M M"
_symmetry_group_IT_number 47
_symmetry_cell_setting 'orthorhombic'
loop_
_space_group_symop_operation_xyz
x,y,z
-x,-y,z
x,-y,-z
-x,y,-z
-x,-y,-z
x,y,-z
-x,y,z
x,-y,z
loop_
_atom_site_type_symbol
_atom_site_label
_atom_site_fract_x
_atom_site_fract_y
_atom_site_fract_z
Si Si1 0.232537 0.208115 0.711969
Si Si2 0.664448 0.221153 0.702533
Si Si3 0.054514 0.500000 0.216507
Si Si4 0.500000 0.500000 0.000000
Si Si5 0.128741 0.794893 0.210752
Si Si6 0.588592 0.779735 0.000000
O O1 0.235928 0.203252 0.500000
O O2 0.283521 0.285548 0.768760
O O3 0.181145 0.287624 0.755632
O O4 0.230112 0.000000 0.779703
O O5 0.656819 0.279325 0.500000
O O6 0.667791 0.000000 0.700590
O O7 0.621372 0.265769 0.830589
O O8 0.085439 0.672809 0.275239
O O9 0.000000 0.500000 0.274382
O O10 0.054094 0.500000 0.000000
O O11 0.541716 0.659668 0.000000
O O12 0.127592 0.000000 0.283409
O O13 0.123980 0.805530 0.000000
O O14 0.580003 0.000000 0.000000
#
# Coordination Sequence:
#
# PCOD9387931 Si02
#       6
#     8   8   4   1   8   4
#     4   8  14  26  47  76 107 133 159 198 249 310
#     4   8  15  30  55  86 113 143 183 217 262 330
#     4   9  18  32  46  63  91 124 164 217 259 288
#     4  12  26  44  58  86 116 138 198 240 260 322
#     4   9  17  28  46  71  95 124 162 200 247 307
#     4  10  21  39  63  82 111 153 180 225 278 307
#
# _framework density 21.066579000000001
#
# number of rings (size 3 to 8) (size 9 to 14) (size 15 to 20)
#    0.000    3.273    0.000    1.636    1.697    0.485 
#    0.000    6.061    0.000    7.273    0.000    3.394 
#    0.000    0.000    0.000    0.000    0.000    0.000 
#
# Total GULP energy -183761.191196 kJ/mol
# GULP energy per Si atom -5568.520945 kJ/mol
# Density = 2.101863 g / cm^3
# Si number density = 21.066579 Si / 1000 Ang^3
#
#
#
# Elastic Constant Matrix: (Units=GPa)
#
#
# Indices 1 2 3 4 5 6 
#
# 1 269.3687 84.8226 50.7389 0.0000 0.0000 0.0000
# 2 84.8226 112.0550 17.0764 0.0000 0.0000 0.0000
# 3 50.7389 17.0764 68.0584 0.0000 0.0000 0.0000
# 4 0.0000 0.0000 0.0000 -8.8471 0.0000 0.0000
# 5 0.0000 0.0000 0.0000 0.0000 -2.7353 0.0000
# 6 0.0000 0.0000 0.0000 0.0000 0.0000 54.4220
#
#
#
# Elastic Compliance Matrix: (Units=1/GPa)
#
#
# Indices 1 2 3 4 5 6 
#
# 1 0.005455 -0.003649 -0.003151 0.000000 0.000000 0.000000
# 2 -0.003649 0.011720 -0.000220 0.000000 0.000000 0.000000
# 3 -0.003151 -0.000220 0.017098 0.000000 0.000000 0.000000
# 4 0.000000 0.000000 0.000000 -0.113032 0.000000 0.000000
# 5 0.000000 0.000000 0.000000 0.000000 -0.365585 0.000000
# 6 0.000000 0.000000 0.000000 0.000000 0.000000 0.018375
#
#
# Mechanical properties :
#
#
# Convention : Reuss Voigt Hill
#
# Bulk Modulus (GPa) = 49.42702 83.86199 66.64450
# Shear Modulus (GPa) = -12.34008 28.35752 8.00872
#
# Velocity S-wave (km/s) = -2.42289 3.67289 1.95189
# Velocity P-wave (km/s) = 3.96056 7.60798 6.06496
#
# Compressibility (1/GPa) = 0.02023185
#
# Stress axis : x y z
#
# Youngs Moduli (GPa) = 183.31676 85.32421 58.48692
#
# Poissons Ratio (x) = 0.31136 0.18431
# Poissons Ratio (y) = 0.66894 0.01288
# Poissons Ratio (z) = 0.57768 0.01879
#
# Static dielectric constant tensor:
#      x y z
#    x 1.729440 0.000000 0.000000 
#    y 0.000000 1.741910 0.000000 
#    z 0.000000 0.000000 1.767410 
# 
# From -- ./inp_files/12031.got.cif
#   From: 2010.05.17/outbox.cif.g08.bks.cpg/sg47_7_cif.got.tgz:12031.got - 2010.06.03 20:15:42.
