data_PCOD9387552
_publ_section_title
;
Structure prediction by ZEFSAII (Michael W. Deem and Ramdas Pophale) SiO2 
 PCOD9387552
Probable space group: P M M M
;
_chemical_formula_sum "Si O2"
_cell_formula_units_Z 44
_cell_length_a 8.479954
_cell_length_b 9.743987
_cell_length_c 29.318077
_cell_angle_alpha 90.000000
_cell_angle_beta 90.000000
_cell_angle_gamma 90.000000
_cell_volume 2422.510530
_symmetry_space_group_name_H-M "P M M M"
_symmetry_group_IT_number 47
_symmetry_cell_setting 'orthorhombic'
loop_
_space_group_symop_operation_xyz
x,y,z
-x,-y,z
x,-y,-z
-x,y,-z
-x,-y,-z
x,y,-z
-x,y,z
x,-y,z
loop_
_atom_site_type_symbol
_atom_site_label
_atom_site_fract_x
_atom_site_fract_y
_atom_site_fract_z
Si Si1 0.309592 0.842844 0.447527
Si Si2 0.311421 0.841524 0.716096
Si Si3 0.193167 0.340836 0.900641
Si Si4 0.188522 0.342811 0.366335
Si Si5 0.816732 0.332854 0.000000
Si Si6 0.190378 0.840874 0.184569
O O1 0.263094 0.815236 0.500000
O O2 0.500000 0.838712 0.445544
O O3 0.242772 0.735916 0.411719
O O4 0.262047 0.000000 0.436273
O O5 0.500000 0.841876 0.714317
O O6 0.247957 0.743092 0.676961
O O7 0.256394 0.797097 0.766418
O O8 0.256662 0.000000 0.709291
O O9 0.237580 0.500000 0.894454
O O10 0.244323 0.249960 0.858048
O O11 0.000000 0.337242 0.902113
O O12 0.250519 0.292198 0.950721
O O13 0.246724 0.500000 0.365465
O O14 0.000000 0.345125 0.365235
O O15 0.816674 0.500000 0.000000
O O16 0.000000 0.288792 0.000000
O O17 0.000000 0.833510 0.186591
O O18 0.234971 0.000000 0.177715
#
# Coordination Sequence:
#
# PCOD9387552 Si02
#       6
#     8   8   8   8   4   8
#     4   9  19  37  60  84 109 139 176 213 247 289
#     4  10  21  37  56  75  96 128 170 211 251 300
#     4   8  13  22  38  60  87 120 155 190 231 283
#     4  11  24  38  53  78 110 139 168 207 254 300
#     4   7  10  18  33  55  84 117 152 188 228 277
#     4   9  17  29  45  67  95 123 152 193 246 296
#
# _framework density 18.162976
#
# number of rings (size 3 to 8) (size 9 to 14) (size 15 to 20)
#    0.000    2.818    0.000    3.273    0.000    6.545 
#    0.000    5.000    0.000    2.727    0.000    0.636 
#    0.000    5.091    0.000    0.000    0.000    0.000 
#
# Total GULP energy -245302.581435 kJ/mol
# GULP energy per Si atom -5575.058669 kJ/mol
# Density = 1.812164 g / cm^3
# Si number density = 18.162976 Si / 1000 Ang^3
#
#
#
# Elastic Constant Matrix: (Units=GPa)
#
#
# Indices 1 2 3 4 5 6 
#
# 1 12.8397 21.3199 29.7158 0.0000 0.0000 0.0000
# 2 21.3199 103.7472 115.0702 0.0000 0.0000 0.0000
# 3 29.7158 115.0702 190.9351 0.0000 0.0000 0.0000
# 4 0.0000 0.0000 0.0000 40.2155 0.0000 0.0000
# 5 0.0000 0.0000 0.0000 0.0000 80.1426 0.0000
# 6 0.0000 0.0000 0.0000 0.0000 0.0000 17.0953
#
#
#
# Elastic Compliance Matrix: (Units=1/GPa)
#
#
# Indices 1 2 3 4 5 6 
#
# 1 0.126956 -0.012590 -0.012171 0.000000 0.000000 0.000000
# 2 -0.012590 0.030320 -0.016313 0.000000 0.000000 0.000000
# 3 -0.012171 -0.016313 0.016963 0.000000 0.000000 0.000000
# 4 0.000000 0.000000 0.000000 0.024866 0.000000 0.000000
# 5 0.000000 0.000000 0.000000 0.000000 0.012478 0.000000
# 6 0.000000 0.000000 0.000000 0.000000 0.000000 0.058496
#
#
# Mechanical properties :
#
#
# Convention : Reuss Voigt Hill
#
# Bulk Modulus (GPa) = 10.85886 71.08152 40.97019
# Shear Modulus (GPa) = 13.05743 36.91843 24.98793
#
# Velocity S-wave (km/s) = 2.68415 4.51335 3.71315
# Velocity P-wave (km/s) = 3.94940 8.14744 6.40229
#
# Compressibility (1/GPa) = 0.09209067
#
# Stress axis : x y z
#
# Youngs Moduli (GPa) = 7.87672 32.98187 58.95163
#
# Poissons Ratio (x) = 0.41524 0.71751
# Poissons Ratio (y) = 0.09917 0.96169
# Poissons Ratio (z) = 0.09587 0.53804
#
# Static dielectric constant tensor:
#      x y z
#    x 1.625440 0.000000 0.000000 
#    y 0.000000 1.613070 0.000000 
#    z 0.000000 0.000000 1.623370 
# 
# From -- ./inp_files/2327.got.cif
#   From: 2010.05.17/outbox.cif.g08.bks.cpg/sg47_2_cif.got.tgz:2327.got - 2010.06.03 20:15:42.
