data_PCOD9387093
_publ_section_title
;
Structure prediction by ZEFSAII (Michael W. Deem and Ramdas Pophale) SiO2 
 PCOD9387093
Probable space group: P M M M
;
_chemical_formula_sum "Si O2"
_cell_formula_units_Z 48
_cell_length_a 19.449169
_cell_length_b 13.835197
_cell_length_c 9.204967
_cell_angle_alpha 90.000000
_cell_angle_beta 90.000000
_cell_angle_gamma 90.000000
_cell_volume 2476.900914
_symmetry_space_group_name_H-M "P M M M"
_symmetry_group_IT_number 47
_symmetry_cell_setting 'orthorhombic'
loop_
_space_group_symop_operation_xyz
x,y,z
-x,-y,z
x,-y,-z
-x,y,-z
-x,-y,-z
x,y,-z
-x,y,z
x,-y,z
loop_
_atom_site_type_symbol
_atom_site_label
_atom_site_fract_x
_atom_site_fract_y
_atom_site_fract_z
Si Si1 0.576988 0.638465 0.167213
Si Si2 0.921662 0.189122 0.176568
Si Si3 0.713942 0.387974 0.340637
Si Si4 0.168303 0.000000 0.823484
Si Si5 0.422296 0.131015 0.831928
Si Si6 0.151136 0.613397 0.825348
Si Si7 0.316960 0.000000 0.672978
O O1 0.500000 0.607615 0.210149
O O2 0.639004 0.611708 0.270486
O O3 0.577845 0.754062 0.168856
O O4 0.588765 0.608017 0.000000
O O5 0.873032 0.098454 0.218012
O O6 0.898072 0.297716 0.221429
O O7 0.000000 0.171423 0.223999
O O8 0.921030 0.189824 0.000000
O O9 0.714821 0.340757 0.500000
O O10 0.731431 0.500000 0.358362
O O11 0.774011 0.354072 0.233933
O O12 0.242962 0.000000 0.749491
O O13 0.175425 0.000000 0.000000
O O14 0.500000 0.102104 0.789644
O O15 0.363448 0.089029 0.730407
O O16 0.410826 0.102492 0.000000
O O17 0.134898 0.500000 0.782837
O O18 0.152781 0.612289 0.000000
O O19 0.310542 0.000000 0.500000
#
# Coordination Sequence:
#
# PCOD9387093 Si02
#       7
#     8   8   8   4   8   8   4
#     4   9  19  35  55  78 103 136 182 233 281 332
#     4   9  18  34  59  88 113 141 181 230 280 330
#     4  10  21  35  51  74 108 148 186 227 275 330
#     4  10  21  37  57  82 113 151 191 228 270 330
#     4   9  19  37  58  78 104 141 184 230 282 337
#     4   9  18  33  55  84 114 144 182 230 282 333
#     4  12  25  36  51  80 113 144 183 232 276 326
#
# _framework density 19.379055000000001
#
# number of rings (size 3 to 8) (size 9 to 14) (size 15 to 20)
#    0.000    2.500    0.000    2.750    2.333    5.000 
#    0.000    5.000    0.000    2.500    0.000    2.333 
#    0.000    0.000    0.000    0.000    0.000    0.000 
#
# Total GULP energy -267310.403404 kJ/mol
# GULP energy per Si atom -5568.966738 kJ/mol
# Density = 1.933495 g / cm^3
# Si number density = 19.379055 Si / 1000 Ang^3
#
#
#
# Elastic Constant Matrix: (Units=GPa)
#
#
# Indices 1 2 3 4 5 6 
#
# 1 149.7346 57.6499 51.1010 0.0000 0.0000 0.0000
# 2 57.6499 130.2744 30.0510 0.0000 0.0000 0.0000
# 3 51.1010 30.0510 43.0561 0.0000 0.0000 0.0000
# 4 0.0000 0.0000 0.0000 13.0079 0.0000 0.0000
# 5 0.0000 0.0000 0.0000 0.0000 -7.2492 0.0000
# 6 0.0000 0.0000 0.0000 0.0000 0.0000 41.7034
#
#
#
# Elastic Compliance Matrix: (Units=1/GPa)
#
#
# Indices 1 2 3 4 5 6 
#
# 1 0.011811 -0.002376 -0.012360 0.000000 0.000000 0.000000
# 2 -0.002376 0.009627 -0.003900 0.000000 0.000000 0.000000
# 3 -0.012360 -0.003900 0.040617 0.000000 0.000000 0.000000
# 4 0.000000 0.000000 0.000000 0.076876 0.000000 0.000000
# 5 0.000000 0.000000 0.000000 0.000000 -0.137946 0.000000
# 6 0.000000 0.000000 0.000000 0.000000 0.000000 0.023979
#
#
# Mechanical properties :
#
#
# Convention : Reuss Voigt Hill
#
# Bulk Modulus (GPa) = 40.34806 66.74099 53.54452
# Shear Modulus (GPa) = 70.92491 21.77663 46.35077
#
# Velocity S-wave (km/s) = 6.05625 3.35583 4.89591
# Velocity P-wave (km/s) = 8.35284 7.03775 7.72334
#
# Compressibility (1/GPa) = 0.02478434
#
# Stress axis : x y z
#
# Youngs Moduli (GPa) = 84.66379 103.87524 24.62024
#
# Poissons Ratio (x) = 0.24677 0.30431
# Poissons Ratio (y) = 0.20113 0.09601
# Poissons Ratio (z) = 1.04647 0.40507
#
# Static dielectric constant tensor:
#      x y z
#    x 1.660950 0.000000 0.000000 
#    y 0.000000 1.746000 0.000000 
#    z 0.000000 0.000000 1.677790 
# 
# From -- ./inp_files/9175.got.cif
#   From: 2010.05.17/outbox.cif.g08.bks.cpg/sg47_5_cif.got.tgz:9175.got - 2010.06.03 20:15:42.
