data_PCOD9387511
_publ_section_title
;
Structure prediction by ZEFSAII (Michael W. Deem and Ramdas Pophale) SiO2 
 PCOD9387511
Probable space group: P M M M
;
_chemical_formula_sum "Si O2"
_cell_formula_units_Z 38
_cell_length_a 13.252434
_cell_length_b 7.489107
_cell_length_c 17.338479
_cell_angle_alpha 90.000000
_cell_angle_beta 90.000000
_cell_angle_gamma 90.000000
_cell_volume 1720.824903
_symmetry_space_group_name_H-M "P M M M"
_symmetry_group_IT_number 47
_symmetry_cell_setting 'orthorhombic'
loop_
_space_group_symop_operation_xyz
x,y,z
-x,-y,z
x,-y,-z
-x,y,-z
-x,-y,-z
x,y,-z
-x,y,z
x,-y,z
loop_
_atom_site_type_symbol
_atom_site_label
_atom_site_fract_x
_atom_site_fract_y
_atom_site_fract_z
Si Si1 0.500000 0.805309 0.869232
Si Si2 0.387199 0.784271 0.410123
Si Si3 0.500000 0.500000 0.000000
Si Si4 0.814790 0.283459 0.000000
Si Si5 0.189331 0.707241 0.314190
Si Si6 0.285172 0.715090 0.163755
Si Si7 0.000000 0.280534 0.588511
Si Si8 0.000000 0.000000 0.000000
O O1 0.500000 0.653454 0.933004
O O2 0.602827 0.785498 0.821664
O O3 0.500000 0.000000 0.905304
O O4 0.373232 0.732803 0.500000
O O5 0.500000 0.726291 0.386238
O O6 0.294964 0.717210 0.359344
O O7 0.385288 0.000000 0.407146
O O8 0.750562 0.244256 0.077176
O O9 0.835705 0.500000 0.000000
O O10 0.911797 0.158011 0.000000
O O11 0.162508 0.500000 0.302640
O O12 0.208819 0.783123 0.229049
O O13 0.099328 0.781662 0.365907
O O14 0.289617 0.500000 0.169018
O O15 0.000000 0.500000 0.586225
O O16 0.000000 0.221882 0.500000
#
# Coordination Sequence:
#
# PCOD9387511 Si02
#       8
#     4   8   1   4   8   8   4   1
#     4  12  25  39  69 102 136 184 219 273 344 411
#     4   9  19  36  56  81 120 165 204 252 319 389
#     4  12  22  44  64  98 140 174 224 276 320 394
#     4  10  24  45  69  94 130 177 221 276 339 395
#     4  10  21  36  62  92 121 165 212 270 324 388
#     4  10  22  42  64  94 136 177 224 275 336 404
#     4   9  18  35  59  91 127 163 215 275 334 401
#     4  12  26  44  72  96 124 160 228 292 328 388
#
# _framework density 22.082433000000002
#
# number of rings (size 3 to 8) (size 9 to 14) (size 15 to 20)
#    0.000    2.000    1.053    2.211    4.421    3.368 
#    0.000    4.737    0.000    1.895    0.000    0.000 
#    0.000    0.000    0.000    0.000    0.000    0.000 
#
# Total GULP energy -211816.122287 kJ/mol
# GULP energy per Si atom -5574.108481 kJ/mol
# Density = 2.203217 g / cm^3
# Si number density = 22.082433 Si / 1000 Ang^3
#
#
#
# Elastic Constant Matrix: (Units=GPa)
#
#
# Indices 1 2 3 4 5 6 
#
# 1 157.6936 14.3651 87.5195 0.0000 0.0000 0.0000
# 2 14.3651 90.1052 12.8238 0.0000 0.0000 0.0000
# 3 87.5195 12.8238 156.1413 0.0000 0.0000 0.0000
# 4 0.0000 0.0000 0.0000 -0.8999 0.0000 0.0000
# 5 0.0000 0.0000 0.0000 0.0000 -27.6643 0.0000
# 6 0.0000 0.0000 0.0000 0.0000 0.0000 -43.0698
#
#
#
# Elastic Compliance Matrix: (Units=1/GPa)
#
#
# Indices 1 2 3 4 5 6 
#
# 1 0.009254 -0.000746 -0.005126 0.000000 0.000000 0.000000
# 2 -0.000746 0.011290 -0.000509 0.000000 0.000000 0.000000
# 3 -0.005126 -0.000509 0.009319 0.000000 0.000000 0.000000
# 4 0.000000 0.000000 0.000000 -1.111239 0.000000 0.000000
# 5 0.000000 0.000000 0.000000 0.000000 -0.036148 0.000000
# 6 0.000000 0.000000 0.000000 0.000000 0.000000 -0.023218
#
#
# Mechanical properties :
#
#
# Convention : Reuss Voigt Hill
#
# Bulk Modulus (GPa) = 58.47474 70.37298 64.42386
# Shear Modulus (GPa) = -4.45522 4.95533 0.25005
#
# Velocity S-wave (km/s) = -1.42194 1.49963 0.33687
# Velocity P-wave (km/s) = 4.88281 5.91067 5.42115
#
# Compressibility (1/GPa) = 0.01710140
#
# Stress axis : x y z
#
# Youngs Moduli (GPa) = 108.05917 88.57785 107.30322
#
# Poissons Ratio (x) = 0.06606 0.55002
# Poissons Ratio (y) = 0.08059 0.05463
# Poissons Ratio (z) = 0.55390 0.04510
#
# Static dielectric constant tensor:
#      x y z
#    x 1.795890 0.000000 0.000000 
#    y 0.000000 1.810190 0.000000 
#    z 0.000000 0.000000 1.798870 
# 
# From -- ./inp_files/27336.got.cif
#   From: 2010.05.17/outbox.cif.g08.bks.cpg/sg47_14_cif.got.tgz:27336.got - 2010.06.03 20:15:42.
