data_PCOD9387598
_publ_section_title
;
Structure prediction by ZEFSAII (Michael W. Deem and Ramdas Pophale) SiO2 
 PCOD9387598
Probable space group: P M M M
;
_chemical_formula_sum "Si O2"
_cell_formula_units_Z 48
_cell_length_a 8.406182
_cell_length_b 16.521103
_cell_length_c 18.487653
_cell_angle_alpha 90.000000
_cell_angle_beta 90.000000
_cell_angle_gamma 90.000000
_cell_volume 2567.554131
_symmetry_space_group_name_H-M "P M M M"
_symmetry_group_IT_number 47
_symmetry_cell_setting 'orthorhombic'
loop_
_space_group_symop_operation_xyz
x,y,z
-x,-y,z
x,-y,-z
-x,y,-z
-x,-y,-z
x,y,-z
-x,y,z
x,-y,z
loop_
_atom_site_type_symbol
_atom_site_label
_atom_site_fract_x
_atom_site_fract_y
_atom_site_fract_z
Si Si1 0.690938 0.500000 0.416132
Si Si2 0.820892 0.815277 0.913156
Si Si3 0.687651 0.500000 0.080698
Si Si4 0.310079 0.000000 0.584635
Si Si5 0.808022 0.826734 0.584142
Si Si6 0.500000 0.908700 0.912074
Si Si7 0.184866 0.352563 0.827806
Si Si8 0.807078 0.337890 0.663460
O O1 0.500000 0.500000 0.413000
O O2 0.741417 0.500000 0.500000
O O3 0.752504 0.581713 0.378157
O O4 0.666455 0.866863 0.891383
O O5 0.808180 0.731168 0.871043
O O6 0.000000 0.849225 0.898659
O O7 0.812190 0.802307 0.000000
O O8 0.500000 0.500000 0.073280
O O9 0.734125 0.421452 0.125660
O O10 0.760570 0.500000 0.000000
O O11 0.249222 0.913765 0.614172
O O12 0.500000 0.000000 0.587095
O O13 0.257162 0.000000 0.500000
O O14 0.755903 0.820180 0.500000
O O15 0.753945 0.746436 0.626575
O O16 0.000000 0.827714 0.584984
O O17 0.500000 0.000000 0.885358
O O18 0.500000 0.909484 0.000000
O O19 0.248367 0.342981 0.746565
O O20 0.000000 0.375942 0.820877
O O21 0.000000 0.336378 0.662774
#
# Coordination Sequence:
#
# PCOD9387598 Si02
#       8
#     4   8   4   4   8   4   8   8
#     4  11  24  39  54  78 112 145 180 225 274 324
#     4   9  18  33  55  81 110 146 186 231 282 332
#     4  11  24  37  54  82 110 141 182 223 264 318
#     4   9  17  29  49  77 107 137 172 219 272 321
#     4   9  17  31  53  79 104 135 178 225 269 316
#     4   9  18  32  54  83 111 141 183 235 283 333
#     4  10  21  37  56  79 110 143 178 222 274 326
#     4  10  21  37  58  81 107 142 185 226 270 326
#
# _framework density 18.694835000000001
#
# number of rings (size 3 to 8) (size 9 to 14) (size 15 to 20)
#    0.000    2.333    0.000    2.250    1.167    7.333 
#    0.000    3.333    1.833    0.000    0.000    0.000 
#    0.000    0.000    0.000    0.000    0.000    0.000 
#
# Total GULP energy -267664.361935 kJ/mol
# GULP energy per Si atom -5576.340874 kJ/mol
# Density = 1.865228 g / cm^3
# Si number density = 18.694835 Si / 1000 Ang^3
#
#
#
# Elastic Constant Matrix: (Units=GPa)
#
#
# Indices 1 2 3 4 5 6 
#
# 1 67.6076 56.6817 37.5963 0.0000 0.0000 0.0000
# 2 56.6817 159.5318 72.8018 0.0000 0.0000 0.0000
# 3 37.5963 72.8018 94.2144 0.0000 0.0000 0.0000
# 4 0.0000 0.0000 0.0000 19.5628 0.0000 0.0000
# 5 0.0000 0.0000 0.0000 0.0000 11.0324 0.0000
# 6 0.0000 0.0000 0.0000 0.0000 0.0000 20.9316
#
#
#
# Elastic Compliance Matrix: (Units=1/GPa)
#
#
# Indices 1 2 3 4 5 6 
#
# 1 0.022118 -0.005917 -0.004254 0.000000 0.000000 0.000000
# 2 -0.005917 0.011266 -0.006344 0.000000 0.000000 0.000000
# 3 -0.004254 -0.006344 0.017214 0.000000 0.000000 0.000000
# 4 0.000000 0.000000 0.000000 0.051117 0.000000 0.000000
# 5 0.000000 0.000000 0.000000 0.000000 0.090642 0.000000
# 6 0.000000 0.000000 0.000000 0.000000 0.000000 0.047775
#
#
# Mechanical properties :
#
#
# Convention : Reuss Voigt Hill
#
# Bulk Modulus (GPa) = 56.92416 72.83481 64.87948
# Shear Modulus (GPa) = 17.92004 20.59030 19.25517
#
# Velocity S-wave (km/s) = 3.09941 3.32232 3.21280
# Velocity P-wave (km/s) = 6.58208 7.33222 6.96725
#
# Compressibility (1/GPa) = 0.01756723
#
# Stress axis : x y z
#
# Youngs Moduli (GPa) = 45.21268 88.76358 58.09307
#
# Poissons Ratio (x) = 0.52524 0.24711
# Poissons Ratio (y) = 0.26754 0.36855
# Poissons Ratio (z) = 0.19232 0.56313
#
# Static dielectric constant tensor:
#      x y z
#    x 1.655290 0.000000 0.000000 
#    y 0.000000 1.617420 0.000000 
#    z 0.000000 0.000000 1.650170 
# 
# From -- ./inp_files/26614.got.cif
#   From: 2010.05.17/outbox.cif.g08.bks.cpg/sg47_14_cif.got.tgz:26614.got - 2010.06.03 20:15:42.
