data_PCOD9387503
_publ_section_title
;
Structure prediction by ZEFSAII (Michael W. Deem and Ramdas Pophale) SiO2 
 PCOD9387503
Probable space group: P M M M
;
_chemical_formula_sum "Si O2"
_cell_formula_units_Z 48
_cell_length_a 8.895346
_cell_length_b 15.820093
_cell_length_c 18.756422
_cell_angle_alpha 90.000000
_cell_angle_beta 90.000000
_cell_angle_gamma 90.000000
_cell_volume 2639.501256
_symmetry_space_group_name_H-M "P M M M"
_symmetry_group_IT_number 47
_symmetry_cell_setting 'orthorhombic'
loop_
_space_group_symop_operation_xyz
x,y,z
-x,-y,z
x,-y,-z
-x,y,-z
-x,-y,-z
x,y,-z
-x,y,z
x,-y,z
loop_
_atom_site_type_symbol
_atom_site_label
_atom_site_fract_x
_atom_site_fract_y
_atom_site_fract_z
Si Si1 0.179476 0.900887 0.812190
Si Si2 0.324032 0.231501 0.914437
Si Si3 0.826803 0.500000 0.586517
Si Si4 0.182543 0.685340 0.415813
Si Si5 0.823882 0.406413 0.913429
Si Si6 0.679463 0.156811 0.336189
Si Si7 0.826225 0.000000 0.414954
O O1 0.232439 0.843269 0.877603
O O2 0.259332 0.863835 0.742272
O O3 0.000000 0.895465 0.803659
O O4 0.219132 0.000000 0.820685
O O5 0.500000 0.222722 0.897861
O O6 0.265794 0.323796 0.889559
O O7 0.305694 0.227977 0.000000
O O8 0.831002 0.500000 0.500000
O O9 0.762719 0.591271 0.606098
O O10 0.000000 0.500000 0.611272
O O11 0.217376 0.698769 0.500000
O O12 0.255034 0.756589 0.367503
O O13 0.000000 0.687705 0.410271
O O14 0.771928 0.500000 0.889361
O O15 0.000000 0.397622 0.894698
O O16 0.815796 0.407257 0.000000
O O17 0.500000 0.157656 0.336596
O O18 0.742892 0.082005 0.385676
O O19 0.826709 0.000000 0.500000
O O20 0.000000 0.000000 0.389620
#
# Coordination Sequence:
#
# PCOD9387503 Si02
#       7
#     8   8   4   8   8   8   4
#     4  11  24  42  63  81 104 144 192 237 281 337
#     4  10  21  36  57  87 120 150 182 227 283 337
#     4   7  12  26  51  81 109 143 188 231 270 315
#     4   9  17  32  56  84 114 149 190 233 274 325
#     4   8  14  27  50  80 113 148 185 224 266 317
#     4  12  24  37  56  82 114 149 184 230 287 342
#     4  11  23  39  59  83 112 147 190 235 275 325
#
# _framework density 18.185254
#
# number of rings (size 3 to 8) (size 9 to 14) (size 15 to 20)
#    0.000    2.167    0.833    4.750    0.000    5.667 
#    0.000    3.750    1.833    1.500    0.000    0.000 
#    0.000    0.000    0.000    0.000    0.000    0.000 
#
# Total GULP energy -267786.172062 kJ/mol
# GULP energy per Si atom -5578.878585 kJ/mol
# Density = 1.814386 g / cm^3
# Si number density = 18.185254 Si / 1000 Ang^3
#
#
#
# Elastic Constant Matrix: (Units=GPa)
#
#
# Indices 1 2 3 4 5 6 
#
# 1 81.7956 65.1454 32.0538 0.0000 0.0000 0.0000
# 2 65.1454 181.7580 40.1184 0.0000 0.0000 0.0000
# 3 32.0538 40.1184 28.7277 0.0000 0.0000 0.0000
# 4 0.0000 0.0000 0.0000 57.1032 0.0000 0.0000
# 5 0.0000 0.0000 0.0000 0.0000 13.1649 0.0000
# 6 0.0000 0.0000 0.0000 0.0000 0.0000 -11.1770
#
#
#
# Elastic Compliance Matrix: (Units=1/GPa)
#
#
# Indices 1 2 3 4 5 6 
#
# 1 0.023405 -0.003794 -0.020816 0.000000 0.000000 0.000000
# 2 -0.003794 0.008568 -0.007733 0.000000 0.000000 0.000000
# 3 -0.020816 -0.007733 0.068834 0.000000 0.000000 0.000000
# 4 0.000000 0.000000 0.000000 0.017512 0.000000 0.000000
# 5 0.000000 0.000000 0.000000 0.000000 0.075959 0.000000
# 6 0.000000 0.000000 0.000000 0.000000 0.000000 -0.089469
#
#
# Mechanical properties :
#
#
# Convention : Reuss Voigt Hill
#
# Bulk Modulus (GPa) = 27.68392 62.99073 45.33732
# Shear Modulus (GPa) = 27.54284 22.14914 24.84599
#
# Velocity S-wave (km/s) = 3.89597 3.49373 3.70032
# Velocity P-wave (km/s) = 5.95772 7.14062 6.57582
#
# Compressibility (1/GPa) = 0.03612206
#
# Stress axis : x y z
#
# Youngs Moduli (GPa) = 42.72656 116.70731 14.52767
#
# Poissons Ratio (x) = 0.44279 0.30241
# Poissons Ratio (y) = 0.16211 0.11234
# Poissons Ratio (z) = 0.88940 0.90245
#
# Static dielectric constant tensor:
#      x y z
#    x 1.605870 0.000000 0.000000 
#    y 0.000000 1.641800 0.000000 
#    z 0.000000 0.000000 1.622270 
# 
# From -- ./inp_files/26550.got.cif
#   From: 2010.05.17/outbox.cif.g08.bks.cpg/sg47_14_cif.got.tgz:26550.got - 2010.06.03 20:15:42.
