data_PCOD9387696
_publ_section_title
;
Structure prediction by ZEFSAII (Michael W. Deem and Ramdas Pophale) SiO2 
 PCOD9387696
Probable space group: P M M M
;
_chemical_formula_sum "Si O2"
_cell_formula_units_Z 40
_cell_length_a 9.247533
_cell_length_b 8.785140
_cell_length_c 26.388809
_cell_angle_alpha 90.000000
_cell_angle_beta 90.000000
_cell_angle_gamma 90.000000
_cell_volume 2143.849856
_symmetry_space_group_name_H-M "P M M M"
_symmetry_group_IT_number 47
_symmetry_cell_setting 'orthorhombic'
loop_
_space_group_symop_operation_xyz
x,y,z
-x,-y,z
x,-y,-z
-x,y,-z
-x,-y,-z
x,y,-z
-x,y,z
x,-y,z
loop_
_atom_site_type_symbol
_atom_site_label
_atom_site_fract_x
_atom_site_fract_y
_atom_site_fract_z
Si Si1 0.833470 0.314325 0.500000
Si Si2 0.670786 0.181398 0.290520
Si Si3 0.169431 0.317856 0.194546
Si Si4 0.169604 0.317285 0.000000
Si Si5 0.671454 0.318502 0.601485
Si Si6 0.669528 0.817393 0.902492
O O1 0.827113 0.500000 0.500000
O O2 0.754682 0.265099 0.551461
O O3 0.000000 0.268485 0.500000
O O4 0.500000 0.219539 0.284074
O O5 0.763013 0.262134 0.247278
O O6 0.713954 0.235874 0.346655
O O7 0.685645 0.000000 0.286159
O O8 0.181470 0.500000 0.190733
O O9 0.256801 0.242276 0.148660
O O10 0.000000 0.277037 0.191424
O O11 0.247908 0.252490 0.049585
O O12 0.179120 0.500000 0.000000
O O13 0.000000 0.275176 0.000000
O O14 0.500000 0.295636 0.593778
O O15 0.695650 0.500000 0.607720
O O16 0.500000 0.775307 0.903680
O O17 0.679244 0.000000 0.904432
#
# Coordination Sequence:
#
# PCOD9387696 Si02
#       6
#     4   8   8   4   8   8
#     4   9  17  29  48  75 104 134 174 225 274 321
#     4  10  21  37  57  82 111 144 184 229 278 333
#     4  11  24  40  59  85 115 148 188 232 279 333
#     4  11  24  41  62  90 122 155 194 237 280 330
#     4   9  17  31  52  76 103 138 179 222 271 327
#     4  11  24  41  62  89 119 152 192 235 280 333
#
# _framework density 18.658021999999999
#
# number of rings (size 3 to 8) (size 9 to 14) (size 15 to 20)
#    0.000    1.800    0.000    3.900    0.000   13.200 
#    0.000    2.500    0.000    3.000    0.000    0.000 
#    0.000    0.000    0.000    0.000    0.000    0.000 
#
# Total GULP energy -223561.505947 kJ/mol
# GULP energy per Si atom -5589.037649 kJ/mol
# Density = 1.861556 g / cm^3
# Si number density = 18.658022 Si / 1000 Ang^3
#
#
#
# Elastic Constant Matrix: (Units=GPa)
#
#
# Indices 1 2 3 4 5 6 
#
# 1 141.4347 61.8843 104.0913 0.0000 0.0000 0.0000
# 2 61.8843 43.3329 48.5085 0.0000 0.0000 0.0000
# 3 104.0913 48.5085 171.1486 0.0000 0.0000 0.0000
# 4 0.0000 0.0000 0.0000 81.6570 0.0000 0.0000
# 5 0.0000 0.0000 0.0000 0.0000-1060.6109 0.0000
# 6 0.0000 0.0000 0.0000 0.0000 0.0000 22.3918
#
#
#
# Elastic Compliance Matrix: (Units=1/GPa)
#
#
# Indices 1 2 3 4 5 6 
#
# 1 0.023428 -0.025644 -0.006981 0.000000 0.000000 0.000000
# 2 -0.025644 0.061871 -0.001940 0.000000 0.000000 0.000000
# 3 -0.006981 -0.001940 0.010638 0.000000 0.000000 0.000000
# 4 0.000000 0.000000 0.000000 0.012246 0.000000 0.000000
# 5 0.000000 0.000000 0.000000 0.000000 -0.000943 0.000000
# 6 0.000000 0.000000 0.000000 0.000000 0.000000 0.044659
#
#
# Mechanical properties :
#
#
# Convention : Reuss Voigt Hill
#
# Bulk Modulus (GPa) = 37.30087 87.20937 62.25512
# Shear Modulus (GPa) = 21.74246 -181.88360 -80.07057
#
# Velocity S-wave (km/s) = 3.41737 -9.88405 -6.55805
# Velocity P-wave (km/s) = 5.96712 9.13328 4.88929
#
# Compressibility (1/GPa) = 0.02680903
#
# Stress axis : x y z
#
# Youngs Moduli (GPa) = 42.68331 16.16271 94.00056
#
# Poissons Ratio (x) = 0.41447 0.65619
# Poissons Ratio (y) = 1.09457 0.18232
# Poissons Ratio (z) = 0.29796 0.03135
#
# Static dielectric constant tensor:
#      x y z
#    x 1.627450 0.000000 0.000000 
#    y 0.000000 1.626250 0.000000 
#    z 0.000000 0.000000 1.608900 
# 
# From -- ./inp_files/33064.got.cif
#   From: 2010.05.17/outbox.cif.g08.bks.cpg/sg47_17_cif.got.tgz:33064.got - 2010.06.03 20:15:42.
