data_PCOD9387453
_publ_section_title
;
Structure prediction by ZEFSAII (Michael W. Deem and Ramdas Pophale) SiO2 
 PCOD9387453
Probable space group: P M M M
;
_chemical_formula_sum "Si O2"
_cell_formula_units_Z 56
_cell_length_a 8.991827
_cell_length_b 14.150282
_cell_length_c 21.933039
_cell_angle_alpha 90.000000
_cell_angle_beta 90.000000
_cell_angle_gamma 90.000000
_cell_volume 2790.691621
_symmetry_space_group_name_H-M "P M M M"
_symmetry_group_IT_number 47
_symmetry_cell_setting 'orthorhombic'
loop_
_space_group_symop_operation_xyz
x,y,z
-x,-y,z
x,-y,-z
-x,y,-z
-x,-y,-z
x,y,-z
-x,y,z
x,-y,z
loop_
_atom_site_type_symbol
_atom_site_label
_atom_site_fract_x
_atom_site_fract_y
_atom_site_fract_z
Si Si1 0.673066 0.613744 0.307450
Si Si2 0.330413 0.114597 0.759298
Si Si3 0.322665 0.289553 0.067074
Si Si4 0.681389 0.702830 0.566335
Si Si5 0.319306 0.106816 0.376742
Si Si6 0.171964 0.385824 0.182538
Si Si7 0.823719 0.889617 0.115467
O O1 0.500000 0.642680 0.302512
O O2 0.678283 0.500000 0.308340
O O3 0.731670 0.649637 0.372624
O O4 0.756166 0.646386 0.246479
O O5 0.500000 0.148240 0.770465
O O6 0.278749 0.141165 0.691536
O O7 0.224932 0.137040 0.815561
O O8 0.337662 0.000000 0.756576
O O9 0.500000 0.290434 0.072004
O O10 0.254181 0.346313 0.123359
O O11 0.263108 0.182743 0.073145
O O12 0.280611 0.327218 0.000000
O O13 0.732119 0.668142 0.500000
O O14 0.500000 0.696664 0.566364
O O15 0.722417 0.812746 0.575758
O O16 0.500000 0.102495 0.376033
O O17 0.265388 0.000000 0.387836
O O18 0.180558 0.500000 0.181620
O O19 0.000000 0.357630 0.180299
O O20 0.000000 0.879485 0.107952
O O21 0.785060 0.000000 0.105769
#
# Coordination Sequence:
#
# PCOD9387453 Si02
#       7
#     8   8   8   8   8   8   8
#     4   9  18  33  54  80 109 143 184 229 278 334
#     4   8  14  26  45  69  97 134 183 234 282 331
#     4  11  25  42  61  87 118 154 194 234 279 336
#     4   9  17  27  42  70 106 144 187 233 282 333
#     4   8  14  24  39  63  97 137 181 229 279 328
#     4  10  22  41  65  91 117 146 183 232 291 351
#     4  10  21  36  55  82 117 155 195 239 286 335
#
# _framework density 20.066708999999999
#
# number of rings (size 3 to 8) (size 9 to 14) (size 15 to 20)
#    0.000    2.714    0.000    2.143    2.000    4.000 
#    0.000    5.714    0.000    0.429    0.000    2.000 
#    0.000    0.000    0.000    6.857    0.000    7.143 
#
# Total GULP energy -312463.693449 kJ/mol
# GULP energy per Si atom -5579.708812 kJ/mol
# Density = 2.002104 g / cm^3
# Si number density = 20.066709 Si / 1000 Ang^3
#
#
#
# Elastic Constant Matrix: (Units=GPa)
#
#
# Indices 1 2 3 4 5 6 
#
# 1 49.9139 20.5727 54.9717 0.0000 0.0000 0.0000
# 2 20.5727 41.9439 40.7409 0.0000 0.0000 0.0000
# 3 54.9717 40.7409 178.4625 0.0000 0.0000 0.0000
# 4 0.0000 0.0000 0.0000 18.0299 0.0000 0.0000
# 5 0.0000 0.0000 0.0000 0.0000 -20.4395 0.0000
# 6 0.0000 0.0000 0.0000 0.0000 0.0000 19.2594
#
#
#
# Elastic Compliance Matrix: (Units=1/GPa)
#
#
# Indices 1 2 3 4 5 6 
#
# 1 0.032249 -0.007926 -0.008124 0.000000 0.000000 0.000000
# 2 -0.007926 0.032582 -0.004997 0.000000 0.000000 0.000000
# 3 -0.008124 -0.004997 0.009247 0.000000 0.000000 0.000000
# 4 0.000000 0.000000 0.000000 0.055463 0.000000 0.000000
# 5 0.000000 0.000000 0.000000 0.000000 -0.048925 0.000000
# 6 0.000000 0.000000 0.000000 0.000000 0.000000 0.051923
#
#
# Mechanical properties :
#
#
# Convention : Reuss Voigt Hill
#
# Bulk Modulus (GPa) = 31.26603 55.87676 43.57139
# Shear Modulus (GPa) = 26.98414 13.63898 20.31156
#
# Velocity S-wave (km/s) = 3.67102 2.60990 3.18496
# Velocity P-wave (km/s) = 5.79512 6.08178 5.94018
#
# Compressibility (1/GPa) = 0.03198360
#
# Stress axis : x y z
#
# Youngs Moduli (GPa) = 31.00898 30.69143 108.14864
#
# Poissons Ratio (x) = 0.24327 0.87861
# Poissons Ratio (y) = 0.24579 0.54038
# Poissons Ratio (z) = 0.25192 0.15335
#
# Static dielectric constant tensor:
#      x y z
#    x 1.670500 0.000000 0.000000 
#    y 0.000000 1.752450 0.000000 
#    z 0.000000 0.000000 1.722880 
# 
# From -- ./inp_files/21567.got.cif
#   From: 2010.05.17/outbox.cif.g08.bks.cpg/sg47_11_cif.got.tgz:21567.got - 2010.06.03 20:15:42.
