data_PCOD9387428
_publ_section_title
;
Structure prediction by ZEFSAII (Michael W. Deem and Ramdas Pophale) SiO2 
 PCOD9387428
Probable space group: P M M M
;
_chemical_formula_sum "Si O2"
_cell_formula_units_Z 64
_cell_length_a 14.123900
_cell_length_b 28.782115
_cell_length_c 9.114061
_cell_angle_alpha 90.000000
_cell_angle_beta 90.000000
_cell_angle_gamma 90.000000
_cell_volume 3705.009015
_symmetry_space_group_name_H-M "P M M M"
_symmetry_group_IT_number 47
_symmetry_cell_setting 'orthorhombic'
loop_
_space_group_symop_operation_xyz
x,y,z
-x,-y,z
x,-y,-z
-x,y,-z
-x,-y,-z
x,y,-z
-x,y,z
x,-y,z
loop_
_atom_site_type_symbol
_atom_site_label
_atom_site_fract_x
_atom_site_fract_y
_atom_site_fract_z
Si Si1 0.788307 0.362679 0.825687
Si Si2 0.716783 0.218840 0.675051
Si Si3 0.296997 0.055314 0.327596
Si Si4 0.105733 0.943582 0.830817
Si Si5 0.109692 0.552948 0.323418
Si Si6 0.110244 0.265656 0.175718
Si Si7 0.609848 0.696315 0.824733
Si Si8 0.390433 0.136280 0.826764
O O1 0.823679 0.408042 0.743568
O O2 0.854558 0.318114 0.790293
O O3 0.681692 0.345771 0.791353
O O4 0.794925 0.370434 0.000000
O O5 0.717507 0.218515 0.500000
O O6 0.819923 0.231390 0.739052
O O7 0.647888 0.259392 0.736445
O O8 0.676983 0.171126 0.739527
O O9 0.308144 0.064472 0.500000
O O10 0.191977 0.069781 0.272974
O O11 0.370153 0.084941 0.233442
O O12 0.306747 0.000000 0.303706
O O13 0.000000 0.927736 0.788021
O O14 0.103454 0.000000 0.830328
O O15 0.123363 0.929336 0.000000
O O16 0.113556 0.554953 0.500000
O O17 0.133635 0.500000 0.279310
O O18 0.000000 0.561641 0.280159
O O19 0.000000 0.259984 0.211013
O O20 0.122773 0.259340 0.000000
O O21 0.500000 0.686883 0.794589
O O22 0.619732 0.706153 0.000000
O O23 0.500000 0.149076 0.802464
O O24 0.371318 0.138910 0.000000
#
# Coordination Sequence:
#
# PCOD9387428 Si02
#       8
#     8   8   8   8   8   8   8   8
#     4   9  17  29  48  75 101 128 169 217 260 300
#     4  11  22  35  54  81 110 135 164 207 255 302
#     4  10  21  36  55  81 111 138 165 205 255 301
#     4   8  14  27  49  75 102 133 167 200 234 277
#     4   9  18  31  45  64  95 135 174 211 256 311
#     4   9  18  34  55  78 108 144 176 207 248 303
#     4   9  18  34  54  74 100 134 170 209 254 306
#     4  11  24  41  60  78  99 133 174 212 251 299
#
# _framework density 17.273911999999999
#
# number of rings (size 3 to 8) (size 9 to 14) (size 15 to 20)
#    0.000    2.500    0.000    4.125    0.000    7.250 
#    0.000    3.750    0.000    4.125    0.000    2.625 
#    0.000    0.000    0.000    0.000    0.000    0.000 
#
# Total GULP energy -357015.763794 kJ/mol
# GULP energy per Si atom -5578.371309 kJ/mol
# Density = 1.723460 g / cm^3
# Si number density = 17.273912 Si / 1000 Ang^3
#
#
#
# Elastic Constant Matrix: (Units=GPa)
#
#
# Indices 1 2 3 4 5 6 
#
# 1 120.5280 49.9119 58.1862 0.0000 0.0000 0.0000
# 2 49.9119 66.5733 45.8846 0.0000 0.0000 0.0000
# 3 58.1862 45.8846 63.6153 0.0000 0.0000 0.0000
# 4 0.0000 0.0000 0.0000 26.7619 0.0000 0.0000
# 5 0.0000 0.0000 0.0000 0.0000 7.2902 0.0000
# 6 0.0000 0.0000 0.0000 0.0000 0.0000 20.6711
#
#
#
# Elastic Compliance Matrix: (Units=1/GPa)
#
#
# Indices 1 2 3 4 5 6 
#
# 1 0.015285 -0.003627 -0.011365 0.000000 0.000000 0.000000
# 2 -0.003627 0.030731 -0.018849 0.000000 0.000000 0.000000
# 3 -0.011365 -0.018849 0.039710 0.000000 0.000000 0.000000
# 4 0.000000 0.000000 0.000000 0.037367 0.000000 0.000000
# 5 0.000000 0.000000 0.000000 0.000000 0.137171 0.000000
# 6 0.000000 0.000000 0.000000 0.000000 0.000000 0.048377
#
#
# Mechanical properties :
#
#
# Convention : Reuss Voigt Hill
#
# Bulk Modulus (GPa) = 55.41519 62.07579 58.74549
# Shear Modulus (GPa) = 13.07751 17.39357 15.23554
#
# Velocity S-wave (km/s) = 2.75447 3.17665 2.97307
# Velocity P-wave (km/s) = 6.50124 7.03342 6.77256
#
# Compressibility (1/GPa) = 0.01804559
#
# Stress axis : x y z
#
# Youngs Moduli (GPa) = 65.42291 32.54012 25.18284
#
# Poissons Ratio (x) = 0.11801 0.28620
# Poissons Ratio (y) = 0.23727 0.47466
# Poissons Ratio (z) = 0.74352 0.61334
#
# Static dielectric constant tensor:
#      x y z
#    x 1.592530 0.000000 0.000000 
#    y 0.000000 1.582500 0.000000 
#    z 0.000000 0.000000 1.572450 
# 
# From -- ./inp_files/7851.got.cif
#   From: 2010.05.17/outbox.cif.g08.bks.cpg/sg47_4_cif.got.tgz:7851.got - 2010.06.03 20:15:42.
