data_PCOD9387335
_publ_section_title
;
Structure prediction by ZEFSAII (Michael W. Deem and Ramdas Pophale) SiO2 
 PCOD9387335
Probable space group: P M M M
;
_chemical_formula_sum "Si O2"
_cell_formula_units_Z 44
_cell_length_a 9.444177
_cell_length_b 9.310503
_cell_length_c 28.580205
_cell_angle_alpha 90.000000
_cell_angle_beta 90.000000
_cell_angle_gamma 90.000000
_cell_volume 2513.058520
_symmetry_space_group_name_H-M "P M M M"
_symmetry_group_IT_number 47
_symmetry_cell_setting 'orthorhombic'
loop_
_space_group_symop_operation_xyz
x,y,z
-x,-y,z
x,-y,-z
-x,y,-z
-x,-y,-z
x,y,-z
-x,y,z
x,-y,z
loop_
_atom_site_type_symbol
_atom_site_label
_atom_site_fract_x
_atom_site_fract_y
_atom_site_fract_z
Si Si1 0.834590 0.327365 0.770937
Si Si2 0.665471 0.172039 0.310013
Si Si3 0.834031 0.827886 0.945951
Si Si4 0.332487 0.829170 0.418541
Si Si5 0.334483 0.672646 0.135290
Si Si6 0.832653 0.670865 0.500000
O O1 0.823647 0.500000 0.766198
O O2 0.764092 0.252917 0.726350
O O3 0.749710 0.285451 0.817754
O O4 0.000000 0.290136 0.775275
O O5 0.500000 0.208358 0.301653
O O6 0.697930 0.206099 0.364266
O O7 0.679508 0.000000 0.304699
O O8 0.736573 0.747298 0.909166
O O9 0.000000 0.793596 0.937676
O O10 0.818527 0.000000 0.941199
O O11 0.801374 0.790853 0.000000
O O12 0.500000 0.803488 0.426585
O O13 0.240093 0.740542 0.454664
O O14 0.308755 0.000000 0.424973
O O15 0.500000 0.709674 0.139394
O O16 0.323289 0.500000 0.130532
O O17 0.811266 0.500000 0.500000
O O18 0.000000 0.700340 0.500000
#
# Coordination Sequence:
#
# PCOD9387335 Si02
#       6
#     8   8   8   8   8   4
#     4  10  21  36  54  77 106 140 176 214 258 308
#     4   9  19  36  57  81 107 135 171 215 261 310
#     4   9  19  36  56  78 105 137 173 213 259 312
#     4   9  19  37  59  80 103 135 176 218 259 308
#     4  10  21  36  54  77 105 138 177 218 259 307
#     4  11  24  37  50  76 112 143 174 215 260 308
#
# _framework density 17.508547
#
# number of rings (size 3 to 8) (size 9 to 14) (size 15 to 20)
#    0.000    2.455    0.000    3.273    0.000    8.000 
#    0.000    8.182    0.000    0.000    0.000    0.000 
#    0.000    0.000    0.000    0.000    0.000    0.000 
#
# Total GULP energy -245612.256818 kJ/mol
# GULP energy per Si atom -5582.096746 kJ/mol
# Density = 1.746870 g / cm^3
# Si number density = 17.508547 Si / 1000 Ang^3
#
#
#
# Elastic Constant Matrix: (Units=GPa)
#
#
# Indices 1 2 3 4 5 6 
#
# 1 153.1427 72.2226 134.8562 0.0000 0.0000 0.0000
# 2 72.2226 38.3674 71.9912 0.0000 0.0000 0.0000
# 3 134.8562 71.9912 163.6902 0.0000 0.0000 0.0000
# 4 0.0000 0.0000 0.0000 41.6593 0.0000 0.0000
# 5 0.0000 0.0000 0.0000 0.0000 55.3833 0.0000
# 6 0.0000 0.0000 0.0000 0.0000 0.0000 33.9909
#
#
#
# Elastic Compliance Matrix: (Units=1/GPa)
#
#
# Indices 1 2 3 4 5 6 
#
# 1 0.058220 -0.112112 0.001342 0.000000 0.000000 0.000000
# 2 -0.112112 0.365018 -0.068172 0.000000 0.000000 0.000000
# 3 0.001342 -0.068172 0.034985 0.000000 0.000000 0.000000
# 4 0.000000 0.000000 0.000000 0.024004 0.000000 0.000000
# 5 0.000000 0.000000 0.000000 0.000000 0.018056 0.000000
# 6 0.000000 0.000000 0.000000 0.000000 0.000000 0.029420
#
#
# Mechanical properties :
#
#
# Convention : Reuss Voigt Hill
#
# Bulk Modulus (GPa) = 9.96609 101.48226 55.72418
# Shear Modulus (GPa) = 5.42869 31.28205 18.35537
#
# Velocity S-wave (km/s) = 1.76276 4.23149 3.24136
# Velocity P-wave (km/s) = 3.13809 9.05325 6.77529
#
# Compressibility (1/GPa) = 0.10034022
#
# Stress axis : x y z
#
# Youngs Moduli (GPa) = 17.17615 2.73959 28.58337
#
# Poissons Ratio (x) = 0.30714 -0.03837
# Poissons Ratio (y) = 1.92565 1.94858
# Poissons Ratio (z) = -0.02305 0.18676
#
# Static dielectric constant tensor:
#      x y z
#    x 1.578380 0.000000 0.000000 
#    y 0.000000 1.577540 0.000000 
#    z 0.000000 0.000000 1.570710 
# 
# From -- ./inp_files/1971.got.cif
#   From: 2010.05.17/outbox.cif.g08.bks.cpg/sg47_1_cif.got.tgz:1971.got - 2010.06.03 20:15:42.
