data_PCOD9387891
_publ_section_title
;
Structure prediction by ZEFSAII (Michael W. Deem and Ramdas Pophale) SiO2 
 PCOD9387891
Probable space group: P M M M
;
_chemical_formula_sum "Si O2"
_cell_formula_units_Z 64
_cell_length_a 15.854323
_cell_length_b 8.827475
_cell_length_c 25.414082
_cell_angle_alpha 90.000000
_cell_angle_beta 90.000000
_cell_angle_gamma 90.000000
_cell_volume 3556.793281
_symmetry_space_group_name_H-M "P M M M"
_symmetry_group_IT_number 47
_symmetry_cell_setting 'orthorhombic'
loop_
_space_group_symop_operation_xyz
x,y,z
-x,-y,z
x,-y,-z
-x,y,-z
-x,-y,-z
x,y,-z
-x,y,z
x,-y,z
loop_
_atom_site_type_symbol
_atom_site_label
_atom_site_fract_x
_atom_site_fract_y
_atom_site_fract_z
Si Si1 0.906261 0.681175 0.864582
Si Si2 0.222850 0.318942 0.355689
Si Si3 0.592114 0.682551 0.676130
Si Si4 0.407646 0.318889 0.100022
Si Si5 0.631007 0.179168 0.211307
Si Si6 0.095837 0.817456 0.560731
Si Si7 0.234989 0.180289 0.060172
Si Si8 0.806645 0.680002 0.764372
O O1 0.903991 0.500000 0.872727
O O2 0.833728 0.752937 0.900076
O O3 0.884561 0.706201 0.803023
O O4 0.000000 0.737179 0.877282
O O5 0.221247 0.500000 0.362836
O O6 0.321760 0.270801 0.353540
O O7 0.166059 0.244646 0.400156
O O8 0.185334 0.286193 0.297412
O O9 0.500000 0.719063 0.652418
O O10 0.596909 0.500000 0.681994
O O11 0.596100 0.755525 0.733977
O O12 0.500000 0.278532 0.077724
O O13 0.399265 0.500000 0.099165
O O14 0.404681 0.261499 0.160178
O O15 0.327412 0.246771 0.071772
O O16 0.729853 0.220890 0.213753
O O17 0.617343 0.000000 0.207870
O O18 0.110790 0.771480 0.500000
O O19 0.000000 0.769148 0.575066
O O20 0.097275 0.000000 0.562275
O O21 0.238752 0.000000 0.066790
O O22 0.211227 0.215519 0.000000
O O23 0.783929 0.500000 0.768207
#
# Coordination Sequence:
#
# PCOD9387891 Si02
#       8
#     8   8   8   8   8   8   8   8
#     4  10  21  38  62  87 110 143 185 223 264 324
#     4   9  18  31  52  83 112 140 180 227 270 315
#     4   9  18  33  51  73 108 151 187 219 262 318
#     4  11  23  38  58  82 108 141 180 221 269 329
#     4  11  20  30  50  80 112 143 179 221 265 314
#     4   9  19  36  55  75 104 144 187 229 275 327
#     4  11  25  43  61  82 109 140 177 228 282 328
#     4   9  18  34  54  78 113 149 179 215 266 323
#
# _framework density 17.993736999999999
#
# number of rings (size 3 to 8) (size 9 to 14) (size 15 to 20)
#    0.000    2.125    1.250    3.375    0.000    7.500 
#    0.000    4.375    0.000    0.375    0.000    2.625 
#    0.000    0.000    0.000    0.000    0.000    0.000 
#
# Total GULP energy -357040.521870 kJ/mol
# GULP energy per Si atom -5578.758154 kJ/mol
# Density = 1.795278 g / cm^3
# Si number density = 17.993737 Si / 1000 Ang^3
#
#
#
# Elastic Constant Matrix: (Units=GPa)
#
#
# Indices 1 2 3 4 5 6 
#
# 1 143.3859 35.3822 71.8255 0.0000 0.0000 0.0000
# 2 35.3822 21.1751 28.9994 0.0000 0.0000 0.0000
# 3 71.8255 28.9994 83.6768 0.0000 0.0000 0.0000
# 4 0.0000 0.0000 0.0000 28.9716 0.0000 0.0000
# 5 0.0000 0.0000 0.0000 0.0000 -2.4043 0.0000
# 6 0.0000 0.0000 0.0000 0.0000 0.0000 -22.7963
#
#
#
# Elastic Compliance Matrix: (Units=1/GPa)
#
#
# Indices 1 2 3 4 5 6 
#
# 1 0.013919 -0.013125 -0.007399 0.000000 0.000000 0.000000
# 2 -0.013125 0.102264 -0.024175 0.000000 0.000000 0.000000
# 3 -0.007399 -0.024175 0.026680 0.000000 0.000000 0.000000
# 4 0.000000 0.000000 0.000000 0.034517 0.000000 0.000000
# 5 0.000000 0.000000 0.000000 0.000000 -0.415924 0.000000
# 6 0.000000 0.000000 0.000000 0.000000 0.000000 -0.043867
#
#
# Mechanical properties :
#
#
# Convention : Reuss Voigt Hill
#
# Bulk Modulus (GPa) = 18.70380 57.85022 38.27701
# Shear Modulus (GPa) = -28.54045 8.22291 -10.15877
#
# Velocity S-wave (km/s) = -3.98695 2.14005 -2.37865
# Velocity P-wave (km/s) = 3.28286 6.19083 3.71142
#
# Compressibility (1/GPa) = 0.05346508
#
# Stress axis : x y z
#
# Youngs Moduli (GPa) = 71.84175 9.77862 37.48093
#
# Poissons Ratio (x) = 0.12835 0.27733
# Poissons Ratio (y) = 0.94293 0.90609
# Poissons Ratio (z) = 0.53158 0.23640
#
# Static dielectric constant tensor:
#      x y z
#    x 1.650380 0.000000 0.000000 
#    y 0.000000 1.601430 0.000000 
#    z 0.000000 0.000000 1.595870 
# 
# From -- ./inp_files/32772.got.cif
#   From: 2010.05.17/outbox.cif.g08.bks.cpg/sg47_17_cif.got.tgz:32772.got - 2010.06.03 20:15:42.
