data_PCOD9387301
_publ_section_title
;
Structure prediction by ZEFSAII (Michael W. Deem and Ramdas Pophale) SiO2 
 PCOD9387301
Probable space group: P M M M
;
_chemical_formula_sum "Si O2"
_cell_formula_units_Z 48
_cell_length_a 22.699784
_cell_length_b 14.804790
_cell_length_c 8.318260
_cell_angle_alpha 90.000000
_cell_angle_beta 90.000000
_cell_angle_gamma 90.000000
_cell_volume 2795.480499
_symmetry_space_group_name_H-M "P M M M"
_symmetry_group_IT_number 47
_symmetry_cell_setting 'orthorhombic'
loop_
_space_group_symop_operation_xyz
x,y,z
-x,-y,z
x,-y,-z
-x,y,-z
-x,-y,-z
x,y,-z
-x,y,z
x,-y,z
loop_
_atom_site_type_symbol
_atom_site_label
_atom_site_fract_x
_atom_site_fract_y
_atom_site_fract_z
Si Si1 0.145128 0.101815 0.192902
Si Si2 0.386801 0.786592 0.189416
Si Si3 0.568265 0.600956 0.306102
Si Si4 0.929063 0.277797 0.811632
Si Si5 0.276381 0.897146 0.691932
Si Si6 0.928409 0.604250 0.500000
Si Si7 0.500000 0.102689 0.308300
O O1 0.098932 0.180459 0.229592
O O2 0.209824 0.125564 0.258091
O O3 0.130003 0.000000 0.250751
O O4 0.148963 0.097877 0.000000
O O5 0.393470 0.683405 0.244783
O O6 0.325641 0.830745 0.242264
O O7 0.441575 0.843544 0.258860
O O8 0.391612 0.790219 0.000000
O O9 0.568778 0.602460 0.500000
O O10 0.500000 0.615027 0.255711
O O11 0.586059 0.500000 0.254126
O O12 0.910849 0.345610 0.666962
O O13 0.000000 0.272604 0.809307
O O14 0.912740 0.300662 0.000000
O O15 0.280133 0.897154 0.500000
O O16 0.287961 0.000000 0.749851
O O17 0.908820 0.500000 0.500000
O O18 0.000000 0.604470 0.500000
O O19 0.500000 0.097855 0.500000
O O20 0.500000 0.000000 0.243569
#
# Coordination Sequence:
#
# PCOD9387301 Si02
#       7
#     8   8   8   8   8   4   4
#     4   9  18  33  53  78 109 144 181 220 263 313
#     4  12  23  34  52  78 105 133 166 210 263 311
#     4   9  18  34  56  78 101 131 166 204 248 304
#     4   9  18  32  52  81 115 148 183 225 274 326
#     4  10  21  36  54  75 101 139 182 217 252 305
#     4   9  18  32  51  77 109 145 186 231 277 326
#     4  11  23  37  52  71 100 135 169 208 254 307
#
# _framework density 17.170570999999999
#
# number of rings (size 3 to 8) (size 9 to 14) (size 15 to 20)
#    0.000    2.167    0.833    3.250    1.167    4.667 
#    0.000    4.167    0.000    2.500    0.000    2.333 
#    0.000    0.000    0.000    0.000    0.000    0.000 
#
# Total GULP energy -267646.730204 kJ/mol
# GULP energy per Si atom -5575.973546 kJ/mol
# Density = 1.713149 g / cm^3
# Si number density = 17.170571 Si / 1000 Ang^3
#
#
#
# Elastic Constant Matrix: (Units=GPa)
#
#
# Indices 1 2 3 4 5 6 
#
# 1 37.1528 49.8395 29.8883 0.0000 0.0000 0.0000
# 2 49.8395 130.9561 58.6372 0.0000 0.0000 0.0000
# 3 29.8883 58.6372 71.8152 0.0000 0.0000 0.0000
# 4 0.0000 0.0000 0.0000 -524.5222 0.0000 0.0000
# 5 0.0000 0.0000 0.0000 0.0000 36.0532 0.0000
# 6 0.0000 0.0000 0.0000 0.0000 0.0000 7.1017
#
#
#
# Elastic Compliance Matrix: (Units=1/GPa)
#
#
# Indices 1 2 3 4 5 6 
#
# 1 0.059079 -0.018088 -0.009819 0.000000 0.000000 0.000000
# 2 -0.018088 0.017575 -0.006822 0.000000 0.000000 0.000000
# 3 -0.009819 -0.006822 0.023581 0.000000 0.000000 0.000000
# 4 0.000000 0.000000 0.000000 -0.001906 0.000000 0.000000
# 5 0.000000 0.000000 0.000000 0.000000 0.027737 0.000000
# 6 0.000000 0.000000 0.000000 0.000000 0.000000 0.140812
#
#
# Mechanical properties :
#
#
# Convention : Reuss Voigt Hill
#
# Bulk Modulus (GPa) = 32.49114 57.40600 44.94857
# Shear Modulus (GPa) = 14.42610 -89.50285 -37.53837
#
# Velocity S-wave (km/s) = 2.90170 -7.22765 -4.68076
# Velocity P-wave (km/s) = 5.49456 6.01219 1.72573
#
# Compressibility (1/GPa) = 0.03077762
#
# Stress axis : x y z
#
# Youngs Moduli (GPa) = 16.92638 56.90031 42.40680
#
# Poissons Ratio (x) = 1.02921 0.41639
# Poissons Ratio (y) = 0.30616 0.28929
# Poissons Ratio (z) = 0.16620 0.38816
#
# Static dielectric constant tensor:
#      x y z
#    x 1.523010 0.000000 0.000000 
#    y 0.000000 1.595780 0.000000 
#    z 0.000000 0.000000 1.592210 
# 
# From -- ./inp_files/9229.got.cif
#   From: 2010.05.17/outbox.cif.g08.bks.cpg/sg47_5_cif.got.tgz:9229.got - 2010.06.03 20:15:42.
