data_PCOD9387322
_publ_section_title
;
Structure prediction by ZEFSAII (Michael W. Deem and Ramdas Pophale) SiO2 
 PCOD9387322
Probable space group: P M M M
;
_chemical_formula_sum "Si O2"
_cell_formula_units_Z 44
_cell_length_a 28.991394
_cell_length_b 8.440143
_cell_length_c 9.960127
_cell_angle_alpha 90.000000
_cell_angle_beta 90.000000
_cell_angle_gamma 90.000000
_cell_volume 2437.158527
_symmetry_space_group_name_H-M "P M M M"
_symmetry_group_IT_number 47
_symmetry_cell_setting 'orthorhombic'
loop_
_space_group_symop_operation_xyz
x,y,z
-x,-y,z
x,-y,-z
-x,y,-z
-x,-y,-z
x,y,-z
-x,y,z
x,-y,z
loop_
_atom_site_type_symbol
_atom_site_label
_atom_site_fract_x
_atom_site_fract_y
_atom_site_fract_z
Si Si1 0.551739 0.306687 0.344859
Si Si2 0.366068 0.693372 0.154781
Si Si3 0.737730 0.691118 0.843546
Si Si4 0.818345 0.811234 0.654009
Si Si5 0.000000 0.810879 0.845890
Si Si6 0.919986 0.311093 0.345973
O O1 0.558633 0.260338 0.500000
O O2 0.500000 0.257740 0.303082
O O3 0.552205 0.500000 0.341840
O O4 0.592943 0.250518 0.250248
O O5 0.366417 0.500000 0.156947
O O6 0.314279 0.741500 0.196028
O O7 0.373355 0.740535 0.000000
O O8 0.739451 0.500000 0.835562
O O9 0.777432 0.760186 0.751186
O O10 0.744268 0.734478 0.000000
O O11 0.807582 0.764561 0.500000
O O12 0.867522 0.734282 0.688777
O O13 0.823885 0.000000 0.658753
O O14 0.955652 0.756748 0.760957
O O15 0.000000 0.000000 0.851436
O O16 0.000000 0.750413 0.000000
O O17 0.928862 0.253939 0.500000
O O18 0.924730 0.500000 0.347035
#
# Coordination Sequence:
#
# PCOD9387322 Si02
#       6
#     8   8   8   8   4   8
#     4   8  13  20  30  48  77 112 149 189 234 284
#     4   8  14  24  37  55  81 114 153 194 235 283
#     4   9  18  32  49  70  97 129 165 205 249 297
#     4  10  21  36  54  77 103 131 166 207 250 298
#     4  11  24  39  56  82 114 145 176 209 248 294
#     4  10  21  38  60  83 106 136 174 212 252 298
#
# _framework density 18.053811
#
# number of rings (size 3 to 8) (size 9 to 14) (size 15 to 20)
#    0.000    2.818    0.000    3.273    0.000    6.182 
#    0.000    3.636    0.000    0.000    0.000    0.000 
#    0.000    0.727    0.000    8.000    0.000   13.091 
#
# Total GULP energy -245342.310423 kJ/mol
# GULP energy per Si atom -5575.961601 kJ/mol
# Density = 1.801272 g / cm^3
# Si number density = 18.053811 Si / 1000 Ang^3
#
#
#
# Elastic Constant Matrix: (Units=GPa)
#
#
# Indices 1 2 3 4 5 6 
#
# 1 168.2188 28.1049 117.8305 0.0000 0.0000 0.0000
# 2 28.1049 17.9015 25.0373 0.0000 0.0000 0.0000
# 3 117.8305 25.0373 109.7691 0.0000 0.0000 0.0000
# 4 0.0000 0.0000 0.0000 19.0597 0.0000 0.0000
# 5 0.0000 0.0000 0.0000 0.0000 49.6100 0.0000
# 6 0.0000 0.0000 0.0000 0.0000 0.0000 -105.8209
#
#
#
# Elastic Compliance Matrix: (Units=1/GPa)
#
#
# Indices 1 2 3 4 5 6 
#
# 1 0.024032 -0.002422 -0.025244 0.000000 0.000000 0.000000
# 2 -0.002422 0.082274 -0.016166 0.000000 0.000000 0.000000
# 3 -0.025244 -0.016166 0.039896 0.000000 0.000000 0.000000
# 4 0.000000 0.000000 0.000000 0.052467 0.000000 0.000000
# 5 0.000000 0.000000 0.000000 0.000000 0.020157 0.000000
# 6 0.000000 0.000000 0.000000 0.000000 0.000000 -0.009450
#
#
# Mechanical properties :
#
#
# Convention : Reuss Voigt Hill
#
# Bulk Modulus (GPa) = 17.08334 70.87052 43.97693
# Shear Modulus (GPa) = 15.79519 0.89754 8.34637
#
# Velocity S-wave (km/s) = 2.96107 0.70585 2.15246
# Velocity P-wave (km/s) = 4.60148 6.32493 5.53074
#
# Compressibility (1/GPa) = 0.05853657
#
# Stress axis : x y z
#
# Youngs Moduli (GPa) = 41.61113 12.15455 25.06547
#
# Poissons Ratio (x) = 0.02944 0.63276
# Poissons Ratio (y) = 0.10080 0.40520
# Poissons Ratio (z) = 1.05045 0.19648
#
# Static dielectric constant tensor:
#      x y z
#    x 1.603280 0.000000 0.000000 
#    y 0.000000 1.620870 0.000000 
#    z 0.000000 0.000000 1.609040 
# 
# From -- ./inp_files/2126.got.cif
#   From: 2010.05.17/outbox.cif.g08.bks.cpg/sg47_2_cif.got.tgz:2126.got - 2010.06.03 20:15:42.
