data_PCOD9387840
_publ_section_title
;
Structure prediction by ZEFSAII (Michael W. Deem and Ramdas Pophale) SiO2 
 PCOD9387840
Probable space group: P M M M
;
_chemical_formula_sum "Si O2"
_cell_formula_units_Z 56
_cell_length_a 21.579070
_cell_length_b 7.739822
_cell_length_c 16.144413
_cell_angle_alpha 90.000000
_cell_angle_beta 90.000000
_cell_angle_gamma 90.000000
_cell_volume 2696.410165
_symmetry_space_group_name_H-M "P M M M"
_symmetry_group_IT_number 47
_symmetry_cell_setting 'orthorhombic'
loop_
_space_group_symop_operation_xyz
x,y,z
-x,-y,z
x,-y,-z
-x,y,-z
-x,-y,-z
x,y,-z
-x,y,z
x,-y,z
loop_
_atom_site_type_symbol
_atom_site_label
_atom_site_fract_x
_atom_site_fract_y
_atom_site_fract_z
Si Si1 0.500000 0.707544 0.153254
Si Si2 0.705108 0.796489 0.750283
Si Si3 0.928633 0.208794 0.093500
Si Si4 0.365150 0.205601 0.590754
Si Si5 0.634791 0.794544 0.090468
Si Si6 0.071629 0.710837 0.593252
Si Si7 0.500000 0.707428 0.654921
Si Si8 0.847011 0.295869 0.252312
O O1 0.500000 0.500000 0.152187
O O2 0.562386 0.769998 0.109756
O O3 0.500000 0.765941 0.249180
O O4 0.675036 0.721774 0.666676
O O5 0.673695 0.721061 0.832780
O O6 0.778614 0.780598 0.752201
O O7 0.688972 0.000000 0.750010
O O8 0.884923 0.267159 0.167722
O O9 0.000000 0.264501 0.107739
O O10 0.928224 0.000000 0.093440
O O11 0.910594 0.264669 0.000000
O O12 0.350965 0.278841 0.500000
O O13 0.437402 0.230921 0.611488
O O14 0.353503 0.000000 0.586928
O O15 0.647055 0.000000 0.086936
O O16 0.649796 0.721341 0.000000
O O17 0.090695 0.763658 0.500000
O O18 0.072100 0.500000 0.594396
O O19 0.114404 0.771949 0.668442
O O20 0.000000 0.763318 0.605842
O O21 0.500000 0.500000 0.654047
O O22 0.839588 0.500000 0.264040
#
# Coordination Sequence:
#
# PCOD9387840 Si02
#       8
#     4   8   8   8   8   8   4   8
#     4  11  22  35  56  85 115 140 167 214 279 333
#     4  10  22  39  55  75 108 148 187 227 268 317
#     4   9  19  37  60  84 111 146 186 226 273 331
#     4  10  21  38  60  82 105 141 188 231 274 325
#     4  10  21  38  60  81 101 136 185 226 266 322
#     4   8  15  30  52  78 109 144 180 218 264 321
#     4  11  22  35  56  85 115 142 173 220 281 339
#     4  11  22  34  54  84 115 146 185 229 277 325
#
# _framework density 20.768352
#
# number of rings (size 3 to 8) (size 9 to 14) (size 15 to 20)
#    0.000    2.143    1.429    2.571    0.000    6.286 
#    0.000    2.143    0.000    1.286    0.000    5.000 
#    0.000    0.000    0.000    0.000    0.000    0.000 
#
# Total GULP energy -312754.466119 kJ/mol
# GULP energy per Si atom -5584.901181 kJ/mol
# Density = 2.072108 g / cm^3
# Si number density = 20.768352 Si / 1000 Ang^3
#
#
#
# Elastic Constant Matrix: (Units=GPa)
#
#
# Indices 1 2 3 4 5 6 
#
# 1 109.5412 -17.6189 99.3138 0.0000 0.0000 0.0000
# 2 -17.6189 29.0525 3.9494 0.0000 0.0000 0.0000
# 3 99.3138 3.9494 225.7369 0.0000 0.0000 0.0000
# 4 0.0000 0.0000 0.0000 6.7991 0.0000 0.0000
# 5 0.0000 0.0000 0.0000 0.0000 9.5439 0.0000
# 6 0.0000 0.0000 0.0000 0.0000 0.0000 2.5589
#
#
#
# Elastic Compliance Matrix: (Units=1/GPa)
#
#
# Indices 1 2 3 4 5 6 
#
# 1 0.018896 0.012620 -0.008534 0.000000 0.000000 0.000000
# 2 0.012620 0.042930 -0.006303 0.000000 0.000000 0.000000
# 3 -0.008534 -0.006303 0.008295 0.000000 0.000000 0.000000
# 4 0.000000 0.000000 0.000000 0.147079 0.000000 0.000000
# 5 0.000000 0.000000 0.000000 0.000000 0.104779 0.000000
# 6 0.000000 0.000000 0.000000 0.000000 0.000000 0.390786
#
#
# Mechanical properties :
#
#
# Convention : Reuss Voigt Hill
#
# Bulk Modulus (GPa) = 15.22390 59.51325 37.36858
# Shear Modulus (GPa) = 6.76502 22.35947 14.56225
#
# Velocity S-wave (km/s) = 1.80678 3.28474 2.65084
# Velocity P-wave (km/s) = 3.42036 6.56536 5.23463
#
# Compressibility (1/GPa) = 0.06568620
#
# Stress axis : x y z
#
# Youngs Moduli (GPa) = 52.92060 23.29346 120.55613
#
# Poissons Ratio (x) = -0.29396 1.02886
# Poissons Ratio (y) = -0.66784 0.75989
# Poissons Ratio (z) = 0.45164 0.14682
#
# Static dielectric constant tensor:
#      x y z
#    x 1.681360 0.000000 0.000000 
#    y 0.000000 1.761190 0.000000 
#    z 0.000000 0.000000 1.774560 
# 
# From -- ./inp_files/25232.got.cif
#   From: 2010.05.17/outbox.cif.g08.bks.cpg/sg47_13_cif.got.tgz:25232.got - 2010.06.03 20:15:42.
