data_PCOD9387036
_publ_section_title
;
Structure prediction by ZEFSAII (Michael W. Deem and Ramdas Pophale) SiO2 
 PCOD9387036
Probable space group: P M M M
;
_chemical_formula_sum "Si O2"
_cell_formula_units_Z 64
_cell_length_a 25.248600
_cell_length_b 8.861272
_cell_length_c 14.814084
_cell_angle_alpha 90.000000
_cell_angle_beta 90.000000
_cell_angle_gamma 90.000000
_cell_volume 3314.424821
_symmetry_space_group_name_H-M "P M M M"
_symmetry_group_IT_number 47
_symmetry_cell_setting 'orthorhombic'
loop_
_space_group_symop_operation_xyz
x,y,z
-x,-y,z
x,-y,-z
-x,y,-z
-x,-y,-z
x,y,-z
-x,y,z
x,-y,z
loop_
_atom_site_type_symbol
_atom_site_label
_atom_site_fract_x
_atom_site_fract_y
_atom_site_fract_z
Si Si1 0.718493 0.319566 0.893272
Si Si2 0.941620 0.322129 0.856870
Si Si3 0.172121 0.167103 0.605455
Si Si4 0.438256 0.816413 0.601370
Si Si5 0.272230 0.668862 0.608674
Si Si6 0.056284 0.177162 0.664938
Si Si7 0.171090 0.168771 0.106576
Si Si8 0.349961 0.177387 0.737059
O O1 0.720200 0.500000 0.887929
O O2 0.776089 0.255549 0.861978
O O3 0.673225 0.256893 0.826367
O O4 0.710037 0.279586 0.000000
O O5 0.938260 0.500000 0.875032
O O6 0.943885 0.284489 0.751008
O O7 0.886432 0.245704 0.884483
O O8 0.000000 0.269483 0.892510
O O9 0.183420 0.154489 0.500000
O O10 0.212083 0.294303 0.637689
O O11 0.110651 0.204494 0.614559
O O12 0.181731 0.000000 0.645354
O O13 0.420177 0.766925 0.500000
O O14 0.500000 0.775400 0.610333
O O15 0.403339 0.765511 0.686707
O O16 0.435255 0.000000 0.600866
O O17 0.277476 0.675408 0.500000
O O18 0.287389 0.500000 0.637589
O O19 0.307310 0.792162 0.658147
O O20 0.000000 0.196526 0.615771
O O21 0.057847 0.000000 0.694082
O O22 0.168718 0.000000 0.145652
O O23 0.179374 0.156996 0.000000
O O24 0.355156 0.000000 0.756002
#
# Coordination Sequence:
#
# PCOD9387036 Si02
#       8
#     8   8   8   8   8   8   8   8
#     4  10  22  40  59  80 110 148 190 236 285 339
#     4  10  21  35  51  72  99 132 168 209 262 329
#     4   9  18  32  49  69  94 125 164 213 267 321
#     4   8  15  30  54  87 126 162 195 233 275 320
#     4  10  21  35  50  73 109 148 184 224 271 328
#     4   9  18  32  49  68  91 121 161 212 264 315
#     4  10  21  37  57  79 102 129 166 217 276 335
#     4  11  21  33  57  88 115 149 190 233 282 333
#
# _framework density 19.309535
#
# number of rings (size 3 to 8) (size 9 to 14) (size 15 to 20)
#    0.000    2.375    0.000    2.625    1.750    4.500 
#    0.000    2.500    0.000    1.875    0.000   10.500 
#    0.000    0.000    0.000    0.000    0.000    0.000 
#
# Total GULP energy -356415.189998 kJ/mol
# GULP energy per Si atom -5568.987344 kJ/mol
# Density = 1.926559 g / cm^3
# Si number density = 19.309535 Si / 1000 Ang^3
#
#
#
# Elastic Constant Matrix: (Units=GPa)
#
#
# Indices 1 2 3 4 5 6 
#
# 1 112.2111 31.8765 42.0322 0.0000 0.0000 0.0000
# 2 31.8765 44.4361 30.3489 0.0000 0.0000 0.0000
# 3 42.0322 30.3489 81.8058 0.0000 0.0000 0.0000
# 4 0.0000 0.0000 0.0000 18.2284 0.0000 0.0000
# 5 0.0000 0.0000 0.0000 0.0000 33.3068 0.0000
# 6 0.0000 0.0000 0.0000 0.0000 0.0000 9.0906
#
#
#
# Elastic Compliance Matrix: (Units=1/GPa)
#
#
# Indices 1 2 3 4 5 6 
#
# 1 0.012103 -0.005940 -0.004015 0.000000 0.000000 0.000000
# 2 -0.005940 0.033057 -0.009212 0.000000 0.000000 0.000000
# 3 -0.004015 -0.009212 0.017704 0.000000 0.000000 0.000000
# 4 0.000000 0.000000 0.000000 0.054859 0.000000 0.000000
# 5 0.000000 0.000000 0.000000 0.000000 0.030024 0.000000
# 6 0.000000 0.000000 0.000000 0.000000 0.000000 0.110004
#
#
# Mechanical properties :
#
#
# Convention : Reuss Voigt Hill
#
# Bulk Modulus (GPa) = 40.76487 49.66314 45.21400
# Shear Modulus (GPa) = 16.43321 21.07151 18.75236
#
# Velocity S-wave (km/s) = 2.92043 3.30699 3.11970
# Velocity P-wave (km/s) = 5.70342 6.35271 6.03680
#
# Compressibility (1/GPa) = 0.02453092
#
# Stress axis : x y z
#
# Youngs Moduli (GPa) = 82.62310 30.25107 56.48335
#
# Poissons Ratio (x) = 0.17970 0.22678
# Poissons Ratio (y) = 0.49079 0.52030
# Poissons Ratio (z) = 0.33173 0.27866
#
# Static dielectric constant tensor:
#      x y z
#    x 1.707760 0.000000 0.000000 
#    y 0.000000 1.697020 0.000000 
#    z 0.000000 0.000000 1.696630 
# 
# From -- ./inp_files/25612.got.cif
#   From: 2010.05.17/outbox.cif.g08.bks.cpg/sg47_13_cif.got.tgz:25612.got - 2010.06.03 20:15:42.
