data_PCOD9387784
_publ_section_title
;
Structure prediction by ZEFSAII (Michael W. Deem and Ramdas Pophale) SiO2 
 PCOD9387784
Probable space group: P M M M
;
_chemical_formula_sum "Si O2"
_cell_formula_units_Z 56
_cell_length_a 15.609159
_cell_length_b 20.548236
_cell_length_c 8.892432
_cell_angle_alpha 90.000000
_cell_angle_beta 90.000000
_cell_angle_gamma 90.000000
_cell_volume 2852.164712
_symmetry_space_group_name_H-M "P M M M"
_symmetry_group_IT_number 47
_symmetry_cell_setting 'orthorhombic'
loop_
_space_group_symop_operation_xyz
x,y,z
-x,-y,z
x,-y,-z
-x,y,-z
-x,-y,-z
x,y,-z
-x,y,z
x,-y,z
loop_
_atom_site_type_symbol
_atom_site_label
_atom_site_fract_x
_atom_site_fract_y
_atom_site_fract_z
Si Si1 0.904425 0.147227 0.819575
Si Si2 0.138678 0.430189 0.176696
Si Si3 0.654138 0.294625 0.321154
Si Si4 0.743227 0.075683 0.320216
Si Si5 0.844091 0.290716 0.182260
Si Si6 0.652556 0.428234 0.176292
Si Si7 0.596369 0.163646 0.822846
O O1 0.831022 0.106971 0.738673
O O2 0.892971 0.224073 0.785962
O O3 0.000000 0.126273 0.777589
O O4 0.894614 0.140289 0.000000
O O5 0.110654 0.500000 0.243256
O O6 0.112671 0.358792 0.233284
O O7 0.242946 0.428998 0.184925
O O8 0.115449 0.432017 0.000000
O O9 0.653964 0.291255 0.500000
O O10 0.750981 0.286686 0.258118
O O11 0.622600 0.365367 0.266322
O O12 0.603240 0.234651 0.251170
O O13 0.739797 0.080524 0.500000
O O14 0.665814 0.116752 0.250612
O O15 0.737877 0.000000 0.276926
O O16 0.832878 0.294950 0.000000
O O17 0.623254 0.500000 0.227001
O O18 0.631127 0.420996 0.000000
O O19 0.500000 0.138314 0.803317
O O20 0.614530 0.170119 0.000000
#
# Coordination Sequence:
#
# PCOD9387784 Si02
#       7
#     8   8   8   8   8   8   8
#     4  10  21  37  60  89 120 159 206 252 293 339
#     4   7  10  18  36  64  96 135 185 236 284 333
#     4  11  20  30  51  82 117 154 194 243 299 354
#     4  11  25  44  66  93 124 155 187 233 297 361
#     4   9  16  29  50  74 107 151 199 246 291 344
#     4   8  14  26  45  70 104 149 199 247 295 348
#     4  11  24  42  65  91 119 155 199 242 286 345
#
# _framework density 19.634208999999998
#
# number of rings (size 3 to 8) (size 9 to 14) (size 15 to 20)
#    0.000    2.429    1.429    3.857    0.000    3.429 
#    0.000    2.857    0.000    0.857    0.000    6.000 
#    0.000    0.000    0.000    8.429    0.000    9.429 
#
# Total GULP energy -312436.678320 kJ/mol
# GULP energy per Si atom -5579.226399 kJ/mol
# Density = 1.958952 g / cm^3
# Si number density = 19.634209 Si / 1000 Ang^3
#
#
#
# Elastic Constant Matrix: (Units=GPa)
#
#
# Indices 1 2 3 4 5 6 
#
# 1 77.7323 67.4572 44.4930 0.0000 0.0000 0.0000
# 2 67.4572 164.7237 62.6184 0.0000 0.0000 0.0000
# 3 44.4930 62.6184 54.6974 0.0000 0.0000 0.0000
# 4 0.0000 0.0000 0.0000 1.3701 0.0000 0.0000
# 5 0.0000 0.0000 0.0000 0.0000 63.6426 0.0000
# 6 0.0000 0.0000 0.0000 0.0000 0.0000 -13.8507
#
#
#
# Elastic Compliance Matrix: (Units=1/GPa)
#
#
# Indices 1 2 3 4 5 6 
#
# 1 0.025903 -0.004600 -0.015804 0.000000 0.000000 0.000000
# 2 -0.004600 0.011565 -0.009498 0.000000 0.000000 0.000000
# 3 -0.015804 -0.009498 0.042012 0.000000 0.000000 0.000000
# 4 0.000000 0.000000 0.000000 0.729867 0.000000 0.000000
# 5 0.000000 0.000000 0.000000 0.000000 0.015713 0.000000
# 6 0.000000 0.000000 0.000000 0.000000 0.000000 -0.072199
#
#
# Mechanical properties :
#
#
# Convention : Reuss Voigt Hill
#
# Bulk Modulus (GPa) = 50.82590 71.81007 61.31799
# Shear Modulus (GPa) = 6.10333 18.40473 12.25403
#
# Velocity S-wave (km/s) = 1.76501 3.06499 2.50094
# Velocity P-wave (km/s) = 5.48601 7.01277 6.29584
#
# Compressibility (1/GPa) = 0.01967501
#
# Stress axis : x y z
#
# Youngs Moduli (GPa) = 38.60625 86.46669 23.80250
#
# Poissons Ratio (x) = 0.39771 0.37619
# Poissons Ratio (y) = 0.17757 0.22609
# Poissons Ratio (z) = 0.61015 0.82130
#
# Static dielectric constant tensor:
#      x y z
#    x 1.707390 0.000000 0.000000 
#    y 0.000000 1.719460 0.000000 
#    z 0.000000 0.000000 1.648890 
# 
# From -- ./inp_files/7273.got.cif
#   From: 2010.05.17/outbox.cif.g08.bks.cpg/sg47_4_cif.got.tgz:7273.got - 2010.06.03 20:15:42.
