data_PCOD9387202
_publ_section_title
;
Structure prediction by ZEFSAII (Michael W. Deem and Ramdas Pophale) SiO2 
 PCOD9387202
Probable space group: P M M M
;
_chemical_formula_sum "Si O2"
_cell_formula_units_Z 64
_cell_length_a 24.509740
_cell_length_b 15.714214
_cell_length_c 8.966052
_cell_angle_alpha 90.000000
_cell_angle_beta 90.000000
_cell_angle_gamma 90.000000
_cell_volume 3453.286579
_symmetry_space_group_name_H-M "P M M M"
_symmetry_group_IT_number 47
_symmetry_cell_setting 'orthorhombic'
loop_
_space_group_symop_operation_xyz
x,y,z
-x,-y,z
x,-y,-z
-x,y,-z
-x,-y,-z
x,y,-z
-x,y,z
x,-y,z
loop_
_atom_site_type_symbol
_atom_site_label
_atom_site_fract_x
_atom_site_fract_y
_atom_site_fract_z
Si Si1 0.827708 0.095978 0.677421
Si Si2 0.364974 0.745063 0.819850
Si Si3 0.061597 0.353478 0.175326
Si Si4 0.172079 0.404073 0.677159
Si Si5 0.562989 0.401468 0.679528
Si Si6 0.938454 0.852168 0.175472
Si Si7 0.238018 0.250209 0.178651
Si Si8 0.562717 0.903885 0.818519
O O1 0.824753 0.107682 0.500000
O O2 0.890020 0.107966 0.730684
O O3 0.791673 0.167127 0.757287
O O4 0.809904 0.000000 0.714499
O O5 0.395978 0.663874 0.754316
O O6 0.301542 0.747767 0.777912
O O7 0.396613 0.830226 0.768826
O O8 0.367882 0.741754 0.000000
O O9 0.109606 0.393365 0.270658
O O10 0.065101 0.250659 0.188273
O O11 0.000000 0.378725 0.218025
O O12 0.069127 0.374056 0.000000
O O13 0.175633 0.391293 0.500000
O O14 0.190409 0.500000 0.712651
O O15 0.207274 0.332892 0.759415
O O16 0.566649 0.395148 0.500000
O O17 0.500000 0.382229 0.721447
O O18 0.573935 0.500000 0.719708
O O19 0.000000 0.877354 0.219400
O O20 0.931436 0.872723 0.000000
O O21 0.233862 0.249090 0.000000
O O22 0.500000 0.886369 0.773696
O O23 0.577074 0.000000 0.770508
O O24 0.563398 0.904115 0.000000
#
# Coordination Sequence:
#
# PCOD9387202 Si02
#       8
#     8   8   8   8   8   8   8   8
#     4  11  24  40  59  84 114 149 190 236 286 340
#     4  10  21  35  56  85 112 143 188 239 283 323
#     4   9  18  34  58  87 116 145 178 221 278 342
#     4  11  24  40  59  83 111 146 188 234 286 342
#     4   9  19  36  57  83 117 155 190 224 271 334
#     4   9  18  34  58  87 116 146 181 224 280 344
#     4  11  24  41  59  81 111 149 195 243 287 335
#     4   8  14  27  50  81 115 145 172 210 265 325
#
# _framework density 18.533069999999999
#
# number of rings (size 3 to 8) (size 9 to 14) (size 15 to 20)
#    0.000    2.250    1.250    3.000    0.000    6.000 
#    0.000    8.125    0.000    0.375    0.000    1.750 
#    0.000    0.000    0.000    0.000    0.000    0.000 
#
# Total GULP energy -357352.529401 kJ/mol
# GULP energy per Si atom -5583.633272 kJ/mol
# Density = 1.849089 g / cm^3
# Si number density = 18.533070 Si / 1000 Ang^3
#
#
#
# Elastic Constant Matrix: (Units=GPa)
#
#
# Indices 1 2 3 4 5 6 
#
# 1 145.9973 102.3561 49.9570 0.0000 0.0000 0.0000
# 2 102.3561 136.5843 55.2563 0.0000 0.0000 0.0000
# 3 49.9570 55.2563 37.1300 0.0000 0.0000 0.0000
# 4 0.0000 0.0000 0.0000 50.7166 0.0000 0.0000
# 5 0.0000 0.0000 0.0000 0.0000 11.7718 0.0000
# 6 0.0000 0.0000 0.0000 0.0000 0.0000 -9.0628
#
#
#
# Elastic Compliance Matrix: (Units=1/GPa)
#
#
# Indices 1 2 3 4 5 6 
#
# 1 0.015541 -0.008009 -0.008991 0.000000 0.000000 0.000000
# 2 -0.008009 0.022526 -0.022747 0.000000 0.000000 0.000000
# 3 -0.008991 -0.022747 0.072880 0.000000 0.000000 0.000000
# 4 0.000000 0.000000 0.000000 0.019717 0.000000 0.000000
# 5 0.000000 0.000000 0.000000 0.000000 0.084949 0.000000
# 6 0.000000 0.000000 0.000000 0.000000 0.000000 -0.110341
#
#
# Mechanical properties :
#
#
# Convention : Reuss Voigt Hill
#
# Bulk Modulus (GPa) = 31.79236 81.65004 56.72120
# Shear Modulus (GPa) = 25.60815 18.16125 21.88470
#
# Velocity S-wave (km/s) = 3.72123 3.13379 3.44007
# Velocity P-wave (km/s) = 5.97118 7.56612 6.81547
#
# Compressibility (1/GPa) = 0.03145410
#
# Stress axis : x y z
#
# Youngs Moduli (GPa) = 64.34655 44.39353 13.72111
#
# Poissons Ratio (x) = 0.35555 0.12336
# Poissons Ratio (y) = 0.51535 0.31211
# Poissons Ratio (z) = 0.57852 1.00981
#
# Static dielectric constant tensor:
#      x y z
#    x 1.620820 0.000000 0.000000 
#    y 0.000000 1.642730 0.000000 
#    z 0.000000 0.000000 1.615550 
# 
# From -- ./inp_files/12779.got.cif
#   From: 2010.05.17/outbox.cif.g08.bks.cpg/sg47_7_cif.got.tgz:12779.got - 2010.06.03 20:15:42.
