data_PCOD9387225
_publ_section_title
;
Structure prediction by ZEFSAII (Michael W. Deem and Ramdas Pophale) SiO2 
 PCOD9387225
Probable space group: P M M M
;
_chemical_formula_sum "Si O2"
_cell_formula_units_Z 48
_cell_length_a 9.604409
_cell_length_b 7.981295
_cell_length_c 31.933844
_cell_angle_alpha 90.000000
_cell_angle_beta 90.000000
_cell_angle_gamma 90.000000
_cell_volume 2447.908660
_symmetry_space_group_name_H-M "P M M M"
_symmetry_group_IT_number 47
_symmetry_cell_setting 'orthorhombic'
loop_
_space_group_symop_operation_xyz
x,y,z
-x,-y,z
x,-y,-z
-x,y,-z
-x,-y,-z
x,y,-z
-x,y,z
x,-y,z
loop_
_atom_site_type_symbol
_atom_site_label
_atom_site_fract_x
_atom_site_fract_y
_atom_site_fract_z
Si Si1 0.158009 0.799011 0.251171
Si Si2 0.341260 0.201897 0.670966
Si Si3 0.169268 0.693257 0.500000
Si Si4 0.657913 0.701799 0.921857
Si Si5 0.839647 0.296960 0.591311
Si Si6 0.155762 0.199087 0.000000
Si Si7 0.659845 0.702393 0.172518
O O1 0.251576 0.734066 0.289613
O O2 0.235075 0.762421 0.207736
O O3 0.000000 0.733295 0.252183
O O4 0.150473 0.000000 0.255704
O O5 0.500000 0.264972 0.671485
O O6 0.261124 0.244724 0.628395
O O7 0.347084 0.000000 0.674206
O O8 0.218430 0.500000 0.500000
O O9 0.206948 0.766915 0.545239
O O10 0.000000 0.689284 0.500000
O O11 0.500000 0.760556 0.930770
O O12 0.653755 0.500000 0.920719
O O13 0.760995 0.751105 0.958474
O O14 0.695980 0.758291 0.874802
O O15 0.842054 0.500000 0.589119
O O16 0.000000 0.242438 0.599122
O O17 0.000000 0.271349 0.000000
O O18 0.146450 0.000000 0.000000
O O19 0.500000 0.756077 0.181316
O O20 0.660640 0.500000 0.172793
#
# Coordination Sequence:
#
# PCOD9387225 Si02
#       7
#     8   8   4   8   8   4   8
#     4  10  21  36  54  76 102 134 171 210 253 301
#     4  10  21  36  52  71  99 136 174 210 251 300
#     4   7  12  26  48  73 100 128 160 201 248 299
#     4   9  19  37  59  80 103 135 175 214 253 302
#     4   9  17  31  53  78 101 128 165 208 253 301
#     4  11  24  37  50  76 112 143 174 215 258 300
#     4   9  19  36  57  81 107 134 167 209 255 303
#
# _framework density 19.608574000000001
#
# number of rings (size 3 to 8) (size 9 to 14) (size 15 to 20)
#    0.000    2.667    0.000    3.500    0.000    6.667 
#    0.000    5.833    0.000    4.000    0.000    0.000 
#    0.000    0.000    0.000    0.000    0.000    0.000 
#
# Total GULP energy -267764.946363 kJ/mol
# GULP energy per Si atom -5578.436383 kJ/mol
# Density = 1.956394 g / cm^3
# Si number density = 19.608574 Si / 1000 Ang^3
#
#
#
# Elastic Constant Matrix: (Units=GPa)
#
#
# Indices 1 2 3 4 5 6 
#
# 1 167.4765 12.5807 138.5134 0.0000 0.0000 0.0000
# 2 12.5807 13.8517 7.4723 0.0000 0.0000 0.0000
# 3 138.5134 7.4723 200.3343 0.0000 0.0000 0.0000
# 4 0.0000 0.0000 0.0000 35.7064 0.0000 0.0000
# 5 0.0000 0.0000 0.0000 0.0000 50.7796 0.0000
# 6 0.0000 0.0000 0.0000 0.0000 0.0000 23.9059
#
#
#
# Elastic Compliance Matrix: (Units=1/GPa)
#
#
# Indices 1 2 3 4 5 6 
#
# 1 0.014780 -0.008074 -0.009918 0.000000 0.000000 0.000000
# 2 -0.008074 0.078086 0.002670 0.000000 0.000000 0.000000
# 3 -0.009918 0.002670 0.011750 0.000000 0.000000 0.000000
# 4 0.000000 0.000000 0.000000 0.028006 0.000000 0.000000
# 5 0.000000 0.000000 0.000000 0.000000 0.019693 0.000000
# 6 0.000000 0.000000 0.000000 0.000000 0.000000 0.041831
#
#
# Mechanical properties :
#
#
# Convention : Reuss Voigt Hill
#
# Bulk Modulus (GPa) = 13.51868 77.64392 45.58130
# Shear Modulus (GPa) = 20.04426 36.95145 28.49785
#
# Velocity S-wave (km/s) = 3.20068 4.34574 3.81640
# Velocity P-wave (km/s) = 4.53524 8.05379 6.53574
#
# Compressibility (1/GPa) = 0.07397172
#
# Stress axis : x y z
#
# Youngs Moduli (GPa) = 67.65680 12.80636 85.10888
#
# Poissons Ratio (x) = 0.10340 0.84413
# Poissons Ratio (y) = 0.54625 -0.22722
# Poissons Ratio (z) = 0.67104 -0.03419
#
# Static dielectric constant tensor:
#      x y z
#    x 1.676420 0.000000 0.000000 
#    y 0.000000 1.713730 0.000000 
#    z 0.000000 0.000000 1.686220 
# 
# From -- ./inp_files/2794.got.cif
#   From: 2010.05.17/outbox.cif.g08.bks.cpg/sg47_2_cif.got.tgz:2794.got - 2010.06.03 20:15:42.
