data_PCOD9387274
_publ_section_title
;
Structure prediction by ZEFSAII (Michael W. Deem and Ramdas Pophale) SiO2 
 PCOD9387274
Probable space group: P M M M
;
_chemical_formula_sum "Si O2"
_cell_formula_units_Z 56
_cell_length_a 8.888781
_cell_length_b 22.998921
_cell_length_c 14.958621
_cell_angle_alpha 90.000000
_cell_angle_beta 90.000000
_cell_angle_gamma 90.000000
_cell_volume 3058.026373
_symmetry_space_group_name_H-M "P M M M"
_symmetry_group_IT_number 47
_symmetry_cell_setting 'orthorhombic'
loop_
_space_group_symop_operation_xyz
x,y,z
-x,-y,z
x,-y,-z
-x,y,-z
-x,-y,-z
x,y,-z
-x,y,z
x,-y,z
loop_
_atom_site_type_symbol
_atom_site_label
_atom_site_fract_x
_atom_site_fract_y
_atom_site_fract_z
Si Si1 0.318081 0.609407 0.297076
Si Si2 0.679184 0.933580 0.686850
Si Si3 0.677452 0.616099 0.097239
Si Si4 0.823234 0.821274 0.259030
Si Si5 0.831905 0.929980 0.500000
Si Si6 0.175739 0.500000 0.393234
Si Si7 0.817962 0.722073 0.394858
Si Si8 0.673663 0.243911 0.898725
O O1 0.500000 0.612307 0.296260
O O2 0.264163 0.598042 0.194605
O O3 0.258471 0.556680 0.356165
O O4 0.255015 0.669009 0.339626
O O5 0.500000 0.933627 0.684779
O O6 0.739873 0.882662 0.748844
O O7 0.743522 0.916439 0.589696
O O8 0.729175 0.000000 0.707124
O O9 0.500000 0.600475 0.095699
O O10 0.686082 0.686264 0.100087
O O11 0.741140 0.597121 0.000000
O O12 0.776026 0.781963 0.344442
O O13 0.784189 0.783259 0.172641
O O14 0.000000 0.832107 0.267074
O O15 0.000000 0.904444 0.500000
O O16 0.844779 0.000000 0.500000
O O17 0.181509 0.500000 0.500000
O O18 0.000000 0.500000 0.366445
O O19 0.776022 0.721253 0.500000
O O20 0.000000 0.716504 0.389941
O O21 0.500000 0.230331 0.874398
O O22 0.700836 0.223508 0.000000
#
# Coordination Sequence:
#
# PCOD9387274 Si02
#       8
#     8   8   8   8   4   4   8   8
#     4  11  21  36  61  88 111 139 186 239 274 313
#     4  10  21  36  53  74 104 144 190 236 279 330
#     4   8  15  30  54  83 113 143 174 215 273 332
#     4  11  22  34  54  82 112 146 185 230 279 335
#     4   9  17  31  51  73  99 135 179 224 273 328
#     4  11  25  43  60  77 108 156 195 225 272 333
#     4  10  22  38  53  75 113 154 184 218 274 335
#     4   9  17  33  57  82 111 146 181 221 274 338
#
# _framework density 18.312463999999999
#
# number of rings (size 3 to 8) (size 9 to 14) (size 15 to 20)
#    0.000    2.143    1.429    3.000    1.000    5.143 
#    0.000    0.357    0.000    4.286    0.000    3.000 
#    0.000    0.000    0.000    0.000    0.000    0.000 
#
# Total GULP energy -312260.950562 kJ/mol
# GULP energy per Si atom -5576.088403 kJ/mol
# Density = 1.827078 g / cm^3
# Si number density = 18.312464 Si / 1000 Ang^3
#
#
#
# Elastic Constant Matrix: (Units=GPa)
#
#
# Indices 1 2 3 4 5 6 
#
# 1 38.6342 24.6034 21.5749 0.0000 0.0000 0.0000
# 2 24.6034 68.1650 16.9264 0.0000 0.0000 0.0000
# 3 21.5749 16.9264 87.6505 0.0000 0.0000 0.0000
# 4 0.0000 0.0000 0.0000 -37.9047 0.0000 0.0000
# 5 0.0000 0.0000 0.0000 0.0000 19.6032 0.0000
# 6 0.0000 0.0000 0.0000 0.0000 0.0000 19.7007
#
#
#
# Elastic Compliance Matrix: (Units=1/GPa)
#
#
# Indices 1 2 3 4 5 6 
#
# 1 0.037192 -0.011712 -0.006893 0.000000 0.000000 0.000000
# 2 -0.011712 0.019098 -0.000805 0.000000 0.000000 0.000000
# 3 -0.006893 -0.000805 0.013261 0.000000 0.000000 0.000000
# 4 0.000000 0.000000 0.000000 -0.026382 0.000000 0.000000
# 5 0.000000 0.000000 0.000000 0.000000 0.051012 0.000000
# 6 0.000000 0.000000 0.000000 0.000000 0.000000 0.050760
#
#
# Mechanical properties :
#
#
# Convention : Reuss Voigt Hill
#
# Bulk Modulus (GPa) = 32.54146 35.62878 34.08512
# Shear Modulus (GPa) = 25.77263 9.03617 17.40440
#
# Velocity S-wave (km/s) = 3.75558 2.22377 3.08622
# Velocity P-wave (km/s) = 6.05099 5.10801 5.59939
#
# Compressibility (1/GPa) = 0.03073003
#
# Stress axis : x y z
#
# Youngs Moduli (GPa) = 26.88761 52.36251 75.40873
#
# Poissons Ratio (x) = 0.61329 0.51978
# Poissons Ratio (y) = 0.31492 0.06071
# Poissons Ratio (z) = 0.18533 0.04215
#
# Static dielectric constant tensor:
#      x y z
#    x 1.618060 0.000000 0.000000 
#    y 0.000000 1.636150 0.000000 
#    z 0.000000 0.000000 1.782510 
# 
# From -- ./inp_files/21694.got.cif
#   From: 2010.05.17/outbox.cif.g08.bks.cpg/sg47_11_cif.got.tgz:21694.got - 2010.06.03 20:15:42.
