data_PCOD9387273
_publ_section_title
;
Structure prediction by ZEFSAII (Michael W. Deem and Ramdas Pophale) SiO2 
 PCOD9387273
Probable space group: P M M M
;
_chemical_formula_sum "Si O2"
_cell_formula_units_Z 36
_cell_length_a 7.495275
_cell_length_b 26.248846
_cell_length_c 9.156809
_cell_angle_alpha 90.000000
_cell_angle_beta 90.000000
_cell_angle_gamma 90.000000
_cell_volume 1801.531839
_symmetry_space_group_name_H-M "P M M M"
_symmetry_group_IT_number 47
_symmetry_cell_setting 'orthorhombic'
loop_
_space_group_symop_operation_xyz
x,y,z
-x,-y,z
x,-y,-z
-x,y,-z
-x,-y,-z
x,y,-z
-x,y,z
x,-y,z
loop_
_atom_site_type_symbol
_atom_site_label
_atom_site_fract_x
_atom_site_fract_y
_atom_site_fract_z
Si Si1 0.787434 0.945172 0.323186
Si Si2 0.287101 0.268359 0.835716
Si Si3 0.785700 0.164981 0.666793
Si Si4 0.286537 0.370545 0.673017
Si Si5 0.000000 0.560408 0.826362
O O1 0.768665 0.944270 0.500000
O O2 0.718512 0.889886 0.274471
O O3 0.000000 0.946301 0.292774
O O4 0.714303 0.000000 0.272074
O O5 0.500000 0.273474 0.844425
O O6 0.252782 0.213875 0.763346
O O7 0.227394 0.315736 0.737155
O O8 0.214356 0.271236 0.000000
O O9 0.720759 0.172631 0.500000
O O10 0.000000 0.160407 0.658776
O O11 0.254194 0.372063 0.500000
O O12 0.500000 0.376606 0.696655
O O13 0.172419 0.413282 0.754273
O O14 0.000000 0.500000 0.800889
O O15 0.000000 0.569688 0.000000
#
# Coordination Sequence:
#
# PCOD9387273 Si02
#       5
#     8   8   8   8   4
#     4   7  10  19  37  62  92 124 160 207 264 323
#     4  10  21  36  53  74 104 143 183 223 273 334
#     4   9  17  28  46  74 102 129 167 218 274 330
#     4  10  22  41  65  91 120 157 201 249 296 340
#     4  11  25  43  65  95 129 165 200 235 282 341
#
# _framework density 19.982993
#
# number of rings (size 3 to 8) (size 9 to 14) (size 15 to 20)
#    0.000    2.778    0.000    3.667    1.556    4.444 
#    0.000    2.222    0.000    1.333    0.000    7.778 
#    0.000    0.000    0.000    0.000    0.000    0.000 
#
# Total GULP energy -200736.342607 kJ/mol
# GULP energy per Si atom -5576.009517 kJ/mol
# Density = 1.993751 g / cm^3
# Si number density = 19.982993 Si / 1000 Ang^3
#
#
#
# Elastic Constant Matrix: (Units=GPa)
#
#
# Indices 1 2 3 4 5 6 
#
# 1 66.7169 46.9112 39.1044 0.0000 0.0000 0.0000
# 2 46.9112 209.9583 104.8700 0.0000 0.0000 0.0000
# 3 39.1044 104.8700 111.2263 0.0000 0.0000 0.0000
# 4 0.0000 0.0000 0.0000 158.8213 0.0000 0.0000
# 5 0.0000 0.0000 0.0000 0.0000 20.0533 0.0000
# 6 0.0000 0.0000 0.0000 0.0000 0.0000 60.1270
#
#
#
# Elastic Compliance Matrix: (Units=1/GPa)
#
#
# Indices 1 2 3 4 5 6 
#
# 1 0.019208 -0.001736 -0.005116 0.000000 0.000000 0.000000
# 2 -0.001736 0.009159 -0.008025 0.000000 0.000000 0.000000
# 3 -0.005116 -0.008025 0.018356 0.000000 0.000000 0.000000
# 4 0.000000 0.000000 0.000000 0.006296 0.000000 0.000000
# 5 0.000000 0.000000 0.000000 0.000000 0.049867 0.000000
# 6 0.000000 0.000000 0.000000 0.000000 0.000000 0.016631
#
#
# Mechanical properties :
#
#
# Convention : Reuss Voigt Hill
#
# Bulk Modulus (GPa) = 58.93412 85.51918 72.22665
# Shear Modulus (GPa) = 32.27253 60.93470 46.60361
#
# Velocity S-wave (km/s) = 4.02307 5.52806 4.83449
# Velocity P-wave (km/s) = 7.15096 9.14521 8.20887
#
# Compressibility (1/GPa) = 0.01696810
#
# Stress axis : x y z
#
# Youngs Moduli (GPa) = 52.06099 109.17769 54.47756
#
# Poissons Ratio (x) = 0.18957 0.27871
# Poissons Ratio (y) = 0.09040 0.43721
# Poissons Ratio (z) = 0.26634 0.87620
#
# Static dielectric constant tensor:
#      x y z
#    x 1.768040 0.000000 0.000000 
#    y 0.000000 1.723480 0.000000 
#    z 0.000000 0.000000 1.678240 
# 
# From -- ./inp_files/1362.got.cif
#   From: 2010.05.17/outbox.cif.g08.bks.cpg/sg47_1_cif.got.tgz:1362.got - 2010.06.03 20:15:42.
