data_PCOD9387035
_publ_section_title
;
Structure prediction by ZEFSAII (Michael W. Deem and Ramdas Pophale) SiO2 
 PCOD9387035
Probable space group: P M M M
;
_chemical_formula_sum "Si O2"
_cell_formula_units_Z 44
_cell_length_a 9.445003
_cell_length_b 30.903057
_cell_length_c 7.573671
_cell_angle_alpha 90.000000
_cell_angle_beta 90.000000
_cell_angle_gamma 90.000000
_cell_volume 2210.599048
_symmetry_space_group_name_H-M "P M M M"
_symmetry_group_IT_number 47
_symmetry_cell_setting 'orthorhombic'
loop_
_space_group_symop_operation_xyz
x,y,z
-x,-y,z
x,-y,-z
-x,y,-z
-x,-y,-z
x,y,-z
-x,y,z
x,-y,z
loop_
_atom_site_type_symbol
_atom_site_label
_atom_site_fract_x
_atom_site_fract_y
_atom_site_fract_z
Si Si1 0.838006 0.690793 0.288660
Si Si2 0.839556 0.212434 0.788800
Si Si3 0.161889 0.048096 0.712727
Si Si4 0.341877 0.867590 0.210293
Si Si5 0.166770 0.551803 0.000000
Si Si6 0.331612 0.605653 0.712257
O O1 0.846133 0.688485 0.500000
O O2 0.786361 0.738968 0.243792
O O3 0.735075 0.652116 0.234330
O O4 0.000000 0.685804 0.219786
O O5 0.744900 0.173437 0.718055
O O6 0.000000 0.209973 0.718027
O O7 0.848021 0.207283 0.000000
O O8 0.159064 0.047164 0.500000
O O9 0.259815 0.087637 0.764636
O O10 0.000000 0.055156 0.773423
O O11 0.207348 0.000000 0.772630
O O12 0.500000 0.869917 0.283399
O O13 0.352406 0.861029 0.000000
O O14 0.246595 0.571060 0.828828
O O15 0.175169 0.500000 0.000000
O O16 0.000000 0.564188 0.000000
O O17 0.311137 0.599780 0.500000
O O18 0.500000 0.604097 0.746408
#
# Coordination Sequence:
#
# PCOD9387035 Si02
#       6
#     8   8   8   8   4   8
#     4   9  18  33  54  81 112 148 191 236 282 335
#     4   9  18  32  50  73 103 142 185 226 269 320
#     4   9  19  36  56  76  97 125 166 215 266 322
#     4  10  21  35  50  73 106 140 174 214 264 322
#     4  11  25  43  65  93 123 161 211 259 304 359
#     4  10  22  40  62  91 127 164 202 249 306 366
#
# _framework density 19.904107
#
# number of rings (size 3 to 8) (size 9 to 14) (size 15 to 20)
#    0.000    2.455    0.000    1.909    1.273    5.818 
#    0.000    6.364    0.000    0.000    0.000    0.000 
#    0.000    0.000    0.000    0.000    0.000    0.000 
#
# Total GULP energy -245551.556415 kJ/mol
# GULP energy per Si atom -5580.717191 kJ/mol
# Density = 1.985880 g / cm^3
# Si number density = 19.904107 Si / 1000 Ang^3
#
#
#
# Elastic Constant Matrix: (Units=GPa)
#
#
# Indices 1 2 3 4 5 6 
#
# 1 134.5304 109.4359 36.4023 0.0000 0.0000 0.0000
# 2 109.4359 169.9302 29.0675 0.0000 0.0000 0.0000
# 3 36.4023 29.0675 59.8204 0.0000 0.0000 0.0000
# 4 0.0000 0.0000 0.0000 32.8233 0.0000 0.0000
# 5 0.0000 0.0000 0.0000 0.0000 12.1250 0.0000
# 6 0.0000 0.0000 0.0000 0.0000 0.0000 -49.8875
#
#
#
# Elastic Compliance Matrix: (Units=1/GPa)
#
#
# Indices 1 2 3 4 5 6 
#
# 1 0.017137 -0.010091 -0.005525 0.000000 0.000000 0.000000
# 2 -0.010091 0.012361 0.000135 0.000000 0.000000 0.000000
# 3 -0.005525 0.000135 0.020013 0.000000 0.000000 0.000000
# 4 0.000000 0.000000 0.000000 0.030466 0.000000 0.000000
# 5 0.000000 0.000000 0.000000 0.000000 0.082474 0.000000
# 6 0.000000 0.000000 0.000000 0.000000 0.000000 -0.020045
#
#
# Mechanical properties :
#
#
# Convention : Reuss Voigt Hill
#
# Bulk Modulus (GPa) = 53.91438 79.34361 66.62900
# Shear Modulus (GPa) = 27.84698 11.63719 19.74208
#
# Velocity S-wave (km/s) = 3.74445 2.42060 3.15280
# Velocity P-wave (km/s) = 6.77056 6.91100 6.84114
#
# Compressibility (1/GPa) = 0.01854793
#
# Stress axis : x y z
#
# Youngs Moduli (GPa) = 58.35229 80.90178 49.96674
#
# Poissons Ratio (x) = 0.81642 0.27606
# Poissons Ratio (y) = 0.58886 -0.00673
# Poissons Ratio (z) = 0.32239 -0.01090
#
# Static dielectric constant tensor:
#      x y z
#    x 1.695610 0.000000 0.000000 
#    y 0.000000 1.679900 0.000000 
#    z 0.000000 0.000000 1.735440 
# 
# From -- ./inp_files/2292.got.cif
#   From: 2010.05.17/outbox.cif.g08.bks.cpg/sg47_2_cif.got.tgz:2292.got - 2010.06.03 20:15:42.
