data_PCOD9387349
_publ_section_title
;
Structure prediction by ZEFSAII (Michael W. Deem and Ramdas Pophale) SiO2 
 PCOD9387349
Probable space group: P M M M
;
_chemical_formula_sum "Si O2"
_cell_formula_units_Z 44
_cell_length_a 18.252326
_cell_length_b 14.131629
_cell_length_c 8.732535
_cell_angle_alpha 90.000000
_cell_angle_beta 90.000000
_cell_angle_gamma 90.000000
_cell_volume 2252.427283
_symmetry_space_group_name_H-M "P M M M"
_symmetry_group_IT_number 47
_symmetry_cell_setting 'orthorhombic'
loop_
_space_group_symop_operation_xyz
x,y,z
-x,-y,z
x,-y,-z
-x,y,-z
-x,-y,-z
x,y,-z
-x,y,z
x,-y,z
loop_
_atom_site_type_symbol
_atom_site_label
_atom_site_fract_x
_atom_site_fract_y
_atom_site_fract_z
Si Si1 0.224123 0.745824 0.825789
Si Si2 0.911375 0.000000 0.827368
Si Si3 0.646382 0.386855 0.830352
Si Si4 0.657242 0.111768 0.316867
Si Si5 0.083136 0.199175 0.681976
Si Si6 0.416296 0.384882 0.500000
Si Si7 0.500000 0.114806 0.824251
O O1 0.270764 0.649887 0.826879
O O2 0.278436 0.824033 0.752579
O O3 0.147463 0.734558 0.740654
O O4 0.208803 0.774507 0.000000
O O5 0.892508 0.904755 0.739151
O O6 0.000000 0.000000 0.834591
O O7 0.882564 0.000000 0.000000
O O8 0.639786 0.500000 0.831115
O O9 0.615110 0.354041 0.665376
O O10 0.616666 0.354304 0.000000
O O11 0.657678 0.120484 0.500000
O O12 0.576815 0.141315 0.254817
O O13 0.667980 0.000000 0.278409
O O14 0.080896 0.199241 0.500000
O O15 0.000000 0.217704 0.738768
O O16 0.411358 0.500000 0.500000
O O17 0.500000 0.356063 0.500000
O O18 0.500000 0.000000 0.822230
O O19 0.500000 0.146722 0.000000
#
# Coordination Sequence:
#
# PCOD9387349 Si02
#       7
#     8   4   8   8   8   4   4
#     4  11  23  37  57  83 110 144 187 232 281 338
#     4   9  17  31  51  75 105 142 181 220 271 331
#     4   9  20  39  60  85 117 151 190 237 288 342
#     4  10  21  36  54  77 108 146 186 229 275 325
#     4  10  21  36  55  79 110 146 184 230 282 338
#     4   9  18  34  60  90 116 150 191 232 288 348
#     4   9  17  33  55  75 102 141 186 233 275 320
#
# _framework density 19.534482000000001
#
# number of rings (size 3 to 8) (size 9 to 14) (size 15 to 20)
#    0.000    2.273    0.000    2.182    3.818    4.727 
#    1.636    1.818    0.000    0.545    0.000    3.818 
#    0.000    0.000    0.000    0.000    0.000    0.000 
#
# Total GULP energy -245366.204955 kJ/mol
# GULP energy per Si atom -5576.504658 kJ/mol
# Density = 1.949002 g / cm^3
# Si number density = 19.534482 Si / 1000 Ang^3
#
#
#
# Elastic Constant Matrix: (Units=GPa)
#
#
# Indices 1 2 3 4 5 6 
#
# 1 99.9931 2.9933 55.8116 0.0000 0.0000 0.0000
# 2 2.9933 18.2390 17.1850 0.0000 0.0000 0.0000
# 3 55.8116 17.1850 136.9337 0.0000 0.0000 0.0000
# 4 0.0000 0.0000 0.0000 8.7943 0.0000 0.0000
# 5 0.0000 0.0000 0.0000 0.0000 -16.6474 0.0000
# 6 0.0000 0.0000 0.0000 0.0000 0.0000 24.5205
#
#
#
# Elastic Compliance Matrix: (Units=1/GPa)
#
#
# Indices 1 2 3 4 5 6 
#
# 1 0.013116 0.003271 -0.005756 0.000000 0.000000 0.000000
# 2 0.003271 0.062996 -0.009239 0.000000 0.000000 0.000000
# 3 -0.005756 -0.009239 0.010808 0.000000 0.000000 0.000000
# 4 0.000000 0.000000 0.000000 0.113710 0.000000 0.000000
# 5 0.000000 0.000000 0.000000 0.000000 -0.060069 0.000000
# 6 0.000000 0.000000 0.000000 0.000000 0.000000 0.040782
#
#
# Mechanical properties :
#
#
# Convention : Reuss Voigt Hill
#
# Bulk Modulus (GPa) = 15.75512 45.23837 30.49675
# Shear Modulus (GPa) = 22.12892 15.27853 18.70372
#
# Velocity S-wave (km/s) = 3.36938 2.79969 3.09766
# Velocity P-wave (km/s) = 4.81869 5.80168 5.33288
#
# Compressibility (1/GPa) = 0.06347144
#
# Stress axis : x y z
#
# Youngs Moduli (GPa) = 76.24501 15.87406 92.52049
#
# Poissons Ratio (x) = -0.05193 0.53257
# Poissons Ratio (y) = -0.24940 0.85481
# Poissons Ratio (z) = 0.43888 0.14666
#
# Static dielectric constant tensor:
#      x y z
#    x 1.682900 0.000000 0.000000 
#    y 0.000000 1.700420 0.000000 
#    z 0.000000 0.000000 1.733300 
# 
# From -- ./inp_files/9024.got.cif
#   From: 2010.05.17/outbox.cif.g08.bks.cpg/sg47_5_cif.got.tgz:9024.got - 2010.06.03 20:15:42.
