data_PCOD9387607
_publ_section_title
;
Structure prediction by ZEFSAII (Michael W. Deem and Ramdas Pophale) SiO2 
 PCOD9387607
Probable space group: P M M M
;
_chemical_formula_sum "Si O2"
_cell_formula_units_Z 40
_cell_length_a 9.352114
_cell_length_b 15.670667
_cell_length_c 13.843910
_cell_angle_alpha 90.000000
_cell_angle_beta 90.000000
_cell_angle_gamma 90.000000
_cell_volume 2028.878507
_symmetry_space_group_name_H-M "P M M M"
_symmetry_group_IT_number 47
_symmetry_cell_setting 'orthorhombic'
loop_
_space_group_symop_operation_xyz
x,y,z
-x,-y,z
x,-y,-z
-x,y,-z
-x,-y,-z
x,y,-z
-x,y,z
x,-y,z
loop_
_atom_site_type_symbol
_atom_site_label
_atom_site_fract_x
_atom_site_fract_y
_atom_site_fract_z
Si Si1 0.841574 0.158308 0.891624
Si Si2 0.835501 0.602450 0.000000
Si Si3 0.340696 0.000000 0.117587
Si Si4 0.163212 0.741066 0.298939
Si Si5 0.331182 0.601821 0.799204
Si Si6 0.666685 0.902673 0.383467
O O1 0.736411 0.086055 0.854961
O O2 0.846332 0.229937 0.812549
O O3 0.000000 0.119476 0.897173
O O4 0.802133 0.186464 0.000000
O O5 0.745954 0.620244 0.902431
O O6 0.851191 0.500000 0.000000
O O7 0.000000 0.638324 0.000000
O O8 0.500000 0.000000 0.152316
O O9 0.338191 0.000000 0.000000
O O10 0.257628 0.655878 0.287168
O O11 0.238604 0.822153 0.349816
O O12 0.000000 0.727714 0.334242
O O13 0.500000 0.622935 0.806008
O O14 0.317417 0.500000 0.782729
O O15 0.670792 0.903291 0.500000
O O16 0.500000 0.890440 0.354784
O O17 0.710627 0.000000 0.352860
#
# Coordination Sequence:
#
# PCOD9387607 Si02
#       6
#     8   4   4   8   8   8
#     4   9  19  34  48  67 104 150 188 223 269 329
#     4   9  17  31  53  79 110 151 198 247 297 345
#     4   9  17  29  45  65  90 129 180 227 267 310
#     4  11  23  35  56  87 115 149 192 241 294 345
#     4  10  21  37  56  80 113 154 200 247 293 344
#     4   9  20  41  66  89 116 151 189 234 291 353
#
# _framework density 19.715325
#
# number of rings (size 3 to 8) (size 9 to 14) (size 15 to 20)
#    0.000    2.400    0.000    2.400    2.800    6.000 
#    0.000    1.000    0.000    0.600    0.000    4.200 
#    0.000    0.000    0.000    0.000    0.000    0.000 
#
# Total GULP energy -222976.814888 kJ/mol
# GULP energy per Si atom -5574.420372 kJ/mol
# Density = 1.967045 g / cm^3
# Si number density = 19.715325 Si / 1000 Ang^3
#
#
#
# Elastic Constant Matrix: (Units=GPa)
#
#
# Indices 1 2 3 4 5 6 
#
# 1 138.0622 73.2188 22.7177 0.0000 0.0000 0.0000
# 2 73.2188 99.0612 26.6678 0.0000 0.0000 0.0000
# 3 22.7177 26.6678 44.2347 0.0000 0.0000 0.0000
# 4 0.0000 0.0000 0.0000 33.6249 0.0000 0.0000
# 5 0.0000 0.0000 0.0000 0.0000 21.4953 0.0000
# 6 0.0000 0.0000 0.0000 0.0000 0.0000 29.9399
#
#
#
# Elastic Compliance Matrix: (Units=1/GPa)
#
#
# Indices 1 2 3 4 5 6 
#
# 1 0.011947 -0.008570 -0.000969 0.000000 0.000000 0.000000
# 2 -0.008570 0.018197 -0.006570 0.000000 0.000000 0.000000
# 3 -0.000969 -0.006570 0.027065 0.000000 0.000000 0.000000
# 4 0.000000 0.000000 0.000000 0.029740 0.000000 0.000000
# 5 0.000000 0.000000 0.000000 0.000000 0.046522 0.000000
# 6 0.000000 0.000000 0.000000 0.000000 0.000000 0.033400
#
#
# Mechanical properties :
#
#
# Convention : Reuss Voigt Hill
#
# Bulk Modulus (GPa) = 40.01178 58.50742 49.25960
# Shear Modulus (GPa) = 24.10568 27.59562 25.85065
#
# Velocity S-wave (km/s) = 3.50049 3.74532 3.62497
# Velocity P-wave (km/s) = 6.05613 6.96016 6.52382
#
# Compressibility (1/GPa) = 0.02499264
#
# Stress axis : x y z
#
# Youngs Moduli (GPa) = 83.70031 54.95291 36.94785
#
# Poissons Ratio (x) = 0.47093 0.03582
# Poissons Ratio (y) = 0.71728 0.24273
# Poissons Ratio (z) = 0.08114 0.36102
#
# Static dielectric constant tensor:
#      x y z
#    x 1.711600 0.000000 0.000000 
#    y 0.000000 1.714720 0.000000 
#    z 0.000000 0.000000 1.712750 
# 
# From -- ./inp_files/20735.got.cif
#   From: 2010.05.17/outbox.cif.g08.bks.cpg/sg47_11_cif.got.tgz:20735.got - 2010.06.03 20:15:42.
