data_PCOD9387097
_publ_section_title
;
Structure prediction by ZEFSAII (Michael W. Deem and Ramdas Pophale) SiO2 
 PCOD9387097
Probable space group: P M M M
;
_chemical_formula_sum "Si O2"
_cell_formula_units_Z 44
_cell_length_a 28.813284
_cell_length_b 9.730622
_cell_length_c 9.271656
_cell_angle_alpha 90.000000
_cell_angle_beta 90.000000
_cell_angle_gamma 90.000000
_cell_volume 2599.505089
_symmetry_space_group_name_H-M "P M M M"
_symmetry_group_IT_number 47
_symmetry_cell_setting 'orthorhombic'
loop_
_space_group_symop_operation_xyz
x,y,z
-x,-y,z
x,-y,-z
-x,y,-z
-x,-y,-z
x,y,-z
-x,y,z
x,-y,z
loop_
_atom_site_type_symbol
_atom_site_label
_atom_site_fract_x
_atom_site_fract_y
_atom_site_fract_z
Si Si1 0.869500 0.161062 0.827037
Si Si2 0.685024 0.662717 0.329133
Si Si3 0.500000 0.158305 0.824387
Si Si4 0.588337 0.661214 0.172754
Si Si5 0.763399 0.836335 0.171718
Si Si6 0.947433 0.337830 0.672775
O O1 0.816514 0.199704 0.787924
O O2 0.908059 0.251314 0.750290
O O3 0.875669 0.000000 0.791661
O O4 0.873318 0.174472 0.000000
O O5 0.682190 0.686754 0.500000
O O6 0.693581 0.500000 0.305453
O O7 0.635948 0.695303 0.253719
O O8 0.725864 0.750719 0.258817
O O9 0.545948 0.241905 0.781098
O O10 0.500000 0.000000 0.776170
O O11 0.500000 0.157703 0.000000
O O12 0.577249 0.500000 0.199276
O O13 0.594952 0.676510 0.000000
O O14 0.757699 0.000000 0.194962
O O15 0.758037 0.811835 0.000000
O O16 0.943936 0.321356 0.500000
O O17 0.942221 0.500000 0.704151
O O18 0.000000 0.297065 0.715495
#
# Coordination Sequence:
#
# PCOD9387097 Si02
#       6
#     8   8   4   8   8   8
#     4   9  19  35  53  75 102 130 164 207 252 298
#     4  10  21  35  51  75 105 134 167 207 250 297
#     4   9  17  29  48  75 100 122 158 207 250 289
#     4   9  17  31  51  72  96 129 166 202 243 292
#     4   9  19  36  55  74  99 132 168 206 250 299
#     4   9  19  35  52  72 101 135 169 205 246 294
#
# _framework density 16.926300000000001
#
# number of rings (size 3 to 8) (size 9 to 14) (size 15 to 20)
#    0.000    2.818    0.000    2.455    0.000    6.182 
#    0.000   10.455    0.000    2.727    0.000    0.000 
#    0.000    0.000    0.000    0.000    0.000    0.000 
#
# Total GULP energy -245366.821332 kJ/mol
# GULP energy per Si atom -5576.518667 kJ/mol
# Density = 1.688777 g / cm^3
# Si number density = 16.926300 Si / 1000 Ang^3
#
#
#
# Elastic Constant Matrix: (Units=GPa)
#
#
# Indices 1 2 3 4 5 6 
#
# 1 202.2555 116.8491 79.7486 0.0000 0.0000 0.0000
# 2 116.8491 86.7498 54.4087 0.0000 0.0000 0.0000
# 3 79.7486 54.4087 44.0411 0.0000 0.0000 0.0000
# 4 0.0000 0.0000 0.0000 26.0937 0.0000 0.0000
# 5 0.0000 0.0000 0.0000 0.0000 -46.9510 0.0000
# 6 0.0000 0.0000 0.0000 0.0000 0.0000 56.8970
#
#
#
# Elastic Compliance Matrix: (Units=1/GPa)
#
#
# Indices 1 2 3 4 5 6 
#
# 1 0.024598 -0.023080 -0.016029 0.000000 0.000000 0.000000
# 2 -0.023080 0.072851 -0.048208 0.000000 0.000000 0.000000
# 3 -0.016029 -0.048208 0.111287 0.000000 0.000000 0.000000
# 4 0.000000 0.000000 0.000000 0.038323 0.000000 0.000000
# 5 0.000000 0.000000 0.000000 0.000000 -0.021299 0.000000
# 6 0.000000 0.000000 0.000000 0.000000 0.000000 0.017576
#
#
# Mechanical properties :
#
#
# Convention : Reuss Voigt Hill
#
# Bulk Modulus (GPa) = 29.32296 92.78434 61.05365
# Shear Modulus (GPa) = 11.64584 12.67729 12.16156
#
# Velocity S-wave (km/s) = 2.62588 2.73970 2.68339
# Velocity P-wave (km/s) = 5.15317 8.05876 6.76383
#
# Compressibility (1/GPa) = 0.03410297
#
# Stress axis : x y z
#
# Youngs Moduli (GPa) = 40.65302 13.72672 8.98574
#
# Poissons Ratio (x) = 0.31681 0.14403
# Poissons Ratio (y) = 0.93827 0.43318
# Poissons Ratio (z) = 0.65163 0.66173
#
# Static dielectric constant tensor:
#      x y z
#    x 1.550700 0.000000 0.000000 
#    y 0.000000 1.558060 0.000000 
#    z 0.000000 0.000000 1.555120 
# 
# From -- ./inp_files/2058.got.cif
#   From: 2010.05.17/outbox.cif.g08.bks.cpg/sg47_2_cif.got.tgz:2058.got - 2010.06.03 20:15:42.
