data_PCOD9387557
_publ_section_title
;
Structure prediction by ZEFSAII (Michael W. Deem and Ramdas Pophale) SiO2 
 PCOD9387557
Probable space group: P M M M
;
_chemical_formula_sum "Si O2"
_cell_formula_units_Z 48
_cell_length_a 32.879621
_cell_length_b 9.364280
_cell_length_c 8.006919
_cell_angle_alpha 90.000000
_cell_angle_beta 90.000000
_cell_angle_gamma 90.000000
_cell_volume 2465.282137
_symmetry_space_group_name_H-M "P M M M"
_symmetry_group_IT_number 47
_symmetry_cell_setting 'orthorhombic'
loop_
_space_group_symop_operation_xyz
x,y,z
-x,-y,z
x,-y,-z
-x,y,-z
-x,-y,-z
x,y,-z
-x,y,z
x,-y,z
loop_
_atom_site_type_symbol
_atom_site_label
_atom_site_fract_x
_atom_site_fract_y
_atom_site_fract_z
Si Si1 0.288252 0.161937 0.800740
Si Si2 0.043877 0.167975 0.799025
Si Si3 0.632184 0.665072 0.702185
Si Si4 0.543721 0.326944 0.301525
Si Si5 0.790905 0.661621 0.299117
Si Si6 0.131499 0.836393 0.299723
O O1 0.330152 0.239117 0.753731
O O2 0.249804 0.251546 0.738560
O O3 0.287029 0.000000 0.734495
O O4 0.285797 0.156608 0.000000
O O5 0.086920 0.226763 0.738597
O O6 0.000000 0.227903 0.742129
O O7 0.044076 0.000000 0.749347
O O8 0.044154 0.172979 0.000000
O O9 0.630411 0.662731 0.500000
O O10 0.638028 0.500000 0.756821
O O11 0.587854 0.719030 0.764171
O O12 0.543053 0.294093 0.500000
O O13 0.500000 0.277921 0.230846
O O14 0.544297 0.500000 0.288708
O O15 0.794561 0.654194 0.500000
O O16 0.788399 0.500000 0.234482
O O17 0.830855 0.744032 0.235179
O O18 0.134975 0.844071 0.500000
O O19 0.133587 0.000000 0.234662
#
# Coordination Sequence:
#
# PCOD9387557 Si02
#       6
#     8   8   8   8   8   8
#     4  11  24  38  51  70  97 129 165 203 243 290
#     4   8  14  25  42  66  96 128 161 197 235 274
#     4   9  17  30  51  78 103 128 161 200 243 290
#     4   7  10  19  39  69 101 127 153 191 237 281
#     4  10  21  37  56  76  98 125 159 200 247 299
#     4   9  17  29  47  72  99 125 155 194 239 285
#
# _framework density 19.470389000000001
#
# number of rings (size 3 to 8) (size 9 to 14) (size 15 to 20)
#    0.000    3.000    0.000    3.500    0.000    5.667 
#    0.000    3.333    0.000    1.500    0.000    9.333 
#    0.000    0.000    0.000    0.000    0.000    0.000 
#
# Total GULP energy -267368.850686 kJ/mol
# GULP energy per Si atom -5570.184389 kJ/mol
# Density = 1.942607 g / cm^3
# Si number density = 19.470389 Si / 1000 Ang^3
#
#
#
# Elastic Constant Matrix: (Units=GPa)
#
#
# Indices 1 2 3 4 5 6 
#
# 1 238.3798 88.9085 6.7269 0.0000 0.0000 0.0000
# 2 88.9085 89.5502 8.1399 0.0000 0.0000 0.0000
# 3 6.7269 8.1399 11.4117 0.0000 0.0000 0.0000
# 4 0.0000 0.0000 0.0000 23.4280 0.0000 0.0000
# 5 0.0000 0.0000 0.0000 0.0000 79.3827 0.0000
# 6 0.0000 0.0000 0.0000 0.0000 0.0000 25.0698
#
#
#
# Elastic Compliance Matrix: (Units=1/GPa)
#
#
# Indices 1 2 3 4 5 6 
#
# 1 0.006669 -0.006699 0.000847 0.000000 0.000000 0.000000
# 2 -0.006699 0.018669 -0.009368 0.000000 0.000000 0.000000
# 3 0.000847 -0.009368 0.093813 0.000000 0.000000 0.000000
# 4 0.000000 0.000000 0.000000 0.042684 0.000000 0.000000
# 5 0.000000 0.000000 0.000000 0.000000 0.012597 0.000000
# 6 0.000000 0.000000 0.000000 0.000000 0.000000 0.039889
#
#
# Mechanical properties :
#
#
# Convention : Reuss Voigt Hill
#
# Bulk Modulus (GPa) = 11.27252 60.76581 36.01916
# Shear Modulus (GPa) = 18.22612 41.28050 29.75331
#
# Velocity S-wave (km/s) = 3.06289 4.60952 3.91337
# Velocity P-wave (km/s) = 4.27908 7.72058 6.24171
#
# Compressibility (1/GPa) = 0.08871134
#
# Stress axis : x y z
#
# Youngs Moduli (GPa) = 149.93645 53.56446 10.65955
#
# Poissons Ratio (x) = 0.35881 -0.00902
# Poissons Ratio (y) = 1.00437 0.09986
# Poissons Ratio (z) = -0.12694 0.50179
#
# Static dielectric constant tensor:
#      x y z
#    x 1.722020 0.000000 0.000000 
#    y 0.000000 1.674990 0.000000 
#    z 0.000000 0.000000 1.697400 
# 
# From -- ./inp_files/13792.got.cif
#   From: 2010.05.17/outbox.cif.g08.bks.cpg/sg47_7_cif.got.tgz:13792.got - 2010.06.03 20:15:42.
