data_PCOD9387165
_publ_section_title
;
Structure prediction by ZEFSAII (Michael W. Deem and Ramdas Pophale) SiO2 
 PCOD9387165
Probable space group: P M M M
;
_chemical_formula_sum "Si O2"
_cell_formula_units_Z 52
_cell_length_a 21.285754
_cell_length_b 13.801912
_cell_length_c 9.150770
_cell_angle_alpha 90.000000
_cell_angle_beta 90.000000
_cell_angle_gamma 90.000000
_cell_volume 2688.350761
_symmetry_space_group_name_H-M "P M M M"
_symmetry_group_IT_number 47
_symmetry_cell_setting 'orthorhombic'
loop_
_space_group_symop_operation_xyz
x,y,z
-x,-y,z
x,-y,-z
-x,y,-z
-x,-y,-z
x,y,-z
-x,y,z
x,-y,z
loop_
_atom_site_type_symbol
_atom_site_label
_atom_site_fract_x
_atom_site_fract_y
_atom_site_fract_z
Si Si1 0.254894 0.807700 0.327420
Si Si2 0.424495 0.612592 0.329287
Si Si3 0.882633 0.889687 0.326006
Si Si4 0.928984 0.698456 0.174316
Si Si5 0.380349 0.797252 0.172962
Si Si6 0.810407 0.391887 0.675047
Si Si7 0.500000 0.115113 0.333831
O O1 0.270243 0.812042 0.500000
O O2 0.191840 0.869959 0.303719
O O3 0.314615 0.836852 0.233659
O O4 0.235737 0.696863 0.289190
O O5 0.409539 0.632211 0.500000
O O6 0.500000 0.625432 0.311426
O O7 0.410475 0.500000 0.300742
O O8 0.388323 0.686344 0.226607
O O9 0.894265 0.876748 0.500000
O O10 0.918165 0.806488 0.237752
O O11 0.898653 0.000000 0.286537
O O12 0.876214 0.631691 0.247524
O O13 0.000000 0.666981 0.207714
O O14 0.920682 0.699416 0.000000
O O15 0.438396 0.850176 0.249927
O O16 0.384234 0.804857 0.000000
O O17 0.819788 0.387026 0.500000
O O18 0.788069 0.500000 0.712085
O O19 0.500000 0.154165 0.500000
O O20 0.500000 0.000000 0.340233
#
# Coordination Sequence:
#
# PCOD9387165 Si02
#       7
#     8   8   8   8   8   8   4
#     4   9  19  36  57  81 111 147 186 227 273 333
#     4   9  18  34  57  81 106 142 184 219 257 315
#     4   9  19  37  60  83 106 138 186 239 283 325
#     4  10  21  35  52  80 118 155 188 224 274 337
#     4  12  24  37  57  87 119 146 176 225 284 337
#     4   9  19  37  60  84 110 146 194 241 278 315
#     4  11  25  45  66  83 104 143 191 232 274 331
#
# _framework density 19.342713
#
# number of rings (size 3 to 8) (size 9 to 14) (size 15 to 20)
#    0.000    2.231    0.769    3.462    0.000    7.077 
#    0.000    6.923    0.000    0.000    0.000    0.000 
#    0.000    0.000    0.000    0.000    0.000    0.000 
#
# Total GULP energy -290429.573621 kJ/mol
# GULP energy per Si atom -5585.184108 kJ/mol
# Density = 1.929869 g / cm^3
# Si number density = 19.342713 Si / 1000 Ang^3
#
#
#
# Elastic Constant Matrix: (Units=GPa)
#
#
# Indices 1 2 3 4 5 6 
#
# 1 66.5032 -13.8302 33.5939 0.0000 0.0000 0.0000
# 2 -13.8302 42.9195 -1.2149 0.0000 0.0000 0.0000
# 3 33.5939 -1.2149 55.3761 0.0000 0.0000 0.0000
# 4 0.0000 0.0000 0.0000 5.2823 0.0000 0.0000
# 5 0.0000 0.0000 0.0000 0.0000 38.4179 0.0000
# 6 0.0000 0.0000 0.0000 0.0000 0.0000 -0.1060
#
#
#
# Elastic Compliance Matrix: (Units=1/GPa)
#
#
# Indices 1 2 3 4 5 6 
#
# 1 0.023738 0.007246 -0.014242 0.000000 0.000000 0.000000
# 2 0.007246 0.025526 -0.003836 0.000000 0.000000 0.000000
# 3 -0.014242 -0.003836 0.026614 0.000000 0.000000 0.000000
# 4 0.000000 0.000000 0.000000 0.189311 0.000000 0.000000
# 5 0.000000 0.000000 0.000000 0.000000 0.026030 0.000000
# 6 0.000000 0.000000 0.000000 0.000000 0.000000 -9.431683
#
#
# Mechanical properties :
#
#
# Convention : Reuss Voigt Hill
#
# Bulk Modulus (GPa) = 18.44514 22.43293 20.43904
# Shear Modulus (GPa) = -0.54941 18.46884 8.95972
#
# Velocity S-wave (km/s) = -0.53353 3.09337 2.15456
# Velocity P-wave (km/s) = 3.02938 4.93775 4.09625
#
# Compressibility (1/GPa) = 0.05421481
#
# Stress axis : x y z
#
# Youngs Moduli (GPa) = 42.12672 39.17609 37.57439
#
# Poissons Ratio (x) = -0.28387 0.53512
# Poissons Ratio (y) = -0.30525 0.14413
# Poissons Ratio (z) = 0.59995 0.15027
#
# Static dielectric constant tensor:
#      x y z
#    x 1.671720 0.000000 0.000000 
#    y 0.000000 1.689110 0.000000 
#    z 0.000000 0.000000 1.637960 
# 
# From -- ./inp_files/11047.got.cif
#   From: 2010.05.17/outbox.cif.g08.bks.cpg/sg47_6_cif.got.tgz:11047.got - 2010.06.03 20:15:42.
