data_PCOD9387045
_publ_section_title
;
Structure prediction by ZEFSAII (Michael W. Deem and Ramdas Pophale) SiO2 
 PCOD9387045
Probable space group: P M M M
;
_chemical_formula_sum "Si O2"
_cell_formula_units_Z 44
_cell_length_a 7.707841
_cell_length_b 31.669538
_cell_length_c 9.297064
_cell_angle_alpha 90.000000
_cell_angle_beta 90.000000
_cell_angle_gamma 90.000000
_cell_volume 2269.448311
_symmetry_space_group_name_H-M "P M M M"
_symmetry_group_IT_number 47
_symmetry_cell_setting 'orthorhombic'
loop_
_space_group_symop_operation_xyz
x,y,z
-x,-y,z
x,-y,-z
-x,y,-z
-x,-y,-z
x,y,-z
-x,y,z
x,-y,z
loop_
_atom_site_type_symbol
_atom_site_label
_atom_site_fract_x
_atom_site_fract_y
_atom_site_fract_z
Si Si1 0.500000 0.048060 0.174772
Si Si2 0.791212 0.197929 0.663508
Si Si3 0.291754 0.717762 0.837755
Si Si4 0.795800 0.113082 0.172482
Si Si5 0.707023 0.362813 0.664123
Si Si6 0.791279 0.545436 0.668013
O O1 0.670802 0.074669 0.215545
O O2 0.500000 0.000000 0.227881
O O3 0.500000 0.046389 0.000000
O O4 0.725141 0.198627 0.500000
O O5 0.743213 0.240257 0.747392
O O6 0.737489 0.155811 0.748179
O O7 0.000000 0.196484 0.658419
O O8 0.500000 0.713396 0.846583
O O9 0.223951 0.676022 0.757115
O O10 0.223710 0.721493 0.000000
O O11 0.000000 0.105222 0.203515
O O12 0.780536 0.119148 0.000000
O O13 0.777139 0.361695 0.500000
O O14 0.500000 0.357664 0.653898
O O15 0.737220 0.409400 0.729074
O O16 0.734449 0.546061 0.500000
O O17 0.732080 0.500000 0.729202
O O18 0.000000 0.544966 0.668926
#
# Coordination Sequence:
#
# PCOD9387045 Si02
#       6
#     4   8   8   8   8   8
#     4   9  18  32  53  83 113 143 185 229 268 317
#     4  10  21  36  54  77 104 134 171 215 262 312
#     4  10  21  35  51  72 100 134 169 207 253 306
#     4   9  18  33  53  78 110 145 181 225 272 317
#     4   9  17  29  45  67  95 124 158 201 247 297
#     4   8  14  25  42  65  91 118 151 194 244 295
#
# _framework density 19.387972000000001
#
# number of rings (size 3 to 8) (size 9 to 14) (size 15 to 20)
#    0.000    2.818    0.000    1.636    1.273    3.636 
#    0.000    5.455    0.000    1.636    0.000    6.364 
#    0.000    0.000    0.000    0.000    0.000    0.000 
#
# Total GULP energy -245269.902716 kJ/mol
# GULP energy per Si atom -5574.315971 kJ/mol
# Density = 1.934384 g / cm^3
# Si number density = 19.387972 Si / 1000 Ang^3
#
#
#
# Elastic Constant Matrix: (Units=GPa)
#
#
# Indices 1 2 3 4 5 6 
#
# 1 46.7681 41.7668 24.1742 0.0000 0.0000 0.0000
# 2 41.7668 229.6761 78.2930 0.0000 0.0000 0.0000
# 3 24.1742 78.2930 74.1499 0.0000 0.0000 0.0000
# 4 0.0000 0.0000 0.0000 26.1062 0.0000 0.0000
# 5 0.0000 0.0000 0.0000 0.0000 10.8432 0.0000
# 6 0.0000 0.0000 0.0000 0.0000 0.0000 34.3517
#
#
#
# Elastic Compliance Matrix: (Units=1/GPa)
#
#
# Indices 1 2 3 4 5 6 
#
# 1 0.026960 -0.002979 -0.005644 0.000000 0.000000 0.000000
# 2 -0.002979 0.007131 -0.006559 0.000000 0.000000 0.000000
# 3 -0.005644 -0.006559 0.022252 0.000000 0.000000 0.000000
# 4 0.000000 0.000000 0.000000 0.038305 0.000000 0.000000
# 5 0.000000 0.000000 0.000000 0.000000 0.092223 0.000000
# 6 0.000000 0.000000 0.000000 0.000000 0.000000 0.029111
#
#
# Mechanical properties :
#
#
# Convention : Reuss Voigt Hill
#
# Bulk Modulus (GPa) = 38.49219 71.00690 54.74954
# Shear Modulus (GPa) = 19.60748 28.01759 23.81253
#
# Velocity S-wave (km/s) = 3.18358 3.80557 3.50839
# Velocity P-wave (km/s) = 5.78016 7.48422 6.68670
#
# Compressibility (1/GPa) = 0.02597930
#
# Stress axis : x y z
#
# Youngs Moduli (GPa) = 37.09245 140.22476 44.94055
#
# Poissons Ratio (x) = 0.41767 0.25366
# Poissons Ratio (y) = 0.11048 0.29476
# Poissons Ratio (z) = 0.20936 0.91971
#
# Static dielectric constant tensor:
#      x y z
#    x 1.707270 0.000000 0.000000 
#    y 0.000000 1.678510 0.000000 
#    z 0.000000 0.000000 1.677840 
# 
# From -- ./inp_files/2323.got.cif
#   From: 2010.05.17/outbox.cif.g08.bks.cpg/sg47_2_cif.got.tgz:2323.got - 2010.06.03 20:15:42.
