data_PCOD9387198
_publ_section_title
;
Structure prediction by ZEFSAII (Michael W. Deem and Ramdas Pophale) SiO2 
 PCOD9387198
Probable space group: P M M M
;
_chemical_formula_sum "Si O2"
_cell_formula_units_Z 40
_cell_length_a 10.084183
_cell_length_b 24.444725
_cell_length_c 7.841351
_cell_angle_alpha 90.000000
_cell_angle_beta 90.000000
_cell_angle_gamma 90.000000
_cell_volume 1932.932858
_symmetry_space_group_name_H-M "P M M M"
_symmetry_group_IT_number 47
_symmetry_cell_setting 'orthorhombic'
loop_
_space_group_symop_operation_xyz
x,y,z
-x,-y,z
x,-y,-z
-x,y,-z
-x,-y,-z
x,y,-z
-x,y,z
x,-y,z
loop_
_atom_site_type_symbol
_atom_site_label
_atom_site_fract_x
_atom_site_fract_y
_atom_site_fract_z
Si Si1 0.650468 0.345368 0.797659
Si Si2 0.249295 0.132580 0.802631
Si Si3 0.848699 0.749449 0.698973
Si Si4 0.500000 0.936456 0.790594
Si Si5 0.000000 0.935409 0.702704
Si Si6 0.149500 0.563145 0.791609
O O1 0.500000 0.339974 0.729066
O O2 0.742492 0.292202 0.775931
O O3 0.736710 0.396247 0.728474
O O4 0.637969 0.354443 0.000000
O O5 0.206522 0.189141 0.717401
O O6 0.373542 0.098590 0.733489
O O7 0.126944 0.091751 0.786318
O O8 0.276754 0.145787 0.000000
O O9 0.856925 0.736165 0.500000
O O10 0.000000 0.746245 0.770212
O O11 0.500000 0.000000 0.735028
O O12 0.500000 0.938014 0.000000
O O13 0.000000 0.923105 0.500000
O O14 0.000000 0.000000 0.725093
O O15 0.169752 0.500000 0.741320
O O16 0.000000 0.580113 0.739418
O O17 0.150308 0.564318 0.000000
#
# Coordination Sequence:
#
# PCOD9387198 Si02
#       6
#     8   8   8   4   4   8
#     4  10  21  35  55  85 118 152 193 238 285 343
#     4  11  22  38  63  89 113 148 192 238 288 342
#     4  11  24  41  59  80 111 149 191 241 296 349
#     4   9  20  38  59  87 119 145 178 229 284 339
#     4  11  23  39  59  87 123 155 188 233 282 339
#     4   8  14  27  50  81 116 153 192 236 285 335
#
# _framework density 20.693943000000001
#
# number of rings (size 3 to 8) (size 9 to 14) (size 15 to 20)
#    0.000    2.000    1.000    3.300    1.400    4.400 
#    0.000    3.500    0.000    4.200    0.000    4.200 
#    0.000    0.000    0.000    0.000    0.000    0.000 
#
# Total GULP energy -223315.928260 kJ/mol
# GULP energy per Si atom -5582.898206 kJ/mol
# Density = 2.064684 g / cm^3
# Si number density = 20.693943 Si / 1000 Ang^3
#
#
#
# Elastic Constant Matrix: (Units=GPa)
#
#
# Indices 1 2 3 4 5 6 
#
# 1 219.7239 96.4878 2.4226 0.0000 0.0000 0.0000
# 2 96.4878 109.1609 2.5958 0.0000 0.0000 0.0000
# 3 2.4226 2.5958 23.6267 0.0000 0.0000 0.0000
# 4 0.0000 0.0000 0.0000 102.8176 0.0000 0.0000
# 5 0.0000 0.0000 0.0000 0.0000 -1.5427 0.0000
# 6 0.0000 0.0000 0.0000 0.0000 0.0000 29.8379
#
#
#
# Elastic Compliance Matrix: (Units=1/GPa)
#
#
# Indices 1 2 3 4 5 6 
#
# 1 0.007438 -0.006574 -0.000040 0.000000 0.000000 0.000000
# 2 -0.006574 0.014995 -0.000973 0.000000 0.000000 0.000000
# 3 -0.000040 -0.000973 0.042436 0.000000 0.000000 0.000000
# 4 0.000000 0.000000 0.000000 0.009726 0.000000 0.000000
# 5 0.000000 0.000000 0.000000 0.000000 -0.648197 0.000000
# 6 0.000000 0.000000 0.000000 0.000000 0.000000 0.033514
#
#
# Mechanical properties :
#
#
# Convention : Reuss Voigt Hill
#
# Bulk Modulus (GPa) = 20.12328 61.72489 40.92408
# Shear Modulus (GPa) = -9.83580 42.95622 16.56021
#
# Velocity S-wave (km/s) = -2.18250 4.56102 2.83193
# Velocity P-wave (km/s) = 1.84236 7.59141 5.52376
#
# Compressibility (1/GPa) = 0.04969369
#
# Stress axis : x y z
#
# Youngs Moduli (GPa) = 134.43715 66.69055 23.56486
#
# Poissons Ratio (x) = 0.43842 0.00095
# Poissons Ratio (y) = 0.88378 0.02294
# Poissons Ratio (z) = 0.00544 0.06492
#
# Static dielectric constant tensor:
#      x y z
#    x 1.725120 0.000000 0.000000 
#    y 0.000000 1.703650 0.000000 
#    z 0.000000 0.000000 1.777930 
# 
# From -- ./inp_files/1862.got.cif
#   From: 2010.05.17/outbox.cif.g08.bks.cpg/sg47_1_cif.got.tgz:1862.got - 2010.06.03 20:15:42.
