data_PCOD9387548
_publ_section_title
;
Structure prediction by ZEFSAII (Michael W. Deem and Ramdas Pophale) SiO2 
 PCOD9387548
Probable space group: P M M M
;
_chemical_formula_sum "Si O2"
_cell_formula_units_Z 37
_cell_length_a 7.510707
_cell_length_b 31.100083
_cell_length_c 7.852777
_cell_angle_alpha 90.000000
_cell_angle_beta 90.000000
_cell_angle_gamma 90.000000
_cell_volume 1834.280009
_symmetry_space_group_name_H-M "P M M M"
_symmetry_group_IT_number 47
_symmetry_cell_setting 'orthorhombic'
loop_
_space_group_symop_operation_xyz
x,y,z
-x,-y,z
x,-y,-z
-x,y,-z
-x,-y,-z
x,y,-z
-x,y,z
x,-y,z
loop_
_atom_site_type_symbol
_atom_site_label
_atom_site_fract_x
_atom_site_fract_y
_atom_site_fract_z
Si Si1 0.710361 0.808958 0.500000
Si Si2 0.786718 0.291024 0.500000
Si Si3 0.500000 0.426193 0.297886
Si Si4 0.786057 0.355363 0.200435
Si Si5 0.709185 0.140847 0.180910
Si Si6 0.214735 0.046907 0.300521
Si Si7 0.500000 0.500000 0.000000
O O1 0.500000 0.819201 0.500000
O O2 0.727134 0.758019 0.500000
O O3 0.788158 0.832176 0.665167
O O4 0.733395 0.317069 0.329823
O O5 0.000000 0.290411 0.500000
O O6 0.500000 0.438895 0.500000
O O7 0.672827 0.396368 0.260986
O O8 0.500000 0.462829 0.153478
O O9 0.000000 0.362365 0.216803
O O10 0.749558 0.346713 0.000000
O O11 0.500000 0.151312 0.173349
O O12 0.721556 0.089866 0.211600
O O13 0.791048 0.151607 0.000000
O O14 0.264849 0.049638 0.500000
O O15 0.000000 0.047258 0.292106
O O16 0.274378 0.000000 0.235597
#
# Coordination Sequence:
#
# PCOD9387548 Si02
#       7
#     4   4   4   8   8   8   1
#     4  10  22  38  55  79 116 150 187 239 297 358
#     4  10  22  38  62  93 118 152 207 259 307 367
#     4  12  23  41  69  96 137 181 220 271 323 370
#     4  10  21  40  66  95 130 171 217 268 321 377
#     4  10  21  37  55  77 108 146 184 229 286 353
#     4   9  18  33  54  79 104 135 180 228 278 343
#     4  12  26  44  62 110 140 178 238 268 310 398
#
# _framework density 20.171402
#
# number of rings (size 3 to 8) (size 9 to 14) (size 15 to 20)
#    0.000    1.946    3.243    0.811    1.514    3.027 
#    0.000    4.324    0.000    1.297    0.000    0.000 
#    0.000    0.000    0.000    0.000    0.000    0.000 
#
# Total GULP energy -206189.351482 kJ/mol
# GULP energy per Si atom -5572.685175 kJ/mol
# Density = 2.012549 g / cm^3
# Si number density = 20.171402 Si / 1000 Ang^3
#
#
#
# Elastic Constant Matrix: (Units=GPa)
#
#
# Indices 1 2 3 4 5 6 
#
# 1 57.5690 10.6269 29.6736 0.0000 0.0000 0.0000
# 2 10.6269 137.1463 103.0320 0.0000 0.0000 0.0000
# 3 29.6736 103.0320 217.1959 0.0000 0.0000 0.0000
# 4 0.0000 0.0000 0.0000 410.2862 0.0000 0.0000
# 5 0.0000 0.0000 0.0000 0.0000 5.8656 0.0000
# 6 0.0000 0.0000 0.0000 0.0000 0.0000 -9.1421
#
#
#
# Elastic Compliance Matrix: (Units=1/GPa)
#
#
# Indices 1 2 3 4 5 6 
#
# 1 0.018734 0.000732 -0.002907 0.000000 0.000000 0.000000
# 2 0.000732 0.011357 -0.005488 0.000000 0.000000 0.000000
# 3 -0.002907 -0.005488 0.007604 0.000000 0.000000 0.000000
# 4 0.000000 0.000000 0.000000 0.002437 0.000000 0.000000
# 5 0.000000 0.000000 0.000000 0.000000 0.170484 0.000000
# 6 0.000000 0.000000 0.000000 0.000000 0.000000 -0.109384
#
#
# Mechanical properties :
#
#
# Convention : Reuss Voigt Hill
#
# Bulk Modulus (GPa) = 44.70097 77.61957 61.16027
# Shear Modulus (GPa) = 40.31791 99.30720 69.81256
#
# Velocity S-wave (km/s) = 4.47561 7.02414 5.88938
# Velocity P-wave (km/s) = 6.99405 10.21510 8.75400
#
# Compressibility (1/GPa) = 0.02237088
#
# Stress axis : x y z
#
# Youngs Moduli (GPa) = 53.38015 88.04824 131.50180
#
# Poissons Ratio (x) = -0.06446 0.38223
# Poissons Ratio (y) = -0.03908 0.72164
# Poissons Ratio (z) = 0.15516 0.48318
#
# Static dielectric constant tensor:
#      x y z
#    x 1.732540 0.000000 0.000000 
#    y 0.000000 1.669330 0.000000 
#    z 0.000000 0.000000 1.760140 
# 
# From -- ./inp_files/1587.got.cif
#   From: 2010.05.17/outbox.cif.g08.bks.cpg/sg47_1_cif.got.tgz:1587.got - 2010.06.03 20:15:42.
