data_PCOD9387739
_publ_section_title
;
Structure prediction by ZEFSAII (Michael W. Deem and Ramdas Pophale) SiO2 
 PCOD9387739
Probable space group: P M M M
;
_chemical_formula_sum "Si O2"
_cell_formula_units_Z 33
_cell_length_a 8.028135
_cell_length_b 17.157159
_cell_length_c 12.810913
_cell_angle_alpha 90.000000
_cell_angle_beta 90.000000
_cell_angle_gamma 90.000000
_cell_volume 1764.575011
_symmetry_space_group_name_H-M "P M M M"
_symmetry_group_IT_number 47
_symmetry_cell_setting 'orthorhombic'
loop_
_space_group_symop_operation_xyz
x,y,z
-x,-y,z
x,-y,-z
-x,y,-z
-x,-y,-z
x,y,-z
-x,y,z
x,-y,z
loop_
_atom_site_type_symbol
_atom_site_label
_atom_site_fract_x
_atom_site_fract_y
_atom_site_fract_z
Si Si1 0.188878 0.755188 0.324074
Si Si2 0.000000 0.000000 0.500000
Si Si3 0.309458 0.130186 0.500000
Si Si4 0.305037 0.169176 0.120218
Si Si5 0.188485 0.000000 0.126048
Si Si6 0.299631 0.415509 0.377252
O O1 0.292973 0.812174 0.399508
O O2 0.210055 0.780881 0.204769
O O3 0.234666 0.664588 0.331255
O O4 0.000000 0.765075 0.358689
O O5 0.153581 0.068745 0.500000
O O6 0.500000 0.097449 0.500000
O O7 0.500000 0.188192 0.122897
O O8 0.280079 0.079195 0.153661
O O9 0.246684 0.176878 0.000000
O O10 0.000000 0.000000 0.168629
O O11 0.179247 0.000000 0.000000
O O12 0.257433 0.413741 0.500000
O O13 0.500000 0.414390 0.369120
O O14 0.241525 0.500000 0.335284
#
# Coordination Sequence:
#
# PCOD9387739 Si02
#       6
#     8   1   4   8   4   8
#     4  12  23  38  60  90 125 158 205 251 299 370
#     4  12  26  48  60  94 124 164 222 244 308 388
#     4  12  25  45  66  87 124 167 209 260 305 357
#     4  10  21  37  58  83 111 153 204 252 308 364
#     4   9  17  32  53  78 107 138 183 246 302 340
#     4   9  18  34  59  89 119 154 195 242 303 363
#
# _framework density 18.701385999999999
#
# number of rings (size 3 to 8) (size 9 to 14) (size 15 to 20)
#    0.000    1.576    2.424    4.182    0.000    4.364 
#    2.182    3.636    0.000    0.727    0.000    5.091 
#    0.000    0.000    0.000    0.000    0.000    0.000 
#
# Total GULP energy -183813.869292 kJ/mol
# GULP energy per Si atom -5570.117251 kJ/mol
# Density = 1.865882 g / cm^3
# Si number density = 18.701386 Si / 1000 Ang^3
#
#
#
# Elastic Constant Matrix: (Units=GPa)
#
#
# Indices 1 2 3 4 5 6 
#
# 1 79.9932 39.4082 14.5159 0.0000 0.0000 0.0000
# 2 39.4082 150.9858 49.5936 0.0000 0.0000 0.0000
# 3 14.5159 49.5936 61.9821 0.0000 0.0000 0.0000
# 4 0.0000 0.0000 0.0000 12.0625 0.0000 0.0000
# 5 0.0000 0.0000 0.0000 0.0000 13.9721 0.0000
# 6 0.0000 0.0000 0.0000 0.0000 0.0000 -223.5154
#
#
#
# Elastic Compliance Matrix: (Units=1/GPa)
#
#
# Indices 1 2 3 4 5 6 
#
# 1 0.014357 -0.003585 -0.000494 0.000000 0.000000 0.000000
# 2 -0.003585 0.009880 -0.007065 0.000000 0.000000 0.000000
# 3 -0.000494 -0.007065 0.021903 0.000000 0.000000 0.000000
# 4 0.000000 0.000000 0.000000 0.082901 0.000000 0.000000
# 5 0.000000 0.000000 0.000000 0.000000 0.071571 0.000000
# 6 0.000000 0.000000 0.000000 0.000000 0.000000 -0.004474
#
#
# Mechanical properties :
#
#
# Convention : Reuss Voigt Hill
#
# Bulk Modulus (GPa) = 41.92771 55.55517 48.74144
# Shear Modulus (GPa) = 22.08712 -26.86660 -2.38974
#
# Velocity S-wave (km/s) = 3.44036 -3.79438 -1.13164
# Velocity P-wave (km/s) = 6.18463 3.25185 4.94086
#
# Compressibility (1/GPa) = 0.02385057
#
# Stress axis : x y z
#
# Youngs Moduli (GPa) = 69.65337 101.21904 45.65684
#
# Poissons Ratio (x) = 0.36287 0.02255
# Poissons Ratio (y) = 0.24971 0.32258
# Poissons Ratio (z) = 0.03440 0.71515
#
# Static dielectric constant tensor:
#      x y z
#    x 1.683320 0.000000 0.000000 
#    y 0.000000 1.655150 0.000000 
#    z 0.000000 0.000000 1.640820 
# 
# From -- ./inp_files/14850.got.cif
#   From: 2010.05.17/outbox.cif.g08.bks.cpg/sg47_8_cif.got.tgz:14850.got - 2010.06.03 20:15:42.
