data_PCOD9387565
_publ_section_title
;
Structure prediction by ZEFSAII (Michael W. Deem and Ramdas Pophale) SiO2 
 PCOD9387565
Probable space group: P M M M
;
_chemical_formula_sum "Si O2"
_cell_formula_units_Z 40
_cell_length_a 7.767360
_cell_length_b 26.615945
_cell_length_c 9.821313
_cell_angle_alpha 90.000000
_cell_angle_beta 90.000000
_cell_angle_gamma 90.000000
_cell_volume 2030.415297
_symmetry_space_group_name_H-M "P M M M"
_symmetry_group_IT_number 47
_symmetry_cell_setting 'orthorhombic'
loop_
_space_group_symop_operation_xyz
x,y,z
-x,-y,z
x,-y,-z
-x,y,-z
-x,-y,-z
x,y,-z
-x,y,z
x,-y,z
loop_
_atom_site_type_symbol
_atom_site_label
_atom_site_fract_x
_atom_site_fract_y
_atom_site_fract_z
Si Si1 0.289945 0.407610 0.842999
Si Si2 0.706320 0.795196 0.345783
Si Si3 0.289634 0.705539 0.156460
Si Si4 0.710992 0.500000 0.343135
Si Si5 0.204488 0.907123 0.654777
Si Si6 0.296227 0.000000 0.153635
O O1 0.500000 0.408196 0.843019
O O2 0.236605 0.351016 0.803982
O O3 0.232924 0.450695 0.740063
O O4 0.237567 0.417169 0.000000
O O5 0.774494 0.791709 0.500000
O O6 0.500000 0.789593 0.351752
O O7 0.772809 0.750390 0.251758
O O8 0.740875 0.851759 0.296827
O O9 0.500000 0.705862 0.159169
O O10 0.238427 0.713677 0.000000
O O11 0.500000 0.500000 0.343175
O O12 0.766254 0.500000 0.500000
O O13 0.274924 0.915068 0.500000
O O14 0.000000 0.906950 0.643959
O O15 0.250604 0.951019 0.758354
O O16 0.500000 0.000000 0.140509
O O17 0.221535 0.000000 0.000000
#
# Coordination Sequence:
#
# PCOD9387565 Si02
#       6
#     8   8   8   4   8   4
#     4   8  13  21  31  43  64  98 138 177 219 269
#     4   9  17  29  46  68  92 119 153 193 235 277
#     4   8  14  24  38  56  78 107 145 187 229 274
#     4   9  15  19  25  41  65  95 134 179 224 269
#     4  10  21  37  56  77 102 133 166 198 236 285
#     4  11  24  39  56  80 106 131 162 201 242 282
#
# _framework density 19.700403999999999
#
# number of rings (size 3 to 8) (size 9 to 14) (size 15 to 20)
#    0.000    3.000    0.000    2.700    0.000    6.000 
#    0.000    6.000    0.000    0.000    0.000    0.000 
#    0.000    0.000    0.000    0.900    0.000   19.200 
#
# Total GULP energy -223064.926112 kJ/mol
# GULP energy per Si atom -5576.623153 kJ/mol
# Density = 1.965556 g / cm^3
# Si number density = 19.700404 Si / 1000 Ang^3
#
#
#
# Elastic Constant Matrix: (Units=GPa)
#
#
# Indices 1 2 3 4 5 6 
#
# 1 28.7195 4.2438 5.2547 0.0000 0.0000 0.0000
# 2 4.2438 229.0749 143.2943 0.0000 0.0000 0.0000
# 3 5.2547 143.2943 129.3928 0.0000 0.0000 0.0000
# 4 0.0000 0.0000 0.0000 40.4612 0.0000 0.0000
# 5 0.0000 0.0000 0.0000 0.0000 3.3748 0.0000
# 6 0.0000 0.0000 0.0000 0.0000 0.0000 -45.8481
#
#
#
# Elastic Compliance Matrix: (Units=1/GPa)
#
#
# Indices 1 2 3 4 5 6 
#
# 1 0.035124 0.000786 -0.002297 0.000000 0.000000 0.000000
# 2 0.000786 0.014225 -0.015785 0.000000 0.000000 0.000000
# 3 -0.002297 -0.015785 0.025303 0.000000 0.000000 0.000000
# 4 0.000000 0.000000 0.000000 0.024715 0.000000 0.000000
# 5 0.000000 0.000000 0.000000 0.000000 0.296312 0.000000
# 6 0.000000 0.000000 0.000000 0.000000 0.000000 -0.021811
#
#
# Mechanical properties :
#
#
# Convention : Reuss Voigt Hill
#
# Bulk Modulus (GPa) = 24.96297 76.97475 50.96886
# Shear Modulus (GPa) = 11.85359 15.22388 13.53874
#
# Velocity S-wave (km/s) = 2.45560 2.78289 2.62435
# Velocity P-wave (km/s) = 4.55399 7.03445 5.92546
#
# Compressibility (1/GPa) = 0.04005933
#
# Stress axis : x y z
#
# Youngs Moduli (GPa) = 28.47086 70.29850 39.52123
#
# Poissons Ratio (x) = -0.05527 0.09078
# Poissons Ratio (y) = -0.02238 0.62385
# Poissons Ratio (z) = 0.06540 1.10968
#
# Static dielectric constant tensor:
#      x y z
#    x 1.711900 0.000000 0.000000 
#    y 0.000000 2.844930 0.000000 
#    z 0.000000 0.000000 1.715210 
# 
# From -- ./inp_files/1866.got.cif
#   From: 2010.05.17/outbox.cif.g08.bks.cpg/sg47_1_cif.got.tgz:1866.got - 2010.06.03 20:15:42.
