data_PCOD9387187
_publ_section_title
;
Structure prediction by ZEFSAII (Michael W. Deem and Ramdas Pophale) SiO2 
 PCOD9387187
Probable space group: P M M M
;
_chemical_formula_sum "Si O2"
_cell_formula_units_Z 37
_cell_length_a 7.303429
_cell_length_b 18.682811
_cell_length_c 12.489015
_cell_angle_alpha 90.000000
_cell_angle_beta 90.000000
_cell_angle_gamma 90.000000
_cell_volume 1704.108408
_symmetry_space_group_name_H-M "P M M M"
_symmetry_group_IT_number 47
_symmetry_cell_setting 'orthorhombic'
loop_
_space_group_symop_operation_xyz
x,y,z
-x,-y,z
x,-y,-z
-x,y,-z
-x,-y,-z
x,y,-z
-x,y,z
x,-y,z
loop_
_atom_site_type_symbol
_atom_site_label
_atom_site_fract_x
_atom_site_fract_y
_atom_site_fract_z
Si Si1 0.277749 0.917238 0.500000
Si Si2 0.000000 0.500000 0.500000
Si Si3 0.712753 0.291138 0.280951
Si Si4 0.779582 0.579059 0.876968
Si Si5 0.723175 0.134359 0.266461
Si Si6 0.274579 0.364317 0.500000
Si Si7 0.723656 0.000000 0.876300
O O1 0.500000 0.915834 0.500000
O O2 0.221098 0.881434 0.388932
O O3 0.221898 0.000000 0.500000
O O4 0.161354 0.437437 0.500000
O O5 0.500000 0.277165 0.301038
O O6 0.726141 0.355129 0.196302
O O7 0.785599 0.214955 0.240485
O O8 0.780930 0.320157 0.394260
O O9 0.719233 0.500000 0.838216
O O10 0.000000 0.577666 0.877433
O O11 0.719228 0.587421 0.000000
O O12 0.500000 0.131041 0.262440
O O13 0.783525 0.070979 0.187800
O O14 0.500000 0.374684 0.500000
O O15 0.500000 0.000000 0.875800
O O16 0.780632 0.000000 0.000000
#
# Coordination Sequence:
#
# PCOD9387187 Si02
#       7
#     4   1   8   8   8   4   4
#     4   9  13  21  42  65  90 127 175 214 250 319
#     4  12  26  40  68  86 118 182 202 232 304 380
#     4  10  21  35  54  80 118 151 181 238 299 352
#     4   9  20  38  58  78 102 137 188 243 284 335
#     4   9  16  27  43  69 102 142 179 222 288 340
#     4  10  24  41  57  93 128 155 203 254 297 355
#     4   9  16  25  39  65 104 144 186 232 279 350
#
# _framework density 21.712233999999999
#
# number of rings (size 3 to 8) (size 9 to 14) (size 15 to 20)
#    0.000    2.595    1.081    1.459    3.027    4.324 
#    0.000    3.243    0.000    0.000    0.000    0.757 
#    0.000    4.324    0.000    0.108    0.000    0.000 
#
# Total GULP energy -206290.569304 kJ/mol
# GULP energy per Si atom -5575.420792 kJ/mol
# Density = 2.166282 g / cm^3
# Si number density = 21.712234 Si / 1000 Ang^3
#
#
#
# Elastic Constant Matrix: (Units=GPa)
#
#
# Indices 1 2 3 4 5 6 
#
# 1 96.6346 9.0948 -1.5086 0.0000 0.0000 0.0000
# 2 9.0948 246.9820 116.8671 0.0000 0.0000 0.0000
# 3 -1.5086 116.8671 141.7397 0.0000 0.0000 0.0000
# 4 0.0000 0.0000 0.0000 0.7048 0.0000 0.0000
# 5 0.0000 0.0000 0.0000 0.0000 -3.3065 0.0000
# 6 0.0000 0.0000 0.0000 0.0000 0.0000 103.7795
#
#
#
# Elastic Compliance Matrix: (Units=1/GPa)
#
#
# Indices 1 2 3 4 5 6 
#
# 1 0.010427 -0.000716 0.000701 0.000000 0.000000 0.000000
# 2 -0.000716 0.006688 -0.005522 0.000000 0.000000 0.000000
# 3 0.000701 -0.005522 0.011616 0.000000 0.000000 0.000000
# 4 0.000000 0.000000 0.000000 1.418782 0.000000 0.000000
# 5 0.000000 0.000000 0.000000 0.000000 -0.302435 0.000000
# 6 0.000000 0.000000 0.000000 0.000000 0.000000 0.009636
#
#
# Mechanical properties :
#
#
# Convention : Reuss Voigt Hill
#
# Bulk Modulus (GPa) = 56.63480 81.58476 69.10978
# Shear Modulus (GPa) = 4.26740 44.29577 24.28159
#
# Velocity S-wave (km/s) = 1.40346 4.52168 3.34778
# Velocity P-wave (km/s) = 5.36350 8.05716 6.84416
#
# Compressibility (1/GPa) = 0.01765699
#
# Stress axis : x y z
#
# Youngs Moduli (GPa) = 95.90890 149.51645 86.08961
#
# Poissons Ratio (x) = 0.10701 -0.06035
# Poissons Ratio (y) = 0.06864 0.47540
# Poissons Ratio (z) = -0.06724 0.82566
#
# Static dielectric constant tensor:
#      x y z
#    x 1.857170 0.000000 0.000000 
#    y 0.000000 1.780030 0.000000 
#    z 0.000000 0.000000 1.743210 
# 
# From -- ./inp_files/14910.got.cif
#   From: 2010.05.17/outbox.cif.g08.bks.cpg/sg47_8_cif.got.tgz:14910.got - 2010.06.03 20:15:42.
