data_PCOD9387136
_publ_section_title
;
Structure prediction by ZEFSAII (Michael W. Deem and Ramdas Pophale) SiO2 
 PCOD9387136
Probable space group: P M M M
;
_chemical_formula_sum "Si O2"
_cell_formula_units_Z 64
_cell_length_a 8.157219
_cell_length_b 20.986292
_cell_length_c 18.567157
_cell_angle_alpha 90.000000
_cell_angle_beta 90.000000
_cell_angle_gamma 90.000000
_cell_volume 3178.507519
_symmetry_space_group_name_H-M "P M M M"
_symmetry_group_IT_number 47
_symmetry_cell_setting 'orthorhombic'
loop_
_space_group_symop_operation_xyz
x,y,z
-x,-y,z
x,-y,-z
-x,y,-z
-x,-y,-z
x,y,-z
-x,y,z
x,-y,z
loop_
_atom_site_type_symbol
_atom_site_label
_atom_site_fract_x
_atom_site_fract_y
_atom_site_fract_z
Si Si1 0.301274 0.427515 0.873470
Si Si2 0.314285 0.424340 0.711386
Si Si3 0.801299 0.791485 0.784628
Si Si4 0.191045 0.903697 0.421438
Si Si5 0.813106 0.353546 0.577185
Si Si6 0.685557 0.226118 0.374116
Si Si7 0.200114 0.930899 0.260722
Si Si8 0.197426 0.708904 0.921478
O O1 0.500000 0.429058 0.873528
O O2 0.248558 0.500000 0.894206
O O3 0.246207 0.413737 0.791287
O O4 0.244905 0.365576 0.916018
O O5 0.500000 0.397862 0.708386
O O6 0.324711 0.500000 0.704178
O O7 0.214522 0.397116 0.645703
O O8 0.741082 0.763516 0.708463
O O9 0.749670 0.866267 0.780362
O O10 0.742648 0.750689 0.853327
O O11 0.000000 0.789911 0.784427
O O12 0.262309 0.921183 0.500000
O O13 0.204886 0.827653 0.411204
O O14 0.257317 0.927668 0.344430
O O15 0.000000 0.922239 0.423083
O O16 0.783602 0.385829 0.500000
O O17 0.700598 0.292285 0.585498
O O18 0.000000 0.330444 0.578652
O O19 0.500000 0.202318 0.375043
O O20 0.000000 0.928982 0.262514
O O21 0.248802 0.000000 0.230648
O O22 0.000000 0.712281 0.919616
O O23 0.253273 0.733017 0.000000
#
# Coordination Sequence:
#
# PCOD9387136 Si02
#       8
#     8   8   8   8   8   8   8   8
#     4   9  19  36  56  78 104 133 165 201 242 291
#     4   9  19  36  55  73  94 122 159 203 248 295
#     4   9  18  34  54  74 100 133 166 204 250 298
#     4   9  17  29  45  67  98 133 166 203 249 298
#     4  11  23  35  47  66  94 127 164 208 255 300
#     4  11  21  32  49  71  94 123 164 209 250 296
#     4   8  14  26  47  74  99 128 171 215 251 292
#     4  10  21  35  52  77 107 136 165 199 242 293
#
# _framework density 20.135235999999999
#
# number of rings (size 3 to 8) (size 9 to 14) (size 15 to 20)
#    0.000    2.500    0.000    4.125    0.000    7.250 
#    0.000    5.000    0.000    6.375    0.000    6.125 
#    0.000    0.000    0.000    5.625    0.000    6.250 
#
# Total GULP energy -356793.002952 kJ/mol
# GULP energy per Si atom -5574.890671 kJ/mol
# Density = 2.008941 g / cm^3
# Si number density = 20.135236 Si / 1000 Ang^3
#
#
#
# Elastic Constant Matrix: (Units=GPa)
#
#
# Indices 1 2 3 4 5 6 
#
# 1 22.6896 2.8537 15.0245 0.0000 0.0000 0.0000
# 2 2.8537 63.9945 66.1393 0.0000 0.0000 0.0000
# 3 15.0245 66.1393 105.7785 0.0000 0.0000 0.0000
# 4 0.0000 0.0000 0.0000 -17.6080 0.0000 0.0000
# 5 0.0000 0.0000 0.0000 0.0000 -11.3960 0.0000
# 6 0.0000 0.0000 0.0000 0.0000 0.0000 -34.6098
#
#
#
# Elastic Compliance Matrix: (Units=1/GPa)
#
#
# Indices 1 2 3 4 5 6 
#
# 1 0.053573 0.015477 -0.017286 0.000000 0.000000 0.000000
# 2 0.015477 0.048641 -0.032611 0.000000 0.000000 0.000000
# 3 -0.017286 -0.032611 0.032300 0.000000 0.000000 0.000000
# 4 0.000000 0.000000 0.000000 -0.056792 0.000000 0.000000
# 5 0.000000 0.000000 0.000000 0.000000 -0.087750 0.000000
# 6 0.000000 0.000000 0.000000 0.000000 0.000000 -0.028894
#
#
# Mechanical properties :
#
#
# Convention : Reuss Voigt Hill
#
# Bulk Modulus (GPa) = 15.22733 40.05528 27.64131
# Shear Modulus (GPa) = 96.50670 -5.49307 45.50681
#
# Velocity S-wave (km/s) = 6.93061 -1.65348 4.75916
# Velocity P-wave (km/s) = 8.46306 4.03621 6.63002
#
# Compressibility (1/GPa) = 0.06567138
#
# Stress axis : x y z
#
# Youngs Moduli (GPa) = 18.66609 20.55895 30.95999
#
# Poissons Ratio (x) = -0.31819 0.53519
# Poissons Ratio (y) = -0.28889 1.00965
# Poissons Ratio (z) = 0.32267 0.67046
#
# Static dielectric constant tensor:
#      x y z
#    x 1.738060 0.000000 0.000000 
#    y 0.000000 1.724140 0.000000 
#    z 0.000000 0.000000 1.749560 
# 
# From -- ./inp_files/27019.got.cif
#   From: 2010.05.17/outbox.cif.g08.bks.cpg/sg47_14_cif.got.tgz:27019.got - 2010.06.03 20:15:42.
