data_PCOD9387189
_publ_section_title
;
Structure prediction by ZEFSAII (Michael W. Deem and Ramdas Pophale) SiO2 
 PCOD9387189
Probable space group: P M M M
;
_chemical_formula_sum "Si O2"
_cell_formula_units_Z 56
_cell_length_a 15.772707
_cell_length_b 21.294928
_cell_length_c 7.598861
_cell_angle_alpha 90.000000
_cell_angle_beta 90.000000
_cell_angle_gamma 90.000000
_cell_volume 2552.295250
_symmetry_space_group_name_H-M "P M M M"
_symmetry_group_IT_number 47
_symmetry_cell_setting 'orthorhombic'
loop_
_space_group_symop_operation_xyz
x,y,z
-x,-y,z
x,-y,-z
-x,y,-z
-x,-y,-z
x,y,-z
-x,y,z
x,-y,z
loop_
_atom_site_type_symbol
_atom_site_label
_atom_site_fract_x
_atom_site_fract_y
_atom_site_fract_z
Si Si1 0.597339 0.838254 0.712144
Si Si2 0.399424 0.296349 0.699074
Si Si3 0.905322 0.700493 0.208521
Si Si4 0.751986 0.928856 0.788895
Si Si5 0.900790 0.838202 0.214920
Si Si6 0.369556 0.432642 0.706340
Si Si7 0.166564 0.433185 0.297008
O O1 0.593895 0.832305 0.500000
O O2 0.500000 0.850524 0.772310
O O3 0.629591 0.769714 0.779840
O O4 0.665041 0.891493 0.754080
O O5 0.362258 0.301795 0.500000
O O6 0.500000 0.286895 0.683398
O O7 0.390235 0.364696 0.785239
O O8 0.872335 0.767929 0.273443
O O9 0.858727 0.634911 0.230805
O O10 0.000000 0.692721 0.281583
O O11 0.911620 0.709106 0.000000
O O12 0.833056 0.889309 0.722402
O O13 0.749510 0.000000 0.720676
O O14 0.760596 0.932122 0.000000
O O15 0.000000 0.847089 0.265976
O O16 0.900043 0.840642 0.000000
O O17 0.397285 0.431129 0.500000
O O18 0.399832 0.500000 0.779427
O O19 0.268079 0.435165 0.709275
O O20 0.139701 0.434146 0.500000
O O21 0.135974 0.500000 0.216434
#
# Coordination Sequence:
#
# PCOD9387189 Si02
#       7
#     8   8   8   8   8   8   8
#     4   9  19  35  53  75 105 140 175 209 247 295
#     4   8  14  25  42  65  91 121 160 200 236 279
#     4   9  18  32  49  68  90 120 159 199 238 284
#     4  10  21  35  54  82 107 129 164 206 250 303
#     4   8  16  33  54  76 104 133 162 204 256 306
#     4   8  14  24  38  60  91 123 154 192 239 284
#     4   9  18  30  43  64  95 127 158 196 243 289
#
# _framework density 21.941033999999998
#
# number of rings (size 3 to 8) (size 9 to 14) (size 15 to 20)
#    0.000    3.286    0.000    2.571    2.000    2.286 
#    0.000    5.714    0.000    1.286    0.000    1.000 
#    0.000    0.000    0.000    6.286    0.000    6.286 
#
# Total GULP energy -311777.358887 kJ/mol
# GULP energy per Si atom -5567.452837 kJ/mol
# Density = 2.189110 g / cm^3
# Si number density = 21.941034 Si / 1000 Ang^3
#
#
#
# Elastic Constant Matrix: (Units=GPa)
#
#
# Indices 1 2 3 4 5 6 
#
# 1 84.1110 99.6027 2.4102 0.0000 0.0000 0.0000
# 2 99.6027 266.7880 13.2376 0.0000 0.0000 0.0000
# 3 2.4102 13.2376 43.8505 0.0000 0.0000 0.0000
# 4 0.0000 0.0000 0.0000 14.3731 0.0000 0.0000
# 5 0.0000 0.0000 0.0000 0.0000 10.3331 0.0000
# 6 0.0000 0.0000 0.0000 0.0000 0.0000 58.8829
#
#
#
# Elastic Compliance Matrix: (Units=1/GPa)
#
#
# Indices 1 2 3 4 5 6 
#
# 1 0.021378 -0.008043 0.001253 0.000000 0.000000 0.000000
# 2 -0.008043 0.006832 -0.001620 0.000000 0.000000 0.000000
# 3 0.001253 -0.001620 0.023225 0.000000 0.000000 0.000000
# 4 0.000000 0.000000 0.000000 0.069574 0.000000 0.000000
# 5 0.000000 0.000000 0.000000 0.000000 0.096777 0.000000
# 6 0.000000 0.000000 0.000000 0.000000 0.000000 0.016983
#
#
# Mechanical properties :
#
#
# Convention : Reuss Voigt Hill
#
# Bulk Modulus (GPa) = 28.89040 69.47229 49.18134
# Shear Modulus (GPa) = 19.00220 35.35109 27.17665
#
# Velocity S-wave (km/s) = 2.94608 4.01831 3.52322
# Velocity P-wave (km/s) = 4.97678 7.29802 6.24618
#
# Compressibility (1/GPa) = 0.03461357
#
# Stress axis : x y z
#
# Youngs Moduli (GPa) = 46.77682 146.37759 43.05709
#
# Poissons Ratio (x) = 1.17739 -0.05396
# Poissons Ratio (y) = 0.37625 0.06976
# Poissons Ratio (z) = -0.05862 0.23717
#
# Static dielectric constant tensor:
#      x y z
#    x 1.780930 0.000000 0.000000 
#    y 0.000000 1.879620 0.000000 
#    z 0.000000 0.000000 1.887600 
# 
# From -- ./inp_files/7327.got.cif
#   From: 2010.05.17/outbox.cif.g08.bks.cpg/sg47_4_cif.got.tgz:7327.got - 2010.06.03 20:15:42.
