data_PCOD9387636
_publ_section_title
;
Structure prediction by ZEFSAII (Michael W. Deem and Ramdas Pophale) SiO2 
 PCOD9387636
Probable space group: P M M M
;
_chemical_formula_sum "Si O2"
_cell_formula_units_Z 44
_cell_length_a 8.152593
_cell_length_b 9.359132
_cell_length_c 29.986287
_cell_angle_alpha 90.000000
_cell_angle_beta 90.000000
_cell_angle_gamma 90.000000
_cell_volume 2287.989503
_symmetry_space_group_name_H-M "P M M M"
_symmetry_group_IT_number 47
_symmetry_cell_setting 'orthorhombic'
loop_
_space_group_symop_operation_xyz
x,y,z
-x,-y,z
x,-y,-z
-x,y,-z
-x,-y,-z
x,y,-z
-x,y,z
x,-y,z
loop_
_atom_site_type_symbol
_atom_site_label
_atom_site_fract_x
_atom_site_fract_y
_atom_site_fract_z
Si Si1 0.698729 0.165719 0.854940
Si Si2 0.305121 0.826852 0.952063
Si Si3 0.195588 0.665242 0.500000
Si Si4 0.302542 0.664573 0.595410
Si Si5 0.803992 0.662640 0.768135
Si Si6 0.697888 0.837422 0.318449
O O1 0.500000 0.165159 0.856390
O O2 0.759214 0.219160 0.903662
O O3 0.753411 0.260740 0.813838
O O4 0.750528 0.000000 0.848749
O O5 0.500000 0.793875 0.952753
O O6 0.292840 0.000000 0.951465
O O7 0.235603 0.777754 0.000000
O O8 0.257411 0.500000 0.500000
O O9 0.254717 0.726350 0.547085
O O10 0.000000 0.663966 0.500000
O O11 0.500000 0.660056 0.597323
O O12 0.242000 0.500000 0.598525
O O13 0.242231 0.755888 0.637283
O O14 0.740933 0.500000 0.766549
O O15 0.742166 0.751385 0.725839
O O16 0.000000 0.659069 0.766134
O O17 0.500000 0.842280 0.321082
O O18 0.758872 0.000000 0.316330
#
# Coordination Sequence:
#
# PCOD9387636 Si02
#       6
#     8   8   4   8   8   8
#     4   9  17  30  51  78 103 128 162 204 249 297
#     4   7  10  19  39  69 101 127 153 192 242 291
#     4   9  17  29  48  75 104 134 170 209 242 277
#     4   9  17  31  52  76 102 133 167 202 243 291
#     4  11  24  38  51  70  98 133 171 208 248 298
#     4  10  21  37  57  80 103 128 163 208 257 306
#
# _framework density 19.230855999999999
#
# number of rings (size 3 to 8) (size 9 to 14) (size 15 to 20)
#    0.000    2.818    0.000    3.545    0.000    6.909 
#    0.000    2.273    0.000    3.818    0.000    6.364 
#    0.000    0.000    0.000    0.000    0.000    0.000 
#
# Total GULP energy -245218.746821 kJ/mol
# GULP energy per Si atom -5573.153337 kJ/mol
# Density = 1.918709 g / cm^3
# Si number density = 19.230856 Si / 1000 Ang^3
#
#
#
# Elastic Constant Matrix: (Units=GPa)
#
#
# Indices 1 2 3 4 5 6 
#
# 1 8.8453 11.2690 11.0768 0.0000 0.0000 0.0000
# 2 11.2690 100.6032 94.8372 0.0000 0.0000 0.0000
# 3 11.0768 94.8372 238.7360 0.0000 0.0000 0.0000
# 4 0.0000 0.0000 0.0000 34.7200 0.0000 0.0000
# 5 0.0000 0.0000 0.0000 0.0000 -50.9752 0.0000
# 6 0.0000 0.0000 0.0000 0.0000 0.0000 73.3439
#
#
#
# Elastic Compliance Matrix: (Units=1/GPa)
#
#
# Indices 1 2 3 4 5 6 
#
# 1 0.131898 -0.014397 -0.000401 0.000000 0.000000 0.000000
# 2 -0.014397 0.017462 -0.006269 0.000000 0.000000 0.000000
# 3 -0.000401 -0.006269 0.006698 0.000000 0.000000 0.000000
# 4 0.000000 0.000000 0.000000 0.028802 0.000000 0.000000
# 5 0.000000 0.000000 0.000000 0.000000 -0.019617 0.000000
# 6 0.000000 0.000000 0.000000 0.000000 0.000000 0.013634
#
#
# Mechanical properties :
#
#
# Convention : Reuss Voigt Hill
#
# Bulk Modulus (GPa) = 8.77766 64.72785 36.75276
# Shear Modulus (GPa) = 19.30615 26.81784 23.06200
#
# Velocity S-wave (km/s) = 3.17190 3.73838 3.46673
# Velocity P-wave (km/s) = 4.24133 7.23639 5.93103
#
# Compressibility (1/GPa) = 0.11392553
#
# Stress axis : x y z
#
# Youngs Moduli (GPa) = 7.58160 57.26644 149.30715
#
# Poissons Ratio (x) = 0.82445 0.05983
# Poissons Ratio (y) = 0.10915 0.93598
# Poissons Ratio (z) = 0.00304 0.35899
#
# Static dielectric constant tensor:
#      x y z
#    x 1.671120 0.000000 0.000000 
#    y 0.000000 1.663900 0.000000 
#    z 0.000000 0.000000 1.696360 
# 
# From -- ./inp_files/2238.got.cif
#   From: 2010.05.17/outbox.cif.g08.bks.cpg/sg47_2_cif.got.tgz:2238.got - 2010.06.03 20:15:42.
