data_PCOD9387539
_publ_section_title
;
Structure prediction by ZEFSAII (Michael W. Deem and Ramdas Pophale) SiO2 
 PCOD9387539
Probable space group: P M M M
;
_chemical_formula_sum "Si O2"
_cell_formula_units_Z 56
_cell_length_a 8.957658
_cell_length_b 21.655380
_cell_length_c 15.806054
_cell_angle_alpha 90.000000
_cell_angle_beta 90.000000
_cell_angle_gamma 90.000000
_cell_volume 3066.081873
_symmetry_space_group_name_H-M "P M M M"
_symmetry_group_IT_number 47
_symmetry_cell_setting 'orthorhombic'
loop_
_space_group_symop_operation_xyz
x,y,z
-x,-y,z
x,-y,-z
-x,y,-z
-x,-y,-z
x,y,-z
-x,y,z
x,-y,z
loop_
_atom_site_type_symbol
_atom_site_label
_atom_site_fract_x
_atom_site_fract_y
_atom_site_fract_z
Si Si1 0.320689 0.926931 0.500000
Si Si2 0.174919 0.740765 0.240792
Si Si3 0.681901 0.500000 0.100261
Si Si4 0.321941 0.607582 0.767951
Si Si5 0.670072 0.190532 0.096194
Si Si6 0.829684 0.573816 0.406717
Si Si7 0.178477 0.859608 0.660585
Si Si8 0.674250 0.069999 0.185641
O O1 0.500000 0.925332 0.500000
O O2 0.257498 0.890449 0.580779
O O3 0.276269 0.000000 0.500000
O O4 0.259194 0.676683 0.228054
O O5 0.209801 0.778455 0.155841
O O6 0.223227 0.788836 0.315087
O O7 0.000000 0.729024 0.251777
O O8 0.500000 0.500000 0.098612
O O9 0.728317 0.560071 0.157075
O O10 0.728940 0.500000 0.000000
O O11 0.500000 0.608260 0.771908
O O12 0.269039 0.586683 0.674883
O O13 0.500000 0.206643 0.124658
O O14 0.683978 0.117029 0.107828
O O15 0.686036 0.209365 0.000000
O O16 0.778045 0.596312 0.500000
O O17 0.837933 0.500000 0.412130
O O18 0.000000 0.596983 0.393628
O O19 0.226263 0.901497 0.740236
O O20 0.000000 0.860247 0.649791
O O21 0.500000 0.071080 0.213980
O O22 0.714336 0.000000 0.166031
#
# Coordination Sequence:
#
# PCOD9387539 Si02
#       8
#     4   8   4   8   8   8   8   8
#     4  11  23  37  57  85 115 146 183 234 291 341
#     4  10  22  39  57  78 108 148 189 231 281 336
#     4   9  20  38  58  85 120 152 185 233 290 345
#     4  11  21  36  60  87 114 148 191 239 290 343
#     4   9  18  33  53  77 105 139 180 224 270 324
#     4   9  18  34  57  84 115 151 184 219 272 333
#     4  10  21  37  55  76 105 143 187 230 273 330
#     4   9  17  30  50  76 106 138 172 216 271 327
#
# _framework density 18.264353
#
# number of rings (size 3 to 8) (size 9 to 14) (size 15 to 20)
#    0.000    2.286    0.714    2.357    0.000    5.714 
#    1.286    3.571    0.000    3.000    0.000    4.000 
#    0.000    0.000    0.000    0.000    0.000    0.000 
#
# Total GULP energy -311897.167391 kJ/mol
# GULP energy per Si atom -5569.592275 kJ/mol
# Density = 1.822278 g / cm^3
# Si number density = 18.264353 Si / 1000 Ang^3
#
#
#
# Elastic Constant Matrix: (Units=GPa)
#
#
# Indices 1 2 3 4 5 6 
#
# 1 42.1395 38.0545 32.7382 0.0000 0.0000 0.0000
# 2 38.0545 125.0779 49.9631 0.0000 0.0000 0.0000
# 3 32.7382 49.9631 102.8898 0.0000 0.0000 0.0000
# 4 0.0000 0.0000 0.0000 9.2226 0.0000 0.0000
# 5 0.0000 0.0000 0.0000 0.0000 -135.9224 0.0000
# 6 0.0000 0.0000 0.0000 0.0000 0.0000 -4.2993
#
#
#
# Elastic Compliance Matrix: (Units=1/GPa)
#
#
# Indices 1 2 3 4 5 6 
#
# 1 0.037240 -0.008184 -0.007875 0.000000 0.000000 0.000000
# 2 -0.008184 0.011718 -0.003086 0.000000 0.000000 0.000000
# 3 -0.007875 -0.003086 0.013723 0.000000 0.000000 0.000000
# 4 0.000000 0.000000 0.000000 0.108430 0.000000 0.000000
# 5 0.000000 0.000000 0.000000 0.000000 -0.007357 0.000000
# 6 0.000000 0.000000 0.000000 0.000000 0.000000 -0.232598
#
#
# Mechanical properties :
#
#
# Convention : Reuss Voigt Hill
#
# Bulk Modulus (GPa) = 40.99977 56.84655 48.92316
# Shear Modulus (GPa) = -222.97380 -16.24305 -119.60842
#
# Velocity S-wave (km/s) = -11.06103 -2.98540 -8.10121
# Velocity P-wave (km/s) = 11.85883 4.39413 7.78856
#
# Compressibility (1/GPa) = 0.02439038
#
# Stress axis : x y z
#
# Youngs Moduli (GPa) = 26.85309 85.34024 72.86848
#
# Poissons Ratio (x) = 0.69846 0.57383
# Poissons Ratio (y) = 0.21978 0.22487
# Poissons Ratio (z) = 0.21146 0.26336
#
# Static dielectric constant tensor:
#      x y z
#    x 1.629030 0.000000 0.000000 
#    y 0.000000 1.661230 0.000000 
#    z 0.000000 0.000000 1.643220 
# 
# From -- ./inp_files/21624.got.cif
#   From: 2010.05.17/outbox.cif.g08.bks.cpg/sg47_11_cif.got.tgz:21624.got - 2010.06.03 20:15:42.
