data_PCOD9387206
_publ_section_title
;
Structure prediction by ZEFSAII (Michael W. Deem and Ramdas Pophale) SiO2 
 PCOD9387206
Probable space group: P M M M
;
_chemical_formula_sum "Si O2"
_cell_formula_units_Z 37
_cell_length_a 23.391645
_cell_length_b 9.552466
_cell_length_c 7.572868
_cell_angle_alpha 90.000000
_cell_angle_beta 90.000000
_cell_angle_gamma 90.000000
_cell_volume 1692.141403
_symmetry_space_group_name_H-M "P M M M"
_symmetry_group_IT_number 47
_symmetry_cell_setting 'orthorhombic'
loop_
_space_group_symop_operation_xyz
x,y,z
-x,-y,z
x,-y,-z
-x,y,-z
-x,-y,-z
x,y,-z
-x,y,z
x,-y,z
loop_
_atom_site_type_symbol
_atom_site_label
_atom_site_fract_x
_atom_site_fract_y
_atom_site_fract_z
Si Si1 0.276407 0.164593 0.717085
Si Si2 0.092535 0.000000 0.690890
Si Si3 0.500000 0.838812 0.210276
Si Si4 0.159786 0.716630 0.298310
Si Si5 0.386711 0.661037 0.289623
Si Si6 0.000000 0.000000 0.000000
Si Si7 0.933712 0.500000 0.716454
O O1 0.274015 0.162726 0.500000
O O2 0.222524 0.259100 0.779202
O O3 0.333857 0.243906 0.774714
O O4 0.274108 0.000000 0.770533
O O5 0.133781 0.869209 0.696637
O O6 0.063235 0.000000 0.500000
O O7 0.048996 0.000000 0.847303
O O8 0.444490 0.748658 0.261165
O O9 0.500000 0.000000 0.280221
O O10 0.500000 0.849365 0.000000
O O11 0.168106 0.664273 0.500000
O O12 0.106859 0.627284 0.224232
O O13 0.378763 0.649537 0.500000
O O14 0.388962 0.500000 0.221269
O O15 0.937653 0.500000 0.500000
O O16 0.000000 0.500000 0.777446
#
# Coordination Sequence:
#
# PCOD9387206 Si02
#       7
#     8   4   4   8   8   1   4
#     4   9  16  29  51  82 116 152 193 240 294 352
#     4  10  21  39  61  86 117 154 197 250 302 368
#     4  11  24  41  60  82 114 157 208 247 292 354
#     4   9  17  31  54  81 113 153 194 239 295 353
#     4  10  21  35  57  89 123 156 196 245 299 354
#     4  12  26  36  60  92 120 148 206 248 312 366
#     4   9  18  28  44  78 116 147 190 239 287 350
#
# _framework density 21.865783
#
# number of rings (size 3 to 8) (size 9 to 14) (size 15 to 20)
#    0.000    2.378    1.081    1.459    3.027    3.459 
#    0.000    0.000    2.378    1.297    0.000    0.000 
#    0.000    0.000    0.000    0.000    0.000    0.000 
#
# Total GULP energy -205988.858318 kJ/mol
# GULP energy per Si atom -5567.266441 kJ/mol
# Density = 2.181602 g / cm^3
# Si number density = 21.865783 Si / 1000 Ang^3
#
#
#
# Elastic Constant Matrix: (Units=GPa)
#
#
# Indices 1 2 3 4 5 6 
#
# 1 249.7099 97.4859 10.9136 0.0000 0.0000 0.0000
# 2 97.4859 178.0494 -7.3940 0.0000 0.0000 0.0000
# 3 10.9136 -7.3940 71.0820 0.0000 0.0000 0.0000
# 4 0.0000 0.0000 0.0000 -13.0744 0.0000 0.0000
# 5 0.0000 0.0000 0.0000 0.0000 -13.6132 0.0000
# 6 0.0000 0.0000 0.0000 0.0000 0.0000 34.7195
#
#
#
# Elastic Compliance Matrix: (Units=1/GPa)
#
#
# Indices 1 2 3 4 5 6 
#
# 1 0.005177 -0.002880 -0.001094 0.000000 0.000000 0.000000
# 2 -0.002880 0.007243 0.001196 0.000000 0.000000 0.000000
# 3 -0.001094 0.001196 0.014361 0.000000 0.000000 0.000000
# 4 0.000000 0.000000 0.000000 -0.076486 0.000000 0.000000
# 5 0.000000 0.000000 0.000000 0.000000 -0.073458 0.000000
# 6 0.000000 0.000000 0.000000 0.000000 0.000000 0.028802
#
#
# Mechanical properties :
#
#
# Convention : Reuss Voigt Hill
#
# Bulk Modulus (GPa) = 47.11882 77.87248 62.49565
# Shear Modulus (GPa) = -61.17739 28.12878 -16.52430
#
# Velocity S-wave (km/s) = -5.29522 3.59057 -2.75201
# Velocity P-wave (km/s) = 3.97365 7.27192 4.30644
#
# Compressibility (1/GPa) = 0.02122294
#
# Stress axis : x y z
#
# Youngs Moduli (GPa) = 193.17129 138.06740 69.63476
#
# Poissons Ratio (x) = 0.39761 0.07621
# Poissons Ratio (y) = 0.55630 -0.08325
# Poissons Ratio (z) = 0.21140 -0.16507
#
# Static dielectric constant tensor:
#      x y z
#    x 1.796500 0.000000 0.000000 
#    y 0.000000 1.778090 0.000000 
#    z 0.000000 0.000000 1.827940 
# 
# From -- ./inp_files/12163.got.cif
#   From: 2010.05.17/outbox.cif.g08.bks.cpg/sg47_7_cif.got.tgz:12163.got - 2010.06.03 20:15:42.
