data_PCOD9387713
_publ_section_title
;
Structure prediction by ZEFSAII (Michael W. Deem and Ramdas Pophale) SiO2 
 PCOD9387713
Probable space group: P M M M
;
_chemical_formula_sum "Si O2"
_cell_formula_units_Z 48
_cell_length_a 29.680984
_cell_length_b 10.202867
_cell_length_c 8.655582
_cell_angle_alpha 90.000000
_cell_angle_beta 90.000000
_cell_angle_gamma 90.000000
_cell_volume 2621.179697
_symmetry_space_group_name_H-M "P M M M"
_symmetry_group_IT_number 47
_symmetry_cell_setting 'orthorhombic'
loop_
_space_group_symop_operation_xyz
x,y,z
-x,-y,z
x,-y,-z
-x,y,-z
-x,-y,-z
x,y,-z
-x,y,z
x,-y,z
loop_
_atom_site_type_symbol
_atom_site_label
_atom_site_fract_x
_atom_site_fract_y
_atom_site_fract_z
Si Si1 0.892988 0.752970 0.185903
Si Si2 0.551776 0.348129 0.813736
Si Si3 0.798914 0.346014 0.685363
Si Si4 0.050680 0.500000 0.812355
Si Si5 0.052795 0.000000 0.685447
Si Si6 0.275413 0.151085 0.815127
Si Si7 0.374858 0.849427 0.316215
O O1 0.843085 0.726001 0.248175
O O2 0.922225 0.627480 0.234028
O O3 0.919469 0.876363 0.252242
O O4 0.891314 0.761987 0.000000
O O5 0.500000 0.317889 0.769692
O O6 0.560701 0.500000 0.771830
O O7 0.587356 0.250651 0.739663
O O8 0.554586 0.339034 0.000000
O O9 0.800750 0.345230 0.500000
O O10 0.797528 0.500000 0.735483
O O11 0.756562 0.260356 0.741112
O O12 0.000000 0.500000 0.753397
O O13 0.049026 0.500000 0.000000
O O14 0.052968 0.000000 0.500000
O O15 0.000000 0.000000 0.736226
O O16 0.326982 0.174489 0.765480
O O17 0.263938 0.000000 0.767568
O O18 0.271436 0.157684 0.000000
O O19 0.368493 0.838253 0.500000
O O20 0.388158 0.000000 0.281091
#
# Coordination Sequence:
#
# PCOD9387713 Si02
#       7
#     8   8   8   4   4   8   8
#     4  11  22  39  63  89 119 153 195 242 287 341
#     4   9  19  36  57  82 114 154 200 246 291 342
#     4  11  24  41  61  87 121 156 192 235 291 353
#     4   9  18  34  59  89 117 147 187 237 288 333
#     4  11  25  43  61  87 123 159 195 237 288 345
#     4  10  22  40  63  88 114 149 196 244 292 347
#     4  10  21  37  57  84 118 153 192 239 294 352
#
# _framework density 18.312366000000001
#
# number of rings (size 3 to 8) (size 9 to 14) (size 15 to 20)
#    0.000    1.833    0.833    3.250    1.167    6.000 
#    0.000    2.500    0.000    2.000    0.000    0.000 
#    0.000    0.000    0.000    0.000    0.000    0.000 
#
# Total GULP energy -268054.886601 kJ/mol
# GULP energy per Si atom -5584.476804 kJ/mol
# Density = 1.827069 g / cm^3
# Si number density = 18.312366 Si / 1000 Ang^3
#
#
#
# Elastic Constant Matrix: (Units=GPa)
#
#
# Indices 1 2 3 4 5 6 
#
# 1 129.3627 98.5586 41.5613 0.0000 0.0000 0.0000
# 2 98.5586 157.7956 48.6340 0.0000 0.0000 0.0000
# 3 41.5613 48.6340 55.4364 0.0000 0.0000 0.0000
# 4 0.0000 0.0000 0.0000 31.9962 0.0000 0.0000
# 5 0.0000 0.0000 0.0000 0.0000 28.1666 0.0000
# 6 0.0000 0.0000 0.0000 0.0000 0.0000 40.5476
#
#
#
# Elastic Compliance Matrix: (Units=1/GPa)
#
#
# Indices 1 2 3 4 5 6 
#
# 1 0.015453 -0.008335 -0.004273 0.000000 0.000000 0.000000
# 2 -0.008335 0.013182 -0.005315 0.000000 0.000000 0.000000
# 3 -0.004273 -0.005315 0.025905 0.000000 0.000000 0.000000
# 4 0.000000 0.000000 0.000000 0.031254 0.000000 0.000000
# 5 0.000000 0.000000 0.000000 0.000000 0.035503 0.000000
# 6 0.000000 0.000000 0.000000 0.000000 0.000000 0.024662
#
#
# Mechanical properties :
#
#
# Convention : Reuss Voigt Hill
#
# Bulk Modulus (GPa) = 53.49525 80.01140 66.75332
# Shear Modulus (GPa) = 26.59041 30.39814 28.49427
#
# Velocity S-wave (km/s) = 3.81471 4.07870 3.94891
# Velocity P-wave (km/s) = 6.97701 8.12210 7.57124
#
# Compressibility (1/GPa) = 0.01869325
#
# Stress axis : x y z
#
# Youngs Moduli (GPa) = 64.71053 75.86350 38.60199
#
# Poissons Ratio (x) = 0.63233 0.16496
# Poissons Ratio (y) = 0.53937 0.20518
# Poissons Ratio (z) = 0.27653 0.40323
#
# Static dielectric constant tensor:
#      x y z
#    x 1.604550 0.000000 0.000000 
#    y 0.000000 1.627330 0.000000 
#    z 0.000000 0.000000 1.619450 
# 
# From -- ./inp_files/13998.got.cif
#   From: 2010.05.17/outbox.cif.g08.bks.cpg/sg47_7_cif.got.tgz:13998.got - 2010.06.03 20:15:42.
