data_PCOD9387306
_publ_section_title
;
Structure prediction by ZEFSAII (Michael W. Deem and Ramdas Pophale) SiO2 
 PCOD9387306
Probable space group: P M M M
;
_chemical_formula_sum "Si O2"
_cell_formula_units_Z 64
_cell_length_a 15.217065
_cell_length_b 15.217051
_cell_length_c 11.437263
_cell_angle_alpha 90.000000
_cell_angle_beta 90.000000
_cell_angle_gamma 90.000000
_cell_volume 2648.399515
_symmetry_space_group_name_H-M "P M M M"
_symmetry_group_IT_number 47
_symmetry_cell_setting 'orthorhombic'
loop_
_space_group_symop_operation_xyz
x,y,z
-x,-y,z
x,-y,-z
-x,y,-z
-x,-y,-z
x,y,-z
-x,y,z
x,-y,z
loop_
_atom_site_type_symbol
_atom_site_label
_atom_site_fract_x
_atom_site_fract_y
_atom_site_fract_z
Si Si1 0.103625 0.847774 0.874728
Si Si2 0.661310 0.339070 0.873612
Si Si3 0.136460 0.366111 0.625301
Si Si4 0.160930 0.838690 0.626388
Si Si5 0.652226 0.603625 0.625272
Si Si6 0.133889 0.363540 0.874699
Si Si7 0.598545 0.152574 0.873988
Si Si8 0.652574 0.901455 0.373988
O O1 0.138015 0.881874 0.750329
O O2 0.117258 0.741864 0.874602
O O3 0.000000 0.864589 0.875564
O O4 0.140781 0.880287 0.000000
O O5 0.618126 0.361985 0.749671
O O6 0.760414 0.375647 0.873449
O O7 0.665588 0.233344 0.873586
O O8 0.621231 0.364713 0.000000
O O9 0.103371 0.398748 0.500000
O O10 0.124353 0.260414 0.626551
O O11 0.241864 0.382742 0.625398
O O12 0.101699 0.398301 0.750000
O O13 0.135287 0.878769 0.500000
O O14 0.266656 0.834412 0.626414
O O15 0.619713 0.640781 0.500000
O O16 0.635411 0.500000 0.624436
O O17 0.101252 0.396629 0.000000
O O18 0.500000 0.190890 0.876810
O O19 0.605287 0.105287 0.750000
O O20 0.609514 0.105319 0.000000
O O21 0.605319 0.890486 0.500000
O O22 0.690890 0.000000 0.376810
#
# Coordination Sequence:
#
# PCOD9387306 Si02
#       8
#     8   8   8   8   8   8   8   8
#     4   9  16  25  40  65  95 123 152 191 238 283
#     4   9  17  30  48  68  91 121 158 198 237 280
#     4   8  13  22  37  57  82 111 142 179 223 267
#     4   9  17  30  48  68  91 121 158 198 237 280
#     4   9  16  25  40  65  95 123 152 191 238 283
#     4   8  13  22  37  57  82 111 142 179 223 267
#     4  10  21  36  54  76 100 126 158 196 238 286
#     4  10  21  36  54  76 100 126 158 196 238 286
#
# _framework density 24.165538000000002
#
# number of rings (size 3 to 8) (size 9 to 14) (size 15 to 20)
#    0.000    3.000    0.000    2.250    0.000    4.250 
#    0.000    1.250    0.000    0.750    0.000    5.250 
#    0.000   40.500    0.000  416.250    0.000   37.500 
#
# Total GULP energy -356308.719452 kJ/mol
# GULP energy per Si atom -5567.323741 kJ/mol
# Density = 2.411054 g / cm^3
# Si number density = 24.165538 Si / 1000 Ang^3
#
#
#
# Elastic Constant Matrix: (Units=GPa)
#
#
# Indices 1 2 3 4 5 6 
#
# 1 37.5437 -0.8896 27.0305 0.0000 0.0000 0.0000
# 2 -0.8896 37.5441 27.0305 0.0000 0.0000 0.0000
# 3 27.0305 27.0305 377.8891 0.0000 0.0000 0.0000
# 4 0.0000 0.0000 0.0000 282.4642 0.0000 0.0000
# 5 0.0000 0.0000 0.0000 0.0000 282.5690 0.0000
# 6 0.0000 0.0000 0.0000 0.0000 0.0000 -5.0198
#
#
#
# Elastic Compliance Matrix: (Units=1/GPa)
#
#
# Indices 1 2 3 4 5 6 
#
# 1 0.028259 0.002240 -0.002182 0.000000 0.000000 0.000000
# 2 0.002240 0.028259 -0.002182 0.000000 0.000000 0.000000
# 3 -0.002182 -0.002182 0.002958 0.000000 0.000000 0.000000
# 4 0.000000 0.000000 0.000000 0.003540 0.000000 0.000000
# 5 0.000000 0.000000 0.000000 0.000000 0.003539 0.000000
# 6 0.000000 0.000000 0.000000 0.000000 0.000000 -0.199211
#
#
# Mechanical properties :
#
#
# Convention : Reuss Voigt Hill
#
# Bulk Modulus (GPa) = 18.10580 62.14664 40.12622
# Shear Modulus (GPa) = -45.45527 138.65640 46.60056
#
# Velocity S-wave (km/s) = -4.34175 7.58303 4.39611
# Velocity P-wave (km/s) = 4.19830 10.12139 6.51218
#
# Compressibility (1/GPa) = 0.05523093
#
# Stress axis : x y z
#
# Youngs Moduli (GPa) = 35.38644 35.38683 338.02219
#
# Poissons Ratio (x) = -0.07928 0.73745
# Poissons Ratio (y) = -0.07928 0.73744
# Poissons Ratio (z) = 0.07720 0.07720
#
# Static dielectric constant tensor:
#      x y z
#    x 1.885210 0.000000 0.000000 
#    y 0.000000 1.885210 0.000000 
#    z 0.000000 0.000000 2.049640 
# 
# From -- ./inp_files/17901.got.cif
#   From: 2010.05.17/outbox.cif.g08.bks.cpg/sg47_9_cif.got.tgz:17901.got - 2010.06.03 20:15:42.
