data_PCOD9387211
_publ_section_title
;
Structure prediction by ZEFSAII (Michael W. Deem and Ramdas Pophale) SiO2 
 PCOD9387211
Probable space group: P M M M
;
_chemical_formula_sum "Si O2"
_cell_formula_units_Z 44
_cell_length_a 14.499433
_cell_length_b 8.711409
_cell_length_c 21.940799
_cell_angle_alpha 90.000000
_cell_angle_beta 90.000000
_cell_angle_gamma 90.000000
_cell_volume 2771.353097
_symmetry_space_group_name_H-M "P M M M"
_symmetry_group_IT_number 47
_symmetry_cell_setting 'orthorhombic'
loop_
_space_group_symop_operation_xyz
x,y,z
-x,-y,z
x,-y,-z
-x,y,-z
-x,-y,-z
x,y,-z
-x,y,z
x,-y,z
loop_
_atom_site_type_symbol
_atom_site_label
_atom_site_fract_x
_atom_site_fract_y
_atom_site_fract_z
Si Si1 0.389874 0.183687 0.931665
Si Si2 0.611671 0.682179 0.434405
Si Si3 0.887928 0.675012 0.000000
Si Si4 0.719059 0.683531 0.182980
Si Si5 0.893641 0.183177 0.129115
Si Si6 0.607155 0.687717 0.301427
O O1 0.500000 0.210045 0.926386
O O2 0.337474 0.262299 0.876331
O O3 0.374854 0.000000 0.928251
O O4 0.361438 0.234566 0.000000
O O5 0.643127 0.747399 0.500000
O O6 0.500000 0.693223 0.433530
O O7 0.633040 0.500000 0.435313
O O8 0.641318 0.742270 0.368155
O O9 0.862660 0.760465 0.937983
O O10 0.854377 0.500000 0.000000
O O11 0.000000 0.671718 0.000000
O O12 0.721759 0.500000 0.183455
O O13 0.821908 0.747895 0.176492
O O14 0.667793 0.737453 0.244259
O O15 0.000000 0.232295 0.138415
O O16 0.890592 0.000000 0.130324
O O17 0.500000 0.732801 0.293126
O O18 0.607962 0.500000 0.302789
#
# Coordination Sequence:
#
# PCOD9387211 Si02
#       6
#     8   8   4   8   8   8
#     4   9  19  35  50  62  81 113 152 190 222 254
#     4   7   9  15  30  52  80 116 151 176 201 241
#     4   9  17  31  51  71  86  99 124 169 223 273
#     4  11  21  30  45  67  91 117 145 182 227 270
#     4  10  21  36  51  65  84 112 144 180 224 273
#     4   8  14  24  37  58  90 122 149 177 211 253
#
# _framework density 15.876720000000001
#
# number of rings (size 3 to 8) (size 9 to 14) (size 15 to 20)
#    0.000    3.000    0.000    4.091    1.273    3.636 
#    0.000    0.909    0.000    0.000    0.000    0.000 
#    0.000    3.636    0.000   29.636    0.000   18.545 
#
# Total GULP energy -245084.971486 kJ/mol
# GULP energy per Si atom -5570.112988 kJ/mol
# Density = 1.584058 g / cm^3
# Si number density = 15.876720 Si / 1000 Ang^3
#
#
#
# Elastic Constant Matrix: (Units=GPa)
#
#
# Indices 1 2 3 4 5 6 
#
# 1 63.5568 19.0503 67.8188 0.0000 0.0000 0.0000
# 2 19.0503 21.3319 25.6089 0.0000 0.0000 0.0000
# 3 67.8188 25.6089 159.8518 0.0000 0.0000 0.0000
# 4 0.0000 0.0000 0.0000 -22.0147 0.0000 0.0000
# 5 0.0000 0.0000 0.0000 0.0000 9.9396 0.0000
# 6 0.0000 0.0000 0.0000 0.0000 0.0000 19.3234
#
#
#
# Elastic Compliance Matrix: (Units=1/GPa)
#
#
# Indices 1 2 3 4 5 6 
#
# 1 0.032368 -0.015377 -0.011269 0.000000 0.000000 0.000000
# 2 -0.015377 0.065346 -0.003945 0.000000 0.000000 0.000000
# 3 -0.011269 -0.003945 0.011669 0.000000 0.000000 0.000000
# 4 0.000000 0.000000 0.000000 -0.045424 0.000000 0.000000
# 5 0.000000 0.000000 0.000000 0.000000 0.100607 0.000000
# 6 0.000000 0.000000 0.000000 0.000000 0.000000 0.051751
#
#
# Mechanical properties :
#
#
# Convention : Reuss Voigt Hill
#
# Bulk Modulus (GPa) = 20.74656 52.18851 36.46753
# Shear Modulus (GPa) = 17.03197 10.26716 13.64956
#
# Velocity S-wave (km/s) = 3.27886 2.54575 2.93528
# Velocity P-wave (km/s) = 5.23739 6.44853 5.87426
#
# Compressibility (1/GPa) = 0.04820077
#
# Stress axis : x y z
#
# Youngs Moduli (GPa) = 30.89510 15.30306 85.69978
#
# Poissons Ratio (x) = 0.23532 0.96573
# Poissons Ratio (y) = 0.47509 0.33806
# Poissons Ratio (z) = 0.34815 0.06037
#
# Static dielectric constant tensor:
#      x y z
#    x 1.535780 0.000000 0.000000 
#    y 0.000000 1.536650 0.000000 
#    z 0.000000 0.000000 1.562460 
# 
# From -- ./inp_files/24906.got.cif
#   From: 2010.05.17/outbox.cif.g08.bks.cpg/sg47_13_cif.got.tgz:24906.got - 2010.06.03 20:15:42.
