data_PCOD9387385
_publ_section_title
;
Structure prediction by ZEFSAII (Michael W. Deem and Ramdas Pophale) SiO2 
 PCOD9387385
Probable space group: P M M M
;
_chemical_formula_sum "Si O2"
_cell_formula_units_Z 40
_cell_length_a 9.256427
_cell_length_b 7.886417
_cell_length_c 27.640437
_cell_angle_alpha 90.000000
_cell_angle_beta 90.000000
_cell_angle_gamma 90.000000
_cell_volume 2017.753097
_symmetry_space_group_name_H-M "P M M M"
_symmetry_group_IT_number 47
_symmetry_cell_setting 'orthorhombic'
loop_
_space_group_symop_operation_xyz
x,y,z
-x,-y,z
x,-y,-z
-x,y,-z
-x,-y,-z
x,y,-z
-x,y,z
x,-y,z
loop_
_atom_site_type_symbol
_atom_site_label
_atom_site_fract_x
_atom_site_fract_y
_atom_site_fract_z
Si Si1 0.166354 0.698969 0.796619
Si Si2 0.333113 0.798605 0.702347
Si Si3 0.834522 0.292297 0.500000
Si Si4 0.328340 0.192185 0.890029
Si Si5 0.333868 0.295102 0.404781
Si Si6 0.831274 0.500000 0.942069
O O1 0.168772 0.500000 0.809383
O O2 0.234324 0.720282 0.743694
O O3 0.263628 0.793044 0.836072
O O4 0.000000 0.757339 0.797773
O O5 0.500000 0.736291 0.705952
O O6 0.280957 0.761202 0.647934
O O7 0.334634 0.000000 0.709569
O O8 0.830324 0.500000 0.500000
O O9 0.755637 0.236028 0.548961
O O10 0.000000 0.239611 0.500000
O O11 0.500000 0.224947 0.889101
O O12 0.247257 0.333651 0.921307
O O13 0.304938 0.000000 0.907896
O O14 0.500000 0.237675 0.409423
O O15 0.333242 0.500000 0.405167
O O16 0.000000 0.500000 0.927279
O O17 0.823917 0.500000 0.000000
#
# Coordination Sequence:
#
# PCOD9387385 Si02
#       6
#     8   8   4   8   8   4
#     4  11  23  38  59  88 121 159 202 249 305 367
#     4  10  21  36  54  79 111 147 189 237 291 353
#     4   9  17  29  48  73  98 126 168 225 282 339
#     4  11  24  42  67  98 131 171 218 267 318 373
#     4   9  17  31  51  73  98 133 177 225 280 343
#     4  11  25  45  69  99 135 175 219 266 319 376
#
# _framework density 19.824031000000002
#
# number of rings (size 3 to 8) (size 9 to 14) (size 15 to 20)
#    0.000    1.800    1.000    3.000    0.000    9.600 
#    0.000    4.500    0.000    3.000    0.000    0.000 
#    0.000    0.000    0.000    0.000    0.000    0.000 
#
# Total GULP energy -223540.449616 kJ/mol
# GULP energy per Si atom -5588.511240 kJ/mol
# Density = 1.977891 g / cm^3
# Si number density = 19.824031 Si / 1000 Ang^3
#
#
#
# Elastic Constant Matrix: (Units=GPa)
#
#
# Indices 1 2 3 4 5 6 
#
# 1 129.9128 58.7719 73.5869 0.0000 0.0000 0.0000
# 2 58.7719 79.6804 40.5412 0.0000 0.0000 0.0000
# 3 73.5869 40.5412 120.0210 0.0000 0.0000 0.0000
# 4 0.0000 0.0000 0.0000 -5.1855 0.0000 0.0000
# 5 0.0000 0.0000 0.0000 0.0000 45.7635 0.0000
# 6 0.0000 0.0000 0.0000 0.0000 0.0000 6.1079
#
#
#
# Elastic Compliance Matrix: (Units=1/GPa)
#
#
# Indices 1 2 3 4 5 6 
#
# 1 0.014845 -0.007630 -0.006524 0.000000 0.000000 0.000000
# 2 -0.007630 0.019076 -0.001766 0.000000 0.000000 0.000000
# 3 -0.006524 -0.001766 0.012928 0.000000 0.000000 0.000000
# 4 0.000000 0.000000 0.000000 -0.192846 0.000000 0.000000
# 5 0.000000 0.000000 0.000000 0.000000 0.021851 0.000000
# 6 0.000000 0.000000 0.000000 0.000000 0.000000 0.163721
#
#
# Mechanical properties :
#
#
# Convention : Reuss Voigt Hill
#
# Bulk Modulus (GPa) = 66.62321 75.04601 70.83461
# Shear Modulus (GPa) = 65.42848 19.78481 42.60665
#
# Velocity S-wave (km/s) = 5.75120 3.16258 4.64102
# Velocity P-wave (km/s) = 8.81941 7.16059 8.03293
#
# Compressibility (1/GPa) = 0.01500978
#
# Stress axis : x y z
#
# Youngs Moduli (GPa) = 67.36363 52.42111 77.34876
#
# Poissons Ratio (x) = 0.39997 0.50465
# Poissons Ratio (y) = 0.51398 0.13657
# Poissons Ratio (z) = 0.43950 0.09256
#
# Static dielectric constant tensor:
#      x y z
#    x 1.672220 0.000000 0.000000 
#    y 0.000000 1.710790 0.000000 
#    z 0.000000 0.000000 1.674070 
# 
# From -- ./inp_files/33057.got.cif
#   From: 2010.05.17/outbox.cif.g08.bks.cpg/sg47_17_cif.got.tgz:33057.got - 2010.06.03 20:15:42.
