data_PCOD9387682
_publ_section_title
;
Structure prediction by ZEFSAII (Michael W. Deem and Ramdas Pophale) SiO2 
 PCOD9387682
Probable space group: P M M M
;
_chemical_formula_sum "Si O2"
_cell_formula_units_Z 48
_cell_length_a 33.608931
_cell_length_b 7.914764
_cell_length_c 9.241142
_cell_angle_alpha 90.000000
_cell_angle_beta 90.000000
_cell_angle_gamma 90.000000
_cell_volume 2458.206216
_symmetry_space_group_name_H-M "P M M M"
_symmetry_group_IT_number 47
_symmetry_cell_setting 'orthorhombic'
loop_
_space_group_symop_operation_xyz
x,y,z
-x,-y,z
x,-y,-z
-x,y,-z
-x,-y,-z
x,y,-z
-x,y,z
x,-y,z
loop_
_atom_site_type_symbol
_atom_site_label
_atom_site_fract_x
_atom_site_fract_y
_atom_site_fract_z
Si Si1 0.579445 0.703434 0.835458
Si Si2 0.500000 0.798058 0.664668
Si Si3 0.735364 0.798954 0.835877
Si Si4 0.954616 0.000000 0.824164
Si Si5 0.814795 0.296508 0.334789
Si Si6 0.656575 0.702419 0.336146
Si Si7 0.103764 0.698298 0.825925
O O1 0.582718 0.500000 0.842887
O O2 0.539431 0.743063 0.749051
O O3 0.618374 0.768439 0.751392
O O4 0.577722 0.767864 0.000000
O O5 0.500000 0.731700 0.500000
O O6 0.500000 0.000000 0.658848
O O7 0.775980 0.757481 0.752955
O O8 0.697270 0.735191 0.748278
O O9 0.731983 0.000000 0.843628
O O10 0.736012 0.730462 0.000000
O O11 0.930483 0.830692 0.783130
O O12 0.000000 0.000000 0.771550
O O13 0.955837 0.000000 0.000000
O O14 0.814030 0.233038 0.500000
O O15 0.814335 0.500000 0.339800
O O16 0.855363 0.250002 0.252532
O O17 0.658113 0.769515 0.500000
O O18 0.652001 0.500000 0.345526
O O19 0.095083 0.500000 0.792453
O O20 0.109139 0.709042 0.000000
#
# Coordination Sequence:
#
# PCOD9387682 Si02
#       7
#     8   4   8   4   8   8   8
#     4  10  21  38  61  86 110 141 183 228 275 329
#     4  11  24  39  56  82 114 147 182 223 276 332
#     4  11  24  38  54  80 113 148 185 226 274 329
#     4   9  18  32  53  83 115 147 189 241 291 344
#     4  10  21  37  57  81 109 143 185 233 283 334
#     4  10  21  38  60  84 110 143 183 226 273 326
#     4   9  18  33  54  80 111 148 189 236 290 344
#
# _framework density 19.526433999999998
#
# number of rings (size 3 to 8) (size 9 to 14) (size 15 to 20)
#    0.000    2.000    0.000    3.000    1.167    9.000 
#    0.000    1.667    0.000    1.000    0.000    2.333 
#    0.000    0.000    0.000    0.000    0.000    0.000 
#
# Total GULP energy -268093.948173 kJ/mol
# GULP energy per Si atom -5585.290587 kJ/mol
# Density = 1.948199 g / cm^3
# Si number density = 19.526434 Si / 1000 Ang^3
#
#
#
# Elastic Constant Matrix: (Units=GPa)
#
#
# Indices 1 2 3 4 5 6 
#
# 1 204.9335 41.7403 105.4514 0.0000 0.0000 0.0000
# 2 41.7403 41.6469 33.4151 0.0000 0.0000 0.0000
# 3 105.4514 33.4151 160.1010 0.0000 0.0000 0.0000
# 4 0.0000 0.0000 0.0000 16.2696 0.0000 0.0000
# 5 0.0000 0.0000 0.0000 0.0000 56.3731 0.0000
# 6 0.0000 0.0000 0.0000 0.0000 0.0000 50.8519
#
#
#
# Elastic Compliance Matrix: (Units=1/GPa)
#
#
# Indices 1 2 3 4 5 6 
#
# 1 0.008048 -0.004580 -0.004345 0.000000 0.000000 0.000000
# 2 -0.004580 0.031447 -0.003547 0.000000 0.000000 0.000000
# 3 -0.004345 -0.003547 0.009848 0.000000 0.000000 0.000000
# 4 0.000000 0.000000 0.000000 0.061464 0.000000 0.000000
# 5 0.000000 0.000000 0.000000 0.000000 0.017739 0.000000
# 6 0.000000 0.000000 0.000000 0.000000 0.000000 0.019665
#
#
# Mechanical properties :
#
#
# Convention : Reuss Voigt Hill
#
# Bulk Modulus (GPa) = 40.98353 85.32167 63.15260
# Shear Modulus (GPa) = 27.58015 39.77055 33.67535
#
# Velocity S-wave (km/s) = 3.76234 4.51794 4.15734
# Velocity P-wave (km/s) = 6.31727 8.42651 7.44694
#
# Compressibility (1/GPa) = 0.02440004
#
# Stress axis : x y z
#
# Youngs Moduli (GPa) = 124.24891 31.79904 101.54041
#
# Poissons Ratio (x) = 0.14564 0.44121
# Poissons Ratio (y) = 0.56907 0.36014
# Poissons Ratio (z) = 0.53988 0.11278
#
# Static dielectric constant tensor:
#      x y z
#    x 1.637980 0.000000 0.000000 
#    y 0.000000 1.697490 0.000000 
#    z 0.000000 0.000000 1.686310 
# 
# From -- ./inp_files/13924.got.cif
#   From: 2010.05.17/outbox.cif.g08.bks.cpg/sg47_7_cif.got.tgz:13924.got - 2010.06.03 20:15:42.
