data_PCOD9387153
_publ_section_title
;
Structure prediction by ZEFSAII (Michael W. Deem and Ramdas Pophale) SiO2 
 PCOD9387153
Probable space group: P M M M
;
_chemical_formula_sum "Si O2"
_cell_formula_units_Z 48
_cell_length_a 9.311382
_cell_length_b 7.471375
_cell_length_c 35.521895
_cell_angle_alpha 90.000000
_cell_angle_beta 90.000000
_cell_angle_gamma 90.000000
_cell_volume 2471.216557
_symmetry_space_group_name_H-M "P M M M"
_symmetry_group_IT_number 47
_symmetry_cell_setting 'orthorhombic'
loop_
_space_group_symop_operation_xyz
x,y,z
-x,-y,z
x,-y,-z
-x,y,-z
-x,-y,-z
x,y,-z
-x,y,z
x,-y,z
loop_
_atom_site_type_symbol
_atom_site_label
_atom_site_fract_x
_atom_site_fract_y
_atom_site_fract_z
Si Si1 0.827395 0.000000 0.668070
Si Si2 0.839555 0.287192 0.116405
Si Si3 0.164937 0.282619 0.457721
Si Si4 0.335966 0.784900 0.041476
Si Si5 0.669953 0.289563 0.189706
Si Si6 0.671515 0.000000 0.252560
Si Si7 0.669646 0.284918 0.383054
O O1 0.766313 0.000000 0.710300
O O2 0.761253 0.827647 0.646711
O O3 0.000000 0.000000 0.666710
O O4 0.848407 0.500000 0.121742
O O5 0.759511 0.261445 0.077028
O O6 0.752838 0.221848 0.152771
O O7 0.000000 0.213113 0.114918
O O8 0.203439 0.222881 0.500000
O O9 0.164420 0.500000 0.458459
O O10 0.271242 0.231639 0.424355
O O11 0.000000 0.226759 0.449894
O O12 0.500000 0.721444 0.046757
O O13 0.340587 0.000000 0.040153
O O14 0.285570 0.723185 0.000000
O O15 0.500000 0.272973 0.182095
O O16 0.700910 0.500000 0.196112
O O17 0.701819 0.171519 0.226215
O O18 0.500000 0.000000 0.261724
O O19 0.500000 0.246898 0.379506
O O20 0.689239 0.500000 0.378675
#
# Coordination Sequence:
#
# PCOD9387153 Si02
#       7
#     4   8   8   8   8   4   8
#     4  12  26  42  61  87 120 155 195 241 290 358
#     4  10  21  35  52  78 111 143 175 217 269 323
#     4   8  14  27  50  81 117 156 197 241 292 351
#     4   9  19  35  53  74 102 139 184 228 267 313
#     4   9  19  37  60  85 113 145 182 226 276 331
#     4  10  22  40  62  87 112 143 186 232 282 342
#     4  10  21  38  61  87 118 158 201 248 298 345
#
# _framework density 19.423632999999999
#
# number of rings (size 3 to 8) (size 9 to 14) (size 15 to 20)
#    0.000    2.500    0.000    2.750    1.167    4.667 
#    0.000    6.250    0.000    2.500    0.000    0.000 
#    0.000    0.000    0.000    0.000    0.000    0.000 
#
# Total GULP energy -267894.373459 kJ/mol
# GULP energy per Si atom -5581.132780 kJ/mol
# Density = 1.937942 g / cm^3
# Si number density = 19.423633 Si / 1000 Ang^3
#
#
#
# Elastic Constant Matrix: (Units=GPa)
#
#
# Indices 1 2 3 4 5 6 
#
# 1 133.5016 50.4317 120.0450 0.0000 0.0000 0.0000
# 2 50.4317 77.6007 50.6140 0.0000 0.0000 0.0000
# 3 120.0450 50.6140 184.9311 0.0000 0.0000 0.0000
# 4 0.0000 0.0000 0.0000 34.8282 0.0000 0.0000
# 5 0.0000 0.0000 0.0000 0.0000 193.1416 0.0000
# 6 0.0000 0.0000 0.0000 0.0000 0.0000 61.5202
#
#
#
# Elastic Compliance Matrix: (Units=1/GPa)
#
#
# Indices 1 2 3 4 5 6 
#
# 1 0.019712 -0.005435 -0.011308 0.000000 0.000000 0.000000
# 2 -0.005435 0.017185 -0.001175 0.000000 0.000000 0.000000
# 3 -0.011308 -0.001175 0.013070 0.000000 0.000000 0.000000
# 4 0.000000 0.000000 0.000000 0.028712 0.000000 0.000000
# 5 0.000000 0.000000 0.000000 0.000000 0.005178 0.000000
# 6 0.000000 0.000000 0.000000 0.000000 0.000000 0.016255
#
#
# Mechanical properties :
#
#
# Convention : Reuss Voigt Hill
#
# Bulk Modulus (GPa) = 70.77290 93.13496 81.95393
# Shear Modulus (GPa) = 35.54696 69.56086 52.55391
#
# Velocity S-wave (km/s) = 4.28259 5.99085 5.20725
# Velocity P-wave (km/s) = 7.80831 9.79321 8.85655
#
# Compressibility (1/GPa) = 0.01412970
#
# Stress axis : x y z
#
# Youngs Moduli (GPa) = 50.73033 58.18946 76.51281
#
# Poissons Ratio (x) = 0.31626 0.86523
# Poissons Ratio (y) = 0.27572 0.08994
# Poissons Ratio (z) = 0.57367 0.06840
#
# Static dielectric constant tensor:
#      x y z
#    x 1.664070 0.000000 0.000000 
#    y 0.000000 1.721320 0.000000 
#    z 0.000000 0.000000 1.654930 
# 
# From -- ./inp_files/34068.got.cif
#   From: 2010.05.17/outbox.cif.g08.bks.cpg/sg47_18_cif.got.tgz:34068.got - 2010.06.03 20:15:42.
