data_PCOD9387805
_publ_section_title
;
Structure prediction by ZEFSAII (Michael W. Deem and Ramdas Pophale) SiO2 
 PCOD9387805
Probable space group: P M M M
;
_chemical_formula_sum "Si O2"
_cell_formula_units_Z 28
_cell_length_a 7.646883
_cell_length_b 8.598555
_cell_length_c 22.657939
_cell_angle_alpha 90.000000
_cell_angle_beta 90.000000
_cell_angle_gamma 90.000000
_cell_volume 1489.808069
_symmetry_space_group_name_H-M "P M M M"
_symmetry_group_IT_number 47
_symmetry_cell_setting 'orthorhombic'
loop_
_space_group_symop_operation_xyz
x,y,z
-x,-y,z
x,-y,-z
-x,y,-z
-x,-y,-z
x,y,-z
-x,y,z
x,-y,z
loop_
_atom_site_type_symbol
_atom_site_label
_atom_site_fract_x
_atom_site_fract_y
_atom_site_fract_z
Si Si1 0.500000 0.686378 0.290198
Si Si2 0.203461 0.814145 0.625728
Si Si3 0.500000 0.690278 0.154700
Si Si4 0.787462 0.678597 0.500000
Si Si5 0.200422 0.689503 0.933523
O O1 0.500000 0.500000 0.290579
O O2 0.670125 0.744923 0.325100
O O3 0.500000 0.741181 0.222356
O O4 0.265134 0.759928 0.560794
O O5 0.000000 0.764983 0.633295
O O6 0.209440 0.000000 0.628004
O O7 0.500000 0.500000 0.155152
O O8 0.668626 0.741371 0.117239
O O9 0.730259 0.500000 0.500000
O O10 0.000000 0.682187 0.500000
O O11 0.202350 0.500000 0.933265
O O12 0.000000 0.737974 0.923986
O O13 0.254254 0.736421 0.000000
#
# Coordination Sequence:
#
# PCOD9387805 Si02
#       5
#     4   8   4   4   8
#     4  11  23  35  50  76 108 143 181 218 261 313
#     4  10  21  38  58  78 104 139 178 219 262 312
#     4   9  17  27  39  60  94 133 168 204 249 302
#     4   9  17  32  57  86 110 131 163 214 273 322
#     4   8  13  22  38  60  87 123 165 204 246 301
#
# _framework density 18.794367000000001
#
# number of rings (size 3 to 8) (size 9 to 14) (size 15 to 20)
#    0.000    2.714    0.000    3.000    0.000    6.857 
#    0.000    5.714    0.000    0.000    0.000    0.000 
#    0.000    9.143    0.000   25.143    0.000   20.571 
#
# Total GULP energy -156212.769286 kJ/mol
# GULP energy per Si atom -5579.027475 kJ/mol
# Density = 1.875159 g / cm^3
# Si number density = 18.794367 Si / 1000 Ang^3
#
#
#
# Elastic Constant Matrix: (Units=GPa)
#
#
# Indices 1 2 3 4 5 6 
#
# 1 114.6455 26.5063 112.3134 0.0000 0.0000 0.0000
# 2 26.5063 29.8108 33.8801 0.0000 0.0000 0.0000
# 3 112.3134 33.8801 218.0489 0.0000 0.0000 0.0000
# 4 0.0000 0.0000 0.0000 -15.3421 0.0000 0.0000
# 5 0.0000 0.0000 0.0000 0.0000 -19.0646 0.0000
# 6 0.0000 0.0000 0.0000 0.0000 0.0000 18.3637
#
#
#
# Elastic Compliance Matrix: (Units=1/GPa)
#
#
# Indices 1 2 3 4 5 6 
#
# 1 0.018708 -0.006901 -0.008564 0.000000 0.000000 0.000000
# 2 -0.006901 0.043285 -0.003171 0.000000 0.000000 0.000000
# 3 -0.008564 -0.003171 0.009490 0.000000 0.000000 0.000000
# 4 0.000000 0.000000 0.000000 -0.065180 0.000000 0.000000
# 5 0.000000 0.000000 0.000000 0.000000 -0.052453 0.000000
# 6 0.000000 0.000000 0.000000 0.000000 0.000000 0.054455
#
#
# Mechanical properties :
#
#
# Convention : Reuss Voigt Hill
#
# Bulk Modulus (GPa) = 29.23061 78.65609 53.94335
# Shear Modulus (GPa) = 87.75153 9.44508 48.59831
#
# Velocity S-wave (km/s) = 6.84045 2.24419 5.09058
# Velocity P-wave (km/s) = 8.83038 6.97545 7.95715
#
# Compressibility (1/GPa) = 0.03421071
#
# Stress axis : x y z
#
# Youngs Moduli (GPa) = 53.45430 23.10286 105.37621
#
# Poissons Ratio (x) = 0.15944 0.90241
# Poissons Ratio (y) = 0.36890 0.33413
# Poissons Ratio (z) = 0.45776 0.07326
#
# Static dielectric constant tensor:
#      x y z
#    x 1.665080 0.000000 0.000000 
#    y 0.000000 1.635640 0.000000 
#    z 0.000000 0.000000 1.627890 
# 
# From -- ./inp_files/29009.got.cif
#   From: 2010.05.17/outbox.cif.g08.bks.cpg/sg47_15_cif.got.tgz:29009.got - 2010.06.03 20:15:42.
