data_PCOD9387657
_publ_section_title
;
Structure prediction by ZEFSAII (Michael W. Deem and Ramdas Pophale) SiO2 
 PCOD9387657
Probable space group: P M M M
;
_chemical_formula_sum "Si O2"
_cell_formula_units_Z 48
_cell_length_a 8.051163
_cell_length_b 9.454203
_cell_length_c 33.550859
_cell_angle_alpha 90.000000
_cell_angle_beta 90.000000
_cell_angle_gamma 90.000000
_cell_volume 2553.801786
_symmetry_space_group_name_H-M "P M M M"
_symmetry_group_IT_number 47
_symmetry_cell_setting 'orthorhombic'
loop_
_space_group_symop_operation_xyz
x,y,z
-x,-y,z
x,-y,-z
-x,y,-z
-x,-y,-z
x,y,-z
-x,y,z
x,-y,z
loop_
_atom_site_type_symbol
_atom_site_label
_atom_site_fract_x
_atom_site_fract_y
_atom_site_fract_z
Si Si1 0.299404 0.336895 0.665097
Si Si2 0.700162 0.661394 0.575844
Si Si3 0.802504 0.840181 0.258693
Si Si4 0.802456 0.841903 0.500000
Si Si5 0.695922 0.170038 0.897506
Si Si6 0.000000 0.828394 0.045451
Si Si7 0.699121 0.660575 0.182185
O O1 0.500000 0.337010 0.665362
O O2 0.246209 0.500000 0.672278
O O3 0.244143 0.295616 0.620363
O O4 0.241624 0.234243 0.699755
O O5 0.500000 0.658628 0.576685
O O6 0.757410 0.500000 0.568898
O O7 0.751725 0.759713 0.539782
O O8 0.744289 0.744258 0.222041
O O9 0.000000 0.848655 0.256100
O O10 0.733527 0.000000 0.256339
O O11 0.000000 0.850177 0.500000
O O12 0.731207 0.000000 0.500000
O O13 0.500000 0.201040 0.906736
O O14 0.830987 0.210606 0.931035
O O15 0.745700 0.250802 0.857055
O O16 0.706460 0.000000 0.891497
O O17 0.000000 0.000000 0.044251
O O18 0.000000 0.776446 0.000000
O O19 0.500000 0.651627 0.181180
O O20 0.765858 0.500000 0.182046
#
# Coordination Sequence:
#
# PCOD9387657 Si02
#       7
#     8   8   8   4   8   4   8
#     4   9  19  37  59  81 105 135 174 220 267 316
#     4   9  19  37  60  82 103 132 174 221 265 314
#     4  11  24  37  51  77 112 146 179 218 265 319
#     4  11  24  37  50  76 112 143 172 213 264 316
#     4   9  18  33  54  80 111 147 186 232 285 336
#     4   9  18  32  53  83 115 147 187 235 283 336
#     4  10  21  37  57  80 106 139 182 231 278 325
#
# _framework density 18.795506
#
# number of rings (size 3 to 8) (size 9 to 14) (size 15 to 20)
#    0.000    2.333    0.000    3.000    1.167    8.333 
#    0.000    6.667    0.000    1.000    0.000    2.333 
#    0.000    0.000    0.000    0.000    0.000    0.000 
#
# Total GULP energy -267798.633330 kJ/mol
# GULP energy per Si atom -5579.138194 kJ/mol
# Density = 1.875273 g / cm^3
# Si number density = 18.795506 Si / 1000 Ang^3
#
#
#
# Elastic Constant Matrix: (Units=GPa)
#
#
# Indices 1 2 3 4 5 6 
#
# 1 38.5058 30.5425 44.7197 0.0000 0.0000 0.0000
# 2 30.5425 105.6705 99.5201 0.0000 0.0000 0.0000
# 3 44.7197 99.5201 190.2318 0.0000 0.0000 0.0000
# 4 0.0000 0.0000 0.0000 26.2411 0.0000 0.0000
# 5 0.0000 0.0000 0.0000 0.0000 50.5146 0.0000
# 6 0.0000 0.0000 0.0000 0.0000 0.0000 22.0695
#
#
#
# Elastic Compliance Matrix: (Units=1/GPa)
#
#
# Indices 1 2 3 4 5 6 
#
# 1 0.036982 -0.004931 -0.006114 0.000000 0.000000 0.000000
# 2 -0.004931 0.019312 -0.008944 0.000000 0.000000 0.000000
# 3 -0.006114 -0.008944 0.011373 0.000000 0.000000 0.000000
# 4 0.000000 0.000000 0.000000 0.038108 0.000000 0.000000
# 5 0.000000 0.000000 0.000000 0.000000 0.019796 0.000000
# 6 0.000000 0.000000 0.000000 0.000000 0.000000 0.045311
#
#
# Mechanical properties :
#
#
# Convention : Reuss Voigt Hill
#
# Bulk Modulus (GPa) = 36.11514 75.99695 56.05604
# Shear Modulus (GPa) = 22.71795 30.40678 26.56236
#
# Velocity S-wave (km/s) = 3.48039 4.02651 3.76337
# Velocity P-wave (km/s) = 5.95041 7.88279 6.98376
#
# Compressibility (1/GPa) = 0.02768922
#
# Stress axis : x y z
#
# Youngs Moduli (GPa) = 27.04020 51.78158 87.92688
#
# Poissons Ratio (x) = 0.25532 0.53760
# Poissons Ratio (y) = 0.13333 0.78641
# Poissons Ratio (z) = 0.16533 0.46313
#
# Static dielectric constant tensor:
#      x y z
#    x 1.662490 0.000000 0.000000 
#    y 0.000000 1.663380 0.000000 
#    z 0.000000 0.000000 1.632350 
# 
# From -- ./inp_files/34141.got.cif
#   From: 2010.05.17/outbox.cif.g08.bks.cpg/sg47_18_cif.got.tgz:34141.got - 2010.06.03 20:15:42.
