data_PCOD9387854
_publ_section_title
;
Structure prediction by ZEFSAII (Michael W. Deem and Ramdas Pophale) SiO2 
 PCOD9387854
Probable space group: P M M M
;
_chemical_formula_sum "Si O2"
_cell_formula_units_Z 56
_cell_length_a 8.808614
_cell_length_b 14.713208
_cell_length_c 21.730743
_cell_angle_alpha 90.000000
_cell_angle_beta 90.000000
_cell_angle_gamma 90.000000
_cell_volume 2816.368833
_symmetry_space_group_name_H-M "P M M M"
_symmetry_group_IT_number 47
_symmetry_cell_setting 'orthorhombic'
loop_
_space_group_symop_operation_xyz
x,y,z
-x,-y,z
x,-y,-z
-x,y,-z
-x,-y,-z
x,y,-z
-x,y,z
x,-y,z
loop_
_atom_site_type_symbol
_atom_site_label
_atom_site_fract_x
_atom_site_fract_y
_atom_site_fract_z
Si Si1 0.315765 0.394953 0.000000
Si Si2 0.323232 0.148998 0.431067
Si Si3 0.316969 0.289438 0.875716
Si Si4 0.182520 0.391094 0.757615
Si Si5 0.181202 0.892758 0.170149
Si Si6 0.178165 0.500000 0.433417
Si Si7 0.671435 0.105962 0.701495
Si Si8 0.326294 0.338299 0.365238
O O1 0.272293 0.339123 0.939136
O O2 0.261672 0.500000 0.000000
O O3 0.500000 0.398823 0.000000
O O4 0.260904 0.132400 0.500000
O O5 0.500000 0.117672 0.432768
O O6 0.257180 0.111731 0.366885
O O7 0.322994 0.254590 0.412636
O O8 0.500000 0.289395 0.870213
O O9 0.245965 0.349003 0.820547
O O10 0.258698 0.185251 0.871021
O O11 0.220821 0.500000 0.751370
O O12 0.255611 0.331243 0.702553
O O13 0.000000 0.384309 0.755319
O O14 0.231011 0.866185 0.239894
O O15 0.000000 0.887002 0.164771
O O16 0.223268 0.000000 0.158774
O O17 0.253288 0.500000 0.500000
O O18 0.227496 0.413883 0.396431
O O19 0.000000 0.500000 0.439175
O O20 0.500000 0.149418 0.700474
O O21 0.649747 0.000000 0.711662
O O22 0.500000 0.366809 0.358167
#
# Coordination Sequence:
#
# PCOD9387854 Si02
#       8
#     4   8   8   8   8   4   8   8
#     4   9  20  40  64  93 128 164 201 243 288 341
#     4   9  18  31  47  72 104 136 177 232 289 344
#     4  11  22  38  64  93 122 158 200 244 292 345
#     4  11  23  38  57  84 119 153 191 243 301 357
#     4  10  21  38  60  87 121 159 197 242 298 354
#     4  11  23  37  51  69  99 138 179 230 295 357
#     4   9  17  31  54  82 109 141 184 234 288 346
#     4  11  21  34  54  76 101 139 189 239 289 346
#
# _framework density 19.883759999999999
#
# number of rings (size 3 to 8) (size 9 to 14) (size 15 to 20)
#    0.000    1.857    0.714    3.643    0.000    4.857 
#    0.000    3.929    0.000    6.857    0.000    2.000 
#    0.000    0.000    0.000    0.000    0.000    0.000 
#
# Total GULP energy -312096.952268 kJ/mol
# GULP energy per Si atom -5573.159862 kJ/mol
# Density = 1.983850 g / cm^3
# Si number density = 19.883760 Si / 1000 Ang^3
#
#
#
# Elastic Constant Matrix: (Units=GPa)
#
#
# Indices 1 2 3 4 5 6 
#
# 1 60.7987 24.9312 23.3025 0.0000 0.0000 0.0000
# 2 24.9312 89.5910 36.8531 0.0000 0.0000 0.0000
# 3 23.3025 36.8531 144.2944 0.0000 0.0000 0.0000
# 4 0.0000 0.0000 0.0000 54.2383 0.0000 0.0000
# 5 0.0000 0.0000 0.0000 0.0000 14.0115 0.0000
# 6 0.0000 0.0000 0.0000 0.0000 0.0000 78.9032
#
#
#
# Elastic Compliance Matrix: (Units=1/GPa)
#
#
# Indices 1 2 3 4 5 6 
#
# 1 0.019032 -0.004505 -0.001923 0.000000 0.000000 0.000000
# 2 -0.004505 0.013539 -0.002730 0.000000 0.000000 0.000000
# 3 -0.001923 -0.002730 0.007938 0.000000 0.000000 0.000000
# 4 0.000000 0.000000 0.000000 0.018437 0.000000 0.000000
# 5 0.000000 0.000000 0.000000 0.000000 0.071370 0.000000
# 6 0.000000 0.000000 0.000000 0.000000 0.000000 0.012674
#
#
# Mechanical properties :
#
#
# Convention : Reuss Voigt Hill
#
# Bulk Modulus (GPa) = 45.06101 51.65085 48.35593
# Shear Modulus (GPa) = 29.63772 43.40374 36.52073
#
# Velocity S-wave (km/s) = 3.86495 4.67719 4.29034
# Velocity P-wave (km/s) = 6.52905 7.42973 6.99391
#
# Compressibility (1/GPa) = 0.02219214
#
# Stress axis : x y z
#
# Youngs Moduli (GPa) = 52.54268 73.86278 125.97443
#
# Poissons Ratio (x) = 0.33277 0.24224
# Poissons Ratio (y) = 0.23672 0.34394
# Poissons Ratio (z) = 0.10103 0.20166
#
# Static dielectric constant tensor:
#      x y z
#    x 1.686480 0.000000 0.000000 
#    y 0.000000 1.750870 0.000000 
#    z 0.000000 0.000000 1.712520 
# 
# From -- ./inp_files/29802.got.cif
#   From: 2010.05.17/outbox.cif.g08.bks.cpg/sg47_15_cif.got.tgz:29802.got - 2010.06.03 20:15:42.
