data_PCOD9387646
_publ_section_title
;
Structure prediction by ZEFSAII (Michael W. Deem and Ramdas Pophale) SiO2 
 PCOD9387646
Probable space group: P M M M
;
_chemical_formula_sum "Si O2"
_cell_formula_units_Z 44
_cell_length_a 7.666283
_cell_length_b 9.590759
_cell_length_c 29.217777
_cell_angle_alpha 90.000000
_cell_angle_beta 90.000000
_cell_angle_gamma 90.000000
_cell_volume 2148.250865
_symmetry_space_group_name_H-M "P M M M"
_symmetry_group_IT_number 47
_symmetry_cell_setting 'orthorhombic'
loop_
_space_group_symop_operation_xyz
x,y,z
-x,-y,z
x,-y,-z
-x,y,-z
-x,-y,-z
x,y,-z
-x,y,z
x,-y,z
loop_
_atom_site_type_symbol
_atom_site_label
_atom_site_fract_x
_atom_site_fract_y
_atom_site_fract_z
Si Si1 0.292831 0.658345 0.810776
Si Si2 0.287206 0.839613 0.448310
Si Si3 0.286255 0.160135 0.725894
Si Si4 0.286612 0.339797 0.362104
Si Si5 0.793084 0.342511 0.912784
Si Si6 0.293452 0.843931 0.000000
O O1 0.500000 0.648423 0.803205
O O2 0.221313 0.500000 0.807221
O O3 0.225818 0.761799 0.771908
O O4 0.267464 0.707121 0.862872
O O5 0.231976 0.803127 0.500000
O O6 0.500000 0.838039 0.448154
O O7 0.228991 0.735776 0.408697
O O8 0.235567 0.000000 0.438943
O O9 0.500000 0.158119 0.726065
O O10 0.232887 0.249326 0.681724
O O11 0.229021 0.000000 0.723598
O O12 0.500000 0.340432 0.362303
O O13 0.229975 0.500000 0.359108
O O14 0.721680 0.500000 0.920271
O O15 0.752692 0.242299 0.954712
O O16 0.000000 0.353161 0.910263
O O17 0.500000 0.856390 0.000000
O O18 0.216934 0.000000 0.000000
#
# Coordination Sequence:
#
# PCOD9387646 Si02
#       6
#     8   8   8   8   8   4
#     4   9  17  30  48  69  93 121 154 193 235 278
#     4   8  13  20  28  38  56  86 125 169 217 269
#     4   9  16  25  38  56  78 105 139 181 227 274
#     4   9  15  21  30  45  66  93 128 173 223 272
#     4  10  21  37  57  80 105 134 167 201 241 291
#     4  11  24  39  56  80 108 137 170 207 244 282
#
# _framework density 20.481777999999998
#
# number of rings (size 3 to 8) (size 9 to 14) (size 15 to 20)
#    0.000    2.818    0.000    2.727    0.000    8.364 
#    0.000    3.636    0.000    0.000    0.000    0.000 
#    0.000    0.000    0.000    0.000    0.000    0.909 
#
# Total GULP energy -245566.733566 kJ/mol
# GULP energy per Si atom -5581.062127 kJ/mol
# Density = 2.043516 g / cm^3
# Si number density = 20.481778 Si / 1000 Ang^3
#
#
#
# Elastic Constant Matrix: (Units=GPa)
#
#
# Indices 1 2 3 4 5 6 
#
# 1 36.4083 4.3930 -0.7965 0.0000 0.0000 0.0000
# 2 4.3930 175.8790 153.8872 0.0000 0.0000 0.0000
# 3 -0.7965 153.8872 215.4758 0.0000 0.0000 0.0000
# 4 0.0000 0.0000 0.0000 3439.4763 0.0000 0.0000
# 5 0.0000 0.0000 0.0000 0.0000 -45.2413 0.0000
# 6 0.0000 0.0000 0.0000 0.0000 0.0000 -4.6187
#
#
#
# Elastic Compliance Matrix: (Units=1/GPa)
#
#
# Indices 1 2 3 4 5 6 
#
# 1 0.027753 -0.002087 0.001593 0.000000 0.000000 0.000000
# 2 -0.002087 0.015314 -0.010944 0.000000 0.000000 0.000000
# 3 0.001593 -0.010944 0.012463 0.000000 0.000000 0.000000
# 4 0.000000 0.000000 0.000000 0.000291 0.000000 0.000000
# 5 0.000000 0.000000 0.000000 0.000000 -0.022104 0.000000
# 6 0.000000 0.000000 0.000000 0.000000 0.000000 -0.216512
#
#
# Mechanical properties :
#
#
# Convention : Reuss Voigt Hill
#
# Bulk Modulus (GPa) = 30.62514 82.52563 56.57538
# Shear Modulus (GPa) = -33.54947 695.94189 331.19621
#
# Velocity S-wave (km/s) = -4.05163 18.45328 12.73004
# Velocity P-wave (km/s) = 2.62731 22.23536 15.61263
#
# Compressibility (1/GPa) = 0.03265291
#
# Stress axis : x y z
#
# Youngs Moduli (GPa) = 36.03223 65.30052 80.23740
#
# Poissons Ratio (x) = 0.13629 -0.12783
# Poissons Ratio (y) = 0.07520 0.87815
# Poissons Ratio (z) = -0.05741 0.71468
#
# Static dielectric constant tensor:
#      x y z
#    x 1.751310 0.000000 0.000000 
#    y 0.000000 1.734020 0.000000 
#    z 0.000000 0.000000 1.446000 
# 
# From -- ./inp_files/1997.got.cif
#   From: 2010.05.17/outbox.cif.g08.bks.cpg/sg47_1_cif.got.tgz:1997.got - 2010.06.03 20:15:42.
