data_PCOD9387640
_publ_section_title
;
Structure prediction by ZEFSAII (Michael W. Deem and Ramdas Pophale) SiO2 
 PCOD9387640
Probable space group: P M M M
;
_chemical_formula_sum "Si O2"
_cell_formula_units_Z 40
_cell_length_a 9.535378
_cell_length_b 7.610364
_cell_length_c 27.004125
_cell_angle_alpha 90.000000
_cell_angle_beta 90.000000
_cell_angle_gamma 90.000000
_cell_volume 1959.627173
_symmetry_space_group_name_H-M "P M M M"
_symmetry_group_IT_number 47
_symmetry_cell_setting 'orthorhombic'
loop_
_space_group_symop_operation_xyz
x,y,z
-x,-y,z
x,-y,-z
-x,y,-z
-x,-y,-z
x,y,-z
-x,y,z
x,-y,z
loop_
_atom_site_type_symbol
_atom_site_label
_atom_site_fract_x
_atom_site_fract_y
_atom_site_fract_z
Si Si1 0.162626 0.284478 0.607672
Si Si2 0.158829 0.789885 0.096809
Si Si3 0.659789 0.288683 0.701147
Si Si4 0.340419 0.290753 0.000000
Si Si5 0.339507 0.789589 0.188553
Si Si6 0.829417 0.293588 0.500000
O O1 0.165980 0.500000 0.606611
O O2 0.250341 0.224320 0.654837
O O3 0.215387 0.222525 0.553551
O O4 0.000000 0.234475 0.612968
O O5 0.239920 0.720428 0.145207
O O6 0.000000 0.721145 0.091326
O O7 0.147702 0.000000 0.102777
O O8 0.253355 0.760433 0.048567
O O9 0.500000 0.222435 0.698480
O O10 0.655841 0.500000 0.697595
O O11 0.714099 0.245915 0.756003
O O12 0.350199 0.500000 0.000000
O O13 0.500000 0.219385 0.000000
O O14 0.500000 0.721233 0.184705
O O15 0.347425 0.000000 0.182901
O O16 0.791751 0.500000 0.500000
O O17 0.000000 0.284436 0.500000
#
# Coordination Sequence:
#
# PCOD9387640 Si02
#       6
#     8   8   8   4   8   4
#     4   8  13  22  37  57  82 113 147 181 222 275
#     4  10  21  37  57  80 104 130 163 204 246 286
#     4   9  17  28  42  63  91 118 146 187 235 276
#     4  11  24  39  56  80 108 137 168 199 234 282
#     4   9  18  33  51  69  92 126 163 193 227 278
#     4   7  10  18  33  53  78 109 144 180 218 267
#
# _framework density 20.412046
#
# number of rings (size 3 to 8) (size 9 to 14) (size 15 to 20)
#    0.000    3.000    0.000    2.400    0.000    4.800 
#    0.000    2.500    0.000    3.000    0.000    0.700 
#    0.000    5.600    0.000    0.000    0.000    0.000 
#
# Total GULP energy -223038.684108 kJ/mol
# GULP energy per Si atom -5575.967103 kJ/mol
# Density = 2.036559 g / cm^3
# Si number density = 20.412046 Si / 1000 Ang^3
#
#
#
# Elastic Constant Matrix: (Units=GPa)
#
#
# Indices 1 2 3 4 5 6 
#
# 1 114.0859 5.2923 117.7483 0.0000 0.0000 0.0000
# 2 5.2923 42.2313 -0.7662 0.0000 0.0000 0.0000
# 3 117.7483 -0.7662 247.7921 0.0000 0.0000 0.0000
# 4 0.0000 0.0000 0.0000 21.9809 0.0000 0.0000
# 5 0.0000 0.0000 0.0000 0.0000 42.7103 0.0000
# 6 0.0000 0.0000 0.0000 0.0000 0.0000 6.3220
#
#
#
# Elastic Compliance Matrix: (Units=1/GPa)
#
#
# Indices 1 2 3 4 5 6 
#
# 1 0.017429 -0.002335 -0.008289 0.000000 0.000000 0.000000
# 2 -0.002335 0.023993 0.001184 0.000000 0.000000 0.000000
# 3 -0.008289 0.001184 0.007978 0.000000 0.000000 0.000000
# 4 0.000000 0.000000 0.000000 0.045494 0.000000 0.000000
# 5 0.000000 0.000000 0.000000 0.000000 0.023414 0.000000
# 6 0.000000 0.000000 0.000000 0.000000 0.000000 0.158179
#
#
# Mechanical properties :
#
#
# Convention : Reuss Voigt Hill
#
# Bulk Modulus (GPa) = 32.76560 72.07311 52.41935
# Shear Modulus (GPa) = 16.36442 32.99162 24.67802
#
# Velocity S-wave (km/s) = 2.83451 4.02466 3.48083
# Velocity P-wave (km/s) = 5.17683 7.54871 6.47235
#
# Compressibility (1/GPa) = 0.03051982
#
# Stress axis : x y z
#
# Youngs Moduli (GPa) = 57.37544 41.67858 125.33988
#
# Poissons Ratio (x) = 0.09730 1.03898
# Poissons Ratio (y) = 0.13395 -0.14835
# Poissons Ratio (z) = 0.47560 -0.04933
#
# Static dielectric constant tensor:
#      x y z
#    x 1.715980 0.000000 0.000000 
#    y 0.000000 1.771970 0.000000 
#    z 0.000000 0.000000 1.727880 
# 
# From -- ./inp_files/1850.got.cif
#   From: 2010.05.17/outbox.cif.g08.bks.cpg/sg47_1_cif.got.tgz:1850.got - 2010.06.03 20:15:42.
