data_PCOD9387775
_publ_section_title
;
Structure prediction by ZEFSAII (Michael W. Deem and Ramdas Pophale) SiO2 
 PCOD9387775
Probable space group: P M M M
;
_chemical_formula_sum "Si O2"
_cell_formula_units_Z 33
_cell_length_a 8.501459
_cell_length_b 15.213174
_cell_length_c 13.250951
_cell_angle_alpha 90.000000
_cell_angle_beta 90.000000
_cell_angle_gamma 90.000000
_cell_volume 1713.800816
_symmetry_space_group_name_H-M "P M M M"
_symmetry_group_IT_number 47
_symmetry_cell_setting 'orthorhombic'
loop_
_space_group_symop_operation_xyz
x,y,z
-x,-y,z
x,-y,-z
-x,y,-z
-x,-y,-z
x,y,-z
-x,y,z
x,-y,z
loop_
_atom_site_type_symbol
_atom_site_label
_atom_site_fract_x
_atom_site_fract_y
_atom_site_fract_z
Si Si1 0.312176 0.870595 0.500000
Si Si2 0.186492 0.599277 0.785147
Si Si3 0.678049 0.393369 0.000000
Si Si4 0.189718 0.101811 0.114371
Si Si5 0.682041 0.228767 0.711639
Si Si6 0.000000 0.000000 0.500000
O O1 0.500000 0.905034 0.500000
O O2 0.303348 0.816041 0.603198
O O3 0.147723 0.926395 0.500000
O O4 0.249859 0.500000 0.768616
O O5 0.236276 0.630663 0.897099
O O6 0.243979 0.674624 0.711427
O O7 0.000000 0.594404 0.782056
O O8 0.675107 0.500000 0.000000
O O9 0.500000 0.360614 0.000000
O O10 0.245538 0.166255 0.201951
O O11 0.000000 0.102694 0.114271
O O12 0.238700 0.000000 0.133488
O O13 0.241555 0.125774 0.000000
O O14 0.500000 0.239235 0.737235
#
# Coordination Sequence:
#
# PCOD9387775 Si02
#       6
#     4   8   4   8   8   1
#     4  10  27  47  66 105 134 162 222 272 316 386
#     4  10  21  37  59  87 121 163 213 266 315 375
#     4   9  17  31  53  83 118 157 204 253 313 379
#     4   9  20  38  60  88 122 160 206 254 306 380
#     4  11  24  41  62  88 129 165 206 267 316 378
#     4  12  26  44  84  94 124 188 202 272 340 376
#
# _framework density 19.255445999999999
#
# number of rings (size 3 to 8) (size 9 to 14) (size 15 to 20)
#    0.000    2.061    0.000    2.727    6.788    3.879 
#    0.000    1.818    0.000    3.636    0.000    0.000 
#    0.000    0.000    0.000    0.000    0.000    0.000 
#
# Total GULP energy -183709.085490 kJ/mol
# GULP energy per Si atom -5566.941985 kJ/mol
# Density = 1.921162 g / cm^3
# Si number density = 19.255446 Si / 1000 Ang^3
#
#
#
# Elastic Constant Matrix: (Units=GPa)
#
#
# Indices 1 2 3 4 5 6 
#
# 1 100.9110 51.8755 32.0763 0.0000 0.0000 0.0000
# 2 51.8755 115.2735 70.0783 0.0000 0.0000 0.0000
# 3 32.0763 70.0783 98.8806 0.0000 0.0000 0.0000
# 4 0.0000 0.0000 0.0000 187.2508 0.0000 0.0000
# 5 0.0000 0.0000 0.0000 0.0000 28.9564 0.0000
# 6 0.0000 0.0000 0.0000 0.0000 0.0000 448.6271
#
#
#
# Elastic Compliance Matrix: (Units=1/GPa)
#
#
# Indices 1 2 3 4 5 6 
#
# 1 0.012893 -0.005727 -0.000124 0.000000 0.000000 0.000000
# 2 -0.005727 0.017786 -0.010747 0.000000 0.000000 0.000000
# 3 -0.000124 -0.010747 0.017770 0.000000 0.000000 0.000000
# 4 0.000000 0.000000 0.000000 0.005340 0.000000 0.000000
# 5 0.000000 0.000000 0.000000 0.000000 0.034535 0.000000
# 6 0.000000 0.000000 0.000000 0.000000 0.000000 0.002229
#
#
# Mechanical properties :
#
#
# Convention : Reuss Voigt Hill
#
# Bulk Modulus (GPa) = 65.56010 69.23614 67.39812
# Shear Modulus (GPa) = 38.80970 143.70253 91.25612
#
# Velocity S-wave (km/s) = 4.49432 8.64821 6.89168
# Velocity P-wave (km/s) = 7.81367 11.65147 9.91993
#
# Compressibility (1/GPa) = 0.01525318
#
# Stress axis : x y z
#
# Youngs Moduli (GPa) = 77.56071 56.22416 56.27414
#
# Poissons Ratio (x) = 0.32200 0.00696
# Poissons Ratio (y) = 0.44419 0.60480
# Poissons Ratio (z) = 0.00959 0.60426
#
# Static dielectric constant tensor:
#      x y z
#    x 1.675990 0.000000 0.000000 
#    y 0.000000 1.723510 0.000000 
#    z 0.000000 0.000000 1.634800 
# 
# From -- ./inp_files/14737.got.cif
#   From: 2010.05.17/outbox.cif.g08.bks.cpg/sg47_8_cif.got.tgz:14737.got - 2010.06.03 20:15:42.
