data_PCOD9387105
_publ_section_title
;
Structure prediction by ZEFSAII (Michael W. Deem and Ramdas Pophale) SiO2 
 PCOD9387105
Probable space group: P M M M
;
_chemical_formula_sum "Si O2"
_cell_formula_units_Z 36
_cell_length_a 13.452615
_cell_length_b 14.255736
_cell_length_c 7.471669
_cell_angle_alpha 90.000000
_cell_angle_beta 90.000000
_cell_angle_gamma 90.000000
_cell_volume 1432.893727
_symmetry_space_group_name_H-M "P M M M"
_symmetry_group_IT_number 47
_symmetry_cell_setting 'orthorhombic'
loop_
_space_group_symop_operation_xyz
x,y,z
-x,-y,z
x,-y,-z
-x,y,-z
-x,-y,-z
x,y,-z
-x,y,z
x,-y,z
loop_
_atom_site_type_symbol
_atom_site_label
_atom_site_fract_x
_atom_site_fract_y
_atom_site_fract_z
Si Si1 0.382294 0.897850 0.284825
Si Si2 0.189661 0.398437 0.294790
Si Si3 0.387065 0.312992 0.208892
Si Si4 0.881060 0.000000 0.717746
Si Si5 0.880645 0.796986 0.710169
O O1 0.373709 0.897993 0.500000
O O2 0.500000 0.898434 0.238846
O O3 0.349052 0.794834 0.225248
O O4 0.343388 0.000000 0.223310
O O5 0.152618 0.400207 0.500000
O O6 0.166337 0.500000 0.214897
O O7 0.308000 0.381377 0.296891
O O8 0.149188 0.302823 0.209146
O O9 0.500000 0.316834 0.279948
O O10 0.390172 0.336238 0.000000
O O11 0.844870 0.898029 0.782222
O O12 0.868982 0.000000 0.500000
O O13 0.000000 0.000000 0.751738
O O14 0.849378 0.795431 0.500000
O O15 0.000000 0.800481 0.713401
#
# Coordination Sequence:
#
# PCOD9387105 Si02
#       5
#     8   8   8   4   8
#     4   8  14  27  49  75 101 129 163 207 259 313
#     4  10  21  35  51  75 106 137 174 223 272 317
#     4  10  21  36  53  72  98 137 182 226 269 314
#     4   7  10  20  42  72 104 133 160 196 243 299
#     4   8  14  27  49  77 107 136 166 205 258 317
#
# _framework density 25.123982000000002
#
# number of rings (size 3 to 8) (size 9 to 14) (size 15 to 20)
#    0.000    3.222    0.000    2.667    0.000    3.111 
#    2.000    6.667    0.000    0.667    0.000    1.556 
#    0.000    2.667    0.000    0.000    0.000    0.000 
#
# Total GULP energy -200946.857001 kJ/mol
# GULP energy per Si atom -5581.857139 kJ/mol
# Density = 2.506680 g / cm^3
# Si number density = 25.123982 Si / 1000 Ang^3
#
#
#
# Elastic Constant Matrix: (Units=GPa)
#
#
# Indices 1 2 3 4 5 6 
#
# 1 50.9031 44.1396 -10.0503 0.0000 0.0000 0.0000
# 2 44.1396 260.1636 8.4678 0.0000 0.0000 0.0000
# 3 -10.0503 8.4678 75.2478 0.0000 0.0000 0.0000
# 4 0.0000 0.0000 0.0000 -188.5808 0.0000 0.0000
# 5 0.0000 0.0000 0.0000 0.0000 -50.6954 0.0000
# 6 0.0000 0.0000 0.0000 0.0000 0.0000 23.6249
#
#
#
# Elastic Compliance Matrix: (Units=1/GPa)
#
#
# Indices 1 2 3 4 5 6 
#
# 1 0.024007 -0.004193 0.003678 0.000000 0.000000 0.000000
# 2 -0.004193 0.004590 -0.001077 0.000000 0.000000 0.000000
# 3 0.003678 -0.001077 0.013902 0.000000 0.000000 0.000000
# 4 0.000000 0.000000 0.000000 -0.005303 0.000000 0.000000
# 5 0.000000 0.000000 0.000000 0.000000 -0.019726 0.000000
# 6 0.000000 0.000000 0.000000 0.000000 0.000000 0.042328
#
#
# Mechanical properties :
#
#
# Convention : Reuss Voigt Hill
#
# Bulk Modulus (GPa) = 25.43431 52.38099 38.90765
# Shear Modulus (GPa) = 65.71448 -20.21310 22.75069
#
# Velocity S-wave (km/s) = 5.11985 -2.83951 3.01248
# Velocity P-wave (km/s) = 6.71535 3.18494 5.25547
#
# Compressibility (1/GPa) = 0.03931697
#
# Stress axis : x y z
#
# Youngs Moduli (GPa) = 41.65430 217.85883 71.93292
#
# Poissons Ratio (x) = 0.91344 -0.26459
# Poissons Ratio (y) = 0.17465 0.07744
# Poissons Ratio (z) = -0.15322 0.23453
#
# Static dielectric constant tensor:
#      x y z
#    x 2.035150 0.000000 0.000000 
#    y 0.000000 2.005590 0.000000 
#    z 0.000000 0.000000 1.918690 
# 
# From -- ./inp_files/3736.got.cif
#   From: 2010.05.17/outbox.cif.g08.bks.cpg/sg47_2_cif.got.tgz:3736.got - 2010.06.03 20:15:42.
