data_PCOD9387447
_publ_section_title
;
Structure prediction by ZEFSAII (Michael W. Deem and Ramdas Pophale) SiO2 
 PCOD9387447
Probable space group: P M M M
;
_chemical_formula_sum "Si O2"
_cell_formula_units_Z 40
_cell_length_a 9.774347
_cell_length_b 15.121066
_cell_length_c 13.383397
_cell_angle_alpha 90.000000
_cell_angle_beta 90.000000
_cell_angle_gamma 90.000000
_cell_volume 1978.046618
_symmetry_space_group_name_H-M "P M M M"
_symmetry_group_IT_number 47
_symmetry_cell_setting 'orthorhombic'
loop_
_space_group_symop_operation_xyz
x,y,z
-x,-y,z
x,-y,-z
-x,y,-z
-x,-y,-z
x,y,-z
-x,y,z
x,-y,z
loop_
_atom_site_type_symbol
_atom_site_label
_atom_site_fract_x
_atom_site_fract_y
_atom_site_fract_z
Si Si1 0.500000 0.600846 0.118673
Si Si2 0.661865 0.902227 0.172491
Si Si3 0.153723 0.666798 0.325643
Si Si4 0.231083 0.284618 0.113912
Si Si5 0.657846 0.172654 0.388732
Si Si6 0.663613 0.500000 0.380915
O O1 0.500000 0.500000 0.157808
O O2 0.631314 0.660411 0.139474
O O3 0.500000 0.591435 0.000000
O O4 0.500000 0.895473 0.149176
O O5 0.736187 0.819516 0.122355
O O6 0.675122 0.890031 0.292738
O O7 0.709441 0.000000 0.143164
O O8 0.141138 0.688805 0.207965
O O9 0.232865 0.749211 0.375473
O O10 0.254380 0.584342 0.340328
O O11 0.000000 0.652111 0.365413
O O12 0.188332 0.305586 0.000000
O O13 0.671946 0.133192 0.500000
O O14 0.500000 0.207057 0.381755
O O15 0.500000 0.500000 0.362551
O O16 0.678792 0.500000 0.500000
#
# Coordination Sequence:
#
# PCOD9387447 Si02
#       6
#     4   8   8   8   8   4
#     4   9  18  32  53  81 107 144 194 240 285 336
#     4   9  17  30  51  83 120 151 186 242 306 362
#     4  11  24  38  57  85 117 155 195 241 292 344
#     4  10  21  36  55  81 116 155 198 242 292 351
#     4   9  18  34  56  81 111 148 191 238 292 354
#     4  11  25  43  64  89 118 154 194 238 290 347
#
# _framework density 20.221969999999999
#
# number of rings (size 3 to 8) (size 9 to 14) (size 15 to 20)
#    0.000    2.200    1.000    1.500    4.200    4.800 
#    0.000    3.000    0.000   10.800    0.000   11.200 
#    0.000    0.000    0.000    0.000    0.000    0.000 
#
# Total GULP energy -223043.968067 kJ/mol
# GULP energy per Si atom -5576.099202 kJ/mol
# Density = 2.017594 g / cm^3
# Si number density = 20.221970 Si / 1000 Ang^3
#
#
#
# Elastic Constant Matrix: (Units=GPa)
#
#
# Indices 1 2 3 4 5 6 
#
# 1 103.2131 43.5230 16.8667 0.0000 0.0000 0.0000
# 2 43.5230 116.0795 4.5757 0.0000 0.0000 0.0000
# 3 16.8667 4.5757 114.3975 0.0000 0.0000 0.0000
# 4 0.0000 0.0000 0.0000 3.2599 0.0000 0.0000
# 5 0.0000 0.0000 0.0000 0.0000 7.2260 0.0000
# 6 0.0000 0.0000 0.0000 0.0000 0.0000 137.1668
#
#
#
# Elastic Compliance Matrix: (Units=1/GPa)
#
#
# Indices 1 2 3 4 5 6 
#
# 1 0.011781 -0.004355 -0.001563 0.000000 0.000000 0.000000
# 2 -0.004355 0.010239 0.000233 0.000000 0.000000 0.000000
# 3 -0.001563 0.000233 0.008963 0.000000 0.000000 0.000000
# 4 0.000000 0.000000 0.000000 0.306759 0.000000 0.000000
# 5 0.000000 0.000000 0.000000 0.000000 0.138389 0.000000
# 6 0.000000 0.000000 0.000000 0.000000 0.000000 0.007290
#
#
# Mechanical properties :
#
#
# Convention : Reuss Voigt Hill
#
# Bulk Modulus (GPa) = 50.99233 51.51343 51.25288
# Shear Modulus (GPa) = 9.97352 47.44552 28.70952
#
# Velocity S-wave (km/s) = 2.22322 4.84905 3.77200
# Velocity P-wave (km/s) = 5.64459 7.54191 6.66114
#
# Compressibility (1/GPa) = 0.01961079
#
# Stress axis : x y z
#
# Youngs Moduli (GPa) = 84.88466 97.66905 111.57534
#
# Poissons Ratio (x) = 0.42539 0.17436
# Poissons Ratio (y) = 0.36971 -0.02596
# Poissons Ratio (z) = 0.13265 -0.02272
#
# Static dielectric constant tensor:
#      x y z
#    x 1.671140 0.000000 0.000000 
#    y 0.000000 1.703500 0.000000 
#    z 0.000000 0.000000 1.749940 
# 
# From -- ./inp_files/20668.got.cif
#   From: 2010.05.17/outbox.cif.g08.bks.cpg/sg47_11_cif.got.tgz:20668.got - 2010.06.03 20:15:42.
