data_PCOD9387714
_publ_section_title
;
Structure prediction by ZEFSAII (Michael W. Deem and Ramdas Pophale) SiO2 
 PCOD9387714
Probable space group: P M M M
;
_chemical_formula_sum "Si O2"
_cell_formula_units_Z 56
_cell_length_a 21.756424
_cell_length_b 8.985854
_cell_length_c 14.576464
_cell_angle_alpha 90.000000
_cell_angle_beta 90.000000
_cell_angle_gamma 90.000000
_cell_volume 2849.699435
_symmetry_space_group_name_H-M "P M M M"
_symmetry_group_IT_number 47
_symmetry_cell_setting 'orthorhombic'
loop_
_space_group_symop_operation_xyz
x,y,z
-x,-y,z
x,-y,-z
-x,y,-z
-x,-y,-z
x,y,-z
-x,y,z
x,-y,z
loop_
_atom_site_type_symbol
_atom_site_label
_atom_site_fract_x
_atom_site_fract_y
_atom_site_fract_z
Si Si1 0.926226 0.334107 0.000000
Si Si2 0.929701 0.177279 0.811090
Si Si3 0.377469 0.668152 0.388486
Si Si4 0.256496 0.833354 0.390786
Si Si5 0.189784 0.672999 0.755892
Si Si6 0.300967 0.679325 0.891860
Si Si7 0.500000 0.828075 0.387333
Si Si8 0.430923 0.175022 0.111644
O O1 0.911938 0.241744 0.089615
O O2 0.898837 0.500000 0.000000
O O3 0.000000 0.349031 0.000000
O O4 0.874600 0.241334 0.752447
O O5 0.000000 0.225818 0.789461
O O6 0.929504 0.000000 0.811816
O O7 0.379760 0.658857 0.500000
O O8 0.365268 0.500000 0.354772
O O9 0.325853 0.788588 0.367442
O O10 0.441120 0.736295 0.356444
O O11 0.249606 0.831322 0.500000
O O12 0.218418 0.705120 0.342710
O O13 0.241296 0.000000 0.357651
O O14 0.178427 0.500000 0.774287
O O15 0.242013 0.725417 0.829677
O O16 0.304301 0.500000 0.886407
O O17 0.367415 0.743578 0.860181
O O18 0.291697 0.719356 0.000000
O O19 0.500000 0.829957 0.500000
O O20 0.500000 0.000000 0.358169
O O21 0.500000 0.226662 0.141360
O O22 0.426133 0.000000 0.134943
O O23 0.431310 0.186362 0.000000
#
# Coordination Sequence:
#
# PCOD9387714 Si02
#       8
#     4   8   8   8   8   8   4   8
#     4   9  17  31  53  81 115 155 194 229 268 319
#     4  10  21  37  57  84 118 154 193 233 275 330
#     4   9  16  27  46  72 101 133 172 220 274 333
#     4  10  21  38  59  81 107 141 183 234 290 345
#     4  11  23  37  58  85 115 151 189 233 283 339
#     4   9  19  34  51  77 113 149 185 226 274 329
#     4   9  15  23  39  67 101 135 172 213 266 333
#     4   8  14  26  46  72 101 137 183 231 277 325
#
# _framework density 19.651195000000001
#
# number of rings (size 3 to 8) (size 9 to 14) (size 15 to 20)
#    0.000    2.571    0.000    2.571    1.000    6.571 
#    0.000    1.429    1.571    0.429    0.000    3.000 
#    0.000    0.000    0.000    0.000    0.000    0.000 
#
# Total GULP energy -312226.295324 kJ/mol
# GULP energy per Si atom -5575.469559 kJ/mol
# Density = 1.960647 g / cm^3
# Si number density = 19.651195 Si / 1000 Ang^3
#
#
#
# Elastic Constant Matrix: (Units=GPa)
#
#
# Indices 1 2 3 4 5 6 
#
# 1 114.2366 27.5824 20.6243 0.0000 0.0000 0.0000
# 2 27.5824 54.4902 6.3752 0.0000 0.0000 0.0000
# 3 20.6243 6.3752 30.1559 0.0000 0.0000 0.0000
# 4 0.0000 0.0000 0.0000 17.4383 0.0000 0.0000
# 5 0.0000 0.0000 0.0000 0.0000 7.8368 0.0000
# 6 0.0000 0.0000 0.0000 0.0000 0.0000 33.0439
#
#
#
# Elastic Compliance Matrix: (Units=1/GPa)
#
#
# Indices 1 2 3 4 5 6 
#
# 1 0.011113 -0.004856 -0.006574 0.000000 0.000000 0.000000
# 2 -0.004856 0.020939 -0.001105 0.000000 0.000000 0.000000
# 3 -0.006574 -0.001105 0.037891 0.000000 0.000000 0.000000
# 4 0.000000 0.000000 0.000000 0.057345 0.000000 0.000000
# 5 0.000000 0.000000 0.000000 0.000000 0.127603 0.000000
# 6 0.000000 0.000000 0.000000 0.000000 0.000000 0.030263
#
#
# Mechanical properties :
#
#
# Convention : Reuss Voigt Hill
#
# Bulk Modulus (GPa) = 22.28553 34.22739 28.25646
# Shear Modulus (GPa) = 15.37598 21.28386 18.32992
#
# Velocity S-wave (km/s) = 2.80026 3.29459 3.05743
# Velocity P-wave (km/s) = 4.67123 5.65046 5.18402
#
# Compressibility (1/GPa) = 0.04487216
#
# Stress axis : x y z
#
# Youngs Moduli (GPa) = 89.98345 47.75678 26.39167
#
# Poissons Ratio (x) = 0.23192 0.17350
# Poissons Ratio (y) = 0.43698 0.02917
# Poissons Ratio (z) = 0.59154 0.05279
#
# Static dielectric constant tensor:
#      x y z
#    x 1.730900 0.000000 0.000000 
#    y 0.000000 1.685840 0.000000 
#    z 0.000000 0.000000 2.035440 
# 
# From -- ./inp_files/25227.got.cif
#   From: 2010.05.17/outbox.cif.g08.bks.cpg/sg47_13_cif.got.tgz:25227.got - 2010.06.03 20:15:42.
