data_PCOD9387661
_publ_section_title
;
Structure prediction by ZEFSAII (Michael W. Deem and Ramdas Pophale) SiO2 
 PCOD9387661
Probable space group: P M M M
;
_chemical_formula_sum "Si O2"
_cell_formula_units_Z 40
_cell_length_a 12.094855
_cell_length_b 8.045321
_cell_length_c 21.328173
_cell_angle_alpha 90.000000
_cell_angle_beta 90.000000
_cell_angle_gamma 90.000000
_cell_volume 2075.380337
_symmetry_space_group_name_H-M "P M M M"
_symmetry_group_IT_number 47
_symmetry_cell_setting 'orthorhombic'
loop_
_space_group_symop_operation_xyz
x,y,z
-x,-y,z
x,-y,-z
-x,y,-z
-x,-y,-z
x,y,-z
-x,y,z
x,-y,z
loop_
_atom_site_type_symbol
_atom_site_label
_atom_site_fract_x
_atom_site_fract_y
_atom_site_fract_z
Si Si1 0.627622 0.798755 0.692086
Si Si2 0.000000 0.187076 0.725847
Si Si3 0.754761 0.802278 0.567935
Si Si4 0.787344 0.698425 0.200319
Si Si5 0.128413 0.702187 0.929912
Si Si6 0.000000 0.688418 0.591941
O O1 0.500000 0.748899 0.687136
O O2 0.696166 0.737229 0.631068
O O3 0.682706 0.739726 0.756759
O O4 0.633033 0.000000 0.692151
O O5 0.891629 0.216764 0.766355
O O6 0.000000 0.307613 0.667122
O O7 0.000000 0.000000 0.700179
O O8 0.715955 0.735737 0.500000
O O9 0.885981 0.773013 0.572045
O O10 0.734803 0.000000 0.567662
O O11 0.804309 0.500000 0.201656
O O12 0.793415 0.752713 0.127595
O O13 0.129186 0.500000 0.931595
O O14 0.000000 0.750095 0.917312
O O15 0.157872 0.760445 0.000000
O O16 0.000000 0.500000 0.569740
#
# Coordination Sequence:
#
# PCOD9387661 Si02
#       6
#     8   4   8   8   8   4
#     4  10  22  39  57  77 104 143 187 228 272 321
#     4  12  22  33  52  79 112 147 178 215 268 326
#     4  10  21  37  57  80 108 143 179 218 268 326
#     4  11  20  33  56  84 110 140 180 224 271 317
#     4   8  14  26  47  78 114 145 173 209 258 316
#     4  12  23  35  54  82 113 143 176 216 265 324
#
# _framework density 19.273575000000001
#
# number of rings (size 3 to 8) (size 9 to 14) (size 15 to 20)
#    0.000    1.800    3.000    3.300    0.000    2.400 
#    0.000    2.000    0.000    3.600    0.000    7.000 
#    0.000    0.000    0.000    0.000    0.000    0.000 
#
# Total GULP energy -223199.950494 kJ/mol
# GULP energy per Si atom -5579.998762 kJ/mol
# Density = 1.922971 g / cm^3
# Si number density = 19.273575 Si / 1000 Ang^3
#
#
#
# Elastic Constant Matrix: (Units=GPa)
#
#
# Indices 1 2 3 4 5 6 
#
# 1 93.9930 4.2496 65.2026 0.0000 0.0000 0.0000
# 2 4.2496 30.5148 10.1162 0.0000 0.0000 0.0000
# 3 65.2026 10.1162 194.7103 0.0000 0.0000 0.0000
# 4 0.0000 0.0000 0.0000 16.9662 0.0000 0.0000
# 5 0.0000 0.0000 0.0000 0.0000 19.3327 0.0000
# 6 0.0000 0.0000 0.0000 0.0000 0.0000 0.0428
#
#
#
# Elastic Compliance Matrix: (Units=1/GPa)
#
#
# Indices 1 2 3 4 5 6 
#
# 1 0.013863 -0.000398 -0.004622 0.000000 0.000000 0.000000
# 2 -0.000398 0.033357 -0.001600 0.000000 0.000000 0.000000
# 3 -0.004622 -0.001600 0.006767 0.000000 0.000000 0.000000
# 4 0.000000 0.000000 0.000000 0.058941 0.000000 0.000000
# 5 0.000000 0.000000 0.000000 0.000000 0.051726 0.000000
# 6 0.000000 0.000000 0.000000 0.000000 0.000000 23.383637
#
#
# Mechanical properties :
#
#
# Convention : Reuss Voigt Hill
#
# Bulk Modulus (GPa) = 24.54165 53.15056 38.84611
# Shear Modulus (GPa) = 0.21209 23.24498 11.72853
#
# Velocity S-wave (km/s) = 0.33208 3.47660 2.46951
# Velocity P-wave (km/s) = 3.59277 6.61456 5.32261
#
# Compressibility (1/GPa) = 0.04074705
#
# Stress axis : x y z
#
# Youngs Moduli (GPa) = 72.13382 29.97889 147.78485
#
# Poissons Ratio (x) = 0.01195 0.68301
# Poissons Ratio (y) = 0.02874 0.23640
# Poissons Ratio (z) = 0.33338 0.04796
#
# Static dielectric constant tensor:
#      x y z
#    x 1.634980 0.000000 0.000000 
#    y 0.000000 1.696280 0.000000 
#    z 0.000000 0.000000 1.716530 
# 
# From -- ./inp_files/4106.got.cif
#   From: 2010.05.17/outbox.cif.g08.bks.cpg/sg47_3_cif.got.tgz:4106.got - 2010.06.03 20:15:42.
