data_PCOD9387138
_publ_section_title
;
Structure prediction by ZEFSAII (Michael W. Deem and Ramdas Pophale) SiO2 
 PCOD9387138
Probable space group: P M M M
;
_chemical_formula_sum "Si O2"
_cell_formula_units_Z 56
_cell_length_a 20.317881
_cell_length_b 15.236592
_cell_length_c 9.725944
_cell_angle_alpha 90.000000
_cell_angle_beta 90.000000
_cell_angle_gamma 90.000000
_cell_volume 3010.911673
_symmetry_space_group_name_H-M "P M M M"
_symmetry_group_IT_number 47
_symmetry_cell_setting 'orthorhombic'
loop_
_space_group_symop_operation_xyz
x,y,z
-x,-y,z
x,-y,-z
-x,y,-z
-x,-y,-z
x,y,-z
-x,y,z
x,-y,z
loop_
_atom_site_type_symbol
_atom_site_label
_atom_site_fract_x
_atom_site_fract_y
_atom_site_fract_z
Si Si1 0.304769 0.395049 0.345650
Si Si2 0.574035 0.139858 0.844424
Si Si3 0.302638 0.104232 0.345485
Si Si4 0.077218 0.744033 0.837102
Si Si5 0.157243 0.603999 0.334281
Si Si6 0.572632 0.350940 0.156636
Si Si7 0.179899 0.103858 0.162060
O O1 0.316330 0.360667 0.500000
O O2 0.299765 0.500000 0.354954
O O3 0.232128 0.367233 0.297223
O O4 0.365814 0.374963 0.249190
O O5 0.500000 0.108596 0.811076
O O6 0.629403 0.116812 0.735335
O O7 0.571149 0.245399 0.848432
O O8 0.590598 0.109751 0.000000
O O9 0.303784 0.141271 0.500000
O O10 0.241322 0.135351 0.253924
O O11 0.293293 0.000000 0.356369
O O12 0.107374 0.665764 0.746708
O O13 0.118017 0.833348 0.810404
O O14 0.000000 0.755612 0.809054
O O15 0.084930 0.724076 0.000000
O O16 0.151162 0.612951 0.500000
O O17 0.148796 0.500000 0.302737
O O18 0.500000 0.380520 0.206226
O O19 0.580963 0.382911 0.000000
O O20 0.166714 0.000000 0.188094
O O21 0.196875 0.111343 0.000000
#
# Coordination Sequence:
#
# PCOD9387138 Si02
#       7
#     8   8   8   8   8   8   8
#     4   9  19  35  53  75 103 136 177 222 267 317
#     4   9  19  35  52  72 102 140 180 221 267 321
#     4  10  21  35  52  77 107 138 176 224 273 318
#     4  10  22  38  58  88 118 144 181 227 275 326
#     4   9  20  39  59  81 113 151 189 228 273 330
#     4   9  19  34  50  72 103 137 175 220 268 318
#     4   9  19  37  59  82 112 150 187 223 269 330
#
# _framework density 18.599017
#
# number of rings (size 3 to 8) (size 9 to 14) (size 15 to 20)
#    0.000    2.714    0.000    2.143    2.000    5.143 
#    0.000    8.571    0.000    0.000    0.000    3.000 
#    0.000    0.000    0.000    0.000    0.000    0.000 
#
# Total GULP energy -312261.838118 kJ/mol
# GULP energy per Si atom -5576.104252 kJ/mol
# Density = 1.855668 g / cm^3
# Si number density = 18.599017 Si / 1000 Ang^3
#
#
#
# Elastic Constant Matrix: (Units=GPa)
#
#
# Indices 1 2 3 4 5 6 
#
# 1 175.5263 47.8795 101.9285 0.0000 0.0000 0.0000
# 2 47.8795 63.6420 39.9977 0.0000 0.0000 0.0000
# 3 101.9285 39.9977 91.8387 0.0000 0.0000 0.0000
# 4 0.0000 0.0000 0.0000 29.7597 0.0000 0.0000
# 5 0.0000 0.0000 0.0000 0.0000 16.6291 0.0000
# 6 0.0000 0.0000 0.0000 0.0000 0.0000 42.2163
#
#
#
# Elastic Compliance Matrix: (Units=1/GPa)
#
#
# Indices 1 2 3 4 5 6 
#
# 1 0.016094 -0.001214 -0.017333 0.000000 0.000000 0.000000
# 2 -0.001214 0.021726 -0.008115 0.000000 0.000000 0.000000
# 3 -0.017333 -0.008115 0.033660 0.000000 0.000000 0.000000
# 4 0.000000 0.000000 0.000000 0.033602 0.000000 0.000000
# 5 0.000000 0.000000 0.000000 0.000000 0.060136 0.000000
# 6 0.000000 0.000000 0.000000 0.000000 0.000000 0.023688
#
#
# Mechanical properties :
#
#
# Convention : Reuss Voigt Hill
#
# Bulk Modulus (GPa) = 55.07733 78.95760 67.01747
# Shear Modulus (GPa) = 20.13847 27.13444 23.63645
#
# Velocity S-wave (km/s) = 3.29412 3.82372 3.56876
# Velocity P-wave (km/s) = 6.64422 7.87650 7.28645
#
# Compressibility (1/GPa) = 0.01815629
#
# Stress axis : x y z
#
# Youngs Moduli (GPa) = 62.13649 46.02717 29.70896
#
# Poissons Ratio (x) = 0.05589 0.51494
# Poissons Ratio (y) = 0.07545 0.24108
# Poissons Ratio (z) = 1.07700 0.37349
#
# Static dielectric constant tensor:
#      x y z
#    x 1.632240 0.000000 0.000000 
#    y 0.000000 1.666070 0.000000 
#    z 0.000000 0.000000 1.645730 
# 
# From -- ./inp_files/7345.got.cif
#   From: 2010.05.17/outbox.cif.g08.bks.cpg/sg47_4_cif.got.tgz:7345.got - 2010.06.03 20:15:42.
