data_PCOD9387735
_publ_section_title
;
Structure prediction by ZEFSAII (Michael W. Deem and Ramdas Pophale) SiO2 
 PCOD9387735
Probable space group: P M M M
;
_chemical_formula_sum "Si O2"
_cell_formula_units_Z 36
_cell_length_a 8.980078
_cell_length_b 13.856694
_cell_length_c 13.837336
_cell_angle_alpha 90.000000
_cell_angle_beta 90.000000
_cell_angle_gamma 90.000000
_cell_volume 1721.837738
_symmetry_space_group_name_H-M "P M M M"
_symmetry_group_IT_number 47
_symmetry_cell_setting 'orthorhombic'
loop_
_space_group_symop_operation_xyz
x,y,z
-x,-y,z
x,-y,-z
-x,y,-z
-x,-y,-z
x,y,-z
-x,y,z
x,-y,z
loop_
_atom_site_type_symbol
_atom_site_label
_atom_site_fract_x
_atom_site_fract_y
_atom_site_fract_z
Si Si1 0.672535 0.882449 0.107292
Si Si2 0.322526 0.710194 0.393949
Si Si3 0.823471 0.887240 0.306872
Si Si4 0.179926 0.615719 0.000000
Si Si5 0.826489 0.383628 0.790414
O O1 0.500000 0.852613 0.121673
O O2 0.772917 0.856843 0.198691
O O3 0.672139 0.000000 0.105368
O O4 0.723013 0.851394 0.000000
O O5 0.276441 0.673145 0.500000
O O6 0.500000 0.709593 0.389146
O O7 0.262021 0.818371 0.379795
O O8 0.257993 0.652238 0.303542
O O9 0.000000 0.876121 0.316947
O O10 0.786239 0.000000 0.319481
O O11 0.235120 0.650670 0.895245
O O12 0.205163 0.500000 0.000000
O O13 0.000000 0.628678 0.000000
O O14 0.823110 0.500000 0.792043
O O15 0.000000 0.354301 0.783393
#
# Coordination Sequence:
#
# PCOD9387735 Si02
#       5
#     8   8   8   4   8
#     4   8  14  27  49  76 107 143 180 221 274 337
#     4  11  25  42  58  80 114 156 201 246 292 349
#     4  10  21  37  58  83 110 144 191 247 301 350
#     4   7  12  28  57  91 122 149 180 223 277 338
#     4   9  18  36  64  94 122 153 189 232 286 346
#
# _framework density 20.907892
#
# number of rings (size 3 to 8) (size 9 to 14) (size 15 to 20)
#    0.000    2.778    0.000    3.333    0.000    4.889 
#    2.000    7.222    0.000    2.000    0.000    0.000 
#    0.000    0.000    0.000    0.000    0.000    0.000 
#
# Total GULP energy -200961.495636 kJ/mol
# GULP energy per Si atom -5582.263768 kJ/mol
# Density = 2.086031 g / cm^3
# Si number density = 20.907892 Si / 1000 Ang^3
#
#
#
# Elastic Constant Matrix: (Units=GPa)
#
#
# Indices 1 2 3 4 5 6 
#
# 1 45.6361 7.6902 57.4581 0.0000 0.0000 0.0000
# 2 7.6902 47.6090 35.6927 0.0000 0.0000 0.0000
# 3 57.4581 35.6927 192.2872 0.0000 0.0000 0.0000
# 4 0.0000 0.0000 0.0000 23.7404 0.0000 0.0000
# 5 0.0000 0.0000 0.0000 0.0000 34.0078 0.0000
# 6 0.0000 0.0000 0.0000 0.0000 0.0000 17.5357
#
#
#
# Elastic Compliance Matrix: (Units=1/GPa)
#
#
# Indices 1 2 3 4 5 6 
#
# 1 0.035397 0.002570 -0.011054 0.000000 0.000000 0.000000
# 2 0.002570 0.024587 -0.005332 0.000000 0.000000 0.000000
# 3 -0.011054 -0.005332 0.009493 0.000000 0.000000 0.000000
# 4 0.000000 0.000000 0.000000 0.042122 0.000000 0.000000
# 5 0.000000 0.000000 0.000000 0.000000 0.029405 0.000000
# 6 0.000000 0.000000 0.000000 0.000000 0.000000 0.057027
#
#
# Mechanical properties :
#
#
# Convention : Reuss Voigt Hill
#
# Bulk Modulus (GPa) = 23.89779 54.13492 39.01635
# Shear Modulus (GPa) = 20.86713 27.36955 24.11834
#
# Velocity S-wave (km/s) = 3.16262 3.62201 3.40008
# Velocity P-wave (km/s) = 4.97906 6.59092 5.84086
#
# Compressibility (1/GPa) = 0.04184488
#
# Stress axis : x y z
#
# Youngs Moduli (GPa) = 28.25086 40.67262 105.33669
#
# Poissons Ratio (x) = -0.10452 1.16441
# Poissons Ratio (y) = -0.07260 0.56162
# Poissons Ratio (z) = 0.31229 0.21685
#
# Static dielectric constant tensor:
#      x y z
#    x 1.696100 0.000000 0.000000 
#    y 0.000000 1.800520 0.000000 
#    z 0.000000 0.000000 1.772350 
# 
# From -- ./inp_files/8658.got.cif
#   From: 2010.05.17/outbox.cif.g08.bks.cpg/sg47_5_cif.got.tgz:8658.got - 2010.06.03 20:15:42.
