data_PCOD9387461
_publ_section_title
;
Structure prediction by ZEFSAII (Michael W. Deem and Ramdas Pophale) SiO2 
 PCOD9387461
Probable space group: P M M M
;
_chemical_formula_sum "Si O2"
_cell_formula_units_Z 56
_cell_length_a 14.131918
_cell_length_b 22.704048
_cell_length_c 10.005148
_cell_angle_alpha 90.000000
_cell_angle_beta 90.000000
_cell_angle_gamma 90.000000
_cell_volume 3210.169191
_symmetry_space_group_name_H-M "P M M M"
_symmetry_group_IT_number 47
_symmetry_cell_setting 'orthorhombic'
loop_
_space_group_symop_operation_xyz
x,y,z
-x,-y,z
x,-y,-z
-x,y,-z
-x,-y,-z
x,y,-z
-x,y,z
x,-y,z
loop_
_atom_site_type_symbol
_atom_site_label
_atom_site_fract_x
_atom_site_fract_y
_atom_site_fract_z
Si Si1 0.111721 0.879232 0.156849
Si Si2 0.791252 0.369213 0.748431
Si Si3 0.390221 0.568810 0.660342
Si Si4 0.780446 0.241352 0.155851
Si Si5 0.112903 0.430004 0.000000
Si Si6 0.389014 0.154531 0.842814
Si Si7 0.113136 0.568361 0.500000
Si Si8 0.728620 0.069621 0.342337
O O1 0.144256 0.811289 0.175154
O O2 0.174912 0.915665 0.261157
O O3 0.000000 0.886430 0.177190
O O4 0.132989 0.893999 0.000000
O O5 0.682632 0.389570 0.735285
O O6 0.797366 0.298939 0.757442
O O7 0.839928 0.399147 0.874409
O O8 0.845812 0.397585 0.625324
O O9 0.379007 0.576302 0.500000
O O10 0.500000 0.579960 0.692536
O O11 0.369782 0.500000 0.689809
O O12 0.678465 0.210946 0.179621
O O13 0.784535 0.259135 0.000000
O O14 0.130557 0.500000 0.000000
O O15 0.000000 0.421259 0.000000
O O16 0.500000 0.165925 0.824370
O O17 0.350704 0.105428 0.740500
O O18 0.374374 0.137283 0.000000
O O19 0.144659 0.500000 0.500000
O O20 0.000000 0.568731 0.500000
O O21 0.733530 0.086691 0.500000
O O22 0.710733 0.000000 0.336754
#
# Coordination Sequence:
#
# PCOD9387461 Si02
#       8
#     8   8   8   8   4   8   4   8
#     4   9  19  37  60  81 107 148 197 245 285 325
#     4  12  21  37  60  82 111 149 185 234 291 344
#     4   9  18  34  56  79 103 136 178 223 276 337
#     4   9  19  37  56  82 112 143 183 230 283 342
#     4  11  24  38  55  83 115 147 185 230 288 352
#     4   9  19  38  63  84 110 150 192 235 278 323
#     4  11  24  40  57  79 109 147 193 238 282 342
#     4  10  21  36  55  84 124 159 187 226 278 336
#
# _framework density 17.444562999999999
#
# number of rings (size 3 to 8) (size 9 to 14) (size 15 to 20)
#    0.000    2.143    1.429    3.429    0.000    5.143 
#    5.143    3.214    0.000    1.286    0.000    0.000 
#    0.000    0.000    0.000    0.000    0.000    0.000 
#
# Total GULP energy -312368.010212 kJ/mol
# GULP energy per Si atom -5578.000182 kJ/mol
# Density = 1.740486 g / cm^3
# Si number density = 17.444563 Si / 1000 Ang^3
#
#
#
# Elastic Constant Matrix: (Units=GPa)
#
#
# Indices 1 2 3 4 5 6 
#
# 1 68.8187 16.0069 31.2342 0.0000 0.0000 0.0000
# 2 16.0069 81.7871 52.7112 0.0000 0.0000 0.0000
# 3 31.2342 52.7112 114.3849 0.0000 0.0000 0.0000
# 4 0.0000 0.0000 0.0000 30.4697 0.0000 0.0000
# 5 0.0000 0.0000 0.0000 0.0000 28.2907 0.0000
# 6 0.0000 0.0000 0.0000 0.0000 0.0000 -9.6692
#
#
#
# Elastic Compliance Matrix: (Units=1/GPa)
#
#
# Indices 1 2 3 4 5 6 
#
# 1 0.016599 -0.000466 -0.004318 0.000000 0.000000 0.000000
# 2 -0.000466 0.017405 -0.007894 0.000000 0.000000 0.000000
# 3 -0.004318 -0.007894 0.013559 0.000000 0.000000 0.000000
# 4 0.000000 0.000000 0.000000 0.032820 0.000000 0.000000
# 5 0.000000 0.000000 0.000000 0.000000 0.035347 0.000000
# 6 0.000000 0.000000 0.000000 0.000000 0.000000 -0.103421
#
#
# Mechanical properties :
#
#
# Convention : Reuss Voigt Hill
#
# Bulk Modulus (GPa) = 45.02721 51.65504 48.34112
# Shear Modulus (GPa) = 110.94715 20.82079 65.88397
#
# Velocity S-wave (km/s) = 7.98360 3.45851 6.15220
# Velocity P-wave (km/s) = 10.52860 6.75453 8.84520
#
# Compressibility (1/GPa) = 0.02220879
#
# Stress axis : x y z
#
# Youngs Moduli (GPa) = 60.24453 57.45338 73.75155
#
# Poissons Ratio (x) = 0.02676 0.31845
# Poissons Ratio (y) = 0.02806 0.58217
# Poissons Ratio (z) = 0.26013 0.45352
#
# Static dielectric constant tensor:
#      x y z
#    x 1.594510 0.000000 0.000000 
#    y 0.000000 1.573660 0.000000 
#    z 0.000000 0.000000 1.574270 
# 
# From -- ./inp_files/7460.got.cif
#   From: 2010.05.17/outbox.cif.g08.bks.cpg/sg47_4_cif.got.tgz:7460.got - 2010.06.03 20:15:42.
