data_PCOD9387379
_publ_section_title
;
Structure prediction by ZEFSAII (Michael W. Deem and Ramdas Pophale) SiO2 
 PCOD9387379
Probable space group: P M M M
;
_chemical_formula_sum "Si O2"
_cell_formula_units_Z 56
_cell_length_a 8.366218
_cell_length_b 21.945714
_cell_length_c 15.610493
_cell_angle_alpha 90.000000
_cell_angle_beta 90.000000
_cell_angle_gamma 90.000000
_cell_volume 2866.127531
_symmetry_space_group_name_H-M "P M M M"
_symmetry_group_IT_number 47
_symmetry_cell_setting 'orthorhombic'
loop_
_space_group_symop_operation_xyz
x,y,z
-x,-y,z
x,-y,-z
-x,y,-z
-x,-y,-z
x,y,-z
-x,y,z
x,-y,z
loop_
_atom_site_type_symbol
_atom_site_label
_atom_site_fract_x
_atom_site_fract_y
_atom_site_fract_z
Si Si1 0.309453 0.733876 0.594968
Si Si2 0.816994 0.000000 0.601959
Si Si3 0.316317 0.124226 0.826361
Si Si4 0.311476 0.248553 0.906358
Si Si5 0.805421 0.428795 0.097084
Si Si6 0.185436 0.000000 0.897721
Si Si7 0.813982 0.332595 0.763727
Si Si8 0.184513 0.133776 0.353788
O O1 0.250803 0.715032 0.500000
O O2 0.500000 0.732094 0.595274
O O3 0.254628 0.690622 0.673211
O O4 0.260209 0.804713 0.608822
O O5 0.745081 0.934010 0.626802
O O6 0.824629 0.000000 0.500000
O O7 0.000000 0.000000 0.637651
O O8 0.500000 0.126298 0.795148
O O9 0.300386 0.176068 0.897428
O O10 0.272467 0.059132 0.862468
O O11 0.201938 0.139627 0.747814
O O12 0.500000 0.264334 0.896083
O O13 0.212728 0.277691 0.830297
O O14 0.256523 0.268246 0.000000
O O15 0.766180 0.500000 0.108303
O O16 0.747203 0.388644 0.177857
O O17 0.000000 0.423666 0.096228
O O18 0.751436 0.411010 0.000000
O O19 0.000000 0.000000 0.870025
O O20 0.189770 0.000000 0.000000
O O21 0.000000 0.344697 0.749181
O O22 0.000000 0.132318 0.382111
#
# Coordination Sequence:
#
# PCOD9387379 Si02
#       8
#     8   4   8   8   8   4   8   8
#     4  11  24  41  59  80 112 155 199 243 295 353
#     4   9  19  34  52  76 104 131 164 218 289 353
#     4  11  22  37  56  76 104 144 186 227 283 351
#     4  10  21  36  54  78 112 152 188 226 277 337
#     4   8  15  30  54  88 129 164 191 225 275 336
#     4  11  24  39  54  74 102 139 188 244 293 338
#     4  11  21  34  58  89 117 150 193 239 287 335
#     4  11  21  36  59  84 108 138 182 237 297 354
#
# _framework density 19.538557999999998
#
# number of rings (size 3 to 8) (size 9 to 14) (size 15 to 20)
#    0.000    1.714    1.429    4.071    0.000    4.857 
#    0.000    1.071    0.000    4.714    0.000    8.000 
#    0.000    0.000    0.000    0.000    0.000    0.000 
#
# Total GULP energy -312330.266637 kJ/mol
# GULP energy per Si atom -5577.326190 kJ/mol
# Density = 1.949409 g / cm^3
# Si number density = 19.538558 Si / 1000 Ang^3
#
#
#
# Elastic Constant Matrix: (Units=GPa)
#
#
# Indices 1 2 3 4 5 6 
#
# 1 20.4922 13.4947 19.4874 0.0000 0.0000 0.0000
# 2 13.4947 123.5306 59.8116 0.0000 0.0000 0.0000
# 3 19.4874 59.8116 146.7157 0.0000 0.0000 0.0000
# 4 0.0000 0.0000 0.0000 17.7746 0.0000 0.0000
# 5 0.0000 0.0000 0.0000 0.0000 14.3321 0.0000
# 6 0.0000 0.0000 0.0000 0.0000 0.0000 6.1693
#
#
#
# Elastic Compliance Matrix: (Units=1/GPa)
#
#
# Indices 1 2 3 4 5 6 
#
# 1 0.056841 -0.003182 -0.006253 0.000000 0.000000 0.000000
# 2 -0.003182 0.010264 -0.003762 0.000000 0.000000 0.000000
# 3 -0.006253 -0.003762 0.009180 0.000000 0.000000 0.000000
# 4 0.000000 0.000000 0.000000 0.056260 0.000000 0.000000
# 5 0.000000 0.000000 0.000000 0.000000 0.069774 0.000000
# 6 0.000000 0.000000 0.000000 0.000000 0.000000 0.162093
#
#
# Mechanical properties :
#
#
# Convention : Reuss Voigt Hill
#
# Bulk Modulus (GPa) = 20.04327 52.92509 36.48418
# Shear Modulus (GPa) = 12.27191 20.85151 16.56171
#
# Velocity S-wave (km/s) = 2.50888 3.27034 2.91459
# Velocity P-wave (km/s) = 4.32126 6.43479 5.48087
#
# Compressibility (1/GPa) = 0.04989206
#
# Stress axis : x y z
#
# Youngs Moduli (GPa) = 17.59305 97.42665 108.93301
#
# Poissons Ratio (x) = 0.31001 0.68112
# Poissons Ratio (y) = 0.05598 0.40978
# Poissons Ratio (z) = 0.11000 0.36649
#
# Static dielectric constant tensor:
#      x y z
#    x 1.706030 0.000000 0.000000 
#    y 0.000000 1.721640 0.000000 
#    z 0.000000 0.000000 1.692740 
# 
# From -- ./inp_files/21664.got.cif
#   From: 2010.05.17/outbox.cif.g08.bks.cpg/sg47_11_cif.got.tgz:21664.got - 2010.06.03 20:15:42.
