data_PCOD9387059
_publ_section_title
;
Structure prediction by ZEFSAII (Michael W. Deem and Ramdas Pophale) SiO2 
 PCOD9387059
Probable space group: P M M M
;
_chemical_formula_sum "Si O2"
_cell_formula_units_Z 48
_cell_length_a 22.840093
_cell_length_b 14.952473
_cell_length_c 7.982909
_cell_angle_alpha 90.000000
_cell_angle_beta 90.000000
_cell_angle_gamma 90.000000
_cell_volume 2726.290143
_symmetry_space_group_name_H-M "P M M M"
_symmetry_group_IT_number 47
_symmetry_cell_setting 'orthorhombic'
loop_
_space_group_symop_operation_xyz
x,y,z
-x,-y,z
x,-y,-z
-x,y,-z
-x,-y,-z
x,y,-z
-x,y,z
x,-y,z
loop_
_atom_site_type_symbol
_atom_site_label
_atom_site_fract_x
_atom_site_fract_y
_atom_site_fract_z
Si Si1 0.143282 0.099750 0.198481
Si Si2 0.385758 0.787657 0.198789
Si Si3 0.567546 0.599958 0.297954
Si Si4 0.929654 0.270044 0.802892
Si Si5 0.274443 0.899106 0.698651
Si Si6 0.928904 0.601700 0.500000
Si Si7 0.500000 0.103892 0.205082
O O1 0.101064 0.178523 0.256367
O O2 0.211251 0.123627 0.225898
O O3 0.133857 0.000000 0.271121
O O4 0.133092 0.093634 0.000000
O O5 0.394589 0.683748 0.241074
O O6 0.325981 0.830881 0.262010
O O7 0.442035 0.843636 0.263551
O O8 0.385988 0.797052 0.000000
O O9 0.567182 0.599648 0.500000
O O10 0.500000 0.613846 0.241938
O O11 0.585685 0.500000 0.242604
O O12 0.912045 0.346183 0.669944
O O13 0.000000 0.260571 0.796708
O O14 0.914447 0.287689 0.000000
O O15 0.266751 0.902244 0.500000
O O16 0.290348 0.000000 0.757952
O O17 0.907573 0.500000 0.500000
O O18 0.000000 0.599686 0.500000
O O19 0.500000 0.000000 0.256222
O O20 0.500000 0.105240 0.000000
#
# Coordination Sequence:
#
# PCOD9387059 Si02
#       7
#     8   8   8   8   8   4   4
#     4   9  18  33  53  77 106 142 180 215 256 307
#     4  11  20  32  51  74 100 130 164 206 254 300
#     4   9  18  33  52  73  99 129 160 199 249 306
#     4   9  18  32  52  81 114 145 180 223 270 320
#     4  10  21  35  51  73 101 136 176 212 247 298
#     4   9  18  32  51  77 109 145 184 225 271 322
#     4   9  18  30  44  67  98 128 157 195 246 301
#
# _framework density 17.606345000000001
#
# number of rings (size 3 to 8) (size 9 to 14) (size 15 to 20)
#    0.000    2.500    0.833    2.000    1.167    2.667 
#    0.000    4.167    0.000    4.500    0.000    2.333 
#    0.000    0.000    0.000    0.000    0.000    0.000 
#
# Total GULP energy -267574.912828 kJ/mol
# GULP energy per Si atom -5574.477351 kJ/mol
# Density = 1.756627 g / cm^3
# Si number density = 17.606345 Si / 1000 Ang^3
#
#
#
# Elastic Constant Matrix: (Units=GPa)
#
#
# Indices 1 2 3 4 5 6 
#
# 1 36.9414 51.4430 12.0620 0.0000 0.0000 0.0000
# 2 51.4430 134.7508 29.7635 0.0000 0.0000 0.0000
# 3 12.0620 29.7635 39.2954 0.0000 0.0000 0.0000
# 4 0.0000 0.0000 0.0000 24.4557 0.0000 0.0000
# 5 0.0000 0.0000 0.0000 0.0000 12.7533 0.0000
# 6 0.0000 0.0000 0.0000 0.0000 0.0000 15.2491
#
#
#
# Elastic Compliance Matrix: (Units=1/GPa)
#
#
# Indices 1 2 3 4 5 6 
#
# 1 0.057846 -0.021810 -0.001236 0.000000 0.000000 0.000000
# 2 -0.021810 0.017136 -0.006284 0.000000 0.000000 0.000000
# 3 -0.001236 -0.006284 0.030588 0.000000 0.000000 0.000000
# 4 0.000000 0.000000 0.000000 0.040890 0.000000 0.000000
# 5 0.000000 0.000000 0.000000 0.000000 0.078411 0.000000
# 6 0.000000 0.000000 0.000000 0.000000 0.000000 0.065578
#
#
# Mechanical properties :
#
#
# Convention : Reuss Voigt Hill
#
# Bulk Modulus (GPa) = 21.31872 44.16941 32.74407
# Shear Modulus (GPa) = 13.70820 18.33955 16.02387
#
# Velocity S-wave (km/s) = 2.79336 3.23095 3.02009
# Velocity P-wave (km/s) = 4.74749 6.24983 5.54973
#
# Compressibility (1/GPa) = 0.04690713
#
# Stress axis : x y z
#
# Youngs Moduli (GPa) = 17.28733 58.35826 32.69304
#
# Poissons Ratio (x) = 1.27281 0.04042
# Poissons Ratio (y) = 0.37704 0.20545
# Poissons Ratio (z) = 0.02137 0.36673
#
# Static dielectric constant tensor:
#      x y z
#    x 1.577990 0.000000 0.000000 
#    y 0.000000 1.613940 0.000000 
#    z 0.000000 0.000000 1.621990 
# 
# From -- ./inp_files/9228.got.cif
#   From: 2010.05.17/outbox.cif.g08.bks.cpg/sg47_5_cif.got.tgz:9228.got - 2010.06.03 20:15:42.
