data_PCOD9387087
_publ_section_title
;
Structure prediction by ZEFSAII (Michael W. Deem and Ramdas Pophale) SiO2 
 PCOD9387087
Probable space group: P M M M
;
_chemical_formula_sum "Si O2"
_cell_formula_units_Z 64
_cell_length_a 21.043970
_cell_length_b 19.189232
_cell_length_c 8.216267
_cell_angle_alpha 90.000000
_cell_angle_beta 90.000000
_cell_angle_gamma 90.000000
_cell_volume 3317.873406
_symmetry_space_group_name_H-M "P M M M"
_symmetry_group_IT_number 47
_symmetry_cell_setting 'orthorhombic'
loop_
_space_group_symop_operation_xyz
x,y,z
-x,-y,z
x,-y,-z
-x,y,-z
-x,-y,-z
x,y,-z
-x,y,z
x,-y,z
loop_
_atom_site_type_symbol
_atom_site_label
_atom_site_fract_x
_atom_site_fract_y
_atom_site_fract_z
Si Si1 0.189932 0.829695 0.695884
Si Si2 0.689455 0.080181 0.300649
Si Si3 0.307928 0.420997 0.193941
Si Si4 0.927588 0.920301 0.196548
Si Si5 0.072097 0.420292 0.196453
Si Si6 0.189551 0.328510 0.306084
Si Si7 0.571922 0.173744 0.698477
Si Si8 0.572304 0.666170 0.303372
O O1 0.194774 0.827075 0.500000
O O2 0.248916 0.876626 0.754047
O O3 0.124339 0.867118 0.739800
O O4 0.192869 0.750568 0.758719
O O5 0.689484 0.080016 0.500000
O O6 0.625908 0.120498 0.247494
O O7 0.691346 0.000000 0.247775
O O8 0.303450 0.500000 0.258820
O O9 0.250095 0.373590 0.253991
O O10 0.374441 0.385607 0.240427
O O11 0.303602 0.424099 0.000000
O O12 0.000000 0.904264 0.247846
O O13 0.912960 0.000000 0.248215
O O14 0.926465 0.919225 0.000000
O O15 0.086260 0.500000 0.249140
O O16 0.125361 0.367380 0.254015
O O17 0.000000 0.403163 0.249486
O O18 0.072365 0.420367 0.000000
O O19 0.190113 0.324516 0.500000
O O20 0.572011 0.173177 0.500000
O O21 0.500000 0.156320 0.750281
O O22 0.585865 0.253706 0.746897
O O23 0.573765 0.664868 0.500000
O O24 0.500000 0.649182 0.252387
#
# Coordination Sequence:
#
# PCOD9387087 Si02
#       8
#     8   8   8   8   8   8   8   8
#     4  10  21  35  51  74 105 139 174 215 263 312
#     4   9  16  26  43  68  98 132 169 208 249 294
#     4  11  24  39  55  77 106 139 175 219 271 323
#     4   9  19  36  56  78 105 137 174 216 260 308
#     4   9  19  37  59  81 107 139 172 209 260 321
#     4  11  23  37  55  79 107 140 179 223 267 314
#     4   8  14  26  45  70 101 134 166 203 248 297
#     4   9  18  34  56  79 105 140 177 213 260 318
#
# _framework density 19.289463000000001
#
# number of rings (size 3 to 8) (size 9 to 14) (size 15 to 20)
#    0.000    2.500    0.000    3.750    0.000    8.250 
#    0.000    6.250    0.000    0.000    0.000    0.000 
#    0.000    0.000    0.000    9.125    0.000    8.750 
#
# Total GULP energy -357238.151782 kJ/mol
# GULP energy per Si atom -5581.846122 kJ/mol
# Density = 1.924556 g / cm^3
# Si number density = 19.289463 Si / 1000 Ang^3
#
#
#
# Elastic Constant Matrix: (Units=GPa)
#
#
# Indices 1 2 3 4 5 6 
#
# 1 151.3210 128.8289 10.6780 0.0000 0.0000 0.0000
# 2 128.8289 184.1215 14.8238 0.0000 0.0000 0.0000
# 3 10.6780 14.8238 9.3377 0.0000 0.0000 0.0000
# 4 0.0000 0.0000 0.0000 52.2220 0.0000 0.0000
# 5 0.0000 0.0000 0.0000 0.0000 29.6029 0.0000
# 6 0.0000 0.0000 0.0000 0.0000 0.0000 41.5813
#
#
#
# Elastic Compliance Matrix: (Units=1/GPa)
#
#
# Indices 1 2 3 4 5 6 
#
# 1 0.016348 -0.011389 -0.000614 0.000000 0.000000 0.000000
# 2 -0.011389 0.014162 -0.009458 0.000000 0.000000 0.000000
# 3 -0.000614 -0.009458 0.122809 0.000000 0.000000 0.000000
# 4 0.000000 0.000000 0.000000 0.019149 0.000000 0.000000
# 5 0.000000 0.000000 0.000000 0.000000 0.033780 0.000000
# 6 0.000000 0.000000 0.000000 0.000000 0.000000 0.024049
#
#
# Mechanical properties :
#
#
# Convention : Reuss Voigt Hill
#
# Bulk Modulus (GPa) = 9.05826 72.60463 40.83145
# Shear Modulus (GPa) = 16.12805 37.37786 26.75296
#
# Velocity S-wave (km/s) = 2.89469 4.40675 3.72818
# Velocity P-wave (km/s) = 3.98478 7.97583 6.30445
#
# Compressibility (1/GPa) = 0.11039648
#
# Stress axis : x y z
#
# Youngs Moduli (GPa) = 61.16860 70.61277 8.14273
#
# Poissons Ratio (x) = 0.80423 0.00500
# Poissons Ratio (y) = 0.69667 0.07701
# Poissons Ratio (z) = 0.03755 0.66785
#
# Static dielectric constant tensor:
#      x y z
#    x 1.651150 0.000000 0.000000 
#    y 0.000000 1.646350 0.000000 
#    z 0.000000 0.000000 1.683240 
# 
# From -- ./inp_files/11568.got.cif
#   From: 2010.05.17/outbox.cif.g08.bks.cpg/sg47_6_cif.got.tgz:11568.got - 2010.06.03 20:15:42.
