data_PCOD9387932
_publ_section_title
;
Structure prediction by ZEFSAII (Michael W. Deem and Ramdas Pophale) SiO2 
 PCOD9387932
Probable space group: P M M M
;
_chemical_formula_sum "Si O2"
_cell_formula_units_Z 56
_cell_length_a 15.159127
_cell_length_b 7.794901
_cell_length_c 22.050201
_cell_angle_alpha 90.000000
_cell_angle_beta 90.000000
_cell_angle_gamma 90.000000
_cell_volume 2605.537618
_symmetry_space_group_name_H-M "P M M M"
_symmetry_group_IT_number 47
_symmetry_cell_setting 'orthorhombic'
loop_
_space_group_symop_operation_xyz
x,y,z
-x,-y,z
x,-y,-z
-x,y,-z
-x,-y,-z
x,y,-z
-x,y,z
x,-y,z
loop_
_atom_site_type_symbol
_atom_site_label
_atom_site_fract_x
_atom_site_fract_y
_atom_site_fract_z
Si Si1 0.302215 0.703316 0.568293
Si Si2 0.500000 0.807602 0.573040
Si Si3 0.098019 0.294396 0.793558
Si Si4 0.500000 0.809152 0.070061
Si Si5 0.398494 0.709213 0.231397
Si Si6 0.238956 0.290267 0.691723
Si Si7 0.315830 0.695940 0.890467
Si Si8 0.861732 0.804410 0.933347
O O1 0.291291 0.776119 0.500000
O O2 0.286595 0.500000 0.564364
O O3 0.405663 0.723302 0.586835
O O4 0.237842 0.768978 0.621746
O O5 0.500000 0.814699 0.500000
O O6 0.500000 0.000000 0.598054
O O7 0.098510 0.500000 0.787738
O O8 0.169017 0.231475 0.743248
O O9 0.113300 0.262777 0.865978
O O10 0.000000 0.228845 0.779265
O O11 0.586834 0.703756 0.083641
O O12 0.500000 0.000000 0.099739
O O13 0.500000 0.836858 0.000000
O O14 0.500000 0.768350 0.230026
O O15 0.402260 0.500000 0.226570
O O16 0.338321 0.755116 0.287632
O O17 0.336629 0.767837 0.175840
O O18 0.233782 0.500000 0.692036
O O19 0.283851 0.500000 0.886262
O O20 0.244537 0.795561 0.929036
O O21 0.891922 0.000000 0.934624
O O22 0.887051 0.727177 0.000000
#
# Coordination Sequence:
#
# PCOD9387932 Si02
#       8
#     8   4   8   4   8   8   8   8
#     4   9  17  29  49  77 108 146 189 223 257 313
#     4   9  17  29  44  67 108 154 189 226 268 305
#     4  10  21  39  63  86 105 133 179 229 274 326
#     4  11  23  35  46  67 104 146 183 222 276 330
#     4   9  16  27  47  74 101 133 176 221 264 307
#     4   9  17  31  53  79 109 140 175 225 275 314
#     4  11  20  34  55  76 100 136 185 232 269 318
#     4  11  24  40  57  79 110 143 171 212 279 344
#
# _framework density 21.492685999999999
#
# number of rings (size 3 to 8) (size 9 to 14) (size 15 to 20)
#    0.000    2.143    2.143    1.714    1.000    4.857 
#    0.000    2.143    0.000    1.286    0.000    3.000 
#    0.000    0.000    0.000    4.857    0.000    5.143 
#
# Total GULP energy -311779.481937 kJ/mol
# GULP energy per Si atom -5567.490749 kJ/mol
# Density = 2.144377 g / cm^3
# Si number density = 21.492686 Si / 1000 Ang^3
#
#
#
# Elastic Constant Matrix: (Units=GPa)
#
#
# Indices 1 2 3 4 5 6 
#
# 1 109.7652 6.3042 66.0289 0.0000 0.0000 0.0000
# 2 6.3042 34.3530 8.0185 0.0000 0.0000 0.0000
# 3 66.0289 8.0185 181.3271 0.0000 0.0000 0.0000
# 4 0.0000 0.0000 0.0000 36.4330 0.0000 0.0000
# 5 0.0000 0.0000 0.0000 0.0000 76.6549 0.0000
# 6 0.0000 0.0000 0.0000 0.0000 0.0000 -11.8939
#
#
#
# Elastic Compliance Matrix: (Units=1/GPa)
#
#
# Indices 1 2 3 4 5 6 
#
# 1 0.011712 -0.001166 -0.004213 0.000000 0.000000 0.000000
# 2 -0.001166 0.029529 -0.000881 0.000000 0.000000 0.000000
# 3 -0.004213 -0.000881 0.007088 0.000000 0.000000 0.000000
# 4 0.000000 0.000000 0.000000 0.027448 0.000000 0.000000
# 5 0.000000 0.000000 0.000000 0.000000 0.013045 0.000000
# 6 0.000000 0.000000 0.000000 0.000000 0.000000 -0.084077
#
#
# Mechanical properties :
#
#
# Convention : Reuss Voigt Hill
#
# Bulk Modulus (GPa) = 27.92641 54.01651 40.97146
# Shear Modulus (GPa) = 171.22075 36.57838 103.89956
#
# Velocity S-wave (km/s) = 8.93519 4.12988 6.96037
# Velocity P-wave (km/s) = 10.93032 6.92303 9.14877
#
# Compressibility (1/GPa) = 0.03580840
#
# Stress axis : x y z
#
# Youngs Moduli (GPa) = 85.38444 33.86477 141.08222
#
# Poissons Ratio (x) = 0.03948 0.59441
# Poissons Ratio (y) = 0.09954 0.12433
# Poissons Ratio (z) = 0.35974 0.02984
#
# Static dielectric constant tensor:
#      x y z
#    x 1.763630 0.000000 0.000000 
#    y 0.000000 1.861320 0.000000 
#    z 0.000000 0.000000 1.874910 
# 
# From -- ./inp_files/31100.got.cif
#   From: 2010.05.17/outbox.cif.g08.bks.cpg/sg47_16_cif.got.tgz:31100.got - 2010.06.03 20:15:42.
