data_PCOD9387140
_publ_section_title
;
Structure prediction by ZEFSAII (Michael W. Deem and Ramdas Pophale) SiO2 
 PCOD9387140
Probable space group: P M M M
;
_chemical_formula_sum "Si O2"
_cell_formula_units_Z 40
_cell_length_a 10.551514
_cell_length_b 25.039105
_cell_length_c 7.814584
_cell_angle_alpha 90.000000
_cell_angle_beta 90.000000
_cell_angle_gamma 90.000000
_cell_volume 2064.616742
_symmetry_space_group_name_H-M "P M M M"
_symmetry_group_IT_number 47
_symmetry_cell_setting 'orthorhombic'
loop_
_space_group_symop_operation_xyz
x,y,z
-x,-y,z
x,-y,-z
-x,y,-z
-x,-y,-z
x,y,-z
-x,y,z
x,-y,z
loop_
_atom_site_type_symbol
_atom_site_label
_atom_site_fract_x
_atom_site_fract_y
_atom_site_fract_z
Si Si1 0.749308 0.124782 0.709331
Si Si2 0.145053 0.765250 0.705581
Si Si3 0.642196 0.439423 0.705547
Si Si4 0.500000 0.938163 0.290277
Si Si5 0.143424 0.645275 0.797043
Si Si6 0.000000 0.061200 0.291002
O O1 0.746358 0.124752 0.500000
O O2 0.767637 0.186041 0.765968
O O3 0.624342 0.093915 0.766063
O O4 0.874209 0.092332 0.762038
O O5 0.140007 0.769163 0.500000
O O6 0.184893 0.705202 0.748134
O O7 0.000000 0.772388 0.769164
O O8 0.636385 0.441626 0.500000
O O9 0.500000 0.424012 0.766147
O O10 0.668208 0.500000 0.767225
O O11 0.753160 0.398439 0.747679
O O12 0.500000 0.938805 0.500000
O O13 0.500000 0.000000 0.235880
O O14 0.000000 0.636588 0.725449
O O15 0.133288 0.643699 0.000000
O O16 0.000000 0.060997 0.500000
O O17 0.000000 0.000000 0.234220
#
# Coordination Sequence:
#
# PCOD9387140 Si02
#       6
#     8   8   8   4   8   4
#     4   9  15  24  37  56  83 118 156 193 240 297
#     4   9  16  29  48  67  92 127 167 209 250 295
#     4   9  19  37  59  82 108 138 173 211 252 300
#     4   9  16  24  34  54  89 123 146 183 246 307
#     4  10  21  35  52  77 108 140 175 214 257 304
#     4   9  14  20  34  56  81 111 150 193 238 295
#
# _framework density 19.374056
#
# number of rings (size 3 to 8) (size 9 to 14) (size 15 to 20)
#    0.000    2.800    1.000    1.800    0.000    4.800 
#    1.800    3.000    0.000    0.000    0.000    0.000 
#    0.000    4.800    0.000    0.000    0.000    0.000 
#
# Total GULP energy -223050.942353 kJ/mol
# GULP energy per Si atom -5576.273559 kJ/mol
# Density = 1.932996 g / cm^3
# Si number density = 19.374056 Si / 1000 Ang^3
#
#
#
# Elastic Constant Matrix: (Units=GPa)
#
#
# Indices 1 2 3 4 5 6 
#
# 1 169.3371 134.2980 7.9212 0.0000 0.0000 0.0000
# 2 134.2980 202.9324 9.9779 0.0000 0.0000 0.0000
# 3 7.9212 9.9779 22.0311 0.0000 0.0000 0.0000
# 4 0.0000 0.0000 0.0000 -46.6953 0.0000 0.0000
# 5 0.0000 0.0000 0.0000 0.0000 2.6808 0.0000
# 6 0.0000 0.0000 0.0000 0.0000 0.0000 41.2773
#
#
#
# Elastic Compliance Matrix: (Units=1/GPa)
#
#
# Indices 1 2 3 4 5 6 
#
# 1 0.012441 -0.008196 -0.000761 0.000000 0.000000 0.000000
# 2 -0.008196 0.010439 -0.001781 0.000000 0.000000 0.000000
# 3 -0.000761 -0.001781 0.046471 0.000000 0.000000 0.000000
# 4 0.000000 0.000000 0.000000 -0.021415 0.000000 0.000000
# 5 0.000000 0.000000 0.000000 0.000000 0.373016 0.000000
# 6 0.000000 0.000000 0.000000 0.000000 0.000000 0.024226
#
#
# Mechanical properties :
#
#
# Convention : Reuss Voigt Hill
#
# Bulk Modulus (GPa) = 20.88796 77.63276 49.26036
# Shear Modulus (GPa) = 10.36028 15.59280 12.97654
#
# Velocity S-wave (km/s) = 2.31498 2.84003 2.59084
# Velocity P-wave (km/s) = 4.23678 7.13525 5.86780
#
# Compressibility (1/GPa) = 0.04787448
#
# Stress axis : x y z
#
# Youngs Moduli (GPa) = 80.37985 95.79267 21.51896
#
# Poissons Ratio (x) = 0.78510 0.01638
# Poissons Ratio (y) = 0.65878 0.03833
# Poissons Ratio (z) = 0.06118 0.17062
#
# Static dielectric constant tensor:
#      x y z
#    x 0.988800 0.000000 0.000000 
#    y 0.000000 1.669360 0.000000 
#    z 0.000000 0.000000 1.703610 
# 
# From -- ./inp_files/1837.got.cif
#   From: 2010.05.17/outbox.cif.g08.bks.cpg/sg47_1_cif.got.tgz:1837.got - 2010.06.03 20:15:42.
