data_PCOD9387629
_publ_section_title
;
Structure prediction by ZEFSAII (Michael W. Deem and Ramdas Pophale) SiO2 
 PCOD9387629
Probable space group: P M M M
;
_chemical_formula_sum "Si O2"
_cell_formula_units_Z 44
_cell_length_a 7.997735
_cell_length_b 29.020644
_cell_length_c 9.592307
_cell_angle_alpha 90.000000
_cell_angle_beta 90.000000
_cell_angle_gamma 90.000000
_cell_volume 2226.368893
_symmetry_space_group_name_H-M "P M M M"
_symmetry_group_IT_number 47
_symmetry_cell_setting 'orthorhombic'
loop_
_space_group_symop_operation_xyz
x,y,z
-x,-y,z
x,-y,-z
-x,y,-z
-x,-y,-z
x,y,-z
-x,y,z
x,-y,z
loop_
_atom_site_type_symbol
_atom_site_label
_atom_site_fract_x
_atom_site_fract_y
_atom_site_fract_z
Si Si1 0.797917 0.552510 0.159174
Si Si2 0.295038 0.000000 0.839901
Si Si3 0.301399 0.638464 0.341865
Si Si4 0.798491 0.189552 0.340308
Si Si5 0.298386 0.912975 0.340189
Si Si6 0.200480 0.274746 0.842253
O O1 0.744493 0.500000 0.190169
O O2 0.737244 0.590097 0.267852
O O3 0.000000 0.553097 0.159926
O O4 0.744675 0.563660 0.000000
O O5 0.239834 0.045733 0.757988
O O6 0.500000 0.000000 0.838950
O O7 0.241307 0.000000 0.000000
O O8 0.234058 0.640310 0.500000
O O9 0.500000 0.643854 0.348327
O O10 0.233852 0.679689 0.246930
O O11 0.737357 0.195503 0.500000
O O12 0.752095 0.138133 0.293423
O O13 0.734882 0.229967 0.240487
O O14 0.000000 0.192410 0.344180
O O15 0.238751 0.919085 0.500000
O O16 0.500000 0.914793 0.343040
O O17 0.000000 0.269840 0.851472
O O18 0.266324 0.278292 0.000000
#
# Coordination Sequence:
#
# PCOD9387629 Si02
#       6
#     8   4   8   8   8   8
#     4   9  19  37  60  84 109 139 177 218 259 308
#     4   9  17  29  46  69  96 126 162 203 246 294
#     4  11  24  38  53  78 111 143 176 217 262 307
#     4   9  18  33  52  74 101 132 165 204 253 306
#     4   9  17  30  49  71  95 126 164 204 245 293
#     4  10  21  37  57  79 103 135 175 216 259 311
#
# _framework density 19.763121999999999
#
# number of rings (size 3 to 8) (size 9 to 14) (size 15 to 20)
#    0.000    2.455    0.000    2.455    0.000    8.364 
#    0.000    5.000    0.000    2.727    0.000    0.000 
#    0.000    0.000    0.000    0.000    0.000    0.000 
#
# Total GULP energy -245629.794433 kJ/mol
# GULP energy per Si atom -5582.495328 kJ/mol
# Density = 1.971814 g / cm^3
# Si number density = 19.763122 Si / 1000 Ang^3
#
#
#
# Elastic Constant Matrix: (Units=GPa)
#
#
# Indices 1 2 3 4 5 6 
#
# 1 11.9890 1.8129 8.5110 0.0000 0.0000 0.0000
# 2 1.8129 167.1491 124.2135 0.0000 0.0000 0.0000
# 3 8.5110 124.2135 159.7206 0.0000 0.0000 0.0000
# 4 0.0000 0.0000 0.0000 59.4901 0.0000 0.0000
# 5 0.0000 0.0000 0.0000 0.0000 11.2795 0.0000
# 6 0.0000 0.0000 0.0000 0.0000 0.0000 30.5610
#
#
#
# Elastic Compliance Matrix: (Units=1/GPa)
#
#
# Indices 1 2 3 4 5 6 
#
# 1 0.089222 0.006078 -0.009481 0.000000 0.000000 0.000000
# 2 0.006078 0.014589 -0.011669 0.000000 0.000000 0.000000
# 3 -0.009481 -0.011669 0.015841 0.000000 0.000000 0.000000
# 4 0.000000 0.000000 0.000000 0.016810 0.000000 0.000000
# 5 0.000000 0.000000 0.000000 0.000000 0.088657 0.000000
# 6 0.000000 0.000000 0.000000 0.000000 0.000000 0.032721
#
#
# Mechanical properties :
#
#
# Convention : Reuss Voigt Hill
#
# Bulk Modulus (GPa) = 11.17237 67.54817 39.36027
# Shear Modulus (GPa) = 15.73221 33.88753 24.80987
#
# Velocity S-wave (km/s) = 2.82448 4.14537 3.54695
# Velocity P-wave (km/s) = 4.03761 7.56077 6.06084
#
# Compressibility (1/GPa) = 0.08950653
#
# Stress axis : x y z
#
# Youngs Moduli (GPa) = 11.20805 68.54690 63.12625
#
# Poissons Ratio (x) = -0.41663 0.59851
# Poissons Ratio (y) = -0.06812 0.73664
# Poissons Ratio (z) = 0.10626 0.79989
#
# Static dielectric constant tensor:
#      x y z
#    x 1.711520 0.000000 0.000000 
#    y 0.000000 1.662940 0.000000 
#    z 0.000000 0.000000 1.693770 
# 
# From -- ./inp_files/2064.got.cif
#   From: 2010.05.17/outbox.cif.g08.bks.cpg/sg47_2_cif.got.tgz:2064.got - 2010.06.03 20:15:42.
