data_PCOD9387051
_publ_section_title
;
Structure prediction by ZEFSAII (Michael W. Deem and Ramdas Pophale) SiO2 
 PCOD9387051
Probable space group: P M M M
;
_chemical_formula_sum "Si O2"
_cell_formula_units_Z 52
_cell_length_a 22.622556
_cell_length_b 14.464170
_cell_length_c 9.287390
_cell_angle_alpha 90.000000
_cell_angle_beta 90.000000
_cell_angle_gamma 90.000000
_cell_volume 3038.987211
_symmetry_space_group_name_H-M "P M M M"
_symmetry_group_IT_number 47
_symmetry_cell_setting 'orthorhombic'
loop_
_space_group_symop_operation_xyz
x,y,z
-x,-y,z
x,-y,-z
-x,y,-z
-x,-y,-z
x,y,-z
-x,y,z
x,-y,z
loop_
_atom_site_type_symbol
_atom_site_label
_atom_site_fract_x
_atom_site_fract_y
_atom_site_fract_z
Si Si1 0.391314 0.892312 0.171158
Si Si2 0.668246 0.610895 0.832108
Si Si3 0.156427 0.770664 0.662452
Si Si4 0.070330 0.891175 0.500000
Si Si5 0.803589 0.605682 0.173049
Si Si6 0.730304 0.891063 0.667711
Si Si7 0.565497 0.280861 0.671153
O O1 0.324860 0.873992 0.228617
O O2 0.430773 0.819851 0.256360
O O3 0.404911 0.000000 0.202006
O O4 0.395194 0.878510 0.000000
O O5 0.661520 0.500000 0.825899
O O6 0.735752 0.630343 0.784260
O O7 0.618257 0.659898 0.739412
O O8 0.662441 0.639023 0.000000
O O9 0.169534 0.735544 0.500000
O O10 0.100618 0.837972 0.635075
O O11 0.153044 0.682379 0.763536
O O12 0.212070 0.833091 0.707237
O O13 0.000000 0.882640 0.500000
O O14 0.086203 0.000000 0.500000
O O15 0.815594 0.500000 0.219233
O O16 0.804718 0.606898 0.000000
O O17 0.714425 0.870677 0.500000
O O18 0.744317 0.000000 0.674344
O O19 0.573108 0.273570 0.500000
O O20 0.500000 0.320663 0.699924
#
# Coordination Sequence:
#
# PCOD9387051 Si02
#       7
#     8   8   8   4   8   8   8
#     4  10  21  35  51  72  97 127 164 209 265 323
#     4   9  19  36  57  79 103 132 165 205 258 316
#     4   9  18  28  49  80 104 137 180 215 248 297
#     4   9  18  34  55  79 111 149 183 216 254 292
#     4   9  18  33  52  77 110 140 167 210 268 320
#     4   9  16  28  47  72 103 130 157 202 259 318
#     4  11  24  38  51  69  95 129 171 215 259 310
#
# _framework density 17.110963999999999
#
# number of rings (size 3 to 8) (size 9 to 14) (size 15 to 20)
#    0.462    2.077    0.000    3.231    0.000    7.077 
#    0.000    4.615    0.000    2.769    0.000    2.154 
#    0.000    0.000    0.000    0.000    0.000    0.000 
#
# Total GULP energy -289765.301421 kJ/mol
# GULP energy per Si atom -5572.409643 kJ/mol
# Density = 1.707202 g / cm^3
# Si number density = 17.110964 Si / 1000 Ang^3
#
#
#
# Elastic Constant Matrix: (Units=GPa)
#
#
# Indices 1 2 3 4 5 6 
#
# 1 62.6098 55.5981 23.3158 0.0000 0.0000 0.0000
# 2 55.5981 79.9005 31.2763 0.0000 0.0000 0.0000
# 3 23.3158 31.2763 38.9973 0.0000 0.0000 0.0000
# 4 0.0000 0.0000 0.0000 29.5654 0.0000 0.0000
# 5 0.0000 0.0000 0.0000 0.0000 4.9503 0.0000
# 6 0.0000 0.0000 0.0000 0.0000 0.0000 18.6549
#
#
#
# Elastic Compliance Matrix: (Units=1/GPa)
#
#
# Indices 1 2 3 4 5 6 
#
# 1 0.041960 -0.028244 -0.002435 0.000000 0.000000 0.000000
# 2 -0.028244 0.037255 -0.012992 0.000000 0.000000 0.000000
# 3 -0.002435 -0.012992 0.037518 0.000000 0.000000 0.000000
# 4 0.000000 0.000000 0.000000 0.033823 0.000000 0.000000
# 5 0.000000 0.000000 0.000000 0.000000 0.202009 0.000000
# 6 0.000000 0.000000 0.000000 0.000000 0.000000 0.053605
#
#
# Mechanical properties :
#
#
# Convention : Reuss Voigt Hill
#
# Bulk Modulus (GPa) = 34.02439 44.65422 39.33930
# Shear Modulus (GPa) = 9.93424 15.38861 12.66143
#
# Velocity S-wave (km/s) = 2.41213 3.00216 2.72317
# Velocity P-wave (km/s) = 5.26171 6.17825 5.73831
#
# Compressibility (1/GPa) = 0.02939069
#
# Stress axis : x y z
#
# Youngs Moduli (GPa) = 23.83223 26.84219 26.65381
#
# Poissons Ratio (x) = 0.75814 0.06489
# Poissons Ratio (y) = 0.67313 0.34628
# Poissons Ratio (z) = 0.05803 0.34873
#
# Static dielectric constant tensor:
#      x y z
#    x 1.570000 0.000000 0.000000 
#    y 0.000000 1.602420 0.000000 
#    z 0.000000 0.000000 1.571250 
# 
# From -- ./inp_files/12470.got.cif
#   From: 2010.05.17/outbox.cif.g08.bks.cpg/sg47_7_cif.got.tgz:12470.got - 2010.06.03 20:15:42.
