data_PCOD9387452
_publ_section_title
;
Structure prediction by ZEFSAII (Michael W. Deem and Ramdas Pophale) SiO2 
 PCOD9387452
Probable space group: P M M M
;
_chemical_formula_sum "Si O2"
_cell_formula_units_Z 64
_cell_length_a 24.646121
_cell_length_b 14.280902
_cell_length_c 9.555777
_cell_angle_alpha 90.000000
_cell_angle_beta 90.000000
_cell_angle_gamma 90.000000
_cell_volume 3363.335733
_symmetry_space_group_name_H-M "P M M M"
_symmetry_group_IT_number 47
_symmetry_cell_setting 'orthorhombic'
loop_
_space_group_symop_operation_xyz
x,y,z
-x,-y,z
x,-y,-z
-x,y,-z
-x,-y,-z
x,y,-z
-x,y,z
x,-y,z
loop_
_atom_site_type_symbol
_atom_site_label
_atom_site_fract_x
_atom_site_fract_y
_atom_site_fract_z
Si Si1 0.438693 0.886540 0.337585
Si Si2 0.065885 0.894096 0.839684
Si Si3 0.756700 0.745459 0.160295
Si Si4 0.669321 0.111659 0.166715
Si Si5 0.849960 0.607605 0.830719
Si Si6 0.656145 0.607520 0.157280
Si Si7 0.065201 0.286967 0.663859
Si Si8 0.441751 0.613475 0.337366
O O1 0.431473 0.857952 0.500000
O O2 0.500000 0.857461 0.293258
O O3 0.386544 0.860598 0.244571
O O4 0.439364 0.000000 0.335789
O O5 0.081793 0.812476 0.733842
O O6 0.000000 0.895956 0.840187
O O7 0.083976 0.000000 0.804303
O O8 0.082956 0.873134 0.000000
O O9 0.723231 0.833906 0.219929
O O10 0.808056 0.688795 0.218826
O O11 0.710224 0.666541 0.158003
O O12 0.771397 0.771233 0.000000
O O13 0.676080 0.000000 0.181630
O O14 0.663918 0.133014 0.000000
O O15 0.832845 0.500000 0.800835
O O16 0.905497 0.632698 0.752788
O O17 0.854762 0.614382 0.000000
O O18 0.668451 0.500000 0.194516
O O19 0.610611 0.647283 0.257993
O O20 0.633712 0.608033 0.000000
O O21 0.079493 0.290613 0.500000
O O22 0.000000 0.294274 0.675133
O O23 0.439545 0.637321 0.500000
O O24 0.500000 0.643520 0.279597
O O25 0.440662 0.500000 0.328204
#
# Coordination Sequence:
#
# PCOD9387452 Si02
#       8
#     8   8   8   8   8   8   8   8
#     4   8  14  26  45  69  98 132 168 207 253 303
#     4   8  14  27  50  80 113 149 188 225 255 289
#     4   9  18  34  53  73  98 125 159 207 258 306
#     4   9  17  30  50  74  99 130 167 207 255 312
#     4  10  21  38  60  81 102 135 179 225 273 328
#     4   9  16  27  46  68  87 113 152 195 238 285
#     4  10  21  36  55  82 117 152 181 216 269 329
#     4   8  14  25  40  59  87 121 152 186 233 285
#
# _framework density 19.028728000000001
#
# number of rings (size 3 to 8) (size 9 to 14) (size 15 to 20)
#    0.000    3.125    0.000    1.875    0.000    3.500 
#    0.000    8.125    0.000    7.500    0.000    0.000 
#    0.000    0.000    0.000    0.000    0.000    0.000 
#
# Total GULP energy -356336.444205 kJ/mol
# GULP energy per Si atom -5567.756941 kJ/mol
# Density = 1.898542 g / cm^3
# Si number density = 19.028728 Si / 1000 Ang^3
#
#
#
# Elastic Constant Matrix: (Units=GPa)
#
#
# Indices 1 2 3 4 5 6 
#
# 1 62.2725 30.5697 31.0965 0.0000 0.0000 0.0000
# 2 30.5697 100.5261 23.4121 0.0000 0.0000 0.0000
# 3 31.0965 23.4121 37.6671 0.0000 0.0000 0.0000
# 4 0.0000 0.0000 0.0000 5.1523 0.0000 0.0000
# 5 0.0000 0.0000 0.0000 0.0000 17.9781 0.0000
# 6 0.0000 0.0000 0.0000 0.0000 0.0000 41.9225
#
#
#
# Elastic Compliance Matrix: (Units=1/GPa)
#
#
# Indices 1 2 3 4 5 6 
#
# 1 0.028465 -0.003722 -0.021187 0.000000 0.000000 0.000000
# 2 -0.003722 0.012118 -0.004459 0.000000 0.000000 0.000000
# 3 -0.021187 -0.004459 0.046811 0.000000 0.000000 0.000000
# 4 0.000000 0.000000 0.000000 0.194087 0.000000 0.000000
# 5 0.000000 0.000000 0.000000 0.000000 0.055623 0.000000
# 6 0.000000 0.000000 0.000000 0.000000 0.000000 0.023854
#
#
# Mechanical properties :
#
#
# Convention : Reuss Voigt Hill
#
# Bulk Modulus (GPa) = 34.89344 41.18026 38.03685
# Shear Modulus (GPa) = 11.64830 20.70307 16.17569
#
# Velocity S-wave (km/s) = 2.47684 3.30205 2.91875
# Velocity P-wave (km/s) = 5.15332 6.01881 5.60280
#
# Compressibility (1/GPa) = 0.02865868
#
# Stress axis : x y z
#
# Youngs Moduli (GPa) = 35.13043 82.52152 21.36256
#
# Poissons Ratio (x) = 0.30714 0.45260
# Poissons Ratio (y) = 0.13075 0.09526
# Poissons Ratio (z) = 0.74429 0.36799
#
# Static dielectric constant tensor:
#      x y z
#    x 1.680710 0.000000 0.000000 
#    y 0.000000 1.726130 0.000000 
#    z 0.000000 0.000000 1.641930 
# 
# From -- ./inp_files/12703.got.cif
#   From: 2010.05.17/outbox.cif.g08.bks.cpg/sg47_7_cif.got.tgz:12703.got - 2010.06.03 20:15:42.
