data_PCOD9387669
_publ_section_title
;
Structure prediction by ZEFSAII (Michael W. Deem and Ramdas Pophale) SiO2 
 PCOD9387669
Probable space group: P M M M
;
_chemical_formula_sum "Si O2"
_cell_formula_units_Z 44
_cell_length_a 9.474146
_cell_length_b 29.491158
_cell_length_c 8.887727
_cell_angle_alpha 90.000000
_cell_angle_beta 90.000000
_cell_angle_gamma 90.000000
_cell_volume 2483.262356
_symmetry_space_group_name_H-M "P M M M"
_symmetry_group_IT_number 47
_symmetry_cell_setting 'orthorhombic'
loop_
_space_group_symop_operation_xyz
x,y,z
-x,-y,z
x,-y,-z
-x,y,-z
-x,-y,-z
x,y,-z
-x,y,z
x,-y,z
loop_
_atom_site_type_symbol
_atom_site_label
_atom_site_fract_x
_atom_site_fract_y
_atom_site_fract_z
Si Si1 0.834048 0.320041 0.180357
Si Si2 0.334792 0.500000 0.819871
Si Si3 0.835623 0.856768 0.818786
Si Si4 0.662352 0.768739 0.183672
Si Si5 0.166072 0.416748 0.320351
Si Si6 0.829174 0.049562 0.322349
O O1 0.742521 0.277034 0.229921
O O2 0.794637 0.366979 0.259854
O O3 0.000000 0.311176 0.209506
O O4 0.817717 0.325549 0.000000
O O5 0.500000 0.500000 0.779600
O O6 0.258397 0.544245 0.754319
O O7 0.322658 0.500000 0.000000
O O8 0.745121 0.813772 0.767012
O O9 0.780193 0.904986 0.759147
O O10 0.000000 0.851336 0.772592
O O11 0.833220 0.857796 0.000000
O O12 0.500000 0.769027 0.231785
O O13 0.664570 0.769028 0.000000
O O14 0.180364 0.418500 0.500000
O O15 0.000000 0.423839 0.283168
O O16 0.798991 0.052603 0.500000
O O17 0.000000 0.049172 0.306115
O O18 0.778549 0.000000 0.267582
#
# Coordination Sequence:
#
# PCOD9387669 Si02
#       6
#     8   4   8   8   8   8
#     4   9  17  31  52  75  98 127 164 203 241 284
#     4  11  24  39  56  80 108 139 176 213 248 292
#     4   9  16  26  43  67  91 115 148 191 234 275
#     4   9  17  29  46  68  94 124 157 194 236 282
#     4  10  21  37  57  81 108 137 169 207 253 301
#     4   8  14  25  41  62  88 116 146 183 229 278
#
# _framework density 17.718626
#
# number of rings (size 3 to 8) (size 9 to 14) (size 15 to 20)
#    0.000    2.818    0.000    2.182    0.000    6.182 
#    0.000    4.545    0.000    6.545    0.000    3.818 
#    0.000    0.000    0.000    0.000    0.000    0.000 
#
# Total GULP energy -245288.187010 kJ/mol
# GULP energy per Si atom -5574.731523 kJ/mol
# Density = 1.767830 g / cm^3
# Si number density = 17.718626 Si / 1000 Ang^3
#
#
#
# Elastic Constant Matrix: (Units=GPa)
#
#
# Indices 1 2 3 4 5 6 
#
# 1 82.7948 105.6455 32.6001 0.0000 0.0000 0.0000
# 2 105.6455 218.3036 49.7835 0.0000 0.0000 0.0000
# 3 32.6001 49.7835 17.1590 0.0000 0.0000 0.0000
# 4 0.0000 0.0000 0.0000 -74.4313 0.0000 0.0000
# 5 0.0000 0.0000 0.0000 0.0000 12.5033 0.0000
# 6 0.0000 0.0000 0.0000 0.0000 0.0000 -4.9608
#
#
#
# Elastic Compliance Matrix: (Units=1/GPa)
#
#
# Indices 1 2 3 4 5 6 
#
# 1 0.052079 -0.007800 -0.076316 0.000000 0.000000 0.000000
# 2 -0.007800 0.014706 -0.027849 0.000000 0.000000 0.000000
# 3 -0.076316 -0.027849 0.284069 0.000000 0.000000 0.000000
# 4 0.000000 0.000000 0.000000 -0.013435 0.000000 0.000000
# 5 0.000000 0.000000 0.000000 0.000000 0.079979 0.000000
# 6 0.000000 0.000000 0.000000 0.000000 0.000000 -0.201579
#
#
# Mechanical properties :
#
#
# Convention : Reuss Voigt Hill
#
# Bulk Modulus (GPa) = 7.87863 77.14619 42.51241
# Shear Modulus (GPa) = 10.37221 -4.69588 2.83816
#
# Velocity S-wave (km/s) = 2.42210 -1.62973 1.26699
# Velocity P-wave (km/s) = 3.50403 6.33189 5.11718
#
# Compressibility (1/GPa) = 0.12692557
#
# Stress axis : x y z
#
# Youngs Moduli (GPa) = 19.20146 67.99899 3.52027
#
# Poissons Ratio (x) = 0.53036 0.26865
# Poissons Ratio (y) = 0.14976 0.09804
# Poissons Ratio (z) = 1.46538 1.89369
#
# Static dielectric constant tensor:
#      x y z
#    x 1.591100 0.000000 0.000000 
#    y 0.000000 1.600320 0.000000 
#    z 0.000000 0.000000 1.591790 
# 
# From -- ./inp_files/1996.got.cif
#   From: 2010.05.17/outbox.cif.g08.bks.cpg/sg47_1_cif.got.tgz:1996.got - 2010.06.03 20:15:42.
