data_PCOD9387811
_publ_section_title
;
Structure prediction by ZEFSAII (Michael W. Deem and Ramdas Pophale) SiO2 
 PCOD9387811
Probable space group: P M M M
;
_chemical_formula_sum "Si O2"
_cell_formula_units_Z 56
_cell_length_a 8.413077
_cell_length_b 15.107191
_cell_length_c 23.793676
_cell_angle_alpha 90.000000
_cell_angle_beta 90.000000
_cell_angle_gamma 90.000000
_cell_volume 3024.127708
_symmetry_space_group_name_H-M "P M M M"
_symmetry_group_IT_number 47
_symmetry_cell_setting 'orthorhombic'
loop_
_space_group_symop_operation_xyz
x,y,z
-x,-y,z
x,-y,-z
-x,y,-z
-x,-y,-z
x,y,-z
-x,y,z
x,-y,z
loop_
_atom_site_type_symbol
_atom_site_label
_atom_site_fract_x
_atom_site_fract_y
_atom_site_fract_z
Si Si1 0.686234 0.351163 0.857899
Si Si2 0.808877 0.899794 0.726174
Si Si3 0.308642 0.000000 0.065906
Si Si4 0.306262 0.400244 0.565559
Si Si5 0.808528 0.844606 0.853182
Si Si6 0.815974 0.601472 0.738983
Si Si7 0.316159 0.261529 0.656021
Si Si8 0.183991 0.500000 0.066491
O O1 0.500000 0.358121 0.845319
O O2 0.734961 0.250164 0.867085
O O3 0.784448 0.386498 0.804628
O O4 0.730748 0.413703 0.909286
O O5 0.757734 0.871330 0.789406
O O6 0.759325 0.828531 0.679387
O O7 0.000000 0.901151 0.727556
O O8 0.752215 0.000000 0.715078
O O9 0.245449 0.916060 0.101015
O O10 0.500000 0.000000 0.067324
O O11 0.259596 0.000000 0.000000
O O12 0.265394 0.389234 0.500000
O O13 0.500000 0.400494 0.569481
O O14 0.254038 0.500000 0.583058
O O15 0.248166 0.318585 0.603600
O O16 0.000000 0.839196 0.853064
O O17 0.785938 0.500000 0.723299
O O18 0.703643 0.668458 0.706490
O O19 0.000000 0.623531 0.726478
O O20 0.500000 0.243089 0.644281
O O21 0.000000 0.500000 0.085243
O O22 0.187969 0.500000 0.000000
#
# Coordination Sequence:
#
# PCOD9387811 Si02
#       8
#     8   8   4   8   8   8   8   4
#     4  12  24  38  60  87 114 146 186 237 288 336
#     4  10  21  38  58  80 110 149 189 232 286 350
#     4  11  25  43  63  89 119 147 184 241 298 347
#     4   8  15  30  52  80 118 161 198 235 282 338
#     4  11  22  40  64  86 113 150 191 233 287 356
#     4  11  22  35  53  78 115 155 188 225 277 343
#     4  11  21  32  54  88 118 146 190 242 292 344
#     4  11  25  45  65  83 109 151 196 233 280 347
#
# _framework density 18.517735999999999
#
# number of rings (size 3 to 8) (size 9 to 14) (size 15 to 20)
#    0.000    1.429    2.857    3.857    0.000    4.000 
#    0.000    0.000    0.000    2.143    0.000    8.000 
#    0.000    0.000    0.000    0.000    0.000    0.000 
#
# Total GULP energy -312694.920206 kJ/mol
# GULP energy per Si atom -5583.837861 kJ/mol
# Density = 1.847559 g / cm^3
# Si number density = 18.517736 Si / 1000 Ang^3
#
#
#
# Elastic Constant Matrix: (Units=GPa)
#
#
# Indices 1 2 3 4 5 6 
#
# 1 26.3296 25.9429 5.9700 0.0000 0.0000 0.0000
# 2 25.9429 157.9632 65.3555 0.0000 0.0000 0.0000
# 3 5.9700 65.3555 99.4759 0.0000 0.0000 0.0000
# 4 0.0000 0.0000 0.0000 9.5659 0.0000 0.0000
# 5 0.0000 0.0000 0.0000 0.0000 8.2182 0.0000
# 6 0.0000 0.0000 0.0000 0.0000 0.0000 13.9907
#
#
#
# Elastic Compliance Matrix: (Units=1/GPa)
#
#
# Indices 1 2 3 4 5 6 
#
# 1 0.045965 -0.008800 0.003023 0.000000 0.000000 0.000000
# 2 -0.008800 0.010378 -0.006290 0.000000 0.000000 0.000000
# 3 0.003023 -0.006290 0.014004 0.000000 0.000000 0.000000
# 4 0.000000 0.000000 0.000000 0.104538 0.000000 0.000000
# 5 0.000000 0.000000 0.000000 0.000000 0.121681 0.000000
# 6 0.000000 0.000000 0.000000 0.000000 0.000000 0.071476
#
#
# Mechanical properties :
#
#
# Convention : Reuss Voigt Hill
#
# Bulk Modulus (GPa) = 21.63897 53.14504 37.39201
# Shear Modulus (GPa) = 12.26748 18.78833 15.52790
#
# Velocity S-wave (km/s) = 2.57665 3.18875 2.89890
# Velocity P-wave (km/s) = 4.53465 6.50533 5.60725
#
# Compressibility (1/GPa) = 0.04621292
#
# Stress axis : x y z
#
# Youngs Moduli (GPa) = 21.75563 96.35389 71.40763
#
# Poissons Ratio (x) = 0.84788 -0.21585
# Poissons Ratio (y) = 0.19144 0.44919
# Poissons Ratio (z) = -0.06576 0.60611
#
# Static dielectric constant tensor:
#      x y z
#    x 1.642200 0.000000 0.000000 
#    y 0.000000 1.655950 0.000000 
#    z 0.000000 0.000000 1.635740 
# 
# From -- ./inp_files/29759.got.cif
#   From: 2010.05.17/outbox.cif.g08.bks.cpg/sg47_15_cif.got.tgz:29759.got - 2010.06.03 20:15:42.
