data_PCOD9387839
_publ_section_title
;
Structure prediction by ZEFSAII (Michael W. Deem and Ramdas Pophale) SiO2 
 PCOD9387839
Probable space group: P M M M
;
_chemical_formula_sum "Si O2"
_cell_formula_units_Z 33
_cell_length_a 7.901046
_cell_length_b 20.784112
_cell_length_c 10.111100
_cell_angle_alpha 90.000000
_cell_angle_beta 90.000000
_cell_angle_gamma 90.000000
_cell_volume 1660.406672
_symmetry_space_group_name_H-M "P M M M"
_symmetry_group_IT_number 47
_symmetry_cell_setting 'orthorhombic'
loop_
_space_group_symop_operation_xyz
x,y,z
-x,-y,z
x,-y,-z
-x,y,-z
-x,-y,-z
x,y,-z
-x,y,z
x,-y,z
loop_
_atom_site_type_symbol
_atom_site_label
_atom_site_fract_x
_atom_site_fract_y
_atom_site_fract_z
Si Si1 0.500000 0.500000 0.000000
Si Si2 0.703871 0.741993 0.149328
Si Si3 0.798783 0.888467 0.149376
Si Si4 0.299816 0.000000 0.350153
Si Si5 0.192049 0.500000 0.215743
Si Si6 0.705571 0.368927 0.348342
O O1 0.348234 0.500000 0.886680
O O2 0.500000 0.738559 0.146698
O O3 0.750823 0.815161 0.182486
O O4 0.762749 0.688582 0.252177
O O5 0.765888 0.728608 0.000000
O O6 0.000000 0.892546 0.140846
O O7 0.745290 0.938131 0.261625
O O8 0.730573 0.902744 0.000000
O O9 0.500000 0.000000 0.363584
O O10 0.226626 0.000000 0.500000
O O11 0.216020 0.564093 0.302450
O O12 0.000000 0.500000 0.160631
O O13 0.746633 0.354681 0.500000
O O14 0.500000 0.374259 0.337821
#
# Coordination Sequence:
#
# PCOD9387839 Si02
#       6
#     1   8   8   4   4   8
#     4  12  26  48  66  94 136 160 208 274 324 378
#     4   9  19  35  59  86 120 164 209 250 300 359
#     4  10  21  38  59  86 119 155 194 244 302 358
#     4  11  24  39  58  84 114 149 196 247 296 362
#     4  12  26  42  68  97 126 169 215 262 323 383
#     4  10  21  39  63  90 128 173 209 256 315 371
#
# _framework density 19.874648000000001
#
# number of rings (size 3 to 8) (size 9 to 14) (size 15 to 20)
#    0.000    1.818    1.212    2.000    1.697    7.758 
#    0.000    2.424    0.000    0.000    0.000    0.000 
#    0.000    0.000    0.000    0.000    0.000    0.000 
#
# Total GULP energy -184000.420641 kJ/mol
# GULP energy per Si atom -5575.770322 kJ/mol
# Density = 1.982941 g / cm^3
# Si number density = 19.874648 Si / 1000 Ang^3
#
#
#
# Elastic Constant Matrix: (Units=GPa)
#
#
# Indices 1 2 3 4 5 6 
#
# 1 67.6549 28.2013 38.5525 0.0000 0.0000 0.0000
# 2 28.2013 175.6741 144.9872 0.0000 0.0000 0.0000
# 3 38.5525 144.9872 177.7590 0.0000 0.0000 0.0000
# 4 0.0000 0.0000 0.0000 -22.5879 0.0000 0.0000
# 5 0.0000 0.0000 0.0000 0.0000 9.9933 0.0000
# 6 0.0000 0.0000 0.0000 0.0000 0.0000 94.4537
#
#
#
# Elastic Compliance Matrix: (Units=1/GPa)
#
#
# Indices 1 2 3 4 5 6 
#
# 1 0.016918 0.000956 -0.004449 0.000000 0.000000 0.000000
# 2 0.000956 0.017470 -0.014457 0.000000 0.000000 0.000000
# 3 -0.004449 -0.014457 0.018382 0.000000 0.000000 0.000000
# 4 0.000000 0.000000 0.000000 -0.044271 0.000000 0.000000
# 5 0.000000 0.000000 0.000000 0.000000 0.100067 0.000000
# 6 0.000000 0.000000 0.000000 0.000000 0.000000 0.010587
#
#
# Mechanical properties :
#
#
# Convention : Reuss Voigt Hill
#
# Bulk Modulus (GPa) = 59.27518 93.84109 76.55813
# Shear Modulus (GPa) = 31.11856 30.32828 30.72342
#
# Velocity S-wave (km/s) = 3.96124 3.91061 3.93601
# Velocity P-wave (km/s) = 7.12819 8.22858 7.69807
#
# Compressibility (1/GPa) = 0.01687047
#
# Stress axis : x y z
#
# Youngs Moduli (GPa) = 59.11034 57.23943 54.40101
#
# Poissons Ratio (x) = -0.05471 0.24201
# Poissons Ratio (y) = -0.05649 0.78647
# Poissons Ratio (z) = 0.26296 0.82750
#
# Static dielectric constant tensor:
#      x y z
#    x 1.702860 0.000000 0.000000 
#    y 0.000000 1.615910 0.000000 
#    z 0.000000 0.000000 1.735010 
# 
# From -- ./inp_files/1170.got.cif
#   From: 2010.05.17/outbox.cif.g08.bks.cpg/sg47_1_cif.got.tgz:1170.got - 2010.06.03 20:15:42.
