data_PCOD9387903
_publ_section_title
;
Structure prediction by ZEFSAII (Michael W. Deem and Ramdas Pophale) SiO2 
 PCOD9387903
Probable space group: P M M M
;
_chemical_formula_sum "Si O2"
_cell_formula_units_Z 40
_cell_length_a 8.817947
_cell_length_b 22.009611
_cell_length_c 10.917019
_cell_angle_alpha 90.000000
_cell_angle_beta 90.000000
_cell_angle_gamma 90.000000
_cell_volume 2118.770498
_symmetry_space_group_name_H-M "P M M M"
_symmetry_group_IT_number 47
_symmetry_cell_setting 'orthorhombic'
loop_
_space_group_symop_operation_xyz
x,y,z
-x,-y,z
x,-y,-z
-x,y,-z
-x,-y,-z
x,y,-z
-x,y,z
x,-y,z
loop_
_atom_site_type_symbol
_atom_site_label
_atom_site_fract_x
_atom_site_fract_y
_atom_site_fract_z
Si Si1 0.681924 0.213442 0.141208
Si Si2 0.821768 0.343774 0.199316
Si Si3 0.672238 0.000000 0.647376
Si Si4 0.677379 0.572000 0.000000
Si Si5 0.672805 0.567495 0.645311
Si Si6 0.817931 0.870560 0.355935
O O1 0.500000 0.209895 0.147655
O O2 0.736344 0.282271 0.164763
O O3 0.751465 0.173779 0.251945
O O4 0.726526 0.196559 0.000000
O O5 0.774278 0.374013 0.326649
O O6 0.000000 0.333991 0.187508
O O7 0.761473 0.397331 0.112885
O O8 0.759581 0.061878 0.677406
O O9 0.500000 0.000000 0.696412
O O10 0.662566 0.000000 0.500000
O O11 0.689059 0.500000 0.000000
O O12 0.500000 0.588687 0.000000
O O13 0.662158 0.563567 0.500000
O O14 0.500000 0.575854 0.693864
O O15 0.726017 0.500000 0.687649
O O16 0.772939 0.857941 0.500000
O O17 0.000000 0.868297 0.352514
#
# Coordination Sequence:
#
# PCOD9387903 Si02
#       6
#     8   8   4   4   8   8
#     4  11  24  42  63  85 117 162 208 252 303 363
#     4  12  24  37  57  83 112 146 186 236 295 352
#     4   9  17  33  60  93 128 165 206 250 296 351
#     4  11  23  39  59  81 107 142 187 236 285 345
#     4   9  19  37  59  81 108 145 187 232 287 352
#     4  10  21  38  63  95 129 163 202 251 306 360
#
# _framework density 18.878872999999999
#
# number of rings (size 3 to 8) (size 9 to 14) (size 15 to 20)
#    0.000    1.600    1.000    4.800    0.000    8.400 
#    0.000    1.500    0.000    3.000    0.000    0.000 
#    0.000    0.000    0.000    0.000    0.000    0.000 
#
# Total GULP energy -223066.744030 kJ/mol
# GULP energy per Si atom -5576.668601 kJ/mol
# Density = 1.883590 g / cm^3
# Si number density = 18.878873 Si / 1000 Ang^3
#
#
#
# Elastic Constant Matrix: (Units=GPa)
#
#
# Indices 1 2 3 4 5 6 
#
# 1 82.8218 41.8596 42.6338 0.0000 0.0000 0.0000
# 2 41.8596 99.4457 57.0512 0.0000 0.0000 0.0000
# 3 42.6338 57.0512 103.4759 0.0000 0.0000 0.0000
# 4 0.0000 0.0000 0.0000 -0.9868 0.0000 0.0000
# 5 0.0000 0.0000 0.0000 0.0000 -8.3822 0.0000
# 6 0.0000 0.0000 0.0000 0.0000 0.0000 54.3189
#
#
#
# Elastic Compliance Matrix: (Units=1/GPa)
#
#
# Indices 1 2 3 4 5 6 
#
# 1 0.016583 -0.004477 -0.004364 0.000000 0.000000 0.000000
# 2 -0.004477 0.015916 -0.006931 0.000000 0.000000 0.000000
# 3 -0.004364 -0.006931 0.015284 0.000000 0.000000 0.000000
# 4 0.000000 0.000000 0.000000 -1.013356 0.000000 0.000000
# 5 0.000000 0.000000 0.000000 0.000000 -0.119301 0.000000
# 6 0.000000 0.000000 0.000000 0.000000 0.000000 0.018410
#
#
# Mechanical properties :
#
#
# Convention : Reuss Voigt Hill
#
# Bulk Modulus (GPa) = 61.57904 63.20364 62.39134
# Shear Modulus (GPa) = -4.85670 18.60323 6.87327
#
# Velocity S-wave (km/s) = -1.60566 3.14251 1.91014
# Velocity P-wave (km/s) = 5.40844 6.83508 6.16318
#
# Compressibility (1/GPa) = 0.01623929
#
# Stress axis : x y z
#
# Youngs Moduli (GPa) = 60.30155 62.82856 65.42905
#
# Poissons Ratio (x) = 0.28125 0.28556
# Poissons Ratio (y) = 0.26994 0.45349
# Poissons Ratio (z) = 0.26318 0.43547
#
# Static dielectric constant tensor:
#      x y z
#    x 1.649730 0.000000 0.000000 
#    y 0.000000 1.628190 0.000000 
#    z 0.000000 0.000000 3.207660 
# 
# From -- ./inp_files/15138.got.cif
#   From: 2010.05.17/outbox.cif.g08.bks.cpg/sg47_8_cif.got.tgz:15138.got - 2010.06.03 20:15:42.
