data_PCOD9387243
_publ_section_title
;
Structure prediction by ZEFSAII (Michael W. Deem and Ramdas Pophale) SiO2 
 PCOD9387243
Probable space group: P M M M
;
_chemical_formula_sum "Si O2"
_cell_formula_units_Z 64
_cell_length_a 28.324419
_cell_length_b 9.122761
_cell_length_c 14.686037
_cell_angle_alpha 90.000000
_cell_angle_beta 90.000000
_cell_angle_gamma 90.000000
_cell_volume 3794.826508
_symmetry_space_group_name_H-M "P M M M"
_symmetry_group_IT_number 47
_symmetry_cell_setting 'orthorhombic'
loop_
_space_group_symop_operation_xyz
x,y,z
-x,-y,z
x,-y,-z
-x,y,-z
-x,-y,-z
x,y,-z
-x,y,z
x,-y,z
loop_
_atom_site_type_symbol
_atom_site_label
_atom_site_fract_x
_atom_site_fract_y
_atom_site_fract_z
Si Si1 0.825692 0.325749 0.106647
Si Si2 0.133296 0.174137 0.274393
Si Si3 0.365465 0.824916 0.224544
Si Si4 0.272981 0.172124 0.107506
Si Si5 0.056069 0.326454 0.394562
Si Si6 0.213437 0.326961 0.608192
Si Si7 0.323563 0.324450 0.394320
Si Si8 0.444757 0.324193 0.105220
O O1 0.827981 0.500000 0.119476
O O2 0.860723 0.244811 0.174950
O O3 0.772915 0.268231 0.128338
O O4 0.834339 0.292767 0.000000
O O5 0.087306 0.233649 0.326124
O O6 0.177816 0.231761 0.333259
O O7 0.133473 0.000000 0.269226
O O8 0.318626 0.787434 0.165715
O O9 0.356541 0.758713 0.323941
O O10 0.410214 0.756573 0.173859
O O11 0.369382 0.000000 0.227767
O O12 0.261923 0.000000 0.123966
O O13 0.283552 0.188425 0.000000
O O14 0.067593 0.290486 0.500000
O O15 0.065957 0.500000 0.382317
O O16 0.000000 0.304893 0.382437
O O17 0.204764 0.308631 0.500000
O O18 0.206668 0.500000 0.629003
O O19 0.268350 0.289776 0.624889
O O20 0.332671 0.288182 0.500000
O O21 0.328599 0.500000 0.384123
O O22 0.500000 0.290565 0.121053
O O23 0.439152 0.500000 0.113375
O O24 0.433731 0.284608 0.000000
#
# Coordination Sequence:
#
# PCOD9387243 Si02
#       8
#     8   8   8   8   8   8   8   8
#     4  10  21  36  53  72  96 132 178 220 253 289
#     4  12  23  32  49  77 107 138 168 203 253 307
#     4  11  21  31  49  77 105 134 166 202 251 306
#     4   9  18  32  48  71 106 139 165 199 247 302
#     4   9  19  37  59  80 103 133 168 206 248 294
#     4   9  18  33  52  74 102 136 174 213 248 288
#     4   9  19  35  52  70  96 134 177 216 251 288
#     4   9  19  36  56  77 101 130 165 204 245 292
#
# _framework density 16.865065999999999
#
# number of rings (size 3 to 8) (size 9 to 14) (size 15 to 20)
#    0.000    2.250    0.000    4.875    0.000    7.750 
#    0.000    3.750    0.000    0.750    0.000    5.250 
#    0.000    0.000    0.000    0.000    0.000    0.000 
#
# Total GULP energy -357385.096461 kJ/mol
# GULP energy per Si atom -5584.142132 kJ/mol
# Density = 1.682668 g / cm^3
# Si number density = 16.865066 Si / 1000 Ang^3
#
#
#
# Elastic Constant Matrix: (Units=GPa)
#
#
# Indices 1 2 3 4 5 6 
#
# 1 73.4356 56.4591 70.1082 0.0000 0.0000 0.0000
# 2 56.4591 71.5806 65.0193 0.0000 0.0000 0.0000
# 3 70.1082 65.0193 98.8668 0.0000 0.0000 0.0000
# 4 0.0000 0.0000 0.0000 19.8493 0.0000 0.0000
# 5 0.0000 0.0000 0.0000 0.0000 32.7356 0.0000
# 6 0.0000 0.0000 0.0000 0.0000 0.0000 -11.2330
#
#
#
# Elastic Compliance Matrix: (Units=1/GPa)
#
#
# Indices 1 2 3 4 5 6 
#
# 1 0.049995 -0.017959 -0.023642 0.000000 0.000000 0.000000
# 2 -0.017959 0.041148 -0.014326 0.000000 0.000000 0.000000
# 3 -0.023642 -0.014326 0.036301 0.000000 0.000000 0.000000
# 4 0.000000 0.000000 0.000000 0.050380 0.000000 0.000000
# 5 0.000000 0.000000 0.000000 0.000000 0.030548 0.000000
# 6 0.000000 0.000000 0.000000 0.000000 0.000000 -0.089024
#
#
# Mechanical properties :
#
#
# Convention : Reuss Voigt Hill
#
# Bulk Modulus (GPa) = 64.14036 69.67292 66.90664
# Shear Modulus (GPa) = 21.15070 11.75680 16.45375
#
# Velocity S-wave (km/s) = 3.54519 2.64315 3.12687
# Velocity P-wave (km/s) = 7.40755 7.12156 7.26597
#
# Compressibility (1/GPa) = 0.01559081
#
# Stress axis : x y z
#
# Youngs Moduli (GPa) = 20.00185 24.30247 27.54749
#
# Poissons Ratio (x) = 0.43645 0.65128
# Poissons Ratio (y) = 0.35921 0.39464
# Poissons Ratio (z) = 0.47288 0.34815
#
# Static dielectric constant tensor:
#      x y z
#    x 1.548010 0.000000 0.000000 
#    y 0.000000 1.554870 0.000000 
#    z 0.000000 0.000000 1.573240 
# 
# From -- ./inp_files/25543.got.cif
#   From: 2010.05.17/outbox.cif.g08.bks.cpg/sg47_13_cif.got.tgz:25543.got - 2010.06.03 20:15:42.
