data_PCOD9387128
_publ_section_title
;
Structure prediction by ZEFSAII (Michael W. Deem and Ramdas Pophale) SiO2 
 PCOD9387128
Probable space group: P M M M
;
_chemical_formula_sum "Si O2"
_cell_formula_units_Z 40
_cell_length_a 7.761007
_cell_length_b 9.521285
_cell_length_c 28.495043
_cell_angle_alpha 90.000000
_cell_angle_beta 90.000000
_cell_angle_gamma 90.000000
_cell_volume 2105.634350
_symmetry_space_group_name_H-M "P M M M"
_symmetry_group_IT_number 47
_symmetry_cell_setting 'orthorhombic'
loop_
_space_group_symop_operation_xyz
x,y,z
-x,-y,z
x,-y,-z
-x,y,-z
-x,-y,-z
x,y,-z
-x,y,z
x,-y,z
loop_
_atom_site_type_symbol
_atom_site_label
_atom_site_fract_x
_atom_site_fract_y
_atom_site_fract_z
Si Si1 0.500000 0.329612 0.053353
Si Si2 0.294994 0.659611 0.306758
Si Si3 0.794226 0.841401 0.216693
Si Si4 0.206570 0.659875 0.411338
Si Si5 0.796012 0.668010 0.874634
Si Si6 0.211508 0.839022 0.500000
O O1 0.500000 0.500000 0.051330
O O2 0.670956 0.290923 0.082647
O O3 0.500000 0.276911 0.000000
O O4 0.500000 0.651089 0.305360
O O5 0.224674 0.500000 0.300906
O O6 0.240050 0.760082 0.264877
O O7 0.244770 0.710290 0.358718
O O8 0.737175 0.750302 0.171938
O O9 0.000000 0.850639 0.212056
O O10 0.723829 0.000000 0.216940
O O11 0.273844 0.500000 0.415497
O O12 0.269539 0.757547 0.453330
O O13 0.000000 0.653125 0.415904
O O14 0.778752 0.500000 0.866847
O O15 0.000000 0.695179 0.883557
O O16 0.000000 0.838445 0.500000
O O17 0.266743 0.000000 0.500000
#
# Coordination Sequence:
#
# PCOD9387128 Si02
#       6
#     4   8   8   8   8   4
#     4   9  18  32  53  83 113 141 181 230 275 320
#     4  10  21  35  52  76 105 136 171 213 262 316
#     4  10  21  36  54  77 105 138 176 219 266 315
#     4   9  17  31  51  72  95 126 165 208 254 307
#     4   9  18  33  54  79 108 143 182 225 273 324
#     4   9  17  29  48  73  96 122 162 211 258 303
#
# _framework density 18.996649000000001
#
# number of rings (size 3 to 8) (size 9 to 14) (size 15 to 20)
#    0.000    2.600    0.000    1.500    1.400    4.800 
#    0.000    4.500    0.000    4.200    0.000    2.800 
#    0.000    0.000    0.000    0.000    0.000    0.000 
#
# Total GULP energy -223123.046670 kJ/mol
# GULP energy per Si atom -5578.076167 kJ/mol
# Density = 1.895341 g / cm^3
# Si number density = 18.996649 Si / 1000 Ang^3
#
#
#
# Elastic Constant Matrix: (Units=GPa)
#
#
# Indices 1 2 3 4 5 6 
#
# 1 46.7769 29.8543 40.4724 0.0000 0.0000 0.0000
# 2 29.8543 83.3422 99.9190 0.0000 0.0000 0.0000
# 3 40.4724 99.9190 214.3586 0.0000 0.0000 0.0000
# 4 0.0000 0.0000 0.0000 4.6271 0.0000 0.0000
# 5 0.0000 0.0000 0.0000 0.0000 49.8376 0.0000
# 6 0.0000 0.0000 0.0000 0.0000 0.0000 8.7274
#
#
#
# Elastic Compliance Matrix: (Units=1/GPa)
#
#
# Indices 1 2 3 4 5 6 
#
# 1 0.027893 -0.008337 -0.001380 0.000000 0.000000 0.000000
# 2 -0.008337 0.029690 -0.012265 0.000000 0.000000 0.000000
# 3 -0.001380 -0.012265 0.010643 0.000000 0.000000 0.000000
# 4 0.000000 0.000000 0.000000 0.216120 0.000000 0.000000
# 5 0.000000 0.000000 0.000000 0.000000 0.020065 0.000000
# 6 0.000000 0.000000 0.000000 0.000000 0.000000 0.114582
#
#
# Mechanical properties :
#
#
# Convention : Reuss Voigt Hill
#
# Bulk Modulus (GPa) = 41.21820 76.10768 58.66294
# Shear Modulus (GPa) = 10.61469 24.25387 17.43428
#
# Velocity S-wave (km/s) = 2.36639 3.57703 3.03273
# Velocity P-wave (km/s) = 5.40473 7.56379 6.57351
#
# Compressibility (1/GPa) = 0.02426113
#
# Stress axis : x y z
#
# Youngs Moduli (GPa) = 35.85106 33.68134 93.95855
#
# Poissons Ratio (x) = 0.28079 0.12970
# Poissons Ratio (y) = 0.29888 1.15244
# Poissons Ratio (z) = 0.04949 0.41311
#
# Static dielectric constant tensor:
#      x y z
#    x 1.679570 0.000000 0.000000 
#    y 0.000000 1.652570 0.000000 
#    z 0.000000 0.000000 1.638540 
# 
# From -- ./inp_files/1691.got.cif
#   From: 2010.05.17/outbox.cif.g08.bks.cpg/sg47_1_cif.got.tgz:1691.got - 2010.06.03 20:15:42.
