data_PCOD9387849
_publ_section_title
;
Structure prediction by ZEFSAII (Michael W. Deem and Ramdas Pophale) SiO2 
 PCOD9387849
Probable space group: P M M M
;
_chemical_formula_sum "Si O2"
_cell_formula_units_Z 56
_cell_length_a 14.152170
_cell_length_b 8.875954
_cell_length_c 23.654284
_cell_angle_alpha 90.000000
_cell_angle_beta 90.000000
_cell_angle_gamma 90.000000
_cell_volume 2971.309465
_symmetry_space_group_name_H-M "P M M M"
_symmetry_group_IT_number 47
_symmetry_cell_setting 'orthorhombic'
loop_
_space_group_symop_operation_xyz
x,y,z
-x,-y,z
x,-y,-z
-x,y,-z
-x,-y,-z
x,y,-z
-x,y,z
x,-y,z
loop_
_atom_site_type_symbol
_atom_site_label
_atom_site_fract_x
_atom_site_fract_y
_atom_site_fract_z
Si Si1 0.886149 0.677370 0.063969
Si Si2 0.886780 0.324283 0.500000
Si Si3 0.111497 0.319449 0.721395
Si Si4 0.385315 0.827733 0.000000
Si Si5 0.214136 0.821250 0.829395
Si Si6 0.390926 0.320051 0.433104
Si Si7 0.206304 0.820638 0.610591
Si Si8 0.389206 0.320245 0.880658
O O1 0.861997 0.500000 0.071417
O O2 0.839358 0.772776 0.113200
O O3 0.000000 0.688542 0.067624
O O4 0.858688 0.722002 0.000000
O O5 0.857283 0.500000 0.500000
O O6 0.846978 0.244954 0.555713
O O7 0.000000 0.318178 0.500000
O O8 0.121097 0.500000 0.720438
O O9 0.160790 0.253938 0.777022
O O10 0.159954 0.249790 0.666199
O O11 0.000000 0.283148 0.721820
O O12 0.360518 0.740718 0.057250
O O13 0.500000 0.833879 0.000000
O O14 0.350149 0.000000 0.000000
O O15 0.319953 0.757293 0.836266
O O16 0.215111 0.000000 0.823477
O O17 0.375883 0.288020 0.500000
O O18 0.500000 0.283973 0.419984
O O19 0.378202 0.500000 0.425720
O O20 0.314609 0.231320 0.396962
O O21 0.199168 0.000000 0.611838
O O22 0.500000 0.284299 0.871971
O O23 0.378561 0.500000 0.879264
#
# Coordination Sequence:
#
# PCOD9387849 Si02
#       8
#     8   4   8   4   8   8   8   8
#     4   9  19  37  60  85 115 153 198 247 298 358
#     4  11  23  39  60  87 122 165 209 252 302 363
#     4  11  25  46  69  89 116 161 212 255 300 364
#     4   9  17  31  53  83 118 151 188 241 303 359
#     4  12  25  39  60  89 122 157 196 251 312 365
#     4   9  18  35  61  91 126 170 214 253 296 355
#     4  12  24  38  61  95 130 162 200 255 314 365
#     4  10  21  38  60  85 116 158 204 247 296 361
#
# _framework density 18.846910000000001
#
# number of rings (size 3 to 8) (size 9 to 14) (size 15 to 20)
#    0.000    1.571    0.714    5.571    1.000    7.714 
#    0.000    2.143    0.000    4.286    0.000    0.000 
#    0.000    0.000    0.000    0.000    0.000    0.000 
#
# Total GULP energy -313153.805868 kJ/mol
# GULP energy per Si atom -5592.032248 kJ/mol
# Density = 1.880401 g / cm^3
# Si number density = 18.846910 Si / 1000 Ang^3
#
#
#
# Elastic Constant Matrix: (Units=GPa)
#
#
# Indices 1 2 3 4 5 6 
#
# 1 136.1839 81.2037 87.0341 0.0000 0.0000 0.0000
# 2 81.2037 124.0842 76.7078 0.0000 0.0000 0.0000
# 3 87.0341 76.7078 140.1237 0.0000 0.0000 0.0000
# 4 0.0000 0.0000 0.0000 63.6136 0.0000 0.0000
# 5 0.0000 0.0000 0.0000 0.0000 33.5735 0.0000
# 6 0.0000 0.0000 0.0000 0.0000 0.0000 -4.6240
#
#
#
# Elastic Compliance Matrix: (Units=1/GPa)
#
#
# Indices 1 2 3 4 5 6 
#
# 1 0.014619 -0.005976 -0.005808 0.000000 0.000000 0.000000
# 2 -0.005976 0.014624 -0.004294 0.000000 0.000000 0.000000
# 3 -0.005808 -0.004294 0.013095 0.000000 0.000000 0.000000
# 4 0.000000 0.000000 0.000000 0.015720 0.000000 0.000000
# 5 0.000000 0.000000 0.000000 0.000000 0.029785 0.000000
# 6 0.000000 0.000000 0.000000 0.000000 0.000000 -0.216263
#
#
# Mechanical properties :
#
#
# Convention : Reuss Voigt Hill
#
# Bulk Modulus (GPa) = 98.22220 98.92032 98.57126
# Shear Modulus (GPa) = -53.83932 28.87570 -12.48181
#
# Velocity S-wave (km/s) = -5.35058 3.91847 -2.57626
# Velocity P-wave (km/s) = 3.74932 8.54826 6.60038
#
# Compressibility (1/GPa) = 0.01018100
#
# Stress axis : x y z
#
# Youngs Moduli (GPa) = 68.40643 68.37907 76.36500
#
# Poissons Ratio (x) = 0.40863 0.44357
# Poissons Ratio (y) = 0.40879 0.32791
# Poissons Ratio (z) = 0.39734 0.29362
#
# Static dielectric constant tensor:
#      x y z
#    x 1.676130 0.000000 0.000000 
#    y 0.000000 1.624830 0.000000 
#    z 0.000000 0.000000 1.615700 
# 
# From -- ./inp_files/30988.got.cif
#   From: 2010.05.17/outbox.cif.g08.bks.cpg/sg47_16_cif.got.tgz:30988.got - 2010.06.03 20:15:42.
