data_PCOD9387437
_publ_section_title
;
Structure prediction by ZEFSAII (Michael W. Deem and Ramdas Pophale) SiO2 
 PCOD9387437
Probable space group: P M M M
;
_chemical_formula_sum "Si O2"
_cell_formula_units_Z 48
_cell_length_a 9.270661
_cell_length_b 31.499817
_cell_length_c 8.944066
_cell_angle_alpha 90.000000
_cell_angle_beta 90.000000
_cell_angle_gamma 90.000000
_cell_volume 2611.883047
_symmetry_space_group_name_H-M "P M M M"
_symmetry_group_IT_number 47
_symmetry_cell_setting 'orthorhombic'
loop_
_space_group_symop_operation_xyz
x,y,z
-x,-y,z
x,-y,-z
-x,y,-z
-x,-y,-z
x,y,-z
-x,y,z
x,-y,z
loop_
_atom_site_type_symbol
_atom_site_label
_atom_site_fract_x
_atom_site_fract_y
_atom_site_fract_z
Si Si1 0.669132 0.580154 0.180420
Si Si2 0.830785 0.500000 0.320831
Si Si3 0.328967 0.841205 0.678935
Si Si4 0.169435 0.919929 0.821433
Si Si5 0.166764 0.666039 0.819942
Si Si6 0.667700 0.744139 0.679980
Si Si7 0.669496 0.000000 0.679145
O O1 0.500000 0.579259 0.219133
O O2 0.753042 0.541389 0.254890
O O3 0.740907 0.624827 0.225102
O O4 0.680809 0.576354 0.000000
O O5 0.819510 0.500000 0.500000
O O6 0.000000 0.500000 0.279923
O O7 0.307766 0.845582 0.500000
O O8 0.500000 0.847581 0.707170
O O9 0.236384 0.875939 0.763992
O O10 0.293309 0.792592 0.721218
O O11 0.000000 0.922358 0.784095
O O12 0.254196 0.958477 0.745039
O O13 0.184344 0.923089 0.000000
O O14 0.233609 0.708537 0.752108
O O15 0.000000 0.660729 0.775792
O O16 0.172924 0.668790 0.000000
O O17 0.675779 0.741509 0.500000
O O18 0.500000 0.737216 0.722502
O O19 0.500000 0.000000 0.717594
O O20 0.682123 0.000000 0.500000
#
# Coordination Sequence:
#
# PCOD9387437 Si02
#       7
#     8   4   8   8   8   8   4
#     4  10  21  38  60  83 107 141 185 227 270 324
#     4  11  24  39  56  82 114 145 178 219 270 326
#     4   9  19  37  59  82 109 144 188 231 271 323
#     4  11  24  39  56  83 117 148 181 224 273 325
#     4  10  21  36  55  81 112 145 182 225 273 325
#     4   9  19  36  57  81 110 145 185 229 275 323
#     4  11  24  41  62  86 110 141 184 229 272 324
#
# _framework density 18.377547
#
# number of rings (size 3 to 8) (size 9 to 14) (size 15 to 20)
#    0.000    2.000    0.000    4.000    0.000   11.333 
#    0.000    5.000    0.000    0.000    0.000    0.000 
#    0.000    0.000    0.000    0.000    0.000    0.000 
#
# Total GULP energy -268191.598670 kJ/mol
# GULP energy per Si atom -5587.324972 kJ/mol
# Density = 1.833572 g / cm^3
# Si number density = 18.377547 Si / 1000 Ang^3
#
#
#
# Elastic Constant Matrix: (Units=GPa)
#
#
# Indices 1 2 3 4 5 6 
#
# 1 170.7677 125.7124 66.5609 0.0000 0.0000 0.0000
# 2 125.7124 173.3876 57.3722 0.0000 0.0000 0.0000
# 3 66.5609 57.3722 34.1452 0.0000 0.0000 0.0000
# 4 0.0000 0.0000 0.0000 37.6261 0.0000 0.0000
# 5 0.0000 0.0000 0.0000 0.0000 32.6877 0.0000
# 6 0.0000 0.0000 0.0000 0.0000 0.0000 232.1444
#
#
#
# Elastic Compliance Matrix: (Units=1/GPa)
#
#
# Indices 1 2 3 4 5 6 
#
# 1 0.025963 -0.004679 -0.042749 0.000000 0.000000 0.000000
# 2 -0.004679 0.013832 -0.014121 0.000000 0.000000 0.000000
# 3 -0.042749 -0.014121 0.136346 0.000000 0.000000 0.000000
# 4 0.000000 0.000000 0.000000 0.026577 0.000000 0.000000
# 5 0.000000 0.000000 0.000000 0.000000 0.030593 0.000000
# 6 0.000000 0.000000 0.000000 0.000000 0.000000 0.004308
#
#
# Mechanical properties :
#
#
# Convention : Reuss Voigt Hill
#
# Bulk Modulus (GPa) = 18.85245 97.51014 58.18129
# Shear Modulus (GPa) = 13.21369 69.06865 41.14117
#
# Velocity S-wave (km/s) = 2.68435 6.13716 4.73659
# Velocity P-wave (km/s) = 4.45963 10.16830 7.85120
#
# Compressibility (1/GPa) = 0.05304350
#
# Stress axis : x y z
#
# Youngs Moduli (GPa) = 38.51705 72.29559 7.33430
#
# Poissons Ratio (x) = 0.33825 0.31353
# Poissons Ratio (y) = 0.18021 0.10357
# Poissons Ratio (z) = 1.64656 1.02088
#
# Static dielectric constant tensor:
#      x y z
#    x 1.613280 0.000000 0.000000 
#    y 0.000000 1.600200 0.000000 
#    z 0.000000 0.000000 1.615560 
# 
# From -- ./inp_files/2700.got.cif
#   From: 2010.05.17/outbox.cif.g08.bks.cpg/sg47_2_cif.got.tgz:2700.got - 2010.06.03 20:15:42.
