data_PCOD9387343
_publ_section_title
;
Structure prediction by ZEFSAII (Michael W. Deem and Ramdas Pophale) SiO2 
 PCOD9387343
Probable space group: P M M M
;
_chemical_formula_sum "Si O2"
_cell_formula_units_Z 48
_cell_length_a 31.920634
_cell_length_b 7.725083
_cell_length_c 9.389549
_cell_angle_alpha 90.000000
_cell_angle_beta 90.000000
_cell_angle_gamma 90.000000
_cell_volume 2315.364635
_symmetry_space_group_name_H-M "P M M M"
_symmetry_group_IT_number 47
_symmetry_cell_setting 'orthorhombic'
loop_
_space_group_symop_operation_xyz
x,y,z
-x,-y,z
x,-y,-z
-x,y,-z
-x,-y,-z
x,y,-z
-x,y,z
x,-y,z
loop_
_atom_site_type_symbol
_atom_site_label
_atom_site_fract_x
_atom_site_fract_y
_atom_site_fract_z
Si Si1 0.663222 0.291745 0.662373
Si Si2 0.000000 0.712328 0.836816
Si Si3 0.080724 0.291881 0.337361
Si Si4 0.416857 0.292538 0.162056
Si Si5 0.746355 0.791254 0.838165
Si Si6 0.826185 0.792147 0.336943
Si Si7 0.500000 0.206514 0.662315
O O1 0.663567 0.225893 0.500000
O O2 0.659389 0.500000 0.655069
O O3 0.623538 0.225172 0.752346
O O4 0.706023 0.252114 0.744118
O O5 0.958040 0.770427 0.756220
O O6 0.000000 0.500000 0.834884
O O7 0.000000 0.767104 0.000000
O O8 0.077588 0.226350 0.500000
O O9 0.077793 0.500000 0.342655
O O10 0.127153 0.248469 0.283299
O O11 0.412225 0.500000 0.152216
O O12 0.458779 0.259317 0.251028
O O13 0.419395 0.225204 0.000000
O O14 0.788576 0.726880 0.761243
O O15 0.749041 0.000000 0.844557
O O16 0.742221 0.726630 0.000000
O O17 0.822659 0.726053 0.500000
O O18 0.822560 0.000000 0.343260
O O19 0.500000 0.275740 0.500000
O O20 0.500000 0.000000 0.653962
#
# Coordination Sequence:
#
# PCOD9387343 Si02
#       7
#     8   4   8   8   8   8   4
#     4  10  21  37  58  83 109 139 177 220 264 311
#     4   9  17  29  46  69  96 124 156 197 246 298
#     4   9  17  30  49  71  94 123 161 203 246 295
#     4  10  21  38  60  84 110 142 179 219 267 319
#     4  10  21  36  54  77 106 141 177 213 259 313
#     4   9  18  33  51  71  98 132 168 207 252 302
#     4  11  24  39  56  82 114 147 184 223 262 308
#
# _framework density 20.731075000000001
#
# number of rings (size 3 to 8) (size 9 to 14) (size 15 to 20)
#    0.000    2.333    0.000    2.250    0.000    7.667 
#    0.000    2.083    0.000    2.500    0.000    0.000 
#    0.000    0.000    0.000    0.000    0.000    0.000 
#
# Total GULP energy -268099.181268 kJ/mol
# GULP energy per Si atom -5585.399610 kJ/mol
# Density = 2.068389 g / cm^3
# Si number density = 20.731075 Si / 1000 Ang^3
#
#
#
# Elastic Constant Matrix: (Units=GPa)
#
#
# Indices 1 2 3 4 5 6 
#
# 1 234.6667 -1.9055 142.8496 0.0000 0.0000 0.0000
# 2 -1.9055 31.4320 8.6233 0.0000 0.0000 0.0000
# 3 142.8496 8.6233 195.8609 0.0000 0.0000 0.0000
# 4 0.0000 0.0000 0.0000 15.8435 0.0000 0.0000
# 5 0.0000 0.0000 0.0000 0.0000 172.0724 0.0000
# 6 0.0000 0.0000 0.0000 0.0000 0.0000 33.9026
#
#
#
# Elastic Compliance Matrix: (Units=1/GPa)
#
#
# Indices 1 2 3 4 5 6 
#
# 1 0.007793 0.002057 -0.005774 0.000000 0.000000 0.000000
# 2 0.002057 0.032746 -0.002942 0.000000 0.000000 0.000000
# 3 -0.005774 -0.002942 0.009447 0.000000 0.000000 0.000000
# 4 0.000000 0.000000 0.000000 0.063117 0.000000 0.000000
# 5 0.000000 0.000000 0.000000 0.000000 0.005812 0.000000
# 6 0.000000 0.000000 0.000000 0.000000 0.000000 0.029496
#
#
# Mechanical properties :
#
#
# Convention : Reuss Voigt Hill
#
# Bulk Modulus (GPa) = 27.27225 84.56603 55.91914
# Shear Modulus (GPa) = 28.74339 65.18983 46.96661
#
# Velocity S-wave (km/s) = 3.72760 5.61371 4.76491
# Velocity P-wave (km/s) = 5.63120 9.10488 7.56998
#
# Compressibility (1/GPa) = 0.03666731
#
# Stress axis : x y z
#
# Youngs Moduli (GPa) = 128.31776 30.53762 105.85690
#
# Poissons Ratio (x) = -0.06280 0.61126
# Poissons Ratio (y) = -0.26390 0.31140
# Poissons Ratio (z) = 0.74096 0.08983
#
# Static dielectric constant tensor:
#      x y z
#    x 1.699610 0.000000 0.000000 
#    y 0.000000 1.769540 0.000000 
#    z 0.000000 0.000000 1.731760 
# 
# From -- ./inp_files/13859.got.cif
#   From: 2010.05.17/outbox.cif.g08.bks.cpg/sg47_7_cif.got.tgz:13859.got - 2010.06.03 20:15:42.
