data_PCOD9387377
_publ_section_title
;
Structure prediction by ZEFSAII (Michael W. Deem and Ramdas Pophale) SiO2 
 PCOD9387377
Probable space group: P M M M
;
_chemical_formula_sum "Si O2"
_cell_formula_units_Z 64
_cell_length_a 9.131966
_cell_length_b 14.027622
_cell_length_c 26.491620
_cell_angle_alpha 90.000000
_cell_angle_beta 90.000000
_cell_angle_gamma 90.000000
_cell_volume 3393.570354
_symmetry_space_group_name_H-M "P M M M"
_symmetry_group_IT_number 47
_symmetry_cell_setting 'orthorhombic'
loop_
_space_group_symop_operation_xyz
x,y,z
-x,-y,z
x,-y,-z
-x,y,-z
-x,-y,-z
x,y,-z
-x,y,z
x,-y,z
loop_
_atom_site_type_symbol
_atom_site_label
_atom_site_fract_x
_atom_site_fract_y
_atom_site_fract_z
Si Si1 0.669011 0.115011 0.848514
Si Si2 0.171274 0.386860 0.308433
Si Si3 0.326323 0.214965 0.350002
Si Si4 0.171538 0.884693 0.744987
Si Si5 0.174362 0.207381 0.056050
Si Si6 0.674433 0.611704 0.092119
Si Si7 0.827728 0.113779 0.558500
Si Si8 0.335537 0.615523 0.208420
O O1 0.500000 0.146651 0.847595
O O2 0.751007 0.145483 0.797237
O O3 0.747164 0.151928 0.898764
O O4 0.671324 0.000000 0.849042
O O5 0.195814 0.500000 0.314452
O O6 0.268241 0.322784 0.344966
O O7 0.221226 0.359342 0.251613
O O8 0.000000 0.367449 0.315454
O O9 0.500000 0.210146 0.345733
O O10 0.251624 0.158918 0.303387
O O11 0.270235 0.168745 0.401665
O O12 0.000000 0.858900 0.745208
O O13 0.180847 0.000000 0.742061
O O14 0.232376 0.315684 0.059596
O O15 0.000000 0.204345 0.062875
O O16 0.209239 0.169411 0.000000
O O17 0.500000 0.621742 0.082658
O O18 0.710772 0.500000 0.085562
O O19 0.699790 0.640344 0.150834
O O20 0.796437 0.137181 0.500000
O O21 0.000000 0.133806 0.567991
O O22 0.807847 0.000000 0.564553
O O23 0.500000 0.649703 0.221389
O O24 0.341994 0.500000 0.207921
#
# Coordination Sequence:
#
# PCOD9387377 Si02
#       8
#     8   8   8   8   8   8   8   8
#     4  10  22  41  64  87 111 141 180 230 288 346
#     4  10  21  36  54  78 111 153 200 245 288 337
#     4  12  24  35  55  87 123 162 198 238 288 341
#     4  10  21  38  60  86 118 153 188 229 279 339
#     4  11  25  41  57  80 110 146 187 231 280 338
#     4   9  19  36  58  82 109 143 182 228 282 338
#     4   9  19  38  63  89 120 159 201 246 294 342
#     4   8  15  30  51  75 104 137 175 222 278 337
#
# _framework density 18.859195
#
# number of rings (size 3 to 8) (size 9 to 14) (size 15 to 20)
#    0.000    2.125    0.000    4.125    1.750    6.500 
#    0.000    4.375    0.000    0.375    0.000    2.625 
#    0.000    0.000    0.000    0.000    0.000    0.000 
#
# Total GULP energy -357631.515957 kJ/mol
# GULP energy per Si atom -5587.992437 kJ/mol
# Density = 1.881627 g / cm^3
# Si number density = 18.859195 Si / 1000 Ang^3
#
#
#
# Elastic Constant Matrix: (Units=GPa)
#
#
# Indices 1 2 3 4 5 6 
#
# 1 137.1221 48.6809 90.2228 0.0000 0.0000 0.0000
# 2 48.6809 57.2012 43.9728 0.0000 0.0000 0.0000
# 3 90.2228 43.9728 113.7715 0.0000 0.0000 0.0000
# 4 0.0000 0.0000 0.0000 29.2499 0.0000 0.0000
# 5 0.0000 0.0000 0.0000 0.0000 61.9736 0.0000
# 6 0.0000 0.0000 0.0000 0.0000 0.0000 25.5682
#
#
#
# Elastic Compliance Matrix: (Units=1/GPa)
#
#
# Indices 1 2 3 4 5 6 
#
# 1 0.016439 -0.005646 -0.010854 0.000000 0.000000 0.000000
# 2 -0.005646 0.026811 -0.005885 0.000000 0.000000 0.000000
# 3 -0.010854 -0.005885 0.019672 0.000000 0.000000 0.000000
# 4 0.000000 0.000000 0.000000 0.034188 0.000000 0.000000
# 5 0.000000 0.000000 0.000000 0.000000 0.016136 0.000000
# 6 0.000000 0.000000 0.000000 0.000000 0.000000 0.039111
#
#
# Mechanical properties :
#
#
# Convention : Reuss Voigt Hill
#
# Bulk Modulus (GPa) = 55.09289 74.87198 64.98244
# Shear Modulus (GPa) = 24.60886 31.70622 28.15754
#
# Velocity S-wave (km/s) = 3.61622 4.10470 3.86818
# Velocity P-wave (km/s) = 6.83464 7.88996 7.38118
#
# Compressibility (1/GPa) = 0.01815116
#
# Stress axis : x y z
#
# Youngs Moduli (GPa) = 60.83048 37.29743 50.83469
#
# Poissons Ratio (x) = 0.21060 0.55177
# Poissons Ratio (y) = 0.34348 0.29916
# Poissons Ratio (z) = 0.66026 0.21949
#
# Static dielectric constant tensor:
#      x y z
#    x 1.626550 0.000000 0.000000 
#    y 0.000000 1.692780 0.000000 
#    z 0.000000 0.000000 1.635350 
# 
# From -- ./inp_files/21923.got.cif
#   From: 2010.05.17/outbox.cif.g08.bks.cpg/sg47_11_cif.got.tgz:21923.got - 2010.06.03 20:15:42.
