data_PCOD9387998
_publ_section_title
;
Structure prediction by ZEFSAII (Michael W. Deem and Ramdas Pophale) SiO2 
 PCOD9387998
Probable space group: P M M M
;
_chemical_formula_sum "Si O2"
_cell_formula_units_Z 56
_cell_length_a 9.002126
_cell_length_b 21.744837
_cell_length_c 14.690986
_cell_angle_alpha 90.000000
_cell_angle_beta 90.000000
_cell_angle_gamma 90.000000
_cell_volume 2875.757021
_symmetry_space_group_name_H-M "P M M M"
_symmetry_group_IT_number 47
_symmetry_cell_setting 'orthorhombic'
loop_
_space_group_symop_operation_xyz
x,y,z
-x,-y,z
x,-y,-z
-x,y,-z
-x,-y,-z
x,y,-z
-x,y,z
x,-y,z
loop_
_atom_site_type_symbol
_atom_site_label
_atom_site_fract_x
_atom_site_fract_y
_atom_site_fract_z
Si Si1 0.678475 0.738926 0.109523
Si Si2 0.820215 0.623913 0.786539
Si Si3 0.170236 0.070139 0.349507
Si Si4 0.318856 0.672980 0.392594
Si Si5 0.337619 0.192460 0.606094
Si Si6 0.820145 0.500000 0.894669
Si Si7 0.170544 0.138607 0.159427
Si Si8 0.323833 0.931556 0.000000
O O1 0.500000 0.737955 0.119790
O O2 0.751543 0.678126 0.151474
O O3 0.748524 0.795982 0.165290
O O4 0.709863 0.745463 0.000000
O O5 0.752977 0.629857 0.684404
O O6 0.779041 0.560536 0.837490
O O7 0.000000 0.628982 0.782663
O O8 0.256580 0.127364 0.391528
O O9 0.169001 0.093399 0.245563
O O10 0.000000 0.069755 0.382219
O O11 0.227859 0.000000 0.359622
O O12 0.281596 0.660673 0.500000
O O13 0.500000 0.672197 0.386267
O O14 0.267777 0.742630 0.364112
O O15 0.356770 0.205687 0.500000
O O16 0.500000 0.185110 0.650194
O O17 0.000000 0.500000 0.899764
O O18 0.765915 0.500000 0.000000
O O19 0.263707 0.103400 0.085585
O O20 0.000000 0.149402 0.132510
O O21 0.500000 0.932392 0.000000
O O22 0.263795 0.000000 0.000000
#
# Coordination Sequence:
#
# PCOD9387998 Si02
#       8
#     8   8   8   8   8   4   8   4
#     4  11  23  38  57  84 119 152 189 243 304 360
#     4  11  22  37  62  92 121 157 202 247 294 346
#     4  10  22  37  51  73 105 140 181 230 286 345
#     4   9  19  38  62  88 121 158 194 239 298 357
#     4   9  19  36  57  80 106 140 183 229 280 341
#     4   9  20  40  62  87 124 168 207 245 288 343
#     4  11  22  37  57  78 104 141 188 238 287 342
#     4  11  23  37  53  75 105 142 183 228 285 349
#
# _framework density 19.473134999999999
#
# number of rings (size 3 to 8) (size 9 to 14) (size 15 to 20)
#    0.000    1.857    0.714    4.071    0.000    7.714 
#    0.000    4.643    0.000    4.714    0.000    0.000 
#    0.000    0.000    0.000    0.000    0.000    0.000 
#
# Total GULP energy -312113.902036 kJ/mol
# GULP energy per Si atom -5573.462536 kJ/mol
# Density = 1.942881 g / cm^3
# Si number density = 19.473135 Si / 1000 Ang^3
#
#
#
# Elastic Constant Matrix: (Units=GPa)
#
#
# Indices 1 2 3 4 5 6 
#
# 1 48.0608 30.8669 22.5360 0.0000 0.0000 0.0000
# 2 30.8669 150.9009 46.4249 0.0000 0.0000 0.0000
# 3 22.5360 46.4249 94.2158 0.0000 0.0000 0.0000
# 4 0.0000 0.0000 0.0000 40.0050 0.0000 0.0000
# 5 0.0000 0.0000 0.0000 0.0000 30.4755 0.0000
# 6 0.0000 0.0000 0.0000 0.0000 0.0000 32.8892
#
#
#
# Elastic Compliance Matrix: (Units=1/GPa)
#
#
# Indices 1 2 3 4 5 6 
#
# 1 0.025240 -0.003896 -0.004117 0.000000 0.000000 0.000000
# 2 -0.003896 0.008412 -0.003213 0.000000 0.000000 0.000000
# 3 -0.004117 -0.003213 0.013182 0.000000 0.000000 0.000000
# 4 0.000000 0.000000 0.000000 0.024997 0.000000 0.000000
# 5 0.000000 0.000000 0.000000 0.000000 0.032813 0.000000
# 6 0.000000 0.000000 0.000000 0.000000 0.000000 0.030405
#
#
# Mechanical properties :
#
#
# Convention : Reuss Voigt Hill
#
# Bulk Modulus (GPa) = 41.01593 54.75923 47.88758
# Shear Modulus (GPa) = 30.18771 33.56393 31.87582
#
# Velocity S-wave (km/s) = 3.94156 4.15613 4.05027
# Velocity P-wave (km/s) = 6.46708 7.15630 6.82040
#
# Compressibility (1/GPa) = 0.02438077
#
# Stress axis : x y z
#
# Youngs Moduli (GPa) = 39.61974 118.87245 75.86012
#
# Poissons Ratio (x) = 0.46314 0.31235
# Poissons Ratio (y) = 0.15436 0.24376
# Poissons Ratio (z) = 0.16313 0.38197
#
# Static dielectric constant tensor:
#      x y z
#    x 1.683670 0.000000 0.000000 
#    y 0.000000 1.679170 0.000000 
#    z 0.000000 0.000000 1.786590 
# 
# From -- ./inp_files/21632.got.cif
#   From: 2010.05.17/outbox.cif.g08.bks.cpg/sg47_11_cif.got.tgz:21632.got - 2010.06.03 20:15:42.
