data_PCOD9387115
_publ_section_title
;
Structure prediction by ZEFSAII (Michael W. Deem and Ramdas Pophale) SiO2 
 PCOD9387115
Probable space group: P M M M
;
_chemical_formula_sum "Si O2"
_cell_formula_units_Z 56
_cell_length_a 22.068047
_cell_length_b 14.535360
_cell_length_c 8.120613
_cell_angle_alpha 90.000000
_cell_angle_beta 90.000000
_cell_angle_gamma 90.000000
_cell_volume 2604.824732
_symmetry_space_group_name_H-M "P M M M"
_symmetry_group_IT_number 47
_symmetry_cell_setting 'orthorhombic'
loop_
_space_group_symop_operation_xyz
x,y,z
-x,-y,z
x,-y,-z
-x,y,-z
-x,-y,-z
x,y,-z
-x,y,z
x,-y,z
loop_
_atom_site_type_symbol
_atom_site_label
_atom_site_fract_x
_atom_site_fract_y
_atom_site_fract_z
Si Si1 0.125937 0.104464 0.201327
Si Si2 0.814908 0.394724 0.303915
Si Si3 0.685097 0.393660 0.198332
Si Si4 0.259008 0.888616 0.812701
Si Si5 0.390823 0.895131 0.307993
Si Si6 0.434679 0.706922 0.194621
Si Si7 0.065956 0.713497 0.801394
O O1 0.193125 0.137701 0.254452
O O2 0.077838 0.180869 0.250167
O O3 0.114476 0.000000 0.256577
O O4 0.128426 0.102185 0.000000
O O5 0.813231 0.397276 0.500000
O O6 0.817100 0.500000 0.239315
O O7 0.750616 0.353466 0.245948
O O8 0.875686 0.343745 0.251173
O O9 0.683156 0.500000 0.255024
O O10 0.625840 0.341000 0.262732
O O11 0.682938 0.393317 0.000000
O O12 0.319651 0.870444 0.712888
O O13 0.254674 0.000000 0.822835
O O14 0.267143 0.853274 0.000000
O O15 0.406745 0.893712 0.500000
O O16 0.427182 0.816088 0.217156
O O17 0.399097 0.000000 0.246143
O O18 0.500000 0.677703 0.264471
O O19 0.435636 0.686564 0.000000
O O20 0.000000 0.681039 0.741741
O O21 0.064953 0.711893 0.000000
#
# Coordination Sequence:
#
# PCOD9387115 Si02
#       7
#     8   8   8   8   8   8   8
#     4   8  15  29  50  77 109 145 184 226 273 325
#     4  10  22  40  61  84 111 145 185 230 281 337
#     4   9  19  38  64  90 114 141 176 223 278 335
#     4   8  14  27  48  72  98 133 180 230 276 321
#     4  10  21  35  51  75 110 150 191 234 277 321
#     4  10  22  38  57  84 115 148 185 224 272 331
#     4  10  21  35  54  84 118 151 189 233 280 329
#
# _framework density 21.498567999999999
#
# number of rings (size 3 to 8) (size 9 to 14) (size 15 to 20)
#    0.000    2.714    0.000    1.714    2.000    4.000 
#    0.000    5.714    0.000    0.429    0.000    4.000 
#    0.000    0.000    0.000    0.000    0.000    0.000 
#
# Total GULP energy -312467.377336 kJ/mol
# GULP energy per Si atom -5579.774595 kJ/mol
# Density = 2.144964 g / cm^3
# Si number density = 21.498568 Si / 1000 Ang^3
#
#
#
# Elastic Constant Matrix: (Units=GPa)
#
#
# Indices 1 2 3 4 5 6 
#
# 1 191.7839 69.2256 14.5245 0.0000 0.0000 0.0000
# 2 69.2256 73.6253 3.4495 0.0000 0.0000 0.0000
# 3 14.5245 3.4495 14.1933 0.0000 0.0000 0.0000
# 4 0.0000 0.0000 0.0000 10.6724 0.0000 0.0000
# 5 0.0000 0.0000 0.0000 0.0000 -67.8512 0.0000
# 6 0.0000 0.0000 0.0000 0.0000 0.0000 12.2786
#
#
#
# Elastic Compliance Matrix: (Units=1/GPa)
#
#
# Indices 1 2 3 4 5 6 
#
# 1 0.008502 -0.007673 -0.006835 0.000000 0.000000 0.000000
# 2 -0.007673 0.020664 0.002830 0.000000 0.000000 0.000000
# 3 -0.006835 0.002830 0.076762 0.000000 0.000000 0.000000
# 4 0.000000 0.000000 0.000000 0.093700 0.000000 0.000000
# 5 0.000000 0.000000 0.000000 0.000000 -0.014738 0.000000
# 6 0.000000 0.000000 0.000000 0.000000 0.000000 0.081443
#
#
# Mechanical properties :
#
#
# Convention : Reuss Voigt Hill
#
# Bulk Modulus (GPa) = 12.11063 50.44461 31.27762
# Shear Modulus (GPa) = 15.76228 3.84684 9.80456
#
# Velocity S-wave (km/s) = 2.71066 1.33912 2.13786
# Velocity P-wave (km/s) = 3.92968 5.08980 4.54689
#
# Compressibility (1/GPa) = 0.08257207
#
# Stress axis : x y z
#
# Youngs Moduli (GPa) = 117.62547 48.39235 13.02721
#
# Poissons Ratio (x) = 0.37133 0.08904
# Poissons Ratio (y) = 0.90257 -0.03687
# Poissons Ratio (z) = 0.80397 -0.13696
#
# Static dielectric constant tensor:
#      x y z
#    x 1.809420 0.000000 0.000000 
#    y 0.000000 1.805120 0.000000 
#    z 0.000000 0.000000 1.753930 
# 
# From -- ./inp_files/11186.got.cif
#   From: 2010.05.17/outbox.cif.g08.bks.cpg/sg47_6_cif.got.tgz:11186.got - 2010.06.03 20:15:42.
