data_PCOD9387008
_publ_section_title
;
Structure prediction by ZEFSAII (Michael W. Deem and Ramdas Pophale) SiO2 
 PCOD9387008
Probable space group: P M M M
;
_chemical_formula_sum "Si O2"
_cell_formula_units_Z 48
_cell_length_a 31.334401
_cell_length_b 8.496056
_cell_length_c 10.242801
_cell_angle_alpha 90.000000
_cell_angle_beta 90.000000
_cell_angle_gamma 90.000000
_cell_volume 2726.826453
_symmetry_space_group_name_H-M "P M M M"
_symmetry_group_IT_number 47
_symmetry_cell_setting 'orthorhombic'
loop_
_space_group_symop_operation_xyz
x,y,z
-x,-y,z
x,-y,-z
-x,y,-z
-x,-y,-z
x,y,-z
-x,y,z
x,-y,z
loop_
_atom_site_type_symbol
_atom_site_label
_atom_site_fract_x
_atom_site_fract_y
_atom_site_fract_z
Si Si1 0.285531 0.688217 0.649919
Si Si2 0.548505 0.191980 0.850380
Si Si3 0.048461 0.310169 0.649511
Si Si4 0.215377 0.190039 0.150096
Si Si5 0.379301 0.190285 0.649982
Si Si6 0.118040 0.810199 0.850993
O O1 0.277270 0.741154 0.500000
O O2 0.286738 0.500000 0.650672
O O3 0.249365 0.745748 0.748162
O O4 0.332241 0.751842 0.687663
O O5 0.500000 0.240495 0.817611
O O6 0.584027 0.246155 0.748386
O O7 0.548823 0.000000 0.848501
O O8 0.557602 0.239355 0.000000
O O9 0.057256 0.259956 0.500000
O O10 0.048876 0.500000 0.651054
O O11 0.083438 0.249863 0.749595
O O12 0.000000 0.259493 0.682823
O O13 0.166650 0.239608 0.180700
O O14 0.216513 0.000000 0.153845
O O15 0.224620 0.237563 0.000000
O O16 0.387316 0.240274 0.500000
O O17 0.379146 0.000000 0.652119
O O18 0.117646 0.000000 0.849860
O O19 0.108695 0.759267 0.000000
#
# Coordination Sequence:
#
# PCOD9387008 Si02
#       6
#     8   8   8   8   8   8
#     4  10  21  35  50  71 100 131 163 201 244 290
#     4   8  14  25  42  66  94 120 149 190 238 284
#     4   9  19  35  52  72 101 135 169 204 241 284
#     4   9  19  36  55  74  98 128 162 201 245 293
#     4   9  17  29  46  68  93 122 157 196 237 282
#     4   9  19  35  53  75 102 129 160 201 247 293
#
# _framework density 17.602881
#
# number of rings (size 3 to 8) (size 9 to 14) (size 15 to 20)
#    0.000    3.000    0.000    2.500    0.000    5.000 
#    0.000   10.833    0.000    0.500    0.000    3.500 
#    0.000    0.000    0.000    0.000    0.000    0.000 
#
# Total GULP energy -267558.609740 kJ/mol
# GULP energy per Si atom -5574.137703 kJ/mol
# Density = 1.756282 g / cm^3
# Si number density = 17.602881 Si / 1000 Ang^3
#
#
#
# Elastic Constant Matrix: (Units=GPa)
#
#
# Indices 1 2 3 4 5 6 
#
# 1 186.2531 26.0342 143.3685 0.0000 0.0000 0.0000
# 2 26.0342 7.1041 22.9780 0.0000 0.0000 0.0000
# 3 143.3685 22.9780 134.1581 0.0000 0.0000 0.0000
# 4 0.0000 0.0000 0.0000 49.4217 0.0000 0.0000
# 5 0.0000 0.0000 0.0000 0.0000 44.2566 0.0000
# 6 0.0000 0.0000 0.0000 0.0000 0.0000 -767.9315
#
#
#
# Elastic Compliance Matrix: (Units=1/GPa)
#
#
# Indices 1 2 3 4 5 6 
#
# 1 0.030910 -0.014425 -0.030562 0.000000 0.000000 0.000000
# 2 -0.014425 0.322334 -0.039793 0.000000 0.000000 0.000000
# 3 -0.030562 -0.039793 0.046929 0.000000 0.000000 0.000000
# 4 0.000000 0.000000 0.000000 0.020234 0.000000 0.000000
# 5 0.000000 0.000000 0.000000 0.000000 0.022596 0.000000
# 6 0.000000 0.000000 0.000000 0.000000 0.000000 -0.001302
#
#
# Mechanical properties :
#
#
# Convention : Reuss Voigt Hill
#
# Bulk Modulus (GPa) = 4.33624 79.14186 41.73905
# Shear Modulus (GPa) = 7.26607 -125.84166 -59.28779
#
# Velocity S-wave (km/s) = 2.03390 -8.46430 -5.80981
# Velocity P-wave (km/s) = 2.82566 7.10413 4.60892
#
# Compressibility (1/GPa) = 0.23061450
#
# Stress axis : x y z
#
# Youngs Moduli (GPa) = 32.35196 3.10238 21.30872
#
# Poissons Ratio (x) = 0.04475 0.65123
# Poissons Ratio (y) = 0.46666 0.84794
# Poissons Ratio (z) = 0.98873 0.12345
#
# Static dielectric constant tensor:
#      x y z
#    x 1.578050 0.000000 0.000000 
#    y 0.000000 1.604290 0.000000 
#    z 0.000000 0.000000 1.592070 
# 
# From -- ./inp_files/2426.got.cif
#   From: 2010.05.17/outbox.cif.g08.bks.cpg/sg47_2_cif.got.tgz:2426.got - 2010.06.03 20:15:42.
