data_PCOD9387062
_publ_section_title
;
Structure prediction by ZEFSAII (Michael W. Deem and Ramdas Pophale) SiO2 
 PCOD9387062
Probable space group: P M M M
;
_chemical_formula_sum "Si O2"
_cell_formula_units_Z 56
_cell_length_a 20.835755
_cell_length_b 9.003124
_cell_length_c 15.824932
_cell_angle_alpha 90.000000
_cell_angle_beta 90.000000
_cell_angle_gamma 90.000000
_cell_volume 2968.549713
_symmetry_space_group_name_H-M "P M M M"
_symmetry_group_IT_number 47
_symmetry_cell_setting 'orthorhombic'
loop_
_space_group_symop_operation_xyz
x,y,z
-x,-y,z
x,-y,-z
-x,y,-z
-x,-y,-z
x,y,-z
-x,y,z
x,-y,z
loop_
_atom_site_type_symbol
_atom_site_label
_atom_site_fract_x
_atom_site_fract_y
_atom_site_fract_z
Si Si1 0.169229 0.678787 0.900986
Si Si2 0.570009 0.677365 0.145307
Si Si3 0.293248 0.830986 0.398885
Si Si4 0.430534 0.178635 0.329016
Si Si5 0.073619 0.681218 0.752624
Si Si6 0.162136 0.678672 0.402206
Si Si7 0.700664 0.834901 0.900258
O O1 0.174230 0.500000 0.898662
O O2 0.113744 0.725517 0.835894
O O3 0.236960 0.746142 0.869881
O O4 0.157255 0.719250 0.000000
O O5 0.500000 0.719637 0.107822
O O6 0.575316 0.500000 0.140339
O O7 0.568549 0.733882 0.241436
O O8 0.633423 0.751666 0.109020
O O9 0.292197 0.834520 0.500000
O O10 0.364262 0.779120 0.373585
O O11 0.232440 0.733339 0.373314
O O12 0.284601 0.000000 0.367599
O O13 0.500000 0.207110 0.372189
O O14 0.428031 0.000000 0.314615
O O15 0.073192 0.500000 0.752070
O O16 0.110035 0.728566 0.666834
O O17 0.000000 0.731287 0.755019
O O18 0.150660 0.728080 0.500000
O O19 0.161914 0.500000 0.403255
O O20 0.696649 0.000000 0.862197
O O21 0.711258 0.848663 0.000000
#
# Coordination Sequence:
#
# PCOD9387062 Si02
#       7
#     8   8   8   8   8   8   8
#     4   9  18  33  53  78 107 137 171 214 262 311
#     4  10  21  35  51  73 102 136 173 215 262 309
#     4   9  18  32  50  73 100 132 171 215 262 309
#     4   9  18  32  49  71 100 134 173 215 259 308
#     4   9  18  32  52  80 107 133 171 214 259 313
#     4   9  18  32  50  74 104 137 173 215 260 307
#     4  10  21  36  54  76 102 134 172 214 260 309
#
# _framework density 18.864429999999999
#
# number of rings (size 3 to 8) (size 9 to 14) (size 15 to 20)
#    0.000    2.714    0.000    0.857    2.000    3.429 
#    0.000    5.714    0.000    1.714    0.000    8.000 
#    0.000    0.000    0.000    0.000    0.000    0.000 
#
# Total GULP energy -311915.443033 kJ/mol
# GULP energy per Si atom -5569.918626 kJ/mol
# Density = 1.882149 g / cm^3
# Si number density = 18.864430 Si / 1000 Ang^3
#
#
#
# Elastic Constant Matrix: (Units=GPa)
#
#
# Indices 1 2 3 4 5 6 
#
# 1 202.4048 44.0694 73.5880 0.0000 0.0000 0.0000
# 2 44.0694 21.8053 23.0385 0.0000 0.0000 0.0000
# 3 73.5880 23.0385 68.3165 0.0000 0.0000 0.0000
# 4 0.0000 0.0000 0.0000 13.4252 0.0000 0.0000
# 5 0.0000 0.0000 0.0000 0.0000 68.3826 0.0000
# 6 0.0000 0.0000 0.0000 0.0000 0.0000 13.0235
#
#
#
# Elastic Compliance Matrix: (Units=1/GPa)
#
#
# Indices 1 2 3 4 5 6 
#
# 1 0.010338 -0.014181 -0.006354 0.000000 0.000000 0.000000
# 2 -0.014181 0.090697 -0.015311 0.000000 0.000000 0.000000
# 3 -0.006354 -0.015311 0.026645 0.000000 0.000000 0.000000
# 4 0.000000 0.000000 0.000000 0.074487 0.000000 0.000000
# 5 0.000000 0.000000 0.000000 0.000000 0.014624 0.000000
# 6 0.000000 0.000000 0.000000 0.000000 0.000000 0.076784
#
#
# Mechanical properties :
#
#
# Convention : Reuss Voigt Hill
#
# Bulk Modulus (GPa) = 17.86048 63.76872 40.81460
# Shear Modulus (GPa) = 13.02325 29.08831 21.05578
#
# Velocity S-wave (km/s) = 2.63032 3.93105 3.34453
# Velocity P-wave (km/s) = 4.32587 7.38114 6.04956
#
# Compressibility (1/GPa) = 0.05598954
#
# Stress axis : x y z
#
# Youngs Moduli (GPa) = 96.72897 11.02570 37.53056
#
# Poissons Ratio (x) = 0.15635 0.23846
# Poissons Ratio (y) = 1.37170 0.57463
# Poissons Ratio (z) = 0.61458 0.16881
#
# Static dielectric constant tensor:
#      x y z
#    x 1.666710 0.000000 0.000000 
#    y 0.000000 1.653940 0.000000 
#    z 0.000000 0.000000 1.679200 
# 
# From -- ./inp_files/7218.got.cif
#   From: 2010.05.17/outbox.cif.g08.bks.cpg/sg47_4_cif.got.tgz:7218.got - 2010.06.03 20:15:42.
