data_PCOD9387362
_publ_section_title
;
Structure prediction by ZEFSAII (Michael W. Deem and Ramdas Pophale) SiO2 
 PCOD9387362
Probable space group: P M M M
;
_chemical_formula_sum "Si O2"
_cell_formula_units_Z 48
_cell_length_a 31.856856
_cell_length_b 9.273810
_cell_length_c 8.644729
_cell_angle_alpha 90.000000
_cell_angle_beta 90.000000
_cell_angle_gamma 90.000000
_cell_volume 2553.950582
_symmetry_space_group_name_H-M "P M M M"
_symmetry_group_IT_number 47
_symmetry_cell_setting 'orthorhombic'
loop_
_space_group_symop_operation_xyz
x,y,z
-x,-y,z
x,-y,-z
-x,y,-z
-x,-y,-z
x,y,-z
-x,y,z
x,-y,z
loop_
_atom_site_type_symbol
_atom_site_label
_atom_site_fract_x
_atom_site_fract_y
_atom_site_fract_z
Si Si1 0.173140 0.167787 0.315086
Si Si2 0.337635 0.168020 0.187207
Si Si3 0.253162 0.666561 0.186778
Si Si4 0.083429 0.168749 0.186303
Si Si5 0.000000 0.665696 0.188948
Si Si6 0.581260 0.668103 0.685632
Si Si7 0.500000 0.168204 0.185770
O O1 0.173796 0.171496 0.500000
O O2 0.211020 0.261417 0.249666
O O3 0.127619 0.218323 0.256054
O O4 0.178110 0.000000 0.264726
O O5 0.294048 0.242741 0.235459
O O6 0.376807 0.254245 0.255289
O O7 0.338676 0.000000 0.232725
O O8 0.340017 0.174206 0.000000
O O9 0.256876 0.500000 0.235638
O O10 0.251713 0.669837 0.000000
O O11 0.042528 0.255239 0.239325
O O12 0.078079 0.000000 0.225702
O O13 0.086092 0.179750 0.000000
O O14 0.000000 0.500000 0.236515
O O15 0.000000 0.670683 0.000000
O O16 0.579827 0.673408 0.500000
O O17 0.580749 0.500000 0.733466
O O18 0.541102 0.751313 0.752076
O O19 0.500000 0.000000 0.233421
O O20 0.500000 0.172960 0.000000
#
# Coordination Sequence:
#
# PCOD9387362 Si02
#       7
#     8   8   8   8   4   8   4
#     4  10  21  36  54  78 108 142 180 222 270 323
#     4  10  21  38  61  87 113 144 185 230 275 326
#     4  10  21  37  58  83 110 143 183 226 273 324
#     4   9  17  31  52  75 100 133 173 216 263 316
#     4   9  17  29  48  75 102 128 166 217 266 313
#     4  11  24  40  59  86 119 153 189 229 276 330
#     4  11  24  41  62  88 116 149 192 237 280 328
#
# _framework density 18.794412999999999
#
# number of rings (size 3 to 8) (size 9 to 14) (size 15 to 20)
#    0.000    2.000    0.000    3.250    0.000   10.333 
#    0.000    2.083    0.000    2.500    0.000    0.000 
#    0.000    0.000    0.000    0.000    0.000    0.000 
#
# Total GULP energy -268173.721234 kJ/mol
# GULP energy per Si atom -5586.952526 kJ/mol
# Density = 1.875164 g / cm^3
# Si number density = 18.794413 Si / 1000 Ang^3
#
#
#
# Elastic Constant Matrix: (Units=GPa)
#
#
# Indices 1 2 3 4 5 6 
#
# 1 222.2803 128.8116 40.5333 0.0000 0.0000 0.0000
# 2 128.8116 170.3722 41.3029 0.0000 0.0000 0.0000
# 3 40.5333 41.3029 16.5773 0.0000 0.0000 0.0000
# 4 0.0000 0.0000 0.0000 23.6209 0.0000 0.0000
# 5 0.0000 0.0000 0.0000 0.0000 -81.8210 0.0000
# 6 0.0000 0.0000 0.0000 0.0000 0.0000 -676.2900
#
#
#
# Elastic Compliance Matrix: (Units=1/GPa)
#
#
# Indices 1 2 3 4 5 6 
#
# 1 0.008953 -0.003692 -0.012692 0.000000 0.000000 0.000000
# 2 -0.003692 0.016345 -0.031697 0.000000 0.000000 0.000000
# 3 -0.012692 -0.031697 0.170330 0.000000 0.000000 0.000000
# 4 0.000000 0.000000 0.000000 0.042335 0.000000 0.000000
# 5 0.000000 0.000000 0.000000 0.000000 -0.012222 0.000000
# 6 0.000000 0.000000 0.000000 0.000000 0.000000 -0.001479
#
#
# Mechanical properties :
#
#
# Convention : Reuss Voigt Hill
#
# Bulk Modulus (GPa) = 10.05362 92.28061 51.16711
# Shear Modulus (GPa) = 14.14107 -133.65921 -59.75907
#
# Velocity S-wave (km/s) = 2.74598 -8.44221 -5.64493
# Velocity P-wave (km/s) = 3.92616 6.76913 3.89913
#
# Compressibility (1/GPa) = 0.09946669
#
# Stress axis : x y z
#
# Youngs Moduli (GPa) = 111.69873 61.18033 5.87094
#
# Poissons Ratio (x) = 0.22588 0.07451
# Poissons Ratio (y) = 0.41239 0.18609
# Poissons Ratio (z) = 1.41763 1.93925
#
# Static dielectric constant tensor:
#      x y z
#    x 1.611070 0.000000 0.000000 
#    y 0.000000 1.638560 0.000000 
#    z 0.000000 0.000000 1.634490 
# 
# From -- ./inp_files/2672.got.cif
#   From: 2010.05.17/outbox.cif.g08.bks.cpg/sg47_2_cif.got.tgz:2672.got - 2010.06.03 20:15:42.
