data_PCOD9387844
_publ_section_title
;
Structure prediction by ZEFSAII (Michael W. Deem and Ramdas Pophale) SiO2 
 PCOD9387844
Probable space group: P M M M
;
_chemical_formula_sum "Si O2"
_cell_formula_units_Z 40
_cell_length_a 8.107010
_cell_length_b 30.040327
_cell_length_c 7.691250
_cell_angle_alpha 90.000000
_cell_angle_beta 90.000000
_cell_angle_gamma 90.000000
_cell_volume 1873.105731
_symmetry_space_group_name_H-M "P M M M"
_symmetry_group_IT_number 47
_symmetry_cell_setting 'orthorhombic'
loop_
_space_group_symop_operation_xyz
x,y,z
-x,-y,z
x,-y,-z
-x,y,-z
-x,-y,-z
x,y,-z
-x,y,z
x,-y,z
loop_
_atom_site_type_symbol
_atom_site_label
_atom_site_fract_x
_atom_site_fract_y
_atom_site_fract_z
Si Si1 0.500000 0.753373 0.209550
Si Si2 0.500000 0.649470 0.290129
Si Si3 0.695323 0.000000 0.699778
Si Si4 0.309613 0.500000 0.208549
Si Si5 0.802368 0.093754 0.300982
Si Si6 0.187224 0.192715 0.795976
Si Si7 0.181439 0.596867 0.706609
O O1 0.500000 0.701272 0.247549
O O2 0.332685 0.776669 0.277905
O O3 0.500000 0.759640 0.000000
O O4 0.500000 0.644504 0.500000
O O5 0.664798 0.625082 0.222630
O O6 0.746976 0.952944 0.780428
O O7 0.500000 0.000000 0.689501
O O8 0.765420 0.000000 0.500000
O O9 0.500000 0.500000 0.270344
O O10 0.221306 0.455129 0.268521
O O11 0.310751 0.500000 0.000000
O O12 0.739217 0.094719 0.500000
O O13 0.758999 0.141040 0.218935
O O14 0.000000 0.092409 0.303766
O O15 0.000000 0.197225 0.721868
O O16 0.173711 0.203177 0.000000
O O17 0.175290 0.605333 0.500000
O O18 0.000000 0.607323 0.779217
#
# Coordination Sequence:
#
# PCOD9387844 Si02
#       7
#     4   4   4   4   8   8   8
#     4  10  22  38  57  78 103 136 174 216 267 324
#     4  10  22  39  57  82 112 141 178 228 276 318
#     4   9  17  27  42  69 102 132 161 198 248 303
#     4  11  22  35  56  87 121 154 191 232 269 313
#     4   9  17  30  49  72  98 130 167 206 249 301
#     4   9  19  36  55  75 101 133 169 211 260 313
#     4  10  21  38  60  84 113 152 191 225 270 325
#
# _framework density 21.354908999999999
#
# number of rings (size 3 to 8) (size 9 to 14) (size 15 to 20)
#    0.000    2.400    1.000    0.900    1.400    5.600 
#    0.000    0.500    0.000    3.000    0.000    0.000 
#    0.000    0.000    0.000    0.000    0.000    0.000 
#
# Total GULP energy -223191.919656 kJ/mol
# GULP energy per Si atom -5579.797991 kJ/mol
# Density = 2.130630 g / cm^3
# Si number density = 21.354909 Si / 1000 Ang^3
#
#
#
# Elastic Constant Matrix: (Units=GPa)
#
#
# Indices 1 2 3 4 5 6 
#
# 1 168.0770 106.5815 12.3471 0.0000 0.0000 0.0000
# 2 106.5815 171.4295 -9.9477 0.0000 0.0000 0.0000
# 3 12.3471 -9.9477 35.1558 0.0000 0.0000 0.0000
# 4 0.0000 0.0000 0.0000 29.9382 0.0000 0.0000
# 5 0.0000 0.0000 0.0000 0.0000 3.6232 0.0000
# 6 0.0000 0.0000 0.0000 0.0000 0.0000 30.4425
#
#
#
# Elastic Compliance Matrix: (Units=1/GPa)
#
#
# Indices 1 2 3 4 5 6 
#
# 1 0.010884 -0.007105 -0.005833 0.000000 0.000000 0.000000
# 2 -0.007105 0.010569 0.005486 0.000000 0.000000 0.000000
# 3 -0.005833 0.005486 0.032046 0.000000 0.000000 0.000000
# 4 0.000000 0.000000 0.000000 0.033402 0.000000 0.000000
# 5 0.000000 0.000000 0.000000 0.000000 0.275996 0.000000
# 6 0.000000 0.000000 0.000000 0.000000 0.000000 0.032849
#
#
# Mechanical properties :
#
#
# Convention : Reuss Voigt Hill
#
# Bulk Modulus (GPa) = 25.91050 65.84712 45.87881
# Shear Modulus (GPa) = 11.80598 30.51286 21.15942
#
# Velocity S-wave (km/s) = 2.35382 3.78411 3.15118
# Velocity P-wave (km/s) = 4.42119 7.07066 5.89666
#
# Compressibility (1/GPa) = 0.03859440
#
# Stress axis : x y z
#
# Youngs Moduli (GPa) = 91.88101 94.61606 31.20544
#
# Poissons Ratio (x) = 0.67225 0.18202
# Poissons Ratio (y) = 0.65282 -0.17119
# Poissons Ratio (z) = 0.53593 -0.51906
#
# Static dielectric constant tensor:
#      x y z
#    x 1.792620 0.000000 0.000000 
#    y 0.000000 1.734740 0.000000 
#    z 0.000000 0.000000 1.799680 
# 
# From -- ./inp_files/1901.got.cif
#   From: 2010.05.17/outbox.cif.g08.bks.cpg/sg47_1_cif.got.tgz:1901.got - 2010.06.03 20:15:42.
