data_PCOD9387961
_publ_section_title
;
Structure prediction by ZEFSAII (Michael W. Deem and Ramdas Pophale) SiO2 
 PCOD9387961
Probable space group: P M M M
;
_chemical_formula_sum "Si O2"
_cell_formula_units_Z 48
_cell_length_a 8.225161
_cell_length_b 21.109093
_cell_length_c 15.205536
_cell_angle_alpha 90.000000
_cell_angle_beta 90.000000
_cell_angle_gamma 90.000000
_cell_volume 2640.071657
_symmetry_space_group_name_H-M "P M M M"
_symmetry_group_IT_number 47
_symmetry_cell_setting 'orthorhombic'
loop_
_space_group_symop_operation_xyz
x,y,z
-x,-y,z
x,-y,-z
-x,y,-z
-x,-y,-z
x,y,-z
-x,y,z
x,-y,z
loop_
_atom_site_type_symbol
_atom_site_label
_atom_site_fract_x
_atom_site_fract_y
_atom_site_fract_z
Si Si1 0.196637 0.423859 0.500000
Si Si2 0.303664 0.226186 0.902536
Si Si3 0.306046 0.191554 0.706181
Si Si4 0.821721 0.359844 0.850411
Si Si5 0.804572 0.070005 0.399458
Si Si6 0.303842 0.333457 0.339151
Si Si7 0.500000 0.433338 0.103508
O O1 0.243692 0.500000 0.500000
O O2 0.260363 0.381967 0.417164
O O3 0.000000 0.422683 0.500000
O O4 0.500000 0.238341 0.897909
O O5 0.258189 0.193147 0.809945
O O6 0.208742 0.292142 0.895527
O O7 0.273229 0.197558 0.000000
O O8 0.500000 0.189067 0.705388
O O9 0.243166 0.129235 0.659075
O O10 0.264528 0.257625 0.655210
O O11 0.799329 0.352334 0.746034
O O12 0.667227 0.400020 0.875940
O O13 0.000000 0.384607 0.872553
O O14 0.746656 0.078788 0.500000
O O15 0.000000 0.068145 0.401895
O O16 0.748203 0.000000 0.369095
O O17 0.500000 0.337368 0.322544
O O18 0.500000 0.500000 0.151789
O O19 0.500000 0.439601 0.000000
#
# Coordination Sequence:
#
# PCOD9387961 Si02
#       7
#     4   8   8   8   8   8   4
#     4  11  25  41  57  83 114 147 194 242 285 344
#     4   9  17  33  56  81 113 147 179 226 287 342
#     4   9  19  33  54  85 113 142 186 235 280 333
#     4  11  21  37  60  84 108 141 187 235 286 344
#     4   9  19  35  53  76 109 150 191 229 278 338
#     4  10  21  40  60  82 114 150 188 234 289 346
#     4  11  24  40  56  77 109 145 180 228 291 353
#
# _framework density 18.181325999999999
#
# number of rings (size 3 to 8) (size 9 to 14) (size 15 to 20)
#    0.000    2.167    1.667    2.750    1.167    7.000 
#    0.000    1.667    0.000    0.500    0.000    3.500 
#    0.000    0.000    0.000    0.000    0.000    0.000 
#
# Total GULP energy -267205.600506 kJ/mol
# GULP energy per Si atom -5566.783344 kJ/mol
# Density = 1.813994 g / cm^3
# Si number density = 18.181326 Si / 1000 Ang^3
#
#
#
# Elastic Constant Matrix: (Units=GPa)
#
#
# Indices 1 2 3 4 5 6 
#
# 1 75.1751 47.3745 21.6290 0.0000 0.0000 0.0000
# 2 47.3745 135.0451 75.3002 0.0000 0.0000 0.0000
# 3 21.6290 75.3002 108.7043 0.0000 0.0000 0.0000
# 4 0.0000 0.0000 0.0000 15.5783 0.0000 0.0000
# 5 0.0000 0.0000 0.0000 0.0000 -126.5189 0.0000
# 6 0.0000 0.0000 0.0000 0.0000 0.0000 112.1546
#
#
#
# Elastic Compliance Matrix: (Units=1/GPa)
#
#
# Indices 1 2 3 4 5 6 
#
# 1 0.017178 -0.006714 0.001232 0.000000 0.000000 0.000000
# 2 -0.006714 0.014689 -0.008839 0.000000 0.000000 0.000000
# 3 0.001232 -0.008839 0.015077 0.000000 0.000000 0.000000
# 4 0.000000 0.000000 0.000000 0.064192 0.000000 0.000000
# 5 0.000000 0.000000 0.000000 0.000000 -0.007904 0.000000
# 6 0.000000 0.000000 0.000000 0.000000 0.000000 0.008916
#
#
# Mechanical properties :
#
#
# Convention : Reuss Voigt Hill
#
# Bulk Modulus (GPa) = 54.63358 67.50353 61.06856
# Shear Modulus (GPa) = 34.03902 11.88418 22.96160
#
# Velocity S-wave (km/s) = 4.33158 2.55943 3.55762
# Velocity P-wave (km/s) = 7.42505 6.77811 7.10894
#
# Compressibility (1/GPa) = 0.01830376
#
# Stress axis : x y z
#
# Youngs Moduli (GPa) = 58.21249 68.07929 66.32605
#
# Poissons Ratio (x) = 0.45705 -0.08175
# Poissons Ratio (y) = 0.39081 0.58627
# Poissons Ratio (z) = -0.07175 0.60177
#
# Static dielectric constant tensor:
#      x y z
#    x 1.613800 0.000000 0.000000 
#    y 0.000000 1.935280 0.000000 
#    z 0.000000 0.000000 1.659810 
# 
# From -- ./inp_files/21152.got.cif
#   From: 2010.05.17/outbox.cif.g08.bks.cpg/sg47_11_cif.got.tgz:21152.got - 2010.06.03 20:15:42.
