data_PCOD9387466
_publ_section_title
;
Structure prediction by ZEFSAII (Michael W. Deem and Ramdas Pophale) SiO2 
 PCOD9387466
Probable space group: P M M M
;
_chemical_formula_sum "Si O2"
_cell_formula_units_Z 44
_cell_length_a 18.023226
_cell_length_b 15.035248
_cell_length_c 8.399052
_cell_angle_alpha 90.000000
_cell_angle_beta 90.000000
_cell_angle_gamma 90.000000
_cell_volume 2276.005958
_symmetry_space_group_name_H-M "P M M M"
_symmetry_group_IT_number 47
_symmetry_cell_setting 'orthorhombic'
loop_
_space_group_symop_operation_xyz
x,y,z
-x,-y,z
x,-y,-z
-x,y,-z
-x,-y,-z
x,y,-z
-x,y,z
x,-y,z
loop_
_atom_site_type_symbol
_atom_site_label
_atom_site_fract_x
_atom_site_fract_y
_atom_site_fract_z
Si Si1 0.500000 0.102821 0.694870
Si Si2 0.198158 0.144947 0.817904
Si Si3 0.684933 0.402980 0.310077
Si Si4 0.352725 0.205458 0.308226
Si Si5 0.085394 0.000000 0.689526
Si Si6 0.000000 0.394661 0.818652
Si Si7 0.841283 0.648195 0.814851
O O1 0.500000 0.102895 0.500000
O O2 0.573655 0.155091 0.746951
O O3 0.500000 0.000000 0.745491
O O4 0.278996 0.150443 0.737349
O O5 0.135163 0.083925 0.741543
O O6 0.171368 0.246656 0.814899
O O7 0.207844 0.116348 0.000000
O O8 0.673037 0.403236 0.500000
O O9 0.658474 0.500000 0.248468
O O10 0.652787 0.308346 0.248263
O O11 0.772607 0.395689 0.274475
O O12 0.354674 0.210202 0.500000
O O13 0.080578 0.000000 0.500000
O O14 0.000000 0.000000 0.752441
O O15 0.922076 0.368890 0.743097
O O16 0.000000 0.500000 0.831589
O O17 0.000000 0.355641 0.000000
O O18 0.840684 0.616862 0.000000
#
# Coordination Sequence:
#
# PCOD9387466 Si02
#       7
#     4   8   8   8   4   4   8
#     4   9  18  32  54  82 106 137 180 226 273 325
#     4  10  21  36  56  80 107 139 177 222 273 321
#     4   9  17  30  48  71 102 138 173 214 265 316
#     4   9  18  34  55  79 109 142 180 222 267 326
#     4  11  25  41  57  78 105 142 187 225 266 319
#     4   9  16  26  43  68  95 124 164 211 253 297
#     4   9  18  31  49  71  97 132 172 214 262 315
#
# _framework density 19.33211
#
# number of rings (size 3 to 8) (size 9 to 14) (size 15 to 20)
#    0.000    2.636    0.000    1.364    2.545    2.545 
#    0.000    1.364    0.000    4.909    0.000    0.000 
#    0.000    5.818    0.000    0.000    0.000    0.000 
#
# Total GULP energy -245162.912366 kJ/mol
# GULP energy per Si atom -5571.884372 kJ/mol
# Density = 1.928811 g / cm^3
# Si number density = 19.332110 Si / 1000 Ang^3
#
#
#
# Elastic Constant Matrix: (Units=GPa)
#
#
# Indices 1 2 3 4 5 6 
#
# 1 157.6102 78.6199 11.3174 0.0000 0.0000 0.0000
# 2 78.6199 126.1871 16.7173 0.0000 0.0000 0.0000
# 3 11.3174 16.7173 16.5701 0.0000 0.0000 0.0000
# 4 0.0000 0.0000 0.0000 12.8888 0.0000 0.0000
# 5 0.0000 0.0000 0.0000 0.0000 13.4727 0.0000
# 6 0.0000 0.0000 0.0000 0.0000 0.0000 10.9695
#
#
#
# Elastic Compliance Matrix: (Units=1/GPa)
#
#
# Indices 1 2 3 4 5 6 
#
# 1 0.009211 -0.005662 -0.000579 0.000000 0.000000 0.000000
# 2 -0.005662 0.012628 -0.008873 0.000000 0.000000 0.000000
# 3 -0.000579 -0.008873 0.069697 0.000000 0.000000 0.000000
# 4 0.000000 0.000000 0.000000 0.077587 0.000000 0.000000
# 5 0.000000 0.000000 0.000000 0.000000 0.074224 0.000000
# 6 0.000000 0.000000 0.000000 0.000000 0.000000 0.091162
#
#
# Mechanical properties :
#
#
# Convention : Reuss Voigt Hill
#
# Bulk Modulus (GPa) = 16.31107 57.07518 36.69313
# Shear Modulus (GPa) = 12.98125 20.38038 16.68081
#
# Velocity S-wave (km/s) = 2.59412 3.25040 2.94063
# Velocity P-wave (km/s) = 4.17471 6.60866 5.52732
#
# Compressibility (1/GPa) = 0.06130805
#
# Stress axis : x y z
#
# Youngs Moduli (GPa) = 108.57005 79.18992 14.34791
#
# Poissons Ratio (x) = 0.44837 0.00830
# Poissons Ratio (y) = 0.61472 0.12731
# Poissons Ratio (z) = 0.06282 0.70265
#
# Static dielectric constant tensor:
#      x y z
#    x 1.676500 0.000000 0.000000 
#    y 0.000000 1.699840 0.000000 
#    z 0.000000 0.000000 1.690520 
# 
# From -- ./inp_files/9089.got.cif
#   From: 2010.05.17/outbox.cif.g08.bks.cpg/sg47_5_cif.got.tgz:9089.got - 2010.06.03 20:15:42.
