data_PCOD9387914
_publ_section_title
;
Structure prediction by ZEFSAII (Michael W. Deem and Ramdas Pophale) SiO2 
 PCOD9387914
Probable space group: P M M M
;
_chemical_formula_sum "Si O2"
_cell_formula_units_Z 56
_cell_length_a 8.552959
_cell_length_b 15.503344
_cell_length_c 22.733175
_cell_angle_alpha 90.000000
_cell_angle_beta 90.000000
_cell_angle_gamma 90.000000
_cell_volume 3014.406856
_symmetry_space_group_name_H-M "P M M M"
_symmetry_group_IT_number 47
_symmetry_cell_setting 'orthorhombic'
loop_
_space_group_symop_operation_xyz
x,y,z
-x,-y,z
x,-y,-z
-x,y,-z
-x,-y,-z
x,y,-z
-x,y,z
x,-y,z
loop_
_atom_site_type_symbol
_atom_site_label
_atom_site_fract_x
_atom_site_fract_y
_atom_site_fract_z
Si Si1 0.684189 0.338657 0.875866
Si Si2 0.811824 0.903294 0.715443
Si Si3 0.311894 0.000000 0.069212
Si Si4 0.309458 0.402474 0.567906
Si Si5 0.812095 0.849605 0.848705
Si Si6 0.814402 0.595176 0.759057
Si Si7 0.313889 0.271183 0.667265
Si Si8 0.182964 0.603354 0.000000
O O1 0.500000 0.352227 0.869289
O O2 0.729803 0.240606 0.861365
O O3 0.774039 0.395234 0.827520
O O4 0.737430 0.361095 0.941348
O O5 0.769177 0.883453 0.783497
O O6 0.752259 0.824501 0.675935
O O7 0.000000 0.903177 0.712980
O O8 0.756885 0.000000 0.699840
O O9 0.241222 0.917807 0.102606
O O10 0.500000 0.000000 0.075108
O O11 0.273861 0.000000 0.000000
O O12 0.264100 0.388012 0.500000
O O13 0.500000 0.402623 0.569716
O O14 0.259336 0.500000 0.584841
O O15 0.255016 0.327689 0.611781
O O16 0.000000 0.838756 0.850119
O O17 0.764215 0.500000 0.738384
O O18 0.731288 0.671096 0.723649
O O19 0.000000 0.603619 0.750920
O O20 0.500000 0.264916 0.663295
O O21 0.195221 0.500000 0.000000
O O22 0.000000 0.627185 0.000000
#
# Coordination Sequence:
#
# PCOD9387914 Si02
#       8
#     8   8   4   8   8   8   8   4
#     4  12  25  40  60  85 112 142 184 238 290 337
#     4  10  21  39  60  81 110 150 193 236 288 351
#     4  11  25  41  59  85 117 145 182 239 297 348
#     4   8  15  30  53  83 122 164 200 237 286 345
#     4  11  22  40  62  82 109 147 190 231 284 353
#     4  11  23  38  56  80 115 156 192 229 282 348
#     4  11  21  33  56  90 120 149 193 246 297 345
#     4  11  25  45  65  82 105 144 189 229 279 347
#
# _framework density 18.577452000000001
#
# number of rings (size 3 to 8) (size 9 to 14) (size 15 to 20)
#    0.000    1.429    2.143    4.286    1.000    5.429 
#    0.000    0.000    0.000    2.143    0.000    8.000 
#    0.000    0.000    0.000    0.000    0.000    0.000 
#
# Total GULP energy -312923.400197 kJ/mol
# GULP energy per Si atom -5587.917861 kJ/mol
# Density = 1.853517 g / cm^3
# Si number density = 18.577452 Si / 1000 Ang^3
#
#
#
# Elastic Constant Matrix: (Units=GPa)
#
#
# Indices 1 2 3 4 5 6 
#
# 1 24.1009 18.5501 4.1313 0.0000 0.0000 0.0000
# 2 18.5501 140.7304 54.2950 0.0000 0.0000 0.0000
# 3 4.1313 54.2950 103.1440 0.0000 0.0000 0.0000
# 4 0.0000 0.0000 0.0000 27.0373 0.0000 0.0000
# 5 0.0000 0.0000 0.0000 0.0000 -43.4347 0.0000
# 6 0.0000 0.0000 0.0000 0.0000 0.0000 58.3464
#
#
#
# Elastic Compliance Matrix: (Units=1/GPa)
#
#
# Indices 1 2 3 4 5 6 
#
# 1 0.046416 -0.006777 0.001708 0.000000 0.000000 0.000000
# 2 -0.006777 0.009906 -0.004943 0.000000 0.000000 0.000000
# 3 0.001708 -0.004943 0.012229 0.000000 0.000000 0.000000
# 4 0.000000 0.000000 0.000000 0.036986 0.000000 0.000000
# 5 0.000000 0.000000 0.000000 0.000000 -0.023023 0.000000
# 6 0.000000 0.000000 0.000000 0.000000 0.000000 0.017139
#
#
# Mechanical properties :
#
#
# Convention : Reuss Voigt Hill
#
# Bulk Modulus (GPa) = 20.60721 46.88091 33.74406
# Shear Modulus (GPa) = 36.80463 21.12305 28.96384
#
# Velocity S-wave (km/s) = 4.45583 3.37564 3.95281
# Velocity P-wave (km/s) = 6.13101 6.36266 6.24791
#
# Compressibility (1/GPa) = 0.04852670
#
# Stress axis : x y z
#
# Youngs Moduli (GPa) = 21.54442 100.94631 81.77380
#
# Poissons Ratio (x) = 0.68415 -0.13971
# Poissons Ratio (y) = 0.14601 0.40422
# Poissons Ratio (z) = -0.03681 0.49900
#
# Static dielectric constant tensor:
#      x y z
#    x 1.627660 0.000000 0.000000 
#    y 0.000000 1.320930 0.000000 
#    z 0.000000 0.000000 1.631840 
# 
# From -- ./inp_files/11356.got.cif
#   From: 2010.05.17/outbox.cif.g08.bks.cpg/sg47_6_cif.got.tgz:11356.got - 2010.06.03 20:15:42.
