data_PCOD9387868
_publ_section_title
;
Structure prediction by ZEFSAII (Michael W. Deem and Ramdas Pophale) SiO2 
 PCOD9387868
Probable space group: P M M M
;
_chemical_formula_sum "Si O2"
_cell_formula_units_Z 44
_cell_length_a 7.256513
_cell_length_b 32.324797
_cell_length_c 9.072522
_cell_angle_alpha 90.000000
_cell_angle_beta 90.000000
_cell_angle_gamma 90.000000
_cell_volume 2128.098932
_symmetry_space_group_name_H-M "P M M M"
_symmetry_group_IT_number 47
_symmetry_cell_setting 'orthorhombic'
loop_
_space_group_symop_operation_xyz
x,y,z
-x,-y,z
x,-y,-z
-x,y,-z
-x,-y,-z
x,y,-z
-x,y,z
x,-y,z
loop_
_atom_site_type_symbol
_atom_site_label
_atom_site_fract_x
_atom_site_fract_y
_atom_site_fract_z
Si Si1 0.721983 0.633668 0.176197
Si Si2 0.724145 0.806969 0.331202
Si Si3 0.275427 0.723692 0.828041
Si Si4 0.279854 0.891642 0.173129
Si Si5 0.000000 0.951738 0.676292
Si Si6 0.276839 0.455417 0.824334
O O1 0.500000 0.633324 0.191966
O O2 0.785165 0.678580 0.230820
O O3 0.787688 0.589136 0.235166
O O4 0.759129 0.633896 0.000000
O O5 0.782420 0.811074 0.500000
O O6 0.500000 0.806098 0.329378
O O7 0.785663 0.763704 0.261164
O O8 0.777725 0.847165 0.238326
O O9 0.500000 0.723406 0.825295
O O10 0.223207 0.727449 0.000000
O O11 0.500000 0.895398 0.191825
O O12 0.174832 0.927743 0.257715
O O13 0.238120 0.893290 0.000000
O O14 0.000000 0.948406 0.500000
O O15 0.000000 0.000000 0.716795
O O16 0.500000 0.455380 0.813034
O O17 0.213499 0.500000 0.764349
O O18 0.235495 0.455442 0.000000
#
# Coordination Sequence:
#
# PCOD9387868 Si02
#       6
#     8   8   8   8   4   8
#     4   7   9  12  18  30  50  78 113 157 212 272
#     4   9  16  26  42  65  93 124 159 201 251 307
#     4   8  12  18  29  46  70 100 135 177 228 288
#     4  10  21  38  61  87 115 149 189 232 276 322
#     4  11  25  43  63  89 121 155 189 227 272 321
#     4   7   8   9  13  22  39  66 102 147 203 266
#
# _framework density 20.675730000000001
#
# number of rings (size 3 to 8) (size 9 to 14) (size 15 to 20)
#    0.000    3.545    0.000    4.091    0.000    4.364 
#    0.000    1.818    0.000    0.000    0.000    0.000 
#    0.000    0.727    0.000   10.182    0.000    9.091 
#
# Total GULP energy -245239.470251 kJ/mol
# GULP energy per Si atom -5573.624324 kJ/mol
# Density = 2.062867 g / cm^3
# Si number density = 20.675730 Si / 1000 Ang^3
#
#
#
# Elastic Constant Matrix: (Units=GPa)
#
#
# Indices 1 2 3 4 5 6 
#
# 1 89.7158 36.0532 17.3490 0.0000 0.0000 0.0000
# 2 36.0532 262.9161 79.8932 0.0000 0.0000 0.0000
# 3 17.3490 79.8932 63.9455 0.0000 0.0000 0.0000
# 4 0.0000 0.0000 0.0000 -50.8748 0.0000 0.0000
# 5 0.0000 0.0000 0.0000 0.0000 13.3492 0.0000
# 6 0.0000 0.0000 0.0000 0.0000 0.0000 139.8147
#
#
#
# Elastic Compliance Matrix: (Units=1/GPa)
#
#
# Indices 1 2 3 4 5 6 
#
# 1 0.011942 -0.001053 -0.001925 0.000000 0.000000 0.000000
# 2 -0.001053 0.006224 -0.007491 0.000000 0.000000 0.000000
# 3 -0.001925 -0.007491 0.025519 0.000000 0.000000 0.000000
# 4 0.000000 0.000000 0.000000 -0.019656 0.000000 0.000000
# 5 0.000000 0.000000 0.000000 0.000000 0.074911 0.000000
# 6 0.000000 0.000000 0.000000 0.000000 0.000000 0.007152
#
#
# Mechanical properties :
#
#
# Convention : Reuss Voigt Hill
#
# Bulk Modulus (GPa) = 43.95822 75.90760 59.93291
# Shear Modulus (GPa) = 37.14403 39.34327 38.24365
#
# Velocity S-wave (km/s) = 4.24312 4.36692 4.30547
# Velocity P-wave (km/s) = 6.73144 7.88795 7.33253
#
# Compressibility (1/GPa) = 0.02274888
#
# Stress axis : x y z
#
# Youngs Moduli (GPa) = 83.74145 160.66630 39.18592
#
# Poissons Ratio (x) = 0.16913 0.07542
# Poissons Ratio (y) = 0.08815 0.29353
# Poissons Ratio (z) = 0.16117 1.20351
#
# Static dielectric constant tensor:
#      x y z
#    x 1.670670 0.000000 0.000000 
#    y 0.000000 1.764350 0.000000 
#    z 0.000000 0.000000 1.674280 
# 
# From -- ./inp_files/2203.got.cif
#   From: 2010.05.17/outbox.cif.g08.bks.cpg/sg47_2_cif.got.tgz:2203.got - 2010.06.03 20:15:42.
