data_PCOD9387409
_publ_section_title
;
Structure prediction by ZEFSAII (Michael W. Deem and Ramdas Pophale) SiO2 
 PCOD9387409
Probable space group: P M M M
;
_chemical_formula_sum "Si O2"
_cell_formula_units_Z 56
_cell_length_a 21.946405
_cell_length_b 15.092314
_cell_length_c 7.374665
_cell_angle_alpha 90.000000
_cell_angle_beta 90.000000
_cell_angle_gamma 90.000000
_cell_volume 2442.651552
_symmetry_space_group_name_H-M "P M M M"
_symmetry_group_IT_number 47
_symmetry_cell_setting 'orthorhombic'
loop_
_space_group_symop_operation_xyz
x,y,z
-x,-y,z
x,-y,-z
-x,y,-z
-x,-y,-z
x,y,-z
-x,y,z
x,-y,z
loop_
_atom_site_type_symbol
_atom_site_label
_atom_site_fract_x
_atom_site_fract_y
_atom_site_fract_z
Si Si1 0.800821 0.787516 0.721571
Si Si2 0.072931 0.593743 0.293687
Si Si3 0.686094 0.099577 0.285210
Si Si4 0.751956 0.598691 0.718264
Si Si5 0.931855 0.207724 0.721509
Si Si6 0.391825 0.597521 0.786806
Si Si7 0.566442 0.786345 0.781564
O O1 0.800349 0.785199 0.500000
O O2 0.743026 0.843693 0.785845
O O3 0.789555 0.684862 0.778876
O O4 0.866002 0.831268 0.772496
O O5 0.098314 0.596781 0.500000
O O6 0.093047 0.500000 0.211652
O O7 0.078610 0.690910 0.214818
O O8 0.000000 0.587407 0.309272
O O9 0.696738 0.093042 0.500000
O O10 0.623029 0.151688 0.263944
O O11 0.682843 0.000000 0.211802
O O12 0.754044 0.597855 0.500000
O O13 0.770463 0.500000 0.780918
O O14 0.681095 0.609766 0.769926
O O15 0.934616 0.208190 0.500000
O O16 0.000000 0.177882 0.780103
O O17 0.406941 0.500000 0.710676
O O18 0.422227 0.686225 0.712708
O O19 0.406933 0.594165 0.000000
O O20 0.500000 0.818549 0.721133
O O21 0.565733 0.781799 0.000000
#
# Coordination Sequence:
#
# PCOD9387409 Si02
#       7
#     8   8   8   8   8   8   8
#     4   9  16  27  43  63  90 125 164 204 244 289
#     4   7   9  13  21  36  63 100 140 178 214 258
#     4  10  21  37  55  73  96 130 170 208 250 303
#     4   9  16  26  43  67  95 128 165 204 244 284
#     4   8  13  20  32  53  82 117 154 192 238 289
#     4   9  17  30  49  73 102 134 165 195 230 280
#     4  10  21  36  55  80 107 132 160 200 247 289
#
# _framework density 22.925906000000001
#
# number of rings (size 3 to 8) (size 9 to 14) (size 15 to 20)
#    0.000    3.143    1.429    1.286    0.000    1.714 
#    0.000    5.714    0.000    0.429    0.000    6.000 
#    0.000    2.286    0.000    4.857    0.000    5.143 
#
# Total GULP energy -312075.580498 kJ/mol
# GULP energy per Si atom -5572.778223 kJ/mol
# Density = 2.287373 g / cm^3
# Si number density = 22.925906 Si / 1000 Ang^3
#
#
#
# Elastic Constant Matrix: (Units=GPa)
#
#
# Indices 1 2 3 4 5 6 
#
# 1 182.9104 77.9854 -3.8278 0.0000 0.0000 0.0000
# 2 77.9854 107.6657 4.7918 0.0000 0.0000 0.0000
# 3 -3.8278 4.7918 80.7817 0.0000 0.0000 0.0000
# 4 0.0000 0.0000 0.0000 11.8981 0.0000 0.0000
# 5 0.0000 0.0000 0.0000 0.0000 15.0421 0.0000
# 6 0.0000 0.0000 0.0000 0.0000 0.0000 -8.8373
#
#
#
# Elastic Compliance Matrix: (Units=1/GPa)
#
#
# Indices 1 2 3 4 5 6 
#
# 1 0.007952 -0.005792 0.000720 0.000000 0.000000 0.000000
# 2 -0.005792 0.013531 -0.001077 0.000000 0.000000 0.000000
# 3 0.000720 -0.001077 0.012477 0.000000 0.000000 0.000000
# 4 0.000000 0.000000 0.000000 0.084047 0.000000 0.000000
# 5 0.000000 0.000000 0.000000 0.000000 0.066480 0.000000
# 6 0.000000 0.000000 0.000000 0.000000 0.000000 -0.113157
#
#
# Mechanical properties :
#
#
# Convention : Reuss Voigt Hill
#
# Bulk Modulus (GPa) = 46.16183 58.80629 52.48406
# Shear Modulus (GPa) = 55.03757 23.11448 39.07603
#
# Velocity S-wave (km/s) = 4.90498 3.17870 4.13298
# Velocity P-wave (km/s) = 7.22893 6.25927 6.76150
#
# Compressibility (1/GPa) = 0.02166292
#
# Stress axis : x y z
#
# Youngs Moduli (GPa) = 125.76204 73.90460 80.14705
#
# Poissons Ratio (x) = 0.42802 -0.05773
# Poissons Ratio (y) = 0.72836 0.08632
# Poissons Ratio (z) = -0.09059 0.07960
#
# Static dielectric constant tensor:
#      x y z
#    x 1.876710 0.000000 0.000000 
#    y 0.000000 1.875840 0.000000 
#    z 0.000000 0.000000 1.877890 
# 
# From -- ./inp_files/11267.got.cif
#   From: 2010.05.17/outbox.cif.g08.bks.cpg/sg47_6_cif.got.tgz:11267.got - 2010.06.03 20:15:42.
