data_PCOD9387046
_publ_section_title
;
Structure prediction by ZEFSAII (Michael W. Deem and Ramdas Pophale) SiO2 
 PCOD9387046
Probable space group: P M M M
;
_chemical_formula_sum "Si O2"
_cell_formula_units_Z 44
_cell_length_a 31.310904
_cell_length_b 7.688402
_cell_length_c 9.615477
_cell_angle_alpha 90.000000
_cell_angle_beta 90.000000
_cell_angle_gamma 90.000000
_cell_volume 2314.741633
_symmetry_space_group_name_H-M "P M M M"
_symmetry_group_IT_number 47
_symmetry_cell_setting 'orthorhombic'
loop_
_space_group_symop_operation_xyz
x,y,z
-x,-y,z
x,-y,-z
-x,y,-z
-x,-y,-z
x,y,-z
-x,y,z
x,-y,z
loop_
_atom_site_type_symbol
_atom_site_label
_atom_site_fract_x
_atom_site_fract_y
_atom_site_fract_z
Si Si1 0.221542 0.706606 0.341657
Si Si2 0.952679 0.787570 0.161005
Si Si3 0.615312 0.793237 0.334220
Si Si4 0.697193 0.792896 0.842843
Si Si5 0.451545 0.500000 0.668519
Si Si6 0.873515 0.791157 0.341989
O O1 0.226324 0.778302 0.500000
O O2 0.223803 0.500000 0.351078
O O3 0.259178 0.763218 0.240544
O O4 0.174141 0.753021 0.289415
O O5 0.912725 0.724949 0.250402
O O6 0.000000 0.734210 0.210785
O O7 0.952191 0.000000 0.163586
O O8 0.948377 0.736155 0.000000
O O9 0.623279 0.771276 0.500000
O O10 0.656775 0.733229 0.248129
O O11 0.575502 0.671762 0.293999
O O12 0.607658 0.000000 0.311160
O O13 0.691982 0.000000 0.853223
O O14 0.698238 0.721470 0.000000
O O15 0.500000 0.500000 0.721734
O O16 0.453714 0.500000 0.500000
O O17 0.875911 0.723792 0.500000
O O18 0.877482 0.000000 0.347210
#
# Coordination Sequence:
#
# PCOD9387046 Si02
#       6
#     8   8   8   8   4   8
#     4  10  21  35  51  72 100 134 169 207 253 307
#     4   8  14  25  42  65  91 118 151 194 244 295
#     4   9  18  33  54  79 108 143 180 221 270 320
#     4  10  21  36  54  77 104 134 171 216 262 308
#     4   9  18  32  53  83 113 141 181 229 270 315
#     4   9  17  29  46  68  93 121 155 198 246 296
#
# _framework density 19.008600999999999
#
# number of rings (size 3 to 8) (size 9 to 14) (size 15 to 20)
#    0.000    2.818    0.000    1.636    1.273    3.636 
#    0.000    5.455    0.000    1.636    0.000    6.364 
#    0.000    0.000    0.000    0.000    0.000    0.000 
#
# Total GULP energy -245320.400582 kJ/mol
# GULP energy per Si atom -5575.463650 kJ/mol
# Density = 1.896534 g / cm^3
# Si number density = 19.008601 Si / 1000 Ang^3
#
#
#
# Elastic Constant Matrix: (Units=GPa)
#
#
# Indices 1 2 3 4 5 6 
#
# 1 218.3919 32.8705 95.6830 0.0000 0.0000 0.0000
# 2 32.8705 45.9403 24.5650 0.0000 0.0000 0.0000
# 3 95.6830 24.5650 74.9598 0.0000 0.0000 0.0000
# 4 0.0000 0.0000 0.0000 6.6750 0.0000 0.0000
# 5 0.0000 0.0000 0.0000 0.0000 6.3383 0.0000
# 6 0.0000 0.0000 0.0000 0.0000 0.0000 64.1208
#
#
#
# Elastic Compliance Matrix: (Units=1/GPa)
#
#
# Indices 1 2 3 4 5 6 
#
# 1 0.010395 -0.000415 -0.013133 0.000000 0.000000 0.000000
# 2 -0.000415 0.026409 -0.008124 0.000000 0.000000 0.000000
# 3 -0.013133 -0.008124 0.032767 0.000000 0.000000 0.000000
# 4 0.000000 0.000000 0.000000 0.149812 0.000000 0.000000
# 5 0.000000 0.000000 0.000000 0.000000 0.157771 0.000000
# 6 0.000000 0.000000 0.000000 0.000000 0.000000 0.015596
#
#
# Mechanical properties :
#
#
# Convention : Reuss Voigt Hill
#
# Bulk Modulus (GPa) = 38.13083 71.72543 54.92813
# Shear Modulus (GPa) = 11.24006 27.83839 19.53923
#
# Velocity S-wave (km/s) = 2.43433 3.83105 3.20959
# Velocity P-wave (km/s) = 5.29194 7.57524 6.53410
#
# Compressibility (1/GPa) = 0.02622550
#
# Stress axis : x y z
#
# Youngs Moduli (GPa) = 96.19615 37.86624 30.51873
#
# Poissons Ratio (x) = 0.01573 0.40081
# Poissons Ratio (y) = 0.03996 0.24794
# Poissons Ratio (z) = 1.26336 0.30763
#
# Static dielectric constant tensor:
#      x y z
#    x 1.647520 0.000000 0.000000 
#    y 0.000000 1.690830 0.000000 
#    z 0.000000 0.000000 1.651640 
# 
# From -- ./inp_files/13665.got.cif
#   From: 2010.05.17/outbox.cif.g08.bks.cpg/sg47_7_cif.got.tgz:13665.got - 2010.06.03 20:15:42.
