data_PCOD9387773
_publ_section_title
;
Structure prediction by ZEFSAII (Michael W. Deem and Ramdas Pophale) SiO2 
 PCOD9387773
Probable space group: P M M M
;
_chemical_formula_sum "Si O2"
_cell_formula_units_Z 64
_cell_length_a 9.205091
_cell_length_b 24.595773
_cell_length_c 14.164099
_cell_angle_alpha 90.000000
_cell_angle_beta 90.000000
_cell_angle_gamma 90.000000
_cell_volume 3206.841654
_symmetry_space_group_name_H-M "P M M M"
_symmetry_group_IT_number 47
_symmetry_cell_setting 'orthorhombic'
loop_
_space_group_symop_operation_xyz
x,y,z
-x,-y,z
x,-y,-z
-x,y,-z
-x,-y,-z
x,y,-z
-x,y,z
x,-y,z
loop_
_atom_site_type_symbol
_atom_site_label
_atom_site_fract_x
_atom_site_fract_y
_atom_site_fract_z
Si Si1 0.827193 0.620494 0.391810
Si Si2 0.666498 0.268820 0.384922
Si Si3 0.332608 0.218153 0.114771
Si Si4 0.827913 0.108013 0.111489
Si Si5 0.168788 0.159586 0.385832
Si Si6 0.327275 0.061346 0.717041
Si Si7 0.670768 0.660823 0.886795
Si Si8 0.826306 0.439956 0.791135
O O1 0.787593 0.608122 0.500000
O O2 0.743646 0.674722 0.359965
O O3 0.798133 0.572184 0.319268
O O4 0.000000 0.631929 0.389327
O O5 0.666688 0.267699 0.500000
O O6 0.500000 0.267751 0.353111
O O7 0.751877 0.215025 0.354249
O O8 0.500000 0.207779 0.144727
O O9 0.228141 0.168430 0.138580
O O10 0.285351 0.278414 0.146299
O O11 0.335828 0.220279 0.000000
O O12 0.738990 0.068062 0.178408
O O13 0.000000 0.103027 0.126771
O O14 0.799271 0.099932 0.000000
O O15 0.174463 0.158206 0.500000
O O16 0.249733 0.107170 0.345177
O O17 0.000000 0.159898 0.357499
O O18 0.500000 0.070421 0.718757
O O19 0.299880 0.000000 0.682511
O O20 0.500000 0.655353 0.864788
O O21 0.756699 0.610365 0.845261
O O22 0.686289 0.659797 0.000000
O O23 0.773074 0.500000 0.818453
O O24 0.000000 0.438752 0.805131
#
# Coordination Sequence:
#
# PCOD9387773 Si02
#       8
#     8   8   8   8   8   8   8   8
#     4   9  18  34  55  77 105 142 181 223 271 322
#     4   9  17  31  54  84 115 144 177 219 268 325
#     4   8  15  31  55  81 109 140 176 219 268 326
#     4  10  21  37  59  87 117 148 182 225 278 331
#     4  10  21  38  61  87 115 147 182 224 276 331
#     4  11  25  42  59  81 110 148 194 236 273 321
#     4   9  19  36  57  80 106 139 177 216 263 320
#     4  10  22  37  52  75 105 138 181 228 272 320
#
# _framework density 19.957331
#
# number of rings (size 3 to 8) (size 9 to 14) (size 15 to 20)
#    0.000    2.500    0.000    2.250    0.000    7.500 
#    0.000    8.750    0.000    0.000    0.000    2.625 
#    0.000    0.000    0.000    0.000    0.000    0.000 
#
# Total GULP energy -357465.431295 kJ/mol
# GULP energy per Si atom -5585.397364 kJ/mol
# Density = 1.991191 g / cm^3
# Si number density = 19.957331 Si / 1000 Ang^3
#
#
#
# Elastic Constant Matrix: (Units=GPa)
#
#
# Indices 1 2 3 4 5 6 
#
# 1 61.8153 38.6791 9.9427 0.0000 0.0000 0.0000
# 2 38.6791 99.4797 1.9828 0.0000 0.0000 0.0000
# 3 9.9427 1.9828 25.1104 0.0000 0.0000 0.0000
# 4 0.0000 0.0000 0.0000 23.7520 0.0000 0.0000
# 5 0.0000 0.0000 0.0000 0.0000 24.6008 0.0000
# 6 0.0000 0.0000 0.0000 0.0000 0.0000 31.7651
#
#
#
# Elastic Compliance Matrix: (Units=1/GPa)
#
#
# Indices 1 2 3 4 5 6 
#
# 1 0.023030 -0.008787 -0.008425 0.000000 0.000000 0.000000
# 2 -0.008787 0.013420 0.002419 0.000000 0.000000 0.000000
# 3 -0.008425 0.002419 0.042969 0.000000 0.000000 0.000000
# 4 0.000000 0.000000 0.000000 0.042102 0.000000 0.000000
# 5 0.000000 0.000000 0.000000 0.000000 0.040649 0.000000
# 6 0.000000 0.000000 0.000000 0.000000 0.000000 0.031481
#
#
# Mechanical properties :
#
#
# Convention : Reuss Voigt Hill
#
# Bulk Modulus (GPa) = 20.06618 31.95717 26.01168
# Shear Modulus (GPa) = 20.84650 25.07697 22.96173
#
# Velocity S-wave (km/s) = 3.23546 3.54860 3.39564
# Velocity P-wave (km/s) = 4.90245 5.73041 5.33252
#
# Compressibility (1/GPa) = 0.04983509
#
# Stress axis : x y z
#
# Youngs Moduli (GPa) = 43.42094 74.51322 23.27250
#
# Poissons Ratio (x) = 0.65472 0.19608
# Poissons Ratio (y) = 0.38152 -0.05631
# Poissons Ratio (z) = 0.36583 -0.18028
#
# Static dielectric constant tensor:
#      x y z
#    x 1.664690 0.000000 0.000000 
#    y 0.000000 1.676990 0.000000 
#    z 0.000000 0.000000 1.759580 
# 
# From -- ./inp_files/7797.got.cif
#   From: 2010.05.17/outbox.cif.g08.bks.cpg/sg47_4_cif.got.tgz:7797.got - 2010.06.03 20:15:42.
