data_PCOD9387634
_publ_section_title
;
Structure prediction by ZEFSAII (Michael W. Deem and Ramdas Pophale) SiO2 
 PCOD9387634
Probable space group: P M M M
;
_chemical_formula_sum "Si O2"
_cell_formula_units_Z 52
_cell_length_a 8.937461
_cell_length_b 21.547845
_cell_length_c 13.857930
_cell_angle_alpha 90.000000
_cell_angle_beta 90.000000
_cell_angle_gamma 90.000000
_cell_volume 2668.802070
_symmetry_space_group_name_H-M "P M M M"
_symmetry_group_IT_number 47
_symmetry_cell_setting 'orthorhombic'
loop_
_space_group_symop_operation_xyz
x,y,z
-x,-y,z
x,-y,-z
-x,y,-z
-x,-y,-z
x,y,-z
-x,y,z
x,-y,z
loop_
_atom_site_type_symbol
_atom_site_label
_atom_site_fract_x
_atom_site_fract_y
_atom_site_fract_z
Si Si1 0.329563 0.000000 0.614781
Si Si2 0.324125 0.074374 0.888248
Si Si3 0.819859 0.430373 0.189795
Si Si4 0.679203 0.750309 0.690785
Si Si5 0.319915 0.307934 0.106663
Si Si6 0.179566 0.372130 0.392660
Si Si7 0.176860 0.878973 0.701945
O O1 0.245983 0.061245 0.650036
O O2 0.500000 0.000000 0.653091
O O3 0.334621 0.000000 0.500000
O O4 0.500000 0.087960 0.870581
O O5 0.224371 0.111340 0.813367
O O6 0.303415 0.000000 0.874920
O O7 0.292538 0.088368 0.000000
O O8 0.773260 0.500000 0.163586
O O9 0.745640 0.376055 0.127970
O O10 0.782727 0.416273 0.302344
O O11 0.000000 0.426342 0.180117
O O12 0.500000 0.753037 0.684578
O O13 0.723376 0.734233 0.801990
O O14 0.741303 0.693401 0.628116
O O15 0.750191 0.815787 0.664004
O O16 0.500000 0.311385 0.108057
O O17 0.273276 0.286219 0.000000
O O18 0.218169 0.395166 0.500000
O O19 0.000000 0.363109 0.389443
O O20 0.000000 0.877353 0.691168
#
# Coordination Sequence:
#
# PCOD9387634 Si02
#       7
#     4   8   8   8   8   8   8
#     4  11  25  45  66  85 108 143 187 230 274 331
#     4   9  18  34  57  82 110 146 182 215 257 315
#     4   9  18  32  51  79 113 146 181 221 269 327
#     4  10  21  37  57  79 106 143 185 228 273 328
#     4   9  19  36  56  78 106 144 189 231 269 312
#     4   9  18  34  55  78 106 140 179 227 279 327
#     4  12  24  38  59  87 117 146 178 226 283 335
#
# _framework density 19.484399
#
# number of rings (size 3 to 8) (size 9 to 14) (size 15 to 20)
#    0.000    2.231    0.769    2.538    0.000    4.308 
#    0.000    5.385    0.000    0.000    0.000    4.308 
#    0.000    0.000    0.000    0.000    0.000    0.000 
#
# Total GULP energy -290367.638476 kJ/mol
# GULP energy per Si atom -5583.993048 kJ/mol
# Density = 1.944005 g / cm^3
# Si number density = 19.484399 Si / 1000 Ang^3
#
#
#
# Elastic Constant Matrix: (Units=GPa)
#
#
# Indices 1 2 3 4 5 6 
#
# 1 28.9462 10.0319 -0.1326 0.0000 0.0000 0.0000
# 2 10.0319 69.6861 -19.2010 0.0000 0.0000 0.0000
# 3 -0.1326 -19.2010 46.7985 0.0000 0.0000 0.0000
# 4 0.0000 0.0000 0.0000 2.7842 0.0000 0.0000
# 5 0.0000 0.0000 0.0000 0.0000 11.8155 0.0000
# 6 0.0000 0.0000 0.0000 0.0000 0.0000 25.5936
#
#
#
# Elastic Compliance Matrix: (Units=1/GPa)
#
#
# Indices 1 2 3 4 5 6 
#
# 1 0.036583 -0.005905 -0.002319 0.000000 0.000000 0.000000
# 2 -0.005905 0.017132 0.007013 0.000000 0.000000 0.000000
# 3 -0.002319 0.007013 0.024239 0.000000 0.000000 0.000000
# 4 0.000000 0.000000 0.000000 0.359170 0.000000 0.000000
# 5 0.000000 0.000000 0.000000 0.000000 0.084635 0.000000
# 6 0.000000 0.000000 0.000000 0.000000 0.000000 0.039072
#
#
# Mechanical properties :
#
#
# Convention : Reuss Voigt Hill
#
# Bulk Modulus (GPa) = 13.23983 14.09193 13.66588
# Shear Modulus (GPa) = 8.49716 18.35416 13.42566
#
# Velocity S-wave (km/s) = 2.09057 3.07252 2.62782
# Velocity P-wave (km/s) = 3.55488 4.45368 4.02942
#
# Compressibility (1/GPa) = 0.07552966
#
# Stress axis : x y z
#
# Youngs Moduli (GPa) = 27.33519 58.36887 41.25619
#
# Poissons Ratio (x) = 0.34470 0.09568
# Poissons Ratio (y) = 0.16143 -0.28931
# Poissons Ratio (z) = 0.06340 -0.40931
#
# Static dielectric constant tensor:
#      x y z
#    x 1.647570 0.000000 0.000000 
#    y 0.000000 1.658690 0.000000 
#    z 0.000000 0.000000 1.709150 
# 
# From -- ./inp_files/21407.got.cif
#   From: 2010.05.17/outbox.cif.g08.bks.cpg/sg47_11_cif.got.tgz:21407.got - 2010.06.03 20:15:42.
