data_PCOD9387375
_publ_section_title
;
Structure prediction by ZEFSAII (Michael W. Deem and Ramdas Pophale) SiO2 
 PCOD9387375
Probable space group: P M M M
;
_chemical_formula_sum "Si O2"
_cell_formula_units_Z 56
_cell_length_a 9.604729
_cell_length_b 19.825026
_cell_length_c 15.870229
_cell_angle_alpha 90.000000
_cell_angle_beta 90.000000
_cell_angle_gamma 90.000000
_cell_volume 3021.913819
_symmetry_space_group_name_H-M "P M M M"
_symmetry_group_IT_number 47
_symmetry_cell_setting 'orthorhombic'
loop_
_space_group_symop_operation_xyz
x,y,z
-x,-y,z
x,-y,-z
-x,y,-z
-x,-y,-z
x,y,-z
-x,y,z
x,-y,z
loop_
_atom_site_type_symbol
_atom_site_label
_atom_site_fract_x
_atom_site_fract_y
_atom_site_fract_z
Si Si1 0.660324 0.796246 0.850839
Si Si2 0.659644 0.202601 0.347894
Si Si3 0.161986 0.074823 0.398211
Si Si4 0.840245 0.923069 0.898080
Si Si5 0.835081 0.330263 0.093970
Si Si6 0.834153 0.420570 0.255781
Si Si7 0.332723 0.650583 0.595434
O O1 0.500000 0.797924 0.879114
O O2 0.662445 0.781215 0.751236
O O3 0.734625 0.867736 0.864756
O O4 0.747364 0.737858 0.895876
O O5 0.500000 0.188342 0.372834
O O6 0.751096 0.137144 0.364592
O O7 0.705971 0.270352 0.395201
O O8 0.167936 0.076348 0.500000
O O9 0.000000 0.081282 0.373816
O O10 0.210695 0.000000 0.371033
O O11 0.000000 0.908032 0.872361
O O12 0.808039 0.000000 0.872144
O O13 0.836765 0.921142 0.000000
O O14 0.799034 0.380896 0.169668
O O15 0.000000 0.314504 0.101312
O O16 0.812254 0.358661 0.000000
O O17 0.807429 0.500000 0.246400
O O18 0.748178 0.390617 0.333648
O O19 0.000000 0.411390 0.270567
O O20 0.302962 0.627858 0.500000
O O21 0.500000 0.646410 0.609024
#
# Coordination Sequence:
#
# PCOD9387375 Si02
#       7
#     8   8   8   8   8   8   8
#     4  11  22  35  54  81 113 147 187 239 290 336
#     4  10  21  36  54  78 110 147 189 236 283 335
#     4   9  19  35  53  76 107 142 184 235 288 341
#     4   9  19  36  55  75 104 145 191 236 284 341
#     4  10  21  38  61  87 116 153 194 233 279 341
#     4  10  22  40  62  90 122 152 186 233 285 337
#     4  10  21  39  62  86 116 156 198 237 282 339
#
# _framework density 18.531303999999999
#
# number of rings (size 3 to 8) (size 9 to 14) (size 15 to 20)
#    0.000    2.143    1.429    2.143    0.000    7.143 
#    0.000    7.143    0.000    0.000    0.000    2.000 
#    0.000    0.000    0.000    0.000    0.000    0.000 
#
# Total GULP energy -312625.195820 kJ/mol
# GULP energy per Si atom -5582.592783 kJ/mol
# Density = 1.848913 g / cm^3
# Si number density = 18.531304 Si / 1000 Ang^3
#
#
#
# Elastic Constant Matrix: (Units=GPa)
#
#
# Indices 1 2 3 4 5 6 
#
# 1 63.8903 65.5199 50.5484 0.0000 0.0000 0.0000
# 2 65.5199 115.3643 56.4679 0.0000 0.0000 0.0000
# 3 50.5484 56.4679 101.6028 0.0000 0.0000 0.0000
# 4 0.0000 0.0000 0.0000 -7.4628 0.0000 0.0000
# 5 0.0000 0.0000 0.0000 0.0000 23.4364 0.0000
# 6 0.0000 0.0000 0.0000 0.0000 0.0000 17.5095
#
#
#
# Elastic Compliance Matrix: (Units=1/GPa)
#
#
# Indices 1 2 3 4 5 6 
#
# 1 0.045326 -0.020200 -0.011324 0.000000 0.000000 0.000000
# 2 -0.020200 0.020909 -0.001571 0.000000 0.000000 0.000000
# 3 -0.011324 -0.001571 0.016349 0.000000 0.000000 0.000000
# 4 0.000000 0.000000 0.000000 -0.133998 0.000000 0.000000
# 5 0.000000 0.000000 0.000000 0.000000 0.042669 0.000000
# 6 0.000000 0.000000 0.000000 0.000000 0.000000 0.057112
#
#
# Mechanical properties :
#
#
# Convention : Reuss Voigt Hill
#
# Bulk Modulus (GPa) = 60.99372 69.54774 65.27073
# Shear Modulus (GPa) = 41.65927 13.91802 27.78864
#
# Velocity S-wave (km/s) = 4.74650 2.74351 3.87661
# Velocity P-wave (km/s) = 7.93879 6.90269 7.43880
#
# Compressibility (1/GPa) = 0.01639513
#
# Stress axis : x y z
#
# Youngs Moduli (GPa) = 22.06261 47.82523 61.16512
#
# Poissons Ratio (x) = 0.96605 0.69261
# Poissons Ratio (y) = 0.44565 0.09611
# Poissons Ratio (z) = 0.24983 0.07515
#
# Static dielectric constant tensor:
#      x y z
#    x 1.620460 0.000000 0.000000 
#    y 0.000000 1.611940 0.000000 
#    z 0.000000 0.000000 1.660090 
# 
# From -- ./inp_files/7188.got.cif
#   From: 2010.05.17/outbox.cif.g08.bks.cpg/sg47_4_cif.got.tgz:7188.got - 2010.06.03 20:15:42.
