data_PCOD9387505
_publ_section_title
;
Structure prediction by ZEFSAII (Michael W. Deem and Ramdas Pophale) SiO2 
 PCOD9387505
Probable space group: P M M M
;
_chemical_formula_sum "Si O2"
_cell_formula_units_Z 56
_cell_length_a 14.145710
_cell_length_b 23.036346
_cell_length_c 9.480340
_cell_angle_alpha 90.000000
_cell_angle_beta 90.000000
_cell_angle_gamma 90.000000
_cell_volume 3089.315450
_symmetry_space_group_name_H-M "P M M M"
_symmetry_group_IT_number 47
_symmetry_cell_setting 'orthorhombic'
loop_
_space_group_symop_operation_xyz
x,y,z
-x,-y,z
x,-y,-z
-x,y,-z
-x,-y,-z
x,y,-z
-x,y,z
x,-y,z
loop_
_atom_site_type_symbol
_atom_site_label
_atom_site_fract_x
_atom_site_fract_y
_atom_site_fract_z
Si Si1 0.186858 0.111042 0.341484
Si Si2 0.604911 0.270741 0.331992
Si Si3 0.611935 0.064362 0.000000
Si Si4 0.886849 0.220798 0.164284
Si Si5 0.112773 0.431734 0.164371
Si Si6 0.390140 0.861063 0.274800
Si Si7 0.800620 0.671488 0.668783
Si Si8 0.886278 0.000000 0.169518
O O1 0.145191 0.108444 0.500000
O O2 0.153638 0.167424 0.254488
O O3 0.299750 0.117575 0.359919
O O4 0.157217 0.055879 0.248038
O O5 0.607776 0.257205 0.500000
O O6 0.500000 0.293350 0.299206
O O7 0.617180 0.208410 0.258245
O O8 0.690459 0.313858 0.304038
O O9 0.629599 0.103672 0.133527
O O10 0.500000 0.056038 0.000000
O O11 0.655684 0.000000 0.000000
O O12 0.856918 0.279310 0.244860
O O13 0.000000 0.216444 0.162800
O O14 0.854581 0.220246 0.000000
O O15 0.132017 0.500000 0.186559
O O16 0.168298 0.390050 0.269161
O O17 0.000000 0.422985 0.183076
O O18 0.134261 0.417958 0.000000
O O19 0.500000 0.872120 0.320788
O O20 0.817429 0.675623 0.500000
O O21 0.000000 0.000000 0.188728
O O22 0.870030 0.000000 0.000000
#
# Coordination Sequence:
#
# PCOD9387505 Si02
#       8
#     8   8   4   8   8   8   8   4
#     4  12  25  40  62  90 115 146 188 241 298 345
#     4   9  18  35  56  78 111 152 190 231 285 349
#     4   9  20  36  54  80 110 148 193 238 289 343
#     4  11  24  40  58  81 113 153 193 235 289 353
#     4   9  19  37  59  83 117 162 203 236 281 346
#     4  10  21  36  58  84 116 154 191 233 289 353
#     4  11  21  34  57  90 120 149 191 243 296 339
#     4  11  27  49  68  83 106 148 196 238 290 361
#
# _framework density 18.126994
#
# number of rings (size 3 to 8) (size 9 to 14) (size 15 to 20)
#    0.000    1.714    1.429    3.214    3.000    6.571 
#    1.286    0.714    0.000    1.286    0.000    3.000 
#    0.000    0.000    0.000    0.000    0.000    0.000 
#
# Total GULP energy -312320.282537 kJ/mol
# GULP energy per Si atom -5577.147902 kJ/mol
# Density = 1.808574 g / cm^3
# Si number density = 18.126994 Si / 1000 Ang^3
#
#
#
# Elastic Constant Matrix: (Units=GPa)
#
#
# Indices 1 2 3 4 5 6 
#
# 1 106.7475 48.8754 56.4248 0.0000 0.0000 0.0000
# 2 48.8754 101.2522 70.9563 0.0000 0.0000 0.0000
# 3 56.4248 70.9563 140.7587 0.0000 0.0000 0.0000
# 4 0.0000 0.0000 0.0000 40.9707 0.0000 0.0000
# 5 0.0000 0.0000 0.0000 0.0000 20.7173 0.0000
# 6 0.0000 0.0000 0.0000 0.0000 0.0000 36.4709
#
#
#
# Elastic Compliance Matrix: (Units=1/GPa)
#
#
# Indices 1 2 3 4 5 6 
#
# 1 0.012861 -0.004013 -0.003133 0.000000 0.000000 0.000000
# 2 -0.004013 0.016523 -0.006721 0.000000 0.000000 0.000000
# 3 -0.003133 -0.006721 0.011748 0.000000 0.000000 0.000000
# 4 0.000000 0.000000 0.000000 0.024408 0.000000 0.000000
# 5 0.000000 0.000000 0.000000 0.000000 0.048269 0.000000
# 6 0.000000 0.000000 0.000000 0.000000 0.000000 0.027419
#
#
# Mechanical properties :
#
#
# Convention : Reuss Voigt Hill
#
# Bulk Modulus (GPa) = 74.62767 77.91904 76.27336
# Shear Modulus (GPa) = 28.83058 31.13191 29.98125
#
# Velocity S-wave (km/s) = 3.99241 4.14869 4.07130
# Velocity P-wave (km/s) = 7.90640 8.12571 8.01681
#
# Compressibility (1/GPa) = 0.01339986
#
# Stress axis : x y z
#
# Youngs Moduli (GPa) = 77.75399 60.52112 85.12071
#
# Poissons Ratio (x) = 0.24286 0.26665
# Poissons Ratio (y) = 0.31201 0.57207
# Poissons Ratio (z) = 0.24358 0.40675
#
# Static dielectric constant tensor:
#      x y z
#    x 1.649290 0.000000 0.000000 
#    y 0.000000 1.600300 0.000000 
#    z 0.000000 0.000000 1.844170 
# 
# From -- ./inp_files/7380.got.cif
#   From: 2010.05.17/outbox.cif.g08.bks.cpg/sg47_4_cif.got.tgz:7380.got - 2010.06.03 20:15:42.
