data_PCOD9387065
_publ_section_title
;
Structure prediction by ZEFSAII (Michael W. Deem and Ramdas Pophale) SiO2 
 PCOD9387065
Probable space group: P M M M
;
_chemical_formula_sum "Si O2"
_cell_formula_units_Z 56
_cell_length_a 19.039872
_cell_length_b 19.132201
_cell_length_c 9.453573
_cell_angle_alpha 90.000000
_cell_angle_beta 90.000000
_cell_angle_gamma 90.000000
_cell_volume 3443.697073
_symmetry_space_group_name_H-M "P M M M"
_symmetry_group_IT_number 47
_symmetry_cell_setting 'orthorhombic'
loop_
_space_group_symop_operation_xyz
x,y,z
-x,-y,z
x,-y,-z
-x,y,-z
-x,-y,-z
x,y,-z
-x,y,z
x,-y,z
loop_
_atom_site_type_symbol
_atom_site_label
_atom_site_fract_x
_atom_site_fract_y
_atom_site_fract_z
Si Si1 0.081703 0.351641 0.332986
Si Si2 0.580984 0.213881 0.669235
Si Si3 0.585313 0.922941 0.163553
Si Si4 0.917463 0.919381 0.169837
Si Si5 0.286421 0.300208 0.330771
Si Si6 0.845722 0.795067 0.333042
Si Si7 0.793174 0.418542 0.167941
O O1 0.096016 0.364691 0.500000
O O2 0.101925 0.270517 0.307297
O O3 0.132271 0.398336 0.237692
O O4 0.000000 0.363664 0.305956
O O5 0.582392 0.204956 0.500000
O O6 0.500000 0.227734 0.711131
O O7 0.605888 0.142134 0.741414
O O8 0.635725 0.274463 0.704975
O O9 0.500000 0.924263 0.166098
O O10 0.609359 0.000000 0.211019
O O11 0.606233 0.913304 0.000000
O O12 0.869658 0.861929 0.245177
O O13 0.000000 0.907601 0.205384
O O14 0.900530 0.000000 0.207975
O O15 0.911106 0.913379 0.000000
O O16 0.281453 0.313424 0.500000
O O17 0.230777 0.237724 0.300207
O O18 0.261662 0.367426 0.244728
O O19 0.847851 0.811438 0.500000
O O20 0.777900 0.500000 0.191771
O O21 0.794623 0.405486 0.000000
#
# Coordination Sequence:
#
# PCOD9387065 Si02
#       7
#     8   8   8   8   8   8   8
#     4   9  18  32  50  73 100 129 160 193 232 280
#     4   9  17  30  50  74  96 120 156 202 245 284
#     4   8  14  25  41  63  93 126 156 186 224 274
#     4   9  18  31  45  63  89 121 158 200 242 279
#     4   9  19  35  52  71  96 124 154 190 235 289
#     4   9  17  30  47  66  90 120 155 193 230 272
#     4  10  21  35  51  73  99 126 158 194 229 271
#
# _framework density 16.261593000000001
#
# number of rings (size 3 to 8) (size 9 to 14) (size 15 to 20)
#    0.000    3.000    0.000    2.571    0.000    6.000 
#    0.000    4.286    0.000    4.714    0.000    3.000 
#    0.000    0.000    0.000    0.000    0.000    0.000 
#
# Total GULP energy -311978.024847 kJ/mol
# GULP energy per Si atom -5571.036158 kJ/mol
# Density = 1.622458 g / cm^3
# Si number density = 16.261593 Si / 1000 Ang^3
#
#
#
# Elastic Constant Matrix: (Units=GPa)
#
#
# Indices 1 2 3 4 5 6 
#
# 1 83.4957 66.0869 46.4011 0.0000 0.0000 0.0000
# 2 66.0869 119.5579 67.0946 0.0000 0.0000 0.0000
# 3 46.4011 67.0946 49.5972 0.0000 0.0000 0.0000
# 4 0.0000 0.0000 0.0000 38.0593 0.0000 0.0000
# 5 0.0000 0.0000 0.0000 0.0000 13.3971 0.0000
# 6 0.0000 0.0000 0.0000 0.0000 0.0000 10.6660
#
#
#
# Elastic Compliance Matrix: (Units=1/GPa)
#
#
# Indices 1 2 3 4 5 6 
#
# 1 0.025187 -0.002901 -0.019640 0.000000 0.000000 0.000000
# 2 -0.002901 0.035065 -0.044721 0.000000 0.000000 0.000000
# 3 -0.019640 -0.044721 0.099035 0.000000 0.000000 0.000000
# 4 0.000000 0.000000 0.000000 0.026275 0.000000 0.000000
# 5 0.000000 0.000000 0.000000 0.000000 0.074643 0.000000
# 6 0.000000 0.000000 0.000000 0.000000 0.000000 0.093756
#
#
# Mechanical properties :
#
#
# Convention : Reuss Voigt Hill
#
# Bulk Modulus (GPa) = 40.38273 67.97954 54.18113
# Shear Modulus (GPa) = 10.06565 17.29571 13.68068
#
# Velocity S-wave (km/s) = 2.49064 3.26481 2.90364
# Velocity P-wave (km/s) = 5.75831 7.49043 6.68074
#
# Compressibility (1/GPa) = 0.02476306
#
# Stress axis : x y z
#
# Youngs Moduli (GPa) = 39.70281 28.51874 10.09740
#
# Poissons Ratio (x) = 0.08272 0.19831
# Poissons Ratio (y) = 0.11516 0.45157
# Poissons Ratio (z) = 0.77977 1.27540
#
# Static dielectric constant tensor:
#      x y z
#    x 1.556200 0.000000 0.000000 
#    y 0.000000 1.531480 0.000000 
#    z 0.000000 0.000000 1.537860 
# 
# From -- ./inp_files/11516.got.cif
#   From: 2010.05.17/outbox.cif.g08.bks.cpg/sg47_6_cif.got.tgz:11516.got - 2010.06.03 20:15:42.
