data_PCOD9387411
_publ_section_title
;
Structure prediction by ZEFSAII (Michael W. Deem and Ramdas Pophale) SiO2 
 PCOD9387411
Probable space group: P M M M
;
_chemical_formula_sum "Si O2"
_cell_formula_units_Z 52
_cell_length_a 30.132658
_cell_length_b 10.878407
_cell_length_c 9.200759
_cell_angle_alpha 90.000000
_cell_angle_beta 90.000000
_cell_angle_gamma 90.000000
_cell_volume 3015.965720
_symmetry_space_group_name_H-M "P M M M"
_symmetry_group_IT_number 47
_symmetry_cell_setting 'orthorhombic'
loop_
_space_group_symop_operation_xyz
x,y,z
-x,-y,z
x,-y,-z
-x,y,-z
-x,-y,-z
x,y,-z
-x,y,z
x,-y,z
loop_
_atom_site_type_symbol
_atom_site_label
_atom_site_fract_x
_atom_site_fract_y
_atom_site_fract_z
Si Si1 0.549545 0.649562 0.830670
Si Si2 0.363376 0.648502 0.335165
Si Si3 0.728517 0.355156 0.825387
Si Si4 0.051375 0.000000 0.827048
Si Si5 0.110178 0.799280 0.671765
Si Si6 0.049490 0.354317 0.834539
Si Si7 0.212935 0.143307 0.674951
O O1 0.500000 0.688397 0.783882
O O2 0.549859 0.500000 0.826040
O O3 0.590603 0.693838 0.734551
O O4 0.555616 0.683128 0.000000
O O5 0.356752 0.693344 0.500000
O O6 0.366857 0.500000 0.341911
O O7 0.320881 0.672081 0.234755
O O8 0.738860 0.500000 0.786796
O O9 0.759671 0.250943 0.754337
O O10 0.729867 0.347120 0.000000
O O11 0.077035 0.886885 0.757869
O O12 0.000000 0.000000 0.787414
O O13 0.054954 0.000000 0.000000
O O14 0.104816 0.813246 0.500000
O O15 0.090780 0.672072 0.729787
O O16 0.160928 0.831159 0.705811
O O17 0.046124 0.500000 0.844219
O O18 0.000000 0.309578 0.787068
O O19 0.056841 0.307651 0.000000
O O20 0.219289 0.153542 0.500000
O O21 0.223139 0.000000 0.714944
#
# Coordination Sequence:
#
# PCOD9387411 Si02
#       7
#     8   8   8   4   8   8   8
#     4   8  13  21  34  55  88 131 174 216 265 318
#     4   9  16  26  42  65  95 133 175 219 268 320
#     4  10  21  36  55  80 107 137 179 227 271 320
#     4  11  23  37  55  79 105 133 165 199 240 295
#     4  11  22  37  56  79 105 132 165 207 254 303
#     4   9  19  36  55  76 106 141 173 206 246 296
#     4  10  22  41  59  77 107 141 174 216 269 324
#
# _framework density 17.241575000000001
#
# number of rings (size 3 to 8) (size 9 to 14) (size 15 to 20)
#    0.000    2.385    0.769    3.000    0.000    8.308 
#    0.000    5.385    0.000    0.000    0.000    0.000 
#    0.000    0.615    0.000    6.462    0.000    8.923 
#
# Total GULP energy -289554.646634 kJ/mol
# GULP energy per Si atom -5568.358589 kJ/mol
# Density = 1.720233 g / cm^3
# Si number density = 17.241575 Si / 1000 Ang^3
#
#
#
# Elastic Constant Matrix: (Units=GPa)
#
#
# Indices 1 2 3 4 5 6 
#
# 1 134.0647 55.5616 71.7766 0.0000 0.0000 0.0000
# 2 55.5616 72.3156 38.3131 0.0000 0.0000 0.0000
# 3 71.7766 38.3131 67.7258 0.0000 0.0000 0.0000
# 4 0.0000 0.0000 0.0000 15.7457 0.0000 0.0000
# 5 0.0000 0.0000 0.0000 0.0000 34.0336 0.0000
# 6 0.0000 0.0000 0.0000 0.0000 0.0000 11.7266
#
#
#
# Elastic Compliance Matrix: (Units=1/GPa)
#
#
# Indices 1 2 3 4 5 6 
#
# 1 0.018665 -0.005513 -0.016662 0.000000 0.000000 0.000000
# 2 -0.005513 0.021375 -0.006250 0.000000 0.000000 0.000000
# 3 -0.016662 -0.006250 0.035960 0.000000 0.000000 0.000000
# 4 0.000000 0.000000 0.000000 0.063509 0.000000 0.000000
# 5 0.000000 0.000000 0.000000 0.000000 0.029383 0.000000
# 6 0.000000 0.000000 0.000000 0.000000 0.000000 0.085276
#
#
# Mechanical properties :
#
#
# Convention : Reuss Voigt Hill
#
# Bulk Modulus (GPa) = 52.21920 67.26764 59.74342
# Shear Modulus (GPa) = 15.75298 19.53149 17.64224
#
# Velocity S-wave (km/s) = 3.02596 3.36938 3.20228
# Velocity P-wave (km/s) = 6.52389 7.36454 6.95693
#
# Compressibility (1/GPa) = 0.01915004
#
# Stress axis : x y z
#
# Youngs Moduli (GPa) = 53.57753 46.78409 27.80874
#
# Poissons Ratio (x) = 0.25790 0.46336
# Poissons Ratio (y) = 0.29535 0.17379
# Poissons Ratio (z) = 0.89273 0.29238
#
# Static dielectric constant tensor:
#      x y z
#    x 1.580920 0.000000 0.000000 
#    y 0.000000 2.132860 0.000000 
#    z 0.000000 0.000000 1.582040 
# 
# From -- ./inp_files/13261.got.cif
#   From: 2010.05.17/outbox.cif.g08.bks.cpg/sg47_7_cif.got.tgz:13261.got - 2010.06.03 20:15:42.
