data_PCOD9388105
_publ_section_title
;
Structure prediction by ZEFSAII (Michael W. Deem and Ramdas Pophale) SiO2 
 PCOD9388105
Probable space group: P M M M
;
_chemical_formula_sum "Si O2"
_cell_formula_units_Z 44
_cell_length_a 9.179291
_cell_length_b 31.731947
_cell_length_c 7.679389
_cell_angle_alpha 90.000000
_cell_angle_beta 90.000000
_cell_angle_gamma 90.000000
_cell_volume 2236.827666
_symmetry_space_group_name_H-M "P M M M"
_symmetry_group_IT_number 47
_symmetry_cell_setting 'orthorhombic'
loop_
_space_group_symop_operation_xyz
x,y,z
-x,-y,z
x,-y,-z
-x,y,-z
-x,-y,-z
x,y,-z
-x,y,z
x,-y,z
loop_
_atom_site_type_symbol
_atom_site_label
_atom_site_fract_x
_atom_site_fract_y
_atom_site_fract_z
Si Si1 0.173712 0.104247 0.207919
Si Si2 0.169379 0.546140 0.212587
Si Si3 0.333550 0.810549 0.792361
Si Si4 0.672226 0.949708 0.500000
Si Si5 0.334697 0.371504 0.791919
Si Si6 0.665945 0.719003 0.706371
O O1 0.237643 0.149852 0.263361
O O2 0.252404 0.070296 0.329603
O O3 0.000000 0.103023 0.232545
O O4 0.202512 0.098223 0.000000
O O5 0.226783 0.500000 0.267091
O O6 0.252343 0.587457 0.276177
O O7 0.000000 0.548566 0.261705
O O8 0.174142 0.546567 0.000000
O O9 0.500000 0.812688 0.721008
O O10 0.269518 0.764272 0.754344
O O11 0.343932 0.813658 0.000000
O O12 0.500000 0.939582 0.500000
O O13 0.688943 0.000000 0.500000
O O14 0.500000 0.370445 0.722016
O O15 0.265643 0.325518 0.759913
O O16 0.342703 0.376114 0.000000
O O17 0.656075 0.718109 0.500000
O O18 0.500000 0.719353 0.781917
#
# Coordination Sequence:
#
# PCOD9388105 Si02
#       6
#     8   8   8   4   8   8
#     4  10  22  40  62  90 125 162 198 242 298 355
#     4   8  14  25  41  61  84 110 143 186 238 295
#     4   9  17  31  53  79 106 140 184 229 270 319
#     4  11  25  43  65  93 123 159 205 253 296 343
#     4   9  16  26  42  64  89 116 150 196 245 293
#     4   9  17  28  44  68  97 130 167 207 253 307
#
# _framework density 19.670715999999999
#
# number of rings (size 3 to 8) (size 9 to 14) (size 15 to 20)
#    0.000    2.818    0.000    1.909    1.273    4.727 
#    0.000    4.545    0.000    6.545    0.000    3.818 
#    0.000    0.000    0.000    0.000    0.000    0.000 
#
# Total GULP energy -245206.875045 kJ/mol
# GULP energy per Si atom -5572.883524 kJ/mol
# Density = 1.962594 g / cm^3
# Si number density = 19.670716 Si / 1000 Ang^3
#
#
#
# Elastic Constant Matrix: (Units=GPa)
#
#
# Indices 1 2 3 4 5 6 
#
# 1 69.5773 78.3863 31.6130 0.0000 0.0000 0.0000
# 2 78.3863 190.0662 41.6863 0.0000 0.0000 0.0000
# 3 31.6130 41.6863 55.6940 0.0000 0.0000 0.0000
# 4 0.0000 0.0000 0.0000 64.7089 0.0000 0.0000
# 5 0.0000 0.0000 0.0000 0.0000 12.8432 0.0000
# 6 0.0000 0.0000 0.0000 0.0000 0.0000 124.7647
#
#
#
# Elastic Compliance Matrix: (Units=1/GPa)
#
#
# Indices 1 2 3 4 5 6 
#
# 1 0.030504 -0.010508 -0.009450 0.000000 0.000000 0.000000
# 2 -0.010508 0.009914 -0.001456 0.000000 0.000000 0.000000
# 3 -0.009450 -0.001456 0.024409 0.000000 0.000000 0.000000
# 4 0.000000 0.000000 0.000000 0.015454 0.000000 0.000000
# 5 0.000000 0.000000 0.000000 0.000000 0.077862 0.000000
# 6 0.000000 0.000000 0.000000 0.000000 0.000000 0.008015
#
#
# Mechanical properties :
#
#
# Convention : Reuss Voigt Hill
#
# Bulk Modulus (GPa) = 45.45486 68.74541 57.10013
# Shear Modulus (GPa) = 23.11383 51.37348 37.24365
#
# Velocity S-wave (km/s) = 3.43160 5.11600 4.35599
# Velocity P-wave (km/s) = 6.23372 8.36193 7.37499
#
# Compressibility (1/GPa) = 0.02199985
#
# Stress axis : x y z
#
# Youngs Moduli (GPa) = 32.78208 100.86382 40.96818
#
# Poissons Ratio (x) = 1.05987 0.38714
# Poissons Ratio (y) = 0.34447 0.05966
# Poissons Ratio (z) = 0.30979 0.14688
#
# Static dielectric constant tensor:
#      x y z
#    x 1.682120 0.000000 0.000000 
#    y 0.000000 1.718210 0.000000 
#    z 0.000000 0.000000 1.711930 
# 
# From -- ./inp_files/2054.got.cif
#   From: 2010.05.17/outbox.cif.g08.bks.cpg/sg47_2_cif.got.tgz:2054.got - 2010.06.03 20:15:42.
