data_PCOD9388836
_publ_section_title
;
Structure prediction by ZEFSAII (Michael W. Deem and Ramdas Pophale) SiO2 
 PCOD9388836
Probable space group: P M M M
;
_chemical_formula_sum "Si O2"
_cell_formula_units_Z 48
_cell_length_a 14.166000
_cell_length_b 25.078392
_cell_length_c 7.421201
_cell_angle_alpha 90.000000
_cell_angle_beta 90.000000
_cell_angle_gamma 90.000000
_cell_volume 2636.459586
_symmetry_space_group_name_H-M "P M M M"
_symmetry_group_IT_number 47
_symmetry_cell_setting 'orthorhombic'
loop_
_space_group_symop_operation_xyz
x,y,z
-x,-y,z
x,-y,-z
-x,y,-z
-x,-y,-z
x,y,-z
-x,y,z
x,-y,z
loop_
_atom_site_type_symbol
_atom_site_label
_atom_site_fract_x
_atom_site_fract_y
_atom_site_fract_z
Si Si1 0.699455 0.059418 0.718167
Si Si2 0.112711 0.442620 0.782558
Si Si3 0.889930 0.326478 0.780000
Si Si4 0.895897 0.892832 0.712398
Si Si5 0.396408 0.831129 0.788321
Si Si6 0.201679 0.782898 0.218156
O O1 0.701338 0.059902 0.500000
O O2 0.804801 0.075455 0.783547
O O3 0.629428 0.106437 0.773259
O O4 0.674181 0.000000 0.777127
O O5 0.149914 0.500000 0.716075
O O6 0.147197 0.384664 0.719837
O O7 0.000000 0.442303 0.747098
O O8 0.123073 0.443097 0.000000
O O9 0.832944 0.274753 0.719770
O O10 0.000000 0.321305 0.728220
O O11 0.888461 0.326742 0.000000
O O12 0.899864 0.905031 0.500000
O O13 0.869688 0.830459 0.731768
O O14 0.000000 0.903842 0.788002
O O15 0.500000 0.820446 0.711092
O O16 0.305426 0.799871 0.714449
O O17 0.400206 0.818142 0.000000
O O18 0.203993 0.782211 0.000000
#
# Coordination Sequence:
#
# PCOD9388836 Si02
#       6
#     8   8   8   8   8   8
#     4   9  18  31  45  61  78  95 119 149 178 213
#     4   7   9  13  21  36  63  96 121 141 171 208
#     4   8  12  17  28  48  71  94 120 148 177 209
#     4   9  17  28  41  57  78 102 123 144 174 212
#     4   9  18  31  44  57  74  96 120 149 188 228
#     4   9  16  26  40  56  74  96 124 156 185 216
#
# _framework density 18.206233999999998
#
# number of rings (size 3 to 8) (size 9 to 14) (size 15 to 20)
#    0.000    3.500    0.000    2.000    0.000    2.333 
#    0.000    3.333    0.000    0.000    0.000    4.667 
#    0.000    1.333    0.000   15.500    0.000    5.333 
#
# Total GULP energy -267337.744731 kJ/mol
# GULP energy per Si atom -5569.536349 kJ/mol
# Density = 1.816480 g / cm^3
# Si number density = 18.206234 Si / 1000 Ang^3
#
#
#
# Elastic Constant Matrix: (Units=GPa)
#
#
# Indices 1 2 3 4 5 6 
#
# 1 68.3423 9.9188 -0.6740 0.0000 0.0000 0.0000
# 2 9.9188 101.8011 -10.9316 0.0000 0.0000 0.0000
# 3 -0.6740 -10.9316 56.9459 0.0000 0.0000 0.0000
# 4 0.0000 0.0000 0.0000 27.3528 0.0000 0.0000
# 5 0.0000 0.0000 0.0000 0.0000 80.8215 0.0000
# 6 0.0000 0.0000 0.0000 0.0000 0.0000 8.3420
#
#
#
# Elastic Compliance Matrix: (Units=1/GPa)
#
#
# Indices 1 2 3 4 5 6 
#
# 1 0.014843 -0.001457 -0.000104 0.000000 0.000000 0.000000
# 2 -0.001457 0.010173 0.001936 0.000000 0.000000 0.000000
# 3 -0.000104 0.001936 0.017931 0.000000 0.000000 0.000000
# 4 0.000000 0.000000 0.000000 0.036559 0.000000 0.000000
# 5 0.000000 0.000000 0.000000 0.000000 0.012373 0.000000
# 6 0.000000 0.000000 0.000000 0.000000 0.000000 0.119875
#
#
# Mechanical properties :
#
#
# Convention : Reuss Voigt Hill
#
# Bulk Modulus (GPa) = 22.88601 24.85729 23.87165
# Shear Modulus (GPa) = 22.16601 38.55501 30.36051
#
# Velocity S-wave (km/s) = 3.49305 4.60682 4.08804
# Velocity P-wave (km/s) = 5.37273 6.47919 5.95173
#
# Compressibility (1/GPa) = 0.04369482
#
# Stress axis : x y z
#
# Youngs Moduli (GPa) = 67.37317 98.30016 55.76980
#
# Poissons Ratio (x) = 0.14326 0.00580
# Poissons Ratio (y) = 0.09819 -0.10795
# Poissons Ratio (z) = 0.00701 -0.19027
#
# Static dielectric constant tensor:
#      x y z
#    x 1.616640 0.000000 0.000000 
#    y 0.000000 1.649860 0.000000 
#    z 0.000000 0.000000 1.708210 
# 
# From -- ./inp_files/7476.got.cif
#   From: 2010.05.17/outbox.cif.g08.bks.cpg/sg47_4_cif.got.tgz:7476.got - 2010.06.03 20:15:42.
