data_PCOD9388699
_publ_section_title
;
Structure prediction by ZEFSAII (Michael W. Deem and Ramdas Pophale) SiO2 
 PCOD9388699
Probable space group: P M M M
;
_chemical_formula_sum "Si O2"
_cell_formula_units_Z 40
_cell_length_a 9.702184
_cell_length_b 28.371367
_cell_length_c 7.473762
_cell_angle_alpha 90.000000
_cell_angle_beta 90.000000
_cell_angle_gamma 90.000000
_cell_volume 2057.259290
_symmetry_space_group_name_H-M "P M M M"
_symmetry_group_IT_number 47
_symmetry_cell_setting 'orthorhombic'
loop_
_space_group_symop_operation_xyz
x,y,z
-x,-y,z
x,-y,-z
-x,y,-z
-x,-y,-z
x,y,-z
-x,y,z
x,-y,z
loop_
_atom_site_type_symbol
_atom_site_label
_atom_site_fract_x
_atom_site_fract_y
_atom_site_fract_z
Si Si1 0.340011 0.411679 0.281913
Si Si2 0.841305 0.500000 0.280931
Si Si3 0.165079 0.112649 0.213849
Si Si4 0.655457 0.307090 0.714199
Si Si5 0.846248 0.218498 0.213273
Si Si6 0.337499 0.056438 0.500000
O O1 0.338153 0.412547 0.500000
O O2 0.500000 0.419060 0.229824
O O3 0.241054 0.453476 0.222041
O O4 0.297156 0.358976 0.223587
O O5 0.840613 0.500000 0.500000
O O6 0.000000 0.500000 0.224490
O O7 0.199609 0.166472 0.272870
O O8 0.257617 0.077656 0.328816
O O9 0.000000 0.106299 0.244580
O O10 0.187815 0.107669 0.000000
O O11 0.648227 0.310528 0.500000
O O12 0.500000 0.299568 0.781636
O O13 0.749396 0.262575 0.752857
O O14 0.000000 0.227580 0.284352
O O15 0.856540 0.213799 0.000000
O O16 0.500000 0.069308 0.500000
O O17 0.327965 0.000000 0.500000
#
# Coordination Sequence:
#
# PCOD9388699 Si02
#       6
#     8   4   8   8   8   4
#     4   8  14  25  38  54  83 122 158 194 243 302
#     4   9  15  21  33  55  82 113 154 203 248 296
#     4   9  20  40  63  86 115 153 198 242 282 335
#     4   9  18  30  45  70 101 130 165 208 253 308
#     4   9  19  35  53  75 103 135 172 213 259 311
#     4  11  25  41  59  89 125 157 191 236 291 344
#
# _framework density 19.443344
#
# number of rings (size 3 to 8) (size 9 to 14) (size 15 to 20)
#    0.000    3.000    0.000    3.000    1.400    5.200 
#    0.000    6.000    0.000    0.000    0.000    0.700 
#    0.000    5.600    0.000    0.000    0.000    0.000 
#
# Total GULP energy -223058.033526 kJ/mol
# GULP energy per Si atom -5576.450838 kJ/mol
# Density = 1.939909 g / cm^3
# Si number density = 19.443344 Si / 1000 Ang^3
#
#
#
# Elastic Constant Matrix: (Units=GPa)
#
#
# Indices 1 2 3 4 5 6 
#
# 1 112.7591 113.6831 33.5052 0.0000 0.0000 0.0000
# 2 113.6831 175.9608 37.1328 0.0000 0.0000 0.0000
# 3 33.5052 37.1328 72.0847 0.0000 0.0000 0.0000
# 4 0.0000 0.0000 0.0000 66.6970 0.0000 0.0000
# 5 0.0000 0.0000 0.0000 0.0000 23.3119 0.0000
# 6 0.0000 0.0000 0.0000 0.0000 0.0000 52.0010
#
#
#
# Elastic Compliance Matrix: (Units=1/GPa)
#
#
# Indices 1 2 3 4 5 6 
#
# 1 0.026383 -0.016221 -0.003907 0.000000 0.000000 0.000000
# 2 -0.016221 0.016349 -0.000882 0.000000 0.000000 0.000000
# 3 -0.003907 -0.000882 0.016143 0.000000 0.000000 0.000000
# 4 0.000000 0.000000 0.000000 0.014993 0.000000 0.000000
# 5 0.000000 0.000000 0.000000 0.000000 0.042896 0.000000
# 6 0.000000 0.000000 0.000000 0.000000 0.000000 0.019230
#
#
# Mechanical properties :
#
#
# Convention : Reuss Voigt Hill
#
# Bulk Modulus (GPa) = 59.33079 81.04964 70.19022
# Shear Modulus (GPa) = 27.22795 40.16756 33.69775
#
# Velocity S-wave (km/s) = 3.74622 4.55012 4.16760
# Velocity P-wave (km/s) = 7.02091 8.32949 7.70303
#
# Compressibility (1/GPa) = 0.01685465
#
# Stress axis : x y z
#
# Youngs Moduli (GPa) = 37.90278 61.16523 61.94570
#
# Poissons Ratio (x) = 0.99216 0.24203
# Poissons Ratio (y) = 0.61482 0.05466
# Poissons Ratio (z) = 0.14809 0.05397
#
# Static dielectric constant tensor:
#      x y z
#    x 1.684930 0.000000 0.000000 
#    y 0.000000 1.679010 0.000000 
#    z 0.000000 0.000000 1.787560 
# 
# From -- ./inp_files/1754.got.cif
#   From: 2010.05.17/outbox.cif.g08.bks.cpg/sg47_1_cif.got.tgz:1754.got - 2010.06.03 20:15:42.
