data_PCOD9388357
_publ_section_title
;
Structure prediction by ZEFSAII (Michael W. Deem and Ramdas Pophale) SiO2 
 PCOD9388357
Probable space group: P M M M
;
_chemical_formula_sum "Si O2"
_cell_formula_units_Z 29
_cell_length_a 7.562868
_cell_length_b 15.128084
_cell_length_c 12.260690
_cell_angle_alpha 90.000000
_cell_angle_beta 90.000000
_cell_angle_gamma 90.000000
_cell_volume 1402.766415
_symmetry_space_group_name_H-M "P M M M"
_symmetry_group_IT_number 47
_symmetry_cell_setting 'orthorhombic'
loop_
_space_group_symop_operation_xyz
x,y,z
-x,-y,z
x,-y,-z
-x,y,-z
-x,-y,-z
x,y,-z
-x,y,z
x,-y,z
loop_
_atom_site_type_symbol
_atom_site_label
_atom_site_fract_x
_atom_site_fract_y
_atom_site_fract_z
Si Si1 0.692944 0.848137 0.000000
Si Si2 0.215784 0.602618 0.622130
Si Si3 0.798722 0.746974 0.787892
Si Si4 0.000000 0.000000 0.000000
Si Si5 0.713625 0.900510 0.626867
O O1 0.707957 0.785271 0.894484
O O2 0.845565 0.921545 0.000000
O O3 0.500000 0.890863 0.000000
O O4 0.272076 0.631695 0.500000
O O5 0.264716 0.500000 0.635440
O O6 0.278943 0.664999 0.719571
O O7 0.000000 0.606888 0.622507
O O8 0.797532 0.827246 0.701808
O O9 0.000000 0.724543 0.818448
O O10 0.760755 0.889243 0.500000
O O11 0.500000 0.894180 0.634732
O O12 0.764006 0.000000 0.660709
#
# Coordination Sequence:
#
# PCOD9388357 Si02
#       5
#     4   8   8   1   8
#     4  12  27  45  66  91 126 166 208 266 322 368
#     4   8  15  30  56  90 125 164 210 260 316 374
#     4  11  21  36  57  86 121 157 209 264 310 376
#     4  12  26  52  68  94 116 160 230 264 300 380
#     4   9  19  34  51  75 109 151 196 242 303 374
#
# _framework density 20.673434
#
# number of rings (size 3 to 8) (size 9 to 14) (size 15 to 20)
#    0.000    2.207    1.379    3.517    1.931    2.207 
#    0.000    2.069    0.000    7.448    0.000    9.655 
#    0.000    0.000    0.000    0.000    0.000    0.000 
#
# Total GULP energy -161722.691568 kJ/mol
# GULP energy per Si atom -5576.644537 kJ/mol
# Density = 2.062638 g / cm^3
# Si number density = 20.673434 Si / 1000 Ang^3
#
#
#
# Elastic Constant Matrix: (Units=GPa)
#
#
# Indices 1 2 3 4 5 6 
#
# 1 97.2358 22.6588 27.1695 0.0000 0.0000 0.0000
# 2 22.6588 105.7260 78.9138 0.0000 0.0000 0.0000
# 3 27.1695 78.9138 93.3089 0.0000 0.0000 0.0000
# 4 0.0000 0.0000 0.0000 19.1868 0.0000 0.0000
# 5 0.0000 0.0000 0.0000 0.0000 20.7805 0.0000
# 6 0.0000 0.0000 0.0000 0.0000 0.0000 -85.7271
#
#
#
# Elastic Compliance Matrix: (Units=1/GPa)
#
#
# Indices 1 2 3 4 5 6 
#
# 1 0.011195 0.000092 -0.003337 0.000000 0.000000 0.000000
# 2 0.000092 0.025651 -0.021720 0.000000 0.000000 0.000000
# 3 -0.003337 -0.021720 0.030058 0.000000 0.000000 0.000000
# 4 0.000000 0.000000 0.000000 0.052119 0.000000 0.000000
# 5 0.000000 0.000000 0.000000 0.000000 0.048122 0.000000
# 6 0.000000 0.000000 0.000000 0.000000 0.000000 -0.011665
#
#
# Mechanical properties :
#
#
# Convention : Reuss Voigt Hill
#
# Bulk Modulus (GPa) = 58.91869 61.52832 60.22351
# Shear Modulus (GPa) = 23.68882 2.01659 12.85271
#
# Velocity S-wave (km/s) = 3.38872 0.98872 2.49610
# Velocity P-wave (km/s) = 6.62366 5.57943 6.12384
#
# Compressibility (1/GPa) = 0.01697254
#
# Stress axis : x y z
#
# Youngs Moduli (GPa) = 89.32203 38.98536 33.26883
#
# Poissons Ratio (x) = -0.00357 0.11103
# Poissons Ratio (y) = -0.00819 0.72260
# Poissons Ratio (z) = 0.29810 0.84677
#
# Static dielectric constant tensor:
#      x y z
#    x 1.778450 0.000000 0.000000 
#    y 0.000000 1.711610 0.000000 
#    z 0.000000 0.000000 1.686860 
# 
# From -- ./inp_files/3235.got.cif
#   From: 2010.05.17/outbox.cif.g08.bks.cpg/sg47_2_cif.got.tgz:3235.got - 2010.06.03 20:15:42.
