data_PCOD9388646
_publ_section_title
;
Structure prediction by ZEFSAII (Michael W. Deem and Ramdas Pophale) SiO2 
 PCOD9388646
Probable space group: P M M M
;
_chemical_formula_sum "Si O2"
_cell_formula_units_Z 36
_cell_length_a 9.181222
_cell_length_b 24.319622
_cell_length_c 8.648211
_cell_angle_alpha 90.000000
_cell_angle_beta 90.000000
_cell_angle_gamma 90.000000
_cell_volume 1931.005835
_symmetry_space_group_name_H-M "P M M M"
_symmetry_group_IT_number 47
_symmetry_cell_setting 'orthorhombic'
loop_
_space_group_symop_operation_xyz
x,y,z
-x,-y,z
x,-y,-z
-x,y,-z
-x,-y,-z
x,y,-z
-x,y,z
x,-y,z
loop_
_atom_site_type_symbol
_atom_site_label
_atom_site_fract_x
_atom_site_fract_y
_atom_site_fract_z
Si Si1 0.827697 0.679482 0.812845
Si Si2 0.823966 0.440918 0.815459
Si Si3 0.330747 0.000000 0.314523
Si Si4 0.669467 0.213721 0.314845
Si Si5 0.830709 0.106961 0.814578
O O1 0.775197 0.618873 0.757687
O O2 0.739209 0.729405 0.741970
O O3 0.000000 0.685092 0.776269
O O4 0.816074 0.680959 0.000000
O O5 0.771274 0.500000 0.751863
O O6 0.000000 0.440573 0.799723
O O7 0.794790 0.441432 0.000000
O O8 0.251865 0.945772 0.252180
O O9 0.500000 0.000000 0.266887
O O10 0.324862 0.000000 0.500000
O O11 0.678385 0.210548 0.500000
O O12 0.500000 0.210788 0.269304
O O13 0.755928 0.162604 0.243614
O O14 0.000000 0.105857 0.767245
O O15 0.824464 0.105182 0.000000
#
# Coordination Sequence:
#
# PCOD9388646 Si02
#       5
#     8   8   4   8   8
#     4   9  17  30  51  79 106 133 171 218 267 321
#     4   7  10  19  39  69 102 131 161 205 261 315
#     4  11  24  41  62  90 122 153 184 215 252 304
#     4  11  24  39  54  75 105 142 183 223 266 319
#     4  11  24  41  62  88 114 141 179 224 267 313
#
# _framework density 18.643135000000001
#
# number of rings (size 3 to 8) (size 9 to 14) (size 15 to 20)
#    0.000    2.333    0.000    5.333    0.000   11.556 
#    0.000    0.000    0.000    1.333    0.000    7.778 
#    0.000    0.000    0.000    0.000    0.000    0.000 
#
# Total GULP energy -200833.779911 kJ/mol
# GULP energy per Si atom -5578.716109 kJ/mol
# Density = 1.860070 g / cm^3
# Si number density = 18.643135 Si / 1000 Ang^3
#
#
#
# Elastic Constant Matrix: (Units=GPa)
#
#
# Indices 1 2 3 4 5 6 
#
# 1 127.1096 100.6236 43.7946 0.0000 0.0000 0.0000
# 2 100.6236 229.5663 40.4679 0.0000 0.0000 0.0000
# 3 43.7946 40.4679 25.7561 0.0000 0.0000 0.0000
# 4 0.0000 0.0000 0.0000 -175.3344 0.0000 0.0000
# 5 0.0000 0.0000 0.0000 0.0000 26.4247 0.0000
# 6 0.0000 0.0000 0.0000 0.0000 0.0000 -43.7672
#
#
#
# Elastic Compliance Matrix: (Units=1/GPa)
#
#
# Indices 1 2 3 4 5 6 
#
# 1 0.021484 -0.004118 -0.030061 0.000000 0.000000 0.000000
# 2 -0.004118 0.006814 -0.003704 0.000000 0.000000 0.000000
# 3 -0.030061 -0.003704 0.095761 0.000000 0.000000 0.000000
# 4 0.000000 0.000000 0.000000 -0.005703 0.000000 0.000000
# 5 0.000000 0.000000 0.000000 0.000000 0.037843 0.000000
# 6 0.000000 0.000000 0.000000 0.000000 0.000000 -0.022848
#
#
# Mechanical properties :
#
#
# Convention : Reuss Voigt Hill
#
# Bulk Modulus (GPa) = 20.70715 83.57824 52.14270
# Shear Modulus (GPa) = 22.20097 -25.36564 -1.58234
#
# Velocity S-wave (km/s) = 3.45460 -3.69262 -0.92228
# Velocity P-wave (km/s) = 5.20034 5.17178 5.18608
#
# Compressibility (1/GPa) = 0.04829249
#
# Stress axis : x y z
#
# Youngs Moduli (GPa) = 46.54530 146.75736 10.44268
#
# Poissons Ratio (x) = 0.60433 0.31392
# Poissons Ratio (y) = 0.19167 0.03868
# Poissons Ratio (z) = 1.39921 0.54362
#
# Static dielectric constant tensor:
#      x y z
#    x 1.621870 0.000000 0.000000 
#    y 0.000000 1.654010 0.000000 
#    z 0.000000 0.000000 1.628090 
# 
# From -- ./inp_files/1420.got.cif
#   From: 2010.05.17/outbox.cif.g08.bks.cpg/sg47_1_cif.got.tgz:1420.got - 2010.06.03 20:15:42.
