data_PCOD9388168
_publ_section_title
;
Structure prediction by ZEFSAII (Michael W. Deem and Ramdas Pophale) SiO2 
 PCOD9388168
Probable space group: P M M M
;
_chemical_formula_sum "Si O2"
_cell_formula_units_Z 64
_cell_length_a 7.564685
_cell_length_b 22.438341
_cell_length_c 19.505553
_cell_angle_alpha 90.000000
_cell_angle_beta 90.000000
_cell_angle_gamma 90.000000
_cell_volume 3310.852702
_symmetry_space_group_name_H-M "P M M M"
_symmetry_group_IT_number 47
_symmetry_cell_setting 'orthorhombic'
loop_
_space_group_symop_operation_xyz
x,y,z
-x,-y,z
x,-y,-z
-x,y,-z
-x,-y,-z
x,y,-z
-x,y,z
x,-y,z
loop_
_atom_site_type_symbol
_atom_site_label
_atom_site_fract_x
_atom_site_fract_y
_atom_site_fract_z
Si Si1 0.283843 0.109252 0.221334
Si Si2 0.716116 0.808682 0.574770
Si Si3 0.715198 0.064784 0.629091
Si Si4 0.208086 0.325624 0.826784
Si Si5 0.297692 0.088849 0.924939
Si Si6 0.288800 0.236043 0.279685
Si Si7 0.711159 0.567603 0.923723
Si Si8 0.209952 0.225095 0.924136
O O1 0.500000 0.109366 0.217079
O O2 0.236019 0.075801 0.291347
O O3 0.219688 0.078277 0.150929
O O4 0.226012 0.178539 0.234231
O O5 0.774472 0.787584 0.500000
O O6 0.500000 0.807477 0.575081
O O7 0.770425 0.877414 0.586739
O O8 0.775100 0.773725 0.642650
O O9 0.500000 0.064775 0.627157
O O10 0.776113 0.000000 0.605585
O O11 0.247252 0.300711 0.751350
O O12 0.254470 0.388301 0.860593
O O13 0.288531 0.272964 0.873072
O O14 0.000000 0.321509 0.835426
O O15 0.500000 0.067463 0.925434
O O16 0.298427 0.160900 0.923577
O O17 0.219173 0.072237 0.000000
O O18 0.500000 0.229998 0.280688
O O19 0.500000 0.564561 0.928532
O O20 0.776978 0.500000 0.912516
O O21 0.775725 0.587686 0.000000
O O22 0.000000 0.214444 0.912539
O O23 0.227430 0.250911 0.000000
#
# Coordination Sequence:
#
# PCOD9388168 Si02
#       8
#     8   8   8   8   8   8   8   8
#     4   8  13  22  34  49  73 103 137 175 215 262
#     4   8  14  24  39  60  85 113 145 181 220 267
#     4   8  13  20  32  52  79 112 143 173 217 269
#     4  11  20  28  42  64  90 117 148 188 227 262
#     4   9  15  22  34  50  68  95 132 169 204 249
#     4   9  16  27  42  59  83 114 145 177 220 273
#     4   9  19  35  51  66  88 123 165 199 224 256
#     4   9  17  26  34  50  78 105 129 164 210 251
#
# _framework density 19.330368
#
# number of rings (size 3 to 8) (size 9 to 14) (size 15 to 20)
#    0.000    3.125    1.250    2.625    0.000    1.750 
#    0.000    3.125    0.000    0.750    0.000    2.625 
#    0.000   13.000    0.000   13.375    0.000    9.875 
#
# Total GULP energy -356425.535532 kJ/mol
# GULP energy per Si atom -5569.148993 kJ/mol
# Density = 1.928637 g / cm^3
# Si number density = 19.330368 Si / 1000 Ang^3
#
#
#
# Elastic Constant Matrix: (Units=GPa)
#
#
# Indices 1 2 3 4 5 6 
#
# 1 46.0823 2.9740 9.9967 0.0000 0.0000 0.0000
# 2 2.9740 93.6620 49.6819 0.0000 0.0000 0.0000
# 3 9.9967 49.6819 123.3764 0.0000 0.0000 0.0000
# 4 0.0000 0.0000 0.0000 5.4767 0.0000 0.0000
# 5 0.0000 0.0000 0.0000 0.0000 -6.2107 0.0000
# 6 0.0000 0.0000 0.0000 0.0000 0.0000 -172.3653
#
#
#
# Elastic Compliance Matrix: (Units=1/GPa)
#
#
# Indices 1 2 3 4 5 6 
#
# 1 0.022096 0.000315 -0.001917 0.000000 0.000000 0.000000
# 2 0.000315 0.013581 -0.005494 0.000000 0.000000 0.000000
# 3 -0.001917 -0.005494 0.010473 0.000000 0.000000 0.000000
# 4 0.000000 0.000000 0.000000 0.182592 0.000000 0.000000
# 5 0.000000 0.000000 0.000000 0.000000 -0.161012 0.000000
# 6 0.000000 0.000000 0.000000 0.000000 0.000000 -0.005802
#
#
# Mechanical properties :
#
#
# Convention : Reuss Voigt Hill
#
# Bulk Modulus (GPa) = 31.29164 43.15844 37.22504
# Shear Modulus (GPa) = 57.62142 -21.25532 18.18305
#
# Velocity S-wave (km/s) = 5.46566 -3.31959 3.07032
# Velocity P-wave (km/s) = 7.48694 2.77170 5.64520
#
# Compressibility (1/GPa) = 0.03195742
#
# Stress axis : x y z
#
# Youngs Moduli (GPa) = 45.25725 73.63142 95.48191
#
# Poissons Ratio (x) = -0.02323 0.18307
# Poissons Ratio (y) = -0.01428 0.52463
# Poissons Ratio (z) = 0.08678 0.40457
#
# Static dielectric constant tensor:
#      x y z
#    x 1.727050 0.000000 0.000000 
#    y 0.000000 1.687600 0.000000 
#    z 0.000000 0.000000 1.752190 
# 
# From -- ./inp_files/30164.got.cif
#   From: 2010.05.17/outbox.cif.g08.bks.cpg/sg47_16_cif.got.tgz:30164.got - 2010.06.03 20:15:42.
