data_PCOD9388985
_publ_section_title
;
Structure prediction by ZEFSAII (Michael W. Deem and Ramdas Pophale) SiO2 
 PCOD9388985
Probable space group: P M M M
;
_chemical_formula_sum "Si O2"
_cell_formula_units_Z 40
_cell_length_a 28.966137
_cell_length_b 9.488748
_cell_length_c 7.307807
_cell_angle_alpha 90.000000
_cell_angle_beta 90.000000
_cell_angle_gamma 90.000000
_cell_volume 2008.568107
_symmetry_space_group_name_H-M "P M M M"
_symmetry_group_IT_number 47
_symmetry_cell_setting 'orthorhombic'
loop_
_space_group_symop_operation_xyz
x,y,z
-x,-y,z
x,-y,-z
-x,y,-z
-x,-y,-z
x,y,-z
-x,y,z
x,-y,z
loop_
_atom_site_type_symbol
_atom_site_label
_atom_site_fract_x
_atom_site_fract_y
_atom_site_fract_z
Si Si1 0.628732 0.832246 0.784406
Si Si2 0.447563 0.828567 0.500000
Si Si3 0.089861 0.162209 0.223318
Si Si4 0.281577 0.663058 0.777685
Si Si5 0.000000 0.662513 0.776863
Si Si6 0.821397 0.663313 0.222766
O O1 0.583424 0.787256 0.673891
O O2 0.675103 0.755260 0.718758
O O3 0.634521 0.000000 0.759365
O O4 0.622910 0.804930 0.000000
O O5 0.500000 0.776104 0.500000
O O6 0.449918 0.000000 0.500000
O O7 0.137139 0.237104 0.282652
O O8 0.045741 0.253763 0.280252
O O9 0.086664 0.000000 0.281134
O O10 0.089899 0.162137 0.000000
O O11 0.287594 0.500000 0.724943
O O12 0.230139 0.707918 0.719444
O O13 0.281346 0.667855 0.000000
O O14 0.000000 0.500000 0.718118
O O15 0.000000 0.661311 0.000000
O O16 0.828652 0.500000 0.276720
O O17 0.821666 0.664247 0.000000
#
# Coordination Sequence:
#
# PCOD9388985 Si02
#       6
#     8   4   8   8   4   8
#     4   9  17  29  47  70  93 120 156 195 234 278
#     4   9  18  32  49  71  99 127 157 196 237 276
#     4   9  15  20  26  38  57  82 117 166 219 265
#     4   8  14  25  41  60  83 111 141 177 224 276
#     4   9  15  21  27  33  47  79 123 168 215 270
#     4   8  13  21  32  46  65  91 124 161 206 263
#
# _framework density 19.914683
#
# number of rings (size 3 to 8) (size 9 to 14) (size 15 to 20)
#    0.000    3.400    0.000    2.100    0.000    4.800 
#    0.000    6.500    0.000    1.200    0.000    2.800 
#    0.000    0.000    0.000    0.000    0.000    1.000 
#
# Total GULP energy -223166.091284 kJ/mol
# GULP energy per Si atom -5579.152282 kJ/mol
# Density = 1.986936 g / cm^3
# Si number density = 19.914683 Si / 1000 Ang^3
#
#
#
# Elastic Constant Matrix: (Units=GPa)
#
#
# Indices 1 2 3 4 5 6 
#
# 1 247.0558 112.8087 42.5460 0.0000 0.0000 0.0000
# 2 112.8087 101.1101 25.4406 0.0000 0.0000 0.0000
# 3 42.5460 25.4406 82.0192 0.0000 0.0000 0.0000
# 4 0.0000 0.0000 0.0000 -9.5286 0.0000 0.0000
# 5 0.0000 0.0000 0.0000 0.0000 6196.2693 0.0000
# 6 0.0000 0.0000 0.0000 0.0000 0.0000 89.1092
#
#
#
# Elastic Compliance Matrix: (Units=1/GPa)
#
#
# Indices 1 2 3 4 5 6 
#
# 1 0.008436 -0.009014 -0.001580 0.000000 0.000000 0.000000
# 2 -0.009014 0.020360 -0.001639 0.000000 0.000000 0.000000
# 3 -0.001580 -0.001639 0.013520 0.000000 0.000000 0.000000
# 4 0.000000 0.000000 0.000000 -0.104947 0.000000 0.000000
# 5 0.000000 0.000000 0.000000 0.000000 0.000161 0.000000
# 6 0.000000 0.000000 0.000000 0.000000 0.000000 0.011222
#
#
# Mechanical properties :
#
#
# Convention : Reuss Voigt Hill
#
# Bulk Modulus (GPa) = 56.02489 87.97507 71.99998
# Shear Modulus (GPa) = -240.02982 1271.79596 515.88307
#
# Velocity S-wave (km/s) = -10.99048 25.29839 16.11239
# Velocity P-wave (km/s) = 11.52652 29.96025 19.55449
#
# Compressibility (1/GPa) = 0.01784921
#
# Stress axis : x y z
#
# Youngs Moduli (GPa) = 118.54267 49.11611 73.96313
#
# Poissons Ratio (x) = 0.44275 0.11685
# Poissons Ratio (y) = 1.06858 0.12124
# Poissons Ratio (z) = 0.18728 0.08051
#
# Static dielectric constant tensor:
#      x y z
#    x 1.672560 0.000000 0.000000 
#    y 0.000000 1.657930 0.000000 
#    z 0.000000 0.000000 2.167270 
# 
# From -- ./inp_files/13031.got.cif
#   From: 2010.05.17/outbox.cif.g08.bks.cpg/sg47_7_cif.got.tgz:13031.got - 2010.06.03 20:15:42.
