data_PCOD9388794
_publ_section_title
;
Structure prediction by ZEFSAII (Michael W. Deem and Ramdas Pophale) SiO2 
 PCOD9388794
Probable space group: P M M M
;
_chemical_formula_sum "Si O2"
_cell_formula_units_Z 44
_cell_length_a 30.042962
_cell_length_b 7.407528
_cell_length_c 9.543250
_cell_angle_alpha 90.000000
_cell_angle_beta 90.000000
_cell_angle_gamma 90.000000
_cell_volume 2123.793813
_symmetry_space_group_name_H-M "P M M M"
_symmetry_group_IT_number 47
_symmetry_cell_setting 'orthorhombic'
loop_
_space_group_symop_operation_xyz
x,y,z
-x,-y,z
x,-y,-z
-x,y,-z
-x,-y,-z
x,y,-z
-x,y,z
x,-y,z
loop_
_atom_site_type_symbol
_atom_site_label
_atom_site_fract_x
_atom_site_fract_y
_atom_site_fract_z
Si Si1 0.547957 0.715287 0.669560
Si Si2 0.643670 0.284430 0.341537
Si Si3 0.270030 0.783984 0.158215
Si Si4 0.000000 0.220333 0.838195
Si Si5 0.171322 0.219920 0.837079
Si Si6 0.086271 0.220602 0.661514
O O1 0.548978 0.736686 0.500000
O O2 0.500000 0.788664 0.718569
O O3 0.546664 0.500000 0.697138
O O4 0.596204 0.784340 0.718482
O O5 0.649595 0.215051 0.500000
O O6 0.638297 0.500000 0.351120
O O7 0.687642 0.254318 0.252714
O O8 0.221069 0.721253 0.206575
O O9 0.266717 0.000000 0.151011
O O10 0.277065 0.716367 0.000000
O O11 0.956071 0.276617 0.753767
O O12 0.000000 0.000000 0.839993
O O13 0.000000 0.278817 0.000000
O O14 0.131690 0.280107 0.736888
O O15 0.170479 0.000000 0.835032
O O16 0.164428 0.272036 0.000000
O O17 0.083191 0.277960 0.500000
O O18 0.086285 0.000000 0.660919
#
# Coordination Sequence:
#
# PCOD9388794 Si02
#       6
#     8   8   8   4   8   8
#     4   7  10  19  37  60  84 108 134 167 208 252
#     4   9  17  28  44  68  92 111 137 176 219 260
#     4   9  18  31  45  61  83 114 150 182 212 253
#     4   9  15  21  29  41  61  93 128 159 196 243
#     4   8  14  25  38  50  67  95 132 169 202 241
#     4   9  15  21  30  46  67  90 121 163 206 245
#
# _framework density 20.717642000000001
#
# number of rings (size 3 to 8) (size 9 to 14) (size 15 to 20)
#    0.000    3.545    0.000    3.545    0.000    4.727 
#    0.000    1.818    0.000    1.091    0.000    6.364 
#    0.000    0.000    0.000    0.818    0.000   16.182 
#
# Total GULP energy -245172.036064 kJ/mol
# GULP energy per Si atom -5572.091729 kJ/mol
# Density = 2.067049 g / cm^3
# Si number density = 20.717642 Si / 1000 Ang^3
#
#
#
# Elastic Constant Matrix: (Units=GPa)
#
#
# Indices 1 2 3 4 5 6 
#
# 1 275.9462 8.1743 130.1867 0.0000 0.0000 0.0000
# 2 8.1743 65.5356 3.6861 0.0000 0.0000 0.0000
# 3 130.1867 3.6861 114.1408 0.0000 0.0000 0.0000
# 4 0.0000 0.0000 0.0000 2.1921 0.0000 0.0000
# 5 0.0000 0.0000 0.0000 0.0000 75.7318 0.0000
# 6 0.0000 0.0000 0.0000 0.0000 0.0000 11.4873
#
#
#
# Elastic Compliance Matrix: (Units=1/GPa)
#
#
# Indices 1 2 3 4 5 6 
#
# 1 0.007861 -0.000477 -0.008950 0.000000 0.000000 0.000000
# 2 -0.000477 0.015316 0.000050 0.000000 0.000000 0.000000
# 3 -0.008950 0.000050 0.018968 0.000000 0.000000 0.000000
# 4 0.000000 0.000000 0.000000 0.456187 0.000000 0.000000
# 5 0.000000 0.000000 0.000000 0.000000 0.013204 0.000000
# 6 0.000000 0.000000 0.000000 0.000000 0.000000 0.087052
#
#
# Mechanical properties :
#
#
# Convention : Reuss Voigt Hill
#
# Bulk Modulus (GPa) = 42.75585 82.19075 62.47330
# Shear Modulus (GPa) = 7.99822 38.78728 23.39275
#
# Velocity S-wave (km/s) = 1.96697 4.33157 3.36389
# Velocity P-wave (km/s) = 5.08339 8.04827 6.73110
#
# Compressibility (1/GPa) = 0.02338861
#
# Stress axis : x y z
#
# Youngs Moduli (GPa) = 127.21698 65.29290 52.72051
#
# Poissons Ratio (x) = 0.03115 0.47186
# Poissons Ratio (y) = 0.06069 -0.00261
# Poissons Ratio (z) = 1.13862 -0.00323
#
# Static dielectric constant tensor:
#      x y z
#    x 1.771430 0.000000 0.000000 
#    y 0.000000 1.858890 0.000000 
#    z 0.000000 0.000000 1.702710 
# 
# From -- ./inp_files/13640.got.cif
#   From: 2010.05.17/outbox.cif.g08.bks.cpg/sg47_7_cif.got.tgz:13640.got - 2010.06.03 20:15:42.
