data_PCOD9388462
_publ_section_title
;
Structure prediction by ZEFSAII (Michael W. Deem and Ramdas Pophale) SiO2 
 PCOD9388462
Probable space group: P M M M
;
_chemical_formula_sum "Si O2"
_cell_formula_units_Z 32
_cell_length_a 14.400676
_cell_length_b 7.343267
_cell_length_c 15.708820
_cell_angle_alpha 90.000000
_cell_angle_beta 90.000000
_cell_angle_gamma 90.000000
_cell_volume 1661.176436
_symmetry_space_group_name_H-M "P M M M"
_symmetry_group_IT_number 47
_symmetry_cell_setting 'orthorhombic'
loop_
_space_group_symop_operation_xyz
x,y,z
-x,-y,z
x,-y,-z
-x,y,-z
-x,-y,-z
x,y,-z
-x,y,z
x,-y,z
loop_
_atom_site_type_symbol
_atom_site_label
_atom_site_fract_x
_atom_site_fract_y
_atom_site_fract_z
Si Si1 0.394649 0.778998 0.814379
Si Si2 0.112185 0.000000 0.102328
Si Si3 0.388085 0.204931 0.000000
Si Si4 0.891598 0.721031 0.407583
Si Si5 0.195750 0.289232 0.768593
O O1 0.500000 0.721290 0.793017
O O2 0.307267 0.722736 0.759482
O O3 0.396771 0.000000 0.818375
O O4 0.368064 0.710432 0.909297
O O5 0.158213 0.170535 0.152347
O O6 0.000000 0.000000 0.114329
O O7 0.129075 0.000000 0.000000
O O8 0.500000 0.189506 0.000000
O O9 0.348748 0.000000 0.000000
O O10 0.854071 0.781289 0.500000
O O11 0.885837 0.500000 0.407139
O O12 0.845385 0.782048 0.320335
O O13 0.000000 0.769210 0.404778
O O14 0.168773 0.500000 0.780516
#
# Coordination Sequence:
#
# PCOD9388462 Si02
#       5
#     8   4   4   8   8
#     4   9  17  31  52  78 112 151 188 232 283 332
#     4  11  26  44  58  78 116 159 194 234 282 334
#     4   7  12  24  45  69  93 131 179 224 269 312
#     4   8  15  31  56  84 112 141 178 233 296 345
#     4  11  22  36  60  88 113 148 194 237 282 343
#
# _framework density 19.263456999999999
#
# number of rings (size 3 to 8) (size 9 to 14) (size 15 to 20)
#    0.000    2.750    1.250    3.000    1.750    2.500 
#    0.000    1.875    0.000    5.250    0.000    5.250 
#    0.000    0.000    0.000    0.000    0.000    0.000 
#
# Total GULP energy -178302.407516 kJ/mol
# GULP energy per Si atom -5571.950235 kJ/mol
# Density = 1.921961 g / cm^3
# Si number density = 19.263457 Si / 1000 Ang^3
#
#
#
# Elastic Constant Matrix: (Units=GPa)
#
#
# Indices 1 2 3 4 5 6 
#
# 1 106.8342 14.0598 64.3011 0.0000 0.0000 0.0000
# 2 14.0598 104.2283 32.4321 0.0000 0.0000 0.0000
# 3 64.3011 32.4321 151.3510 0.0000 0.0000 0.0000
# 4 0.0000 0.0000 0.0000 13.5322 0.0000 0.0000
# 5 0.0000 0.0000 0.0000 0.0000 16.1102 0.0000
# 6 0.0000 0.0000 0.0000 0.0000 0.0000 7.3495
#
#
#
# Elastic Compliance Matrix: (Units=1/GPa)
#
#
# Indices 1 2 3 4 5 6 
#
# 1 0.012576 -0.000036 -0.005335 0.000000 0.000000 0.000000
# 2 -0.000036 0.010280 -0.002187 0.000000 0.000000 0.000000
# 3 -0.005335 -0.002187 0.009343 0.000000 0.000000 0.000000
# 4 0.000000 0.000000 0.000000 0.073898 0.000000 0.000000
# 5 0.000000 0.000000 0.000000 0.000000 0.062073 0.000000
# 6 0.000000 0.000000 0.000000 0.000000 0.000000 0.136065
#
#
# Mechanical properties :
#
#
# Convention : Reuss Voigt Hill
#
# Bulk Modulus (GPa) = 58.54530 64.88885 61.71707
# Shear Modulus (GPa) = 15.38249 24.17306 19.77778
#
# Velocity S-wave (km/s) = 2.82890 3.54625 3.20769
# Velocity P-wave (km/s) = 6.41312 7.10816 6.76957
#
# Compressibility (1/GPa) = 0.01708079
#
# Stress axis : x y z
#
# Youngs Moduli (GPa) = 79.51514 97.27760 107.03745
#
# Poissons Ratio (x) = 0.00354 0.57107
# Poissons Ratio (y) = 0.00289 0.23413
# Poissons Ratio (z) = 0.42423 0.21278
#
# Static dielectric constant tensor:
#      x y z
#    x 1.671920 0.000000 0.000000 
#    y 0.000000 1.758250 0.000000 
#    z 0.000000 0.000000 1.699210 
# 
# From -- ./inp_files/23195.got.cif
#   From: 2010.05.17/outbox.cif.g08.bks.cpg/sg47_12_cif.got.tgz:23195.got - 2010.06.03 20:15:42.
