data_PCOD9388452
_publ_section_title
;
Structure prediction by ZEFSAII (Michael W. Deem and Ramdas Pophale) SiO2 
 PCOD9388452
Probable space group: P M M M
;
_chemical_formula_sum "Si O2"
_cell_formula_units_Z 36
_cell_length_a 9.114245
_cell_length_b 21.184992
_cell_length_c 11.709672
_cell_angle_alpha 90.000000
_cell_angle_beta 90.000000
_cell_angle_gamma 90.000000
_cell_volume 2260.964447
_symmetry_space_group_name_H-M "P M M M"
_symmetry_group_IT_number 47
_symmetry_cell_setting 'orthorhombic'
loop_
_space_group_symop_operation_xyz
x,y,z
-x,-y,z
x,-y,-z
-x,y,-z
-x,-y,-z
x,y,-z
-x,y,z
x,-y,z
loop_
_atom_site_type_symbol
_atom_site_label
_atom_site_fract_x
_atom_site_fract_y
_atom_site_fract_z
Si Si1 0.329037 0.500000 0.636541
Si Si2 0.331215 0.127384 0.638968
Si Si3 0.176668 0.614790 0.235173
Si Si4 0.824624 0.743391 0.366728
Si Si5 0.169126 0.000000 0.360719
Si Si6 0.675170 0.575997 0.000000
O O1 0.500000 0.500000 0.674581
O O2 0.325845 0.500000 0.500000
O O3 0.246390 0.439041 0.685105
O O4 0.327792 0.126555 0.500000
O O5 0.500000 0.126387 0.674791
O O6 0.253395 0.192483 0.672469
O O7 0.248948 0.064018 0.677142
O O8 0.210402 0.682808 0.290247
O O9 0.249079 0.604762 0.111912
O O10 0.000000 0.607710 0.229368
O O11 0.784513 0.731299 0.500000
O O12 0.000000 0.753044 0.363716
O O13 0.172757 0.000000 0.500000
O O14 0.000000 0.000000 0.326101
O O15 0.698394 0.500000 0.000000
O O16 0.500000 0.586839 0.000000
#
# Coordination Sequence:
#
# PCOD9388452 Si02
#       6
#     4   8   8   8   4   4
#     4  11  23  36  51  74 103 131 159 195 242 295
#     4   9  16  25  39  61  90 125 163 199 235 281
#     4  11  22  36  56  76  96 125 165 207 246 293
#     4   9  18  32  48  69  98 129 160 197 243 292
#     4   9  15  23  37  57  85 124 165 202 237 275
#     4  11  23  39  57  75  98 125 158 203 256 304
#
# _framework density 15.922407
#
# number of rings (size 3 to 8) (size 9 to 14) (size 15 to 20)
#    0.000    2.111    1.111    3.000    0.000    8.000 
#    0.000    2.222    0.000    0.000    0.000    0.000 
#    0.000    0.889    0.000    9.333    0.000    7.111 
#
# Total GULP energy -200830.434707 kJ/mol
# GULP energy per Si atom -5578.623186 kJ/mol
# Density = 1.588617 g / cm^3
# Si number density = 15.922407 Si / 1000 Ang^3
#
#
#
# Elastic Constant Matrix: (Units=GPa)
#
#
# Indices 1 2 3 4 5 6 
#
# 1 109.2270 103.9812 47.2834 0.0000 0.0000 0.0000
# 2 103.9812 184.8614 57.6350 0.0000 0.0000 0.0000
# 3 47.2834 57.6350 65.9535 0.0000 0.0000 0.0000
# 4 0.0000 0.0000 0.0000 -1.4223 0.0000 0.0000
# 5 0.0000 0.0000 0.0000 0.0000 16.6104 0.0000
# 6 0.0000 0.0000 0.0000 0.0000 0.0000 -0.0986
#
#
#
# Elastic Compliance Matrix: (Units=1/GPa)
#
#
# Indices 1 2 3 4 5 6 
#
# 1 0.021676 -0.010099 -0.006715 0.000000 0.000000 0.000000
# 2 -0.010099 0.012140 -0.003369 0.000000 0.000000 0.000000
# 3 -0.006715 -0.003369 0.022920 0.000000 0.000000 0.000000
# 4 0.000000 0.000000 0.000000 -0.703087 0.000000 0.000000
# 5 0.000000 0.000000 0.000000 0.000000 0.060203 0.000000
# 6 0.000000 0.000000 0.000000 0.000000 0.000000-10.143935
#
#
# Mechanical properties :
#
#
# Convention : Reuss Voigt Hill
#
# Bulk Modulus (GPa) = 61.08302 86.42679 73.75491
# Shear Modulus (GPa) = -0.46798 13.09405 6.31304
#
# Velocity S-wave (km/s) = -0.54272 2.87080 1.99336
# Velocity P-wave (km/s) = 6.16875 8.08619 7.19166
#
# Compressibility (1/GPa) = 0.01637116
#
# Stress axis : x y z
#
# Youngs Moduli (GPa) = 46.13460 82.37115 43.62963
#
# Poissons Ratio (x) = 0.83184 0.29296
# Poissons Ratio (y) = 0.46590 0.14699
# Poissons Ratio (z) = 0.30978 0.27751
#
# Static dielectric constant tensor:
#      x y z
#    x 1.533270 0.000000 0.000000 
#    y 0.000000 1.518080 0.000000 
#    z 0.000000 0.000000 1.509370 
# 
# From -- ./inp_files/15027.got.cif
#   From: 2010.05.17/outbox.cif.g08.bks.cpg/sg47_8_cif.got.tgz:15027.got - 2010.06.03 20:15:42.
