data_PCOD9388864
_publ_section_title
;
Structure prediction by ZEFSAII (Michael W. Deem and Ramdas Pophale) SiO2 
 PCOD9388864
Probable space group: P M M M
;
_chemical_formula_sum "Si O2"
_cell_formula_units_Z 36
_cell_length_a 24.990658
_cell_length_b 7.409598
_cell_length_c 9.260046
_cell_angle_alpha 90.000000
_cell_angle_beta 90.000000
_cell_angle_gamma 90.000000
_cell_volume 1714.689473
_symmetry_space_group_name_H-M "P M M M"
_symmetry_group_IT_number 47
_symmetry_cell_setting 'orthorhombic'
loop_
_space_group_symop_operation_xyz
x,y,z
-x,-y,z
x,-y,-z
-x,y,-z
-x,-y,-z
x,y,-z
-x,y,z
x,-y,z
loop_
_atom_site_type_symbol
_atom_site_label
_atom_site_fract_x
_atom_site_fract_y
_atom_site_fract_z
Si Si1 0.893582 0.779196 0.334264
Si Si2 0.000000 0.220268 0.834124
Si Si3 0.327547 0.716581 0.166641
Si Si4 0.210498 0.785504 0.164609
Si Si5 0.557638 0.717124 0.826075
O O1 0.895981 0.722191 0.500000
O O2 0.946265 0.722590 0.247481
O O3 0.839136 0.717258 0.257269
O O4 0.893345 0.000000 0.333678
O O5 0.000000 0.000000 0.833665
O O6 0.000000 0.278071 0.000000
O O7 0.331154 0.500000 0.161667
O O8 0.269599 0.758225 0.230938
O O9 0.384456 0.781771 0.229633
O O10 0.324939 0.782641 0.000000
O O11 0.203338 0.000000 0.153664
O O12 0.209859 0.712525 0.000000
O O13 0.500000 0.786562 0.772344
O O14 0.556514 0.500000 0.805998
O O15 0.558590 0.747090 0.000000
#
# Coordination Sequence:
#
# PCOD9388864 Si02
#       5
#     8   4   8   8   8
#     4   9  16  25  37  54  77 104 132 160 191 229
#     4   9  15  23  37  57  80 103 128 161 198 230
#     4   8  13  21  34  52  73  99 131 162 191 228
#     4   9  16  25  37  54  77 103 129 158 193 230
#     4   7   9  14  26  45  68  93 122 156 191 226
#
# _framework density 20.995055000000001
#
# number of rings (size 3 to 8) (size 9 to 14) (size 15 to 20)
#    0.000    3.667    0.000    3.000    0.000    4.000 
#    0.000    0.000    0.000    1.333    0.000    5.444 
#    0.000    7.111    0.000   11.111    0.000   10.222 
#
# Total GULP energy -200456.703945 kJ/mol
# GULP energy per Si atom -5568.241776 kJ/mol
# Density = 2.094727 g / cm^3
# Si number density = 20.995055 Si / 1000 Ang^3
#
#
#
# Elastic Constant Matrix: (Units=GPa)
#
#
# Indices 1 2 3 4 5 6 
#
# 1 294.0237 5.1121 91.5155 0.0000 0.0000 0.0000
# 2 5.1121 67.4458 4.1557 0.0000 0.0000 0.0000
# 3 91.5155 4.1557 76.8812 0.0000 0.0000 0.0000
# 4 0.0000 0.0000 0.0000 -6.0648 0.0000 0.0000
# 5 0.0000 0.0000 0.0000 0.0000 -7.0988 0.0000
# 6 0.0000 0.0000 0.0000 0.0000 0.0000 14.0405
#
#
#
# Elastic Compliance Matrix: (Units=1/GPa)
#
#
# Indices 1 2 3 4 5 6 
#
# 1 0.005403 -0.000013 -0.006431 0.000000 0.000000 0.000000
# 2 -0.000013 0.014876 -0.000788 0.000000 0.000000 0.000000
# 3 -0.006431 -0.000788 0.020704 0.000000 0.000000 0.000000
# 4 0.000000 0.000000 0.000000 -0.164886 0.000000 0.000000
# 5 0.000000 0.000000 0.000000 0.000000 -0.140870 0.000000
# 6 0.000000 0.000000 0.000000 0.000000 0.000000 0.071222
#
#
# Mechanical properties :
#
#
# Convention : Reuss Voigt Hill
#
# Bulk Modulus (GPa) = 37.70858 71.10190 54.40524
# Shear Modulus (GPa) = -29.36933 22.67989 -3.34472
#
# Velocity S-wave (km/s) = -3.74420 3.29028 -1.26355
# Velocity P-wave (km/s) = 0.83210 6.95515 4.88271
#
# Compressibility (1/GPa) = 0.02651916
#
# Stress axis : x y z
#
# Youngs Moduli (GPa) = 185.08790 67.22099 48.29917
#
# Poissons Ratio (x) = 0.00089 0.31059
# Poissons Ratio (y) = 0.00246 0.03807
# Poissons Ratio (z) = 1.19022 0.05299
#
# Static dielectric constant tensor:
#      x y z
#    x 1.814920 0.000000 0.000000 
#    y 0.000000 1.831380 0.000000 
#    z 0.000000 0.000000 1.691300 
# 
# From -- ./inp_files/3879.got.cif
#   From: 2010.05.17/outbox.cif.g08.bks.cpg/sg47_2_cif.got.tgz:3879.got - 2010.06.03 20:15:42.
