data_PCOD9388021
_publ_section_title
;
Structure prediction by ZEFSAII (Michael W. Deem and Ramdas Pophale) SiO2 
 PCOD9388021
Probable space group: P M M M
;
_chemical_formula_sum "Si O2"
_cell_formula_units_Z 52
_cell_length_a 29.095970
_cell_length_b 12.258324
_cell_length_c 8.128716
_cell_angle_alpha 90.000000
_cell_angle_beta 90.000000
_cell_angle_gamma 90.000000
_cell_volume 2899.251475
_symmetry_space_group_name_H-M "P M M M"
_symmetry_group_IT_number 47
_symmetry_cell_setting 'orthorhombic'
loop_
_space_group_symop_operation_xyz
x,y,z
-x,-y,z
x,-y,-z
-x,y,-z
-x,-y,-z
x,y,-z
-x,y,z
x,-y,z
loop_
_atom_site_type_symbol
_atom_site_label
_atom_site_fract_x
_atom_site_fract_y
_atom_site_fract_z
Si Si1 0.801479 0.000000 0.688681
Si Si2 0.448740 0.873169 0.299914
Si Si3 0.188863 0.760316 0.696129
Si Si4 0.352764 0.208934 0.303766
Si Si5 0.000000 0.367415 0.807400
Si Si6 0.297450 0.000000 0.187572
Si Si7 0.100125 0.372933 0.800196
Si Si8 0.278281 0.375398 0.803640
O O1 0.814960 0.883699 0.764336
O O2 0.818283 0.000000 0.500000
O O3 0.746234 0.000000 0.694137
O O4 0.449910 0.871909 0.500000
O O5 0.500000 0.842767 0.242324
O O6 0.405960 0.798460 0.249326
O O7 0.440099 0.000000 0.252787
O O8 0.194898 0.768025 0.500000
O O9 0.142821 0.695083 0.736631
O O10 0.233570 0.696684 0.760915
O O11 0.351500 0.191346 0.500000
O O12 0.326996 0.107399 0.220551
O O13 0.323719 0.316365 0.264149
O O14 0.049711 0.333985 0.739205
O O15 0.000000 0.500000 0.803002
O O16 0.000000 0.336165 0.000000
O O17 0.280702 0.000000 0.000000
O O18 0.105692 0.500000 0.753709
O O19 0.099762 0.369119 0.000000
O O20 0.273039 0.500000 0.743272
O O21 0.281923 0.378003 0.000000
#
# Coordination Sequence:
#
# PCOD9388021 Si02
#       8
#     4   8   8   8   4   4   8   8
#     4  10  22  38  52  70 100 138 175 213 253 299
#     4   8  14  26  47  76 106 133 163 203 253 303
#     4  11  22  35  53  75 103 135 171 212 256 306
#     4  11  20  33  55  79 105 135 171 214 257 301
#     4   7  12  26  49  74  99 132 170 207 252 305
#     4  12  22  32  51  77 105 138 174 208 254 309
#     4   9  17  31  52  77 105 135 169 210 257 307
#     4  11  24  39  53  73 103 137 173 212 257 311
#
# _framework density 17.935665
#
# number of rings (size 3 to 8) (size 9 to 14) (size 15 to 20)
#    0.000    2.077    2.308    3.923    0.000    4.000 
#    0.000    0.385    0.000    4.615    0.000    6.462 
#    0.000    0.000    0.000    0.000    0.000    0.000 
#
# Total GULP energy -289950.554987 kJ/mol
# GULP energy per Si atom -5575.972211 kJ/mol
# Density = 1.789484 g / cm^3
# Si number density = 17.935665 Si / 1000 Ang^3
#
#
#
# Elastic Constant Matrix: (Units=GPa)
#
#
# Indices 1 2 3 4 5 6 
#
# 1 142.8010 56.3278 0.8412 0.0000 0.0000 0.0000
# 2 56.3278 106.6167 6.5659 0.0000 0.0000 0.0000
# 3 0.8412 6.5659 25.4042 0.0000 0.0000 0.0000
# 4 0.0000 0.0000 0.0000 19.5751 0.0000 0.0000
# 5 0.0000 0.0000 0.0000 0.0000 20.9700 0.0000
# 6 0.0000 0.0000 0.0000 0.0000 0.0000 18.4940
#
#
#
# Elastic Compliance Matrix: (Units=1/GPa)
#
#
# Indices 1 2 3 4 5 6 
#
# 1 0.008868 -0.004743 0.000932 0.000000 0.000000 0.000000
# 2 -0.004743 0.012067 -0.002962 0.000000 0.000000 0.000000
# 3 0.000932 -0.002962 0.040098 0.000000 0.000000 0.000000
# 4 0.000000 0.000000 0.000000 0.051085 0.000000 0.000000
# 5 0.000000 0.000000 0.000000 0.000000 0.047687 0.000000
# 6 0.000000 0.000000 0.000000 0.000000 0.000000 0.054072
#
#
# Mechanical properties :
#
#
# Convention : Reuss Voigt Hill
#
# Bulk Modulus (GPa) = 21.05750 44.69908 32.87829
# Shear Modulus (GPa) = 20.55483 25.88030 23.21757
#
# Velocity S-wave (km/s) = 3.38898 3.80274 3.60181
# Velocity P-wave (km/s) = 5.20381 6.65260 5.97230
#
# Compressibility (1/GPa) = 0.04748902
#
# Stress axis : x y z
#
# Youngs Moduli (GPa) = 112.76571 82.86813 24.93872
#
# Poissons Ratio (x) = 0.39300 -0.02325
# Poissons Ratio (y) = 0.53479 0.07387
# Poissons Ratio (z) = -0.10511 0.24545
#
# Static dielectric constant tensor:
#      x y z
#    x 1.624050 0.000000 0.000000 
#    y 0.000000 1.613830 0.000000 
#    z 0.000000 0.000000 1.647760 
# 
# From -- ./inp_files/13293.got.cif
#   From: 2010.05.17/outbox.cif.g08.bks.cpg/sg47_7_cif.got.tgz:13293.got - 2010.06.03 20:15:42.
