data_PCOD9388086
_publ_section_title
;
Structure prediction by ZEFSAII (Michael W. Deem and Ramdas Pophale) SiO2 
 PCOD9388086
Probable space group: P M M M
;
_chemical_formula_sum "Si O2"
_cell_formula_units_Z 56
_cell_length_a 15.695649
_cell_length_b 8.182977
_cell_length_c 21.949737
_cell_angle_alpha 90.000000
_cell_angle_beta 90.000000
_cell_angle_gamma 90.000000
_cell_volume 2819.161329
_symmetry_space_group_name_H-M "P M M M"
_symmetry_group_IT_number 47
_symmetry_cell_setting 'orthorhombic'
loop_
_space_group_symop_operation_xyz
x,y,z
-x,-y,z
x,-y,-z
-x,y,-z
-x,-y,-z
x,y,-z
-x,y,z
x,-y,z
loop_
_atom_site_type_symbol
_atom_site_label
_atom_site_fract_x
_atom_site_fract_y
_atom_site_fract_z
Si Si1 0.093170 0.194863 0.255224
Si Si2 0.643022 0.188542 0.364754
Si Si3 0.170336 0.303545 0.627963
Si Si4 0.096618 0.699031 0.071219
Si Si5 0.235046 0.689635 0.166857
Si Si6 0.602016 0.320266 0.500000
Si Si7 0.903307 0.301342 0.500000
Si Si8 0.593948 0.802912 0.232107
O O1 0.099118 0.246290 0.325248
O O2 0.169239 0.287880 0.222384
O O3 0.000000 0.239885 0.230924
O O4 0.104710 0.000000 0.248870
O O5 0.742887 0.215055 0.354491
O O6 0.624941 0.249600 0.433452
O O7 0.603189 0.260662 0.302331
O O8 0.618171 0.000000 0.365882
O O9 0.180931 0.500000 0.630465
O O10 0.145488 0.252536 0.560323
O O11 0.095742 0.500000 0.076719
O O12 0.176398 0.760206 0.111601
O O13 0.000000 0.754564 0.088338
O O14 0.108477 0.738054 0.000000
O O15 0.249391 0.500000 0.153402
O O16 0.325878 0.757250 0.189583
O O17 0.641866 0.500000 0.500000
O O18 0.500000 0.326183 0.500000
O O19 0.906486 0.500000 0.500000
O O20 0.000000 0.241807 0.500000
O O21 0.500000 0.752541 0.209312
O O22 0.595523 0.000000 0.235777
#
# Coordination Sequence:
#
# PCOD9388086 Si02
#       8
#     8   8   8   8   8   4   4   8
#     4  11  23  37  53  77 113 154 191 229 277 334
#     4  11  22  38  59  80 106 142 185 233 295 363
#     4  11  21  35  56  79 103 136 182 235 289 340
#     4   8  15  30  54  87 126 161 192 230 278 334
#     4  11  21  34  58  89 117 149 191 238 289 338
#     4  11  24  39  56  80 108 137 178 238 301 356
#     4   9  19  34  50  70  98 133 174 222 275 329
#     4  10  22  40  60  81 111 153 196 239 292 353
#
# _framework density 19.864063999999999
#
# number of rings (size 3 to 8) (size 9 to 14) (size 15 to 20)
#    0.000    1.714    1.429    4.071    0.000    4.857 
#    0.000    1.071    0.000    4.714    0.000    8.000 
#    0.000    0.000    0.000    0.000    0.000    0.000 
#
# Total GULP energy -312263.788855 kJ/mol
# GULP energy per Si atom -5576.139087 kJ/mol
# Density = 1.981885 g / cm^3
# Si number density = 19.864064 Si / 1000 Ang^3
#
#
#
# Elastic Constant Matrix: (Units=GPa)
#
#
# Indices 1 2 3 4 5 6 
#
# 1 147.8281 8.1398 60.8697 0.0000 0.0000 0.0000
# 2 8.1398 20.4196 8.4155 0.0000 0.0000 0.0000
# 3 60.8697 8.4155 120.3567 0.0000 0.0000 0.0000
# 4 0.0000 0.0000 0.0000 -75.1934 0.0000 0.0000
# 5 0.0000 0.0000 0.0000 0.0000 28.1019 0.0000
# 6 0.0000 0.0000 0.0000 0.0000 0.0000 11.1059
#
#
#
# Elastic Compliance Matrix: (Units=1/GPa)
#
#
# Indices 1 2 3 4 5 6 
#
# 1 0.008600 -0.001684 -0.004231 0.000000 0.000000 0.000000
# 2 -0.001684 0.050755 -0.002697 0.000000 0.000000 0.000000
# 3 -0.004231 -0.002697 0.010637 0.000000 0.000000 0.000000
# 4 0.000000 0.000000 0.000000 -0.013299 0.000000 0.000000
# 5 0.000000 0.000000 0.000000 0.000000 0.035585 0.000000
# 6 0.000000 0.000000 0.000000 0.000000 0.000000 0.090043
#
#
# Mechanical properties :
#
#
# Convention : Reuss Voigt Hill
#
# Bulk Modulus (GPa) = 18.95129 49.27271 34.11200
# Shear Modulus (GPa) = 23.02712 6.88150 14.95431
#
# Velocity S-wave (km/s) = 3.40845 1.86328 2.74676
# Velocity P-wave (km/s) = 5.00512 5.43028 5.22203
#
# Compressibility (1/GPa) = 0.05276686
#
# Stress axis : x y z
#
# Youngs Moduli (GPa) = 116.28309 19.70232 94.00905
#
# Poissons Ratio (x) = 0.03318 0.39780
# Poissons Ratio (y) = 0.19584 0.25356
# Poissons Ratio (z) = 0.49205 0.05314
#
# Static dielectric constant tensor:
#      x y z
#    x 1.707640 0.000000 0.000000 
#    y 0.000000 1.723540 0.000000 
#    z 0.000000 0.000000 1.735410 
# 
# From -- ./inp_files/31012.got.cif
#   From: 2010.05.17/outbox.cif.g08.bks.cpg/sg47_16_cif.got.tgz:31012.got - 2010.06.03 20:15:42.
