data_PCOD9388223
_publ_section_title
;
Structure prediction by ZEFSAII (Michael W. Deem and Ramdas Pophale) SiO2 
 PCOD9388223
Probable space group: P M M M
;
_chemical_formula_sum "Si O2"
_cell_formula_units_Z 64
_cell_length_a 29.907347
_cell_length_b 15.209712
_cell_length_c 7.601556
_cell_angle_alpha 90.000000
_cell_angle_beta 90.000000
_cell_angle_gamma 90.000000
_cell_volume 3457.812019
_symmetry_space_group_name_H-M "P M M M"
_symmetry_group_IT_number 47
_symmetry_cell_setting 'orthorhombic'
loop_
_space_group_symop_operation_xyz
x,y,z
-x,-y,z
x,-y,-z
-x,y,-z
-x,-y,-z
x,y,-z
-x,y,z
x,-y,z
loop_
_atom_site_type_symbol
_atom_site_label
_atom_site_fract_x
_atom_site_fract_y
_atom_site_fract_z
Si Si1 0.091167 0.598310 0.285475
Si Si2 0.232113 0.099771 0.789744
Si Si3 0.806019 0.399590 0.712760
Si Si4 0.355145 0.599498 0.291064
Si Si5 0.451883 0.393488 0.292160
Si Si6 0.130179 0.100203 0.712311
Si Si7 0.049431 0.222746 0.715338
Si Si8 0.274589 0.726988 0.796753
O O1 0.090816 0.597043 0.500000
O O2 0.079170 0.500000 0.226746
O O3 0.142659 0.617027 0.234079
O O4 0.059677 0.677400 0.229674
O O5 0.180434 0.127035 0.760993
O O6 0.263666 0.177097 0.717384
O O7 0.237783 0.000000 0.719917
O O8 0.238541 0.095327 0.000000
O O9 0.804575 0.395943 0.500000
O O10 0.794653 0.500000 0.764367
O O11 0.770414 0.330658 0.780984
O O12 0.361626 0.590369 0.500000
O O13 0.344965 0.500000 0.223976
O O14 0.403260 0.632255 0.219035
O O15 0.315032 0.667432 0.270266
O O16 0.452881 0.370634 0.500000
O O17 0.500000 0.364089 0.216910
O O18 0.451392 0.500000 0.281613
O O19 0.128463 0.100334 0.500000
O O20 0.090366 0.162209 0.775440
O O21 0.123905 0.000000 0.773672
O O22 0.049897 0.221133 0.500000
O O23 0.000000 0.194366 0.771140
O O24 0.284645 0.741522 0.000000
#
# Coordination Sequence:
#
# PCOD9388223 Si02
#       8
#     8   8   8   8   8   8   8   8
#     4   8  14  24  37  53  73 100 135 167 190 220
#     4   9  19  35  50  62  79 106 140 175 212 255
#     4   9  17  29  44  60  81 112 144 170 200 241
#     4   9  17  28  42  62  90 123 152 175 205 245
#     4   7  10  19  37  59  81 109 149 188 209 227
#     4   9  17  29  46  66  83 100 126 160 198 243
#     4   9  16  24  36  57  83 106 125 151 193 240
#     4  11  21  29  41  62  86 111 138 173 216 254
#
# _framework density 18.508814000000001
#
# number of rings (size 3 to 8) (size 9 to 14) (size 15 to 20)
#    0.000    3.125    0.000    3.375    0.000    4.500 
#    0.000    2.500    0.000    0.750    0.000    3.500 
#    0.000    0.500    0.000   17.000    0.000    9.000 
#
# Total GULP energy -356613.671972 kJ/mol
# GULP energy per Si atom -5572.088625 kJ/mol
# Density = 1.846669 g / cm^3
# Si number density = 18.508814 Si / 1000 Ang^3
#
#
#
# Elastic Constant Matrix: (Units=GPa)
#
#
# Indices 1 2 3 4 5 6 
#
# 1 104.5346 79.1613 5.3614 0.0000 0.0000 0.0000
# 2 79.1613 90.7429 4.9626 0.0000 0.0000 0.0000
# 3 5.3614 4.9626 36.2803 0.0000 0.0000 0.0000
# 4 0.0000 0.0000 0.0000 8.3582 0.0000 0.0000
# 5 0.0000 0.0000 0.0000 0.0000 446.2001 0.0000
# 6 0.0000 0.0000 0.0000 0.0000 0.0000 16.2655
#
#
#
# Elastic Compliance Matrix: (Units=1/GPa)
#
#
# Indices 1 2 3 4 5 6 
#
# 1 0.028211 -0.024566 -0.000809 0.000000 0.000000 0.000000
# 2 -0.024566 0.032495 -0.000815 0.000000 0.000000 0.000000
# 3 -0.000809 -0.000815 0.027794 0.000000 0.000000 0.000000
# 4 0.000000 0.000000 0.000000 0.119643 0.000000 0.000000
# 5 0.000000 0.000000 0.000000 0.000000 0.002241 0.000000
# 6 0.000000 0.000000 0.000000 0.000000 0.000000 0.061480
#
#
# Mechanical properties :
#
#
# Convention : Reuss Voigt Hill
#
# Bulk Modulus (GPa) = 27.68414 45.61426 36.64920
# Shear Modulus (GPa) = 14.86838 103.63626 59.25232
#
# Velocity S-wave (km/s) = 2.83735 7.49096 5.66414
# Velocity P-wave (km/s) = 5.07187 9.97584 7.91332
#
# Compressibility (1/GPa) = 0.03612176
#
# Stress axis : x y z
#
# Youngs Moduli (GPa) = 35.44713 30.77349 35.97884
#
# Poissons Ratio (x) = 0.75599 0.02909
# Poissons Ratio (y) = 0.87080 0.02931
# Poissons Ratio (z) = 0.02866 0.02507
#
# Static dielectric constant tensor:
#      x y z
#    x 1.658660 0.000000 0.000000 
#    y 0.000000 1.653660 0.000000 
#    z 0.000000 0.000000 1.710800 
# 
# From -- ./inp_files/14378.got.cif
#   From: 2010.05.17/outbox.cif.g08.bks.cpg/sg47_8_cif.got.tgz:14378.got - 2010.06.03 20:15:42.
