data_PCOD9388404
_publ_section_title
;
Structure prediction by ZEFSAII (Michael W. Deem and Ramdas Pophale) SiO2 
 PCOD9388404
Probable space group: P M M M
;
_chemical_formula_sum "Si O2"
_cell_formula_units_Z 56
_cell_length_a 30.469748
_cell_length_b 8.475309
_cell_length_c 14.080204
_cell_angle_alpha 90.000000
_cell_angle_beta 90.000000
_cell_angle_gamma 90.000000
_cell_volume 3636.079336
_symmetry_space_group_name_H-M "P M M M"
_symmetry_group_IT_number 47
_symmetry_cell_setting 'orthorhombic'
loop_
_space_group_symop_operation_xyz
x,y,z
-x,-y,z
x,-y,-z
-x,y,-z
-x,-y,-z
x,y,-z
-x,y,z
x,-y,z
loop_
_atom_site_type_symbol
_atom_site_label
_atom_site_fract_x
_atom_site_fract_y
_atom_site_fract_z
Si Si1 0.911328 0.812280 0.794812
Si Si2 0.132412 0.309079 0.391968
Si Si3 0.000000 0.689230 0.889710
Si Si4 0.223264 0.692123 0.705967
Si Si5 0.408515 0.311401 0.613082
Si Si6 0.312539 0.692794 0.389095
Si Si7 0.823771 0.690943 0.106652
Si Si8 0.500000 0.187406 0.609779
O O1 0.900283 0.755993 0.687873
O O2 0.871365 0.748195 0.859178
O O3 0.956754 0.748254 0.835877
O O4 0.911449 0.000000 0.797602
O O5 0.123543 0.259180 0.500000
O O6 0.130640 0.500000 0.388328
O O7 0.181913 0.262687 0.360245
O O8 0.000000 0.500000 0.889933
O O9 0.000000 0.743168 0.000000
O O10 0.224562 0.500000 0.704541
O O11 0.270049 0.748345 0.668067
O O12 0.210541 0.742025 0.812433
O O13 0.407640 0.274641 0.500000
O O14 0.410665 0.500000 0.622406
O O15 0.360596 0.256762 0.648256
O O16 0.453801 0.242807 0.653012
O O17 0.308167 0.737276 0.500000
O O18 0.312737 0.500000 0.387337
O O19 0.824520 0.500000 0.107259
O O20 0.814105 0.744500 0.000000
O O21 0.500000 0.249021 0.500000
O O22 0.500000 0.000000 0.606558
#
# Coordination Sequence:
#
# PCOD9388404 Si02
#       8
#     8   8   4   8   8   8   8   4
#     4  11  22  34  50  73  98 119 142 175 213 253
#     4   9  17  31  51  71  92 121 153 180 206 242
#     4  11  23  39  58  75  92 115 143 178 218 259
#     4   8  13  22  39  63  86 108 139 176 208 239
#     4   8  13  20  30  44  63  89 122 160 199 236
#     4   8  12  18  31  53  77  99 128 168 207 238
#     4   9  17  30  47  66  89 117 147 176 206 245
#     4   9  15  21  29  41  59  87 124 161 194 232
#
# _framework density 15.401204999999999
#
# number of rings (size 3 to 8) (size 9 to 14) (size 15 to 20)
#    0.000    3.000    0.000    4.286    0.000    5.429 
#    0.000    0.357    0.000    5.571    0.000    4.000 
#    0.000    0.000    0.000    0.643    0.000   17.500 
#
# Total GULP energy -311785.371816 kJ/mol
# GULP energy per Si atom -5567.595925 kJ/mol
# Density = 1.536615 g / cm^3
# Si number density = 15.401205 Si / 1000 Ang^3
#
#
#
# Elastic Constant Matrix: (Units=GPa)
#
#
# Indices 1 2 3 4 5 6 
#
# 1 161.1038 18.4917 68.1951 0.0000 0.0000 0.0000
# 2 18.4917 6.0918 16.6090 0.0000 0.0000 0.0000
# 3 68.1951 16.6090 102.3570 0.0000 0.0000 0.0000
# 4 0.0000 0.0000 0.0000 2.5554 0.0000 0.0000
# 5 0.0000 0.0000 0.0000 0.0000 12.5348 0.0000
# 6 0.0000 0.0000 0.0000 0.0000 0.0000 -13.8735
#
#
#
# Elastic Compliance Matrix: (Units=1/GPa)
#
#
# Indices 1 2 3 4 5 6 
#
# 1 0.010057 -0.021987 -0.003133 0.000000 0.000000 0.000000
# 2 -0.021987 0.342473 -0.040923 0.000000 0.000000 0.000000
# 3 -0.003133 -0.040923 0.018497 0.000000 0.000000 0.000000
# 4 0.000000 0.000000 0.000000 0.391335 0.000000 0.000000
# 5 0.000000 0.000000 0.000000 0.000000 0.079778 0.000000
# 6 0.000000 0.000000 0.000000 0.000000 0.000000 -0.072080
#
#
# Mechanical properties :
#
#
# Convention : Reuss Voigt Hill
#
# Bulk Modulus (GPa) = 4.18510 52.90491 28.54501
# Shear Modulus (GPa) = 5.09272 11.32711 8.20992
#
# Velocity S-wave (km/s) = 1.82041 2.71490 2.31134
# Velocity P-wave (km/s) = 2.67241 6.65231 5.06927
#
# Compressibility (1/GPa) = 0.23894264
#
# Stress axis : x y z
#
# Youngs Moduli (GPa) = 99.43401 2.91993 54.06218
#
# Poissons Ratio (x) = 0.06420 0.16936
# Poissons Ratio (y) = 2.18625 2.21238
# Poissons Ratio (z) = 0.31149 0.11949
#
# Static dielectric constant tensor:
#      x y z
#    x 1.531730 0.000000 0.000000 
#    y 0.000000 1.518020 0.000000 
#    z 0.000000 0.000000 1.505020 
# 
# From -- ./inp_files/25824.got.cif
#   From: 2010.05.17/outbox.cif.g08.bks.cpg/sg47_13_cif.got.tgz:25824.got - 2010.06.03 20:15:42.
