data_PCOD9388098
_publ_section_title
;
Structure prediction by ZEFSAII (Michael W. Deem and Ramdas Pophale) SiO2 
 PCOD9388098
Probable space group: P M M M
;
_chemical_formula_sum "Si O2"
_cell_formula_units_Z 36
_cell_length_a 7.682028
_cell_length_b 14.861011
_cell_length_c 15.445161
_cell_angle_alpha 90.000000
_cell_angle_beta 90.000000
_cell_angle_gamma 90.000000
_cell_volume 1763.261322
_symmetry_space_group_name_H-M "P M M M"
_symmetry_group_IT_number 47
_symmetry_cell_setting 'orthorhombic'
loop_
_space_group_symop_operation_xyz
x,y,z
-x,-y,z
x,-y,-z
-x,y,-z
-x,-y,-z
x,y,-z
-x,y,z
x,-y,z
loop_
_atom_site_type_symbol
_atom_site_label
_atom_site_fract_x
_atom_site_fract_y
_atom_site_fract_z
Si Si1 0.702128 0.170134 0.500000
Si Si2 0.196349 0.369817 0.500000
Si Si3 0.802827 0.734368 0.810107
Si Si4 0.500000 0.610917 0.103643
Si Si5 0.299171 0.403741 0.686946
Si Si6 0.210155 0.898073 0.307045
O O1 0.500000 0.194948 0.500000
O O2 0.806155 0.262318 0.500000
O O3 0.736612 0.122620 0.407136
O O4 0.291527 0.401515 0.584973
O O5 0.000000 0.402868 0.500000
O O6 0.669490 0.671174 0.865257
O O7 0.813979 0.675759 0.722775
O O8 0.733055 0.828327 0.768906
O O9 0.000000 0.744571 0.846581
O O10 0.500000 0.500000 0.124884
O O11 0.500000 0.612324 0.000000
O O12 0.500000 0.391529 0.713260
O O13 0.236092 0.500000 0.719198
O O14 0.000000 0.893285 0.306013
O O15 0.265239 0.000000 0.287435
#
# Coordination Sequence:
#
# PCOD9388098 Si02
#       6
#     4   4   8   4   8   8
#     4  12  23  34  51  82 122 168 222 271 317 361
#     4  12  23  34  49  74 114 166 217 265 312 362
#     4  11  23  41  67  96 127 166 210 258 314 377
#     4  11  26  48  73 102 133 162 195 246 316 392
#     4  11  22  36  54  79 116 163 210 259 315 367
#     4  10  22  40  61  87 124 171 220 270 319 365
#
# _framework density 20.416713999999999
#
# number of rings (size 3 to 8) (size 9 to 14) (size 15 to 20)
#    0.000    1.000    3.333    4.000    1.556    6.667 
#    0.000    1.111    0.000    1.333    0.000    3.111 
#    0.000    0.000    0.000    0.000    0.000    0.000 
#
# Total GULP energy -200581.387634 kJ/mol
# GULP energy per Si atom -5571.705212 kJ/mol
# Density = 2.037024 g / cm^3
# Si number density = 20.416714 Si / 1000 Ang^3
#
#
#
# Elastic Constant Matrix: (Units=GPa)
#
#
# Indices 1 2 3 4 5 6 
#
# 1 99.2124 39.6086 27.5308 0.0000 0.0000 0.0000
# 2 39.6086 172.2212 43.8890 0.0000 0.0000 0.0000
# 3 27.5308 43.8890 93.9638 0.0000 0.0000 0.0000
# 4 0.0000 0.0000 0.0000 21.0126 0.0000 0.0000
# 5 0.0000 0.0000 0.0000 0.0000 18.3391 0.0000
# 6 0.0000 0.0000 0.0000 0.0000 0.0000 14.5599
#
#
#
# Elastic Compliance Matrix: (Units=1/GPa)
#
#
# Indices 1 2 3 4 5 6 
#
# 1 0.011570 -0.002040 -0.002437 0.000000 0.000000 0.000000
# 2 -0.002040 0.006951 -0.002649 0.000000 0.000000 0.000000
# 3 -0.002437 -0.002649 0.012594 0.000000 0.000000 0.000000
# 4 0.000000 0.000000 0.000000 0.047590 0.000000 0.000000
# 5 0.000000 0.000000 0.000000 0.000000 0.054528 0.000000
# 6 0.000000 0.000000 0.000000 0.000000 0.000000 0.068682
#
#
# Mechanical properties :
#
#
# Convention : Reuss Voigt Hill
#
# Bulk Modulus (GPa) = 59.30276 65.27270 62.28773
# Shear Modulus (GPa) = 22.54411 27.74027 25.14219
#
# Velocity S-wave (km/s) = 3.32655 3.69006 3.51301
# Velocity P-wave (km/s) = 6.62298 7.08484 6.85780
#
# Compressibility (1/GPa) = 0.01686262
#
# Stress axis : x y z
#
# Youngs Moduli (GPa) = 86.42998 143.87099 79.40470
#
# Poissons Ratio (x) = 0.29348 0.19352
# Poissons Ratio (y) = 0.17631 0.21033
# Poissons Ratio (z) = 0.21064 0.38110
#
# Static dielectric constant tensor:
#      x y z
#    x 1.745650 0.000000 0.000000 
#    y 0.000000 1.761480 0.000000 
#    z 0.000000 0.000000 1.771430 
# 
# From -- ./inp_files/20607.got.cif
#   From: 2010.05.17/outbox.cif.g08.bks.cpg/sg47_11_cif.got.tgz:20607.got - 2010.06.03 20:15:42.
