data_PCOD9388028
_publ_section_title
;
Structure prediction by ZEFSAII (Michael W. Deem and Ramdas Pophale) SiO2 
 PCOD9388028
Probable space group: P M M M
;
_chemical_formula_sum "Si O2"
_cell_formula_units_Z 48
_cell_length_a 9.456574
_cell_length_b 10.018551
_cell_length_c 28.123940
_cell_angle_alpha 90.000000
_cell_angle_beta 90.000000
_cell_angle_gamma 90.000000
_cell_volume 2664.494950
_symmetry_space_group_name_H-M "P M M M"
_symmetry_group_IT_number 47
_symmetry_cell_setting 'orthorhombic'
loop_
_space_group_symop_operation_xyz
x,y,z
-x,-y,z
x,-y,-z
-x,y,-z
-x,-y,-z
x,y,-z
-x,y,z
x,-y,z
loop_
_atom_site_type_symbol
_atom_site_label
_atom_site_fract_x
_atom_site_fract_y
_atom_site_fract_z
Si Si1 0.163706 0.663001 0.000000
Si Si2 0.331856 0.644808 0.655675
Si Si3 0.831769 0.656763 0.188244
Si Si4 0.156109 0.000000 0.557016
Si Si5 0.666726 0.738266 0.446158
Si Si6 0.830976 0.843594 0.721190
Si Si7 0.337469 0.337975 0.092854
O O1 0.247607 0.706478 0.952863
O O2 0.163103 0.500000 0.000000
O O3 0.000000 0.705300 0.000000
O O4 0.500000 0.659196 0.664241
O O5 0.285547 0.500000 0.674866
O O6 0.311589 0.644135 0.598731
O O7 0.249651 0.765925 0.679534
O O8 0.801979 0.500000 0.199964
O O9 0.800673 0.757461 0.231283
O O10 0.742096 0.694500 0.141795
O O11 0.000000 0.664704 0.177838
O O12 0.244656 0.131247 0.566876
O O13 0.141280 0.000000 0.500000
O O14 0.000000 0.000000 0.578966
O O15 0.704446 0.692572 0.500000
O O16 0.500000 0.771052 0.447468
O O17 0.000000 0.837318 0.713308
O O18 0.791768 0.000000 0.724919
O O19 0.500000 0.291554 0.091712
O O20 0.340872 0.500000 0.090729
#
# Coordination Sequence:
#
# PCOD9388028 Si02
#       7
#     4   8   8   4   8   8   8
#     4   9  15  23  37  61  98 141 180 215 254 304
#     4  10  22  38  56  80 108 138 173 215 264 316
#     4   9  17  31  51  73  99 133 172 213 260 314
#     4   9  17  29  47  73 103 133 167 207 247 290
#     4   9  18  33  53  76 104 138 173 209 254 309
#     4  10  22  39  58  80 105 136 176 220 267 320
#     4   9  16  25  40  66 100 136 173 215 261 307
#
# _framework density 18.014669999999999
#
# number of rings (size 3 to 8) (size 9 to 14) (size 15 to 20)
#    0.000    2.667    0.000    1.500    1.167    7.000 
#    0.000    3.333    0.000    0.000    0.000    4.083 
#    0.000    4.667    0.000    0.000    0.000    0.000 
#
# Total GULP energy -267437.166985 kJ/mol
# GULP energy per Si atom -5571.607646 kJ/mol
# Density = 1.797367 g / cm^3
# Si number density = 18.014670 Si / 1000 Ang^3
#
#
#
# Elastic Constant Matrix: (Units=GPa)
#
#
# Indices 1 2 3 4 5 6 
#
# 1 67.9977 48.5690 74.3750 0.0000 0.0000 0.0000
# 2 48.5690 102.0048 58.2667 0.0000 0.0000 0.0000
# 3 74.3750 58.2667 130.0171 0.0000 0.0000 0.0000
# 4 0.0000 0.0000 0.0000 7.0663 0.0000 0.0000
# 5 0.0000 0.0000 0.0000 0.0000 30.1332 0.0000
# 6 0.0000 0.0000 0.0000 0.0000 0.0000 14.2377
#
#
#
# Elastic Compliance Matrix: (Units=1/GPa)
#
#
# Indices 1 2 3 4 5 6 
#
# 1 0.044657 -0.008966 -0.021528 0.000000 0.000000 0.000000
# 2 -0.008966 0.014977 -0.001583 0.000000 0.000000 0.000000
# 3 -0.021528 -0.001583 0.020715 0.000000 0.000000 0.000000
# 4 0.000000 0.000000 0.000000 0.141517 0.000000 0.000000
# 5 0.000000 0.000000 0.000000 0.000000 0.033186 0.000000
# 6 0.000000 0.000000 0.000000 0.000000 0.000000 0.070236
#
#
# Mechanical properties :
#
#
# Convention : Reuss Voigt Hill
#
# Bulk Modulus (GPa) = 61.74324 73.60455 67.67390
# Shear Modulus (GPa) = 12.66334 18.20802 15.43568
#
# Velocity S-wave (km/s) = 2.65419 3.18265 2.93036
# Velocity P-wave (km/s) = 6.61372 7.37919 7.00692
#
# Compressibility (1/GPa) = 0.01619610
#
# Stress axis : x y z
#
# Youngs Moduli (GPa) = 22.39271 66.76986 48.27389
#
# Poissons Ratio (x) = 0.59869 1.03922
# Poissons Ratio (y) = 0.20078 0.07640
# Poissons Ratio (z) = 0.48206 0.10567
#
# Static dielectric constant tensor:
#      x y z
#    x 1.613140 0.000000 0.000000 
#    y 0.000000 1.605000 0.000000 
#    z 0.000000 0.000000 1.627470 
# 
# From -- ./inp_files/34032.got.cif
#   From: 2010.05.17/outbox.cif.g08.bks.cpg/sg47_18_cif.got.tgz:34032.got - 2010.06.03 20:15:42.
