data_PCOD9388652
_publ_section_title
;
Structure prediction by ZEFSAII (Michael W. Deem and Ramdas Pophale) SiO2 
 PCOD9388652
Probable space group: P M M M
;
_chemical_formula_sum "Si O2"
_cell_formula_units_Z 44
_cell_length_a 8.476818
_cell_length_b 9.591798
_cell_length_c 28.922581
_cell_angle_alpha 90.000000
_cell_angle_beta 90.000000
_cell_angle_gamma 90.000000
_cell_volume 2351.635074
_symmetry_space_group_name_H-M "P M M M"
_symmetry_group_IT_number 47
_symmetry_cell_setting 'orthorhombic'
loop_
_space_group_symop_operation_xyz
x,y,z
-x,-y,z
x,-y,-z
-x,y,-z
-x,-y,-z
x,y,-z
-x,y,z
x,-y,z
loop_
_atom_site_type_symbol
_atom_site_label
_atom_site_fract_x
_atom_site_fract_y
_atom_site_fract_z
Si Si1 0.688632 0.840123 0.277020
Si Si2 0.809417 0.337853 0.808104
Si Si3 0.811412 0.659754 0.362782
Si Si4 0.193224 0.840073 0.000000
Si Si5 0.192231 0.660056 0.912830
Si Si6 0.690461 0.160343 0.446829
O O1 0.500000 0.842783 0.278969
O O2 0.741300 0.763697 0.230230
O O3 0.749320 0.751174 0.320285
O O4 0.746628 0.000000 0.278845
O O5 0.765339 0.500000 0.799388
O O6 0.759651 0.301879 0.860617
O O7 0.000000 0.331469 0.806198
O O8 0.753537 0.500000 0.360114
O O9 0.759799 0.733185 0.410195
O O10 0.000000 0.657357 0.360383
O O11 0.245628 0.760039 0.046191
O O12 0.000000 0.837595 0.000000
O O13 0.242917 0.000000 0.000000
O O14 0.239561 0.500000 0.921705
O O15 0.000000 0.661731 0.912929
O O16 0.736320 0.189410 0.500000
O O17 0.500000 0.165965 0.444503
O O18 0.736705 0.000000 0.436005
#
# Coordination Sequence:
#
# PCOD9388652 Si02
#       6
#     8   8   8   4   8   8
#     4  11  24  39  55  77 104 135 173 215 260 314
#     4   9  18  33  53  77 103 132 170 214 259 309
#     4  11  24  39  56  81 111 141 176 219 263 308
#     4   9  15  21  33  59  94 129 166 205 244 292
#     4   8  14  25  41  62  92 129 164 201 248 300
#     4   9  19  37  60  85 113 145 181 219 258 304
#
# _framework density 18.710387999999998
#
# number of rings (size 3 to 8) (size 9 to 14) (size 15 to 20)
#    0.000    2.455    0.000    4.091    0.000   10.545 
#    0.000    4.545    0.000    0.000    0.000    0.636 
#    0.000    5.091    0.000    0.000    0.000    0.000 
#
# Total GULP energy -245594.482639 kJ/mol
# GULP energy per Si atom -5581.692787 kJ/mol
# Density = 1.866780 g / cm^3
# Si number density = 18.710388 Si / 1000 Ang^3
#
#
#
# Elastic Constant Matrix: (Units=GPa)
#
#
# Indices 1 2 3 4 5 6 
#
# 1 17.5886 32.9159 28.9964 0.0000 0.0000 0.0000
# 2 32.9159 179.5482 139.3923 0.0000 0.0000 0.0000
# 3 28.9964 139.3923 168.5618 0.0000 0.0000 0.0000
# 4 0.0000 0.0000 0.0000 68.6214 0.0000 0.0000
# 5 0.0000 0.0000 0.0000 0.0000 55.4336 0.0000
# 6 0.0000 0.0000 0.0000 0.0000 0.0000 24.4504
#
#
#
# Elastic Compliance Matrix: (Units=1/GPa)
#
#
# Indices 1 2 3 4 5 6 
#
# 1 0.088044 -0.012242 -0.005022 0.000000 0.000000 0.000000
# 2 -0.012242 0.017260 -0.012167 0.000000 0.000000 0.000000
# 3 -0.005022 -0.012167 0.016858 0.000000 0.000000 0.000000
# 4 0.000000 0.000000 0.000000 0.014573 0.000000 0.000000
# 5 0.000000 0.000000 0.000000 0.000000 0.018040 0.000000
# 6 0.000000 0.000000 0.000000 0.000000 0.000000 0.040899
#
#
# Mechanical properties :
#
#
# Convention : Reuss Voigt Hill
#
# Bulk Modulus (GPa) = 15.79780 85.36754 50.58267
# Shear Modulus (GPa) = 18.13987 40.66065 29.40026
#
# Velocity S-wave (km/s) = 3.11707 4.66677 3.96831
# Velocity P-wave (km/s) = 4.62780 8.64657 6.93468
#
# Compressibility (1/GPa) = 0.06329994
#
# Stress axis : x y z
#
# Youngs Moduli (GPa) = 11.35790 57.93851 59.31895
#
# Poissons Ratio (x) = 0.70928 0.29791
# Poissons Ratio (y) = 0.13904 0.72174
# Poissons Ratio (z) = 0.05704 0.70494
#
# Static dielectric constant tensor:
#      x y z
#    x 1.646610 0.000000 0.000000 
#    y 0.000000 1.633910 0.000000 
#    z 0.000000 0.000000 1.629130 
# 
# From -- ./inp_files/13641.got.cif
#   From: 2010.05.17/outbox.cif.g08.bks.cpg/sg47_7_cif.got.tgz:13641.got - 2010.06.03 20:15:42.
