data_PCOD9388748
_publ_section_title
;
Structure prediction by ZEFSAII (Michael W. Deem and Ramdas Pophale) SiO2 
 PCOD9388748
Probable space group: P M M M
;
_chemical_formula_sum "Si O2"
_cell_formula_units_Z 52
_cell_length_a 7.567310
_cell_length_b 37.509566
_cell_length_c 9.812219
_cell_angle_alpha 90.000000
_cell_angle_beta 90.000000
_cell_angle_gamma 90.000000
_cell_volume 2785.164157
_symmetry_space_group_name_H-M "P M M M"
_symmetry_group_IT_number 47
_symmetry_cell_setting 'orthorhombic'
loop_
_space_group_symop_operation_xyz
x,y,z
-x,-y,z
x,-y,-z
-x,y,-z
-x,-y,-z
x,y,-z
-x,y,z
x,-y,z
loop_
_atom_site_type_symbol
_atom_site_label
_atom_site_fract_x
_atom_site_fract_y
_atom_site_fract_z
Si Si1 0.216719 0.760734 0.842124
Si Si2 0.697430 0.094243 0.665485
Si Si3 0.786597 0.826112 0.343558
Si Si4 0.793961 0.317054 0.834220
Si Si5 0.216742 0.605245 0.157935
Si Si6 0.000000 0.959162 0.666696
Si Si7 0.215533 0.539784 0.657537
O O1 0.274727 0.793458 0.749130
O O2 0.279264 0.721539 0.793642
O O3 0.000000 0.759865 0.840076
O O4 0.267881 0.765632 0.000000
O O5 0.711400 0.095677 0.500000
O O6 0.500000 0.084301 0.702619
O O7 0.735723 0.134735 0.709860
O O8 0.833195 0.064303 0.711294
O O9 0.724428 0.822479 0.500000
O O10 0.000000 0.825232 0.346376
O O11 0.720767 0.355612 0.792970
O O12 0.000000 0.317020 0.793048
O O13 0.789708 0.317125 0.000000
O O14 0.275826 0.572207 0.248838
O O15 0.000000 0.606112 0.160533
O O16 0.267303 0.600587 0.000000
O O17 0.000000 0.960006 0.500000
O O18 0.000000 0.000000 0.712626
O O19 0.267697 0.544574 0.500000
O O20 0.270666 0.500000 0.701856
O O21 0.000000 0.540057 0.660382
#
# Coordination Sequence:
#
# PCOD9388748 Si02
#       7
#     8   8   8   8   8   4   8
#     4   8  13  21  34  51  70  94 124 156 192 239
#     4   9  16  26  40  58  83 116 148 178 220 268
#     4   9  15  24  38  55  78 106 134 166 204 245
#     4   7  10  17  27  39  56  76  99 131 174 223
#     4   8  12  17  25  34  43  59  85 119 161 210
#     4   9  16  26  40  60  87 117 151 189 223 261
#     4   8  13  19  23  27  38  57  82 116 163 217
#
# _framework density 18.670354
#
# number of rings (size 3 to 8) (size 9 to 14) (size 15 to 20)
#    0.000    3.769    0.769    2.308    0.000    0.615 
#    0.000    3.846    0.000    5.077    0.000    0.000 
#    0.000    1.231    0.000    1.385    0.000    1.538 
#
# Total GULP energy -289480.380094 kJ/mol
# GULP energy per Si atom -5566.930386 kJ/mol
# Density = 1.862786 g / cm^3
# Si number density = 18.670354 Si / 1000 Ang^3
#
#
#
# Elastic Constant Matrix: (Units=GPa)
#
#
# Indices 1 2 3 4 5 6 
#
# 1 56.8019 47.7965 12.7632 0.0000 0.0000 0.0000
# 2 47.7965 244.0745 69.5715 0.0000 0.0000 0.0000
# 3 12.7632 69.5715 35.5314 0.0000 0.0000 0.0000
# 4 0.0000 0.0000 0.0000 40.2431 0.0000 0.0000
# 5 0.0000 0.0000 0.0000 0.0000 -4.9792 0.0000
# 6 0.0000 0.0000 0.0000 0.0000 0.0000 -16.7784
#
#
#
# Elastic Compliance Matrix: (Units=1/GPa)
#
#
# Indices 1 2 3 4 5 6 
#
# 1 0.021099 -0.004462 0.001157 0.000000 0.000000 0.000000
# 2 -0.004462 0.010215 -0.018399 0.000000 0.000000 0.000000
# 3 0.001157 -0.018399 0.063755 0.000000 0.000000 0.000000
# 4 0.000000 0.000000 0.000000 0.024849 0.000000 0.000000
# 5 0.000000 0.000000 0.000000 0.000000 -0.200837 0.000000
# 6 0.000000 0.000000 0.000000 0.000000 0.000000 -0.059600
#
#
# Mechanical properties :
#
#
# Convention : Reuss Voigt Hill
#
# Bulk Modulus (GPa) = 19.35677 66.29670 42.82673
# Shear Modulus (GPa) = -62.58656 17.44889 -22.56884
#
# Velocity S-wave (km/s) = -5.79609 3.06040 -3.48056
# Velocity P-wave (km/s) = 5.86538 6.93356 2.61453
#
# Compressibility (1/GPa) = 0.05166152
#
# Stress axis : x y z
#
# Youngs Moduli (GPa) = 47.39488 97.89122 15.68499
#
# Poissons Ratio (x) = 0.43675 -0.01814
# Poissons Ratio (y) = 0.21145 0.28860
# Poissons Ratio (z) = -0.05483 1.80114
#
# Static dielectric constant tensor:
#      x y z
#    x 1.357430 0.000000 0.000000 
#    y 0.000000 1.661420 0.000000 
#    z 0.000000 0.000000 1.609150 
# 
# From -- ./inp_files/15649.got.cif
#   From: 2010.05.17/outbox.cif.g08.bks.cpg/sg47_8_cif.got.tgz:15649.got - 2010.06.03 20:15:42.
