data_PCOD9388070
_publ_section_title
;
Structure prediction by ZEFSAII (Michael W. Deem and Ramdas Pophale) SiO2 
 PCOD9388070
Probable space group: P M M M
;
_chemical_formula_sum "Si O2"
_cell_formula_units_Z 48
_cell_length_a 14.645006
_cell_length_b 21.547579
_cell_length_c 7.315858
_cell_angle_alpha 90.000000
_cell_angle_beta 90.000000
_cell_angle_gamma 90.000000
_cell_volume 2308.624514
_symmetry_space_group_name_H-M "P M M M"
_symmetry_group_IT_number 47
_symmetry_cell_setting 'orthorhombic'
loop_
_space_group_symop_operation_xyz
x,y,z
-x,-y,z
x,-y,-z
-x,y,-z
-x,-y,-z
x,y,-z
-x,y,z
x,-y,z
loop_
_atom_site_type_symbol
_atom_site_label
_atom_site_fract_x
_atom_site_fract_y
_atom_site_fract_z
Si Si1 0.105620 0.175362 0.777534
Si Si2 0.751129 0.929468 0.217641
Si Si3 0.221660 0.568495 0.778181
Si Si4 0.605646 0.640986 0.783116
Si Si5 0.893748 0.313654 0.778014
Si Si6 0.390457 0.886875 0.500000
Si Si7 0.610441 0.256578 0.500000
O O1 0.173688 0.120900 0.721769
O O2 0.135726 0.244620 0.718946
O O3 0.000000 0.166075 0.721311
O O4 0.105124 0.175451 0.000000
O O5 0.657595 0.917214 0.324748
O O6 0.781891 0.000000 0.253357
O O7 0.737844 0.922698 0.000000
O O8 0.195690 0.500000 0.713522
O O9 0.326231 0.585589 0.734878
O O10 0.162275 0.626859 0.713712
O O11 0.214250 0.567478 0.000000
O O12 0.500000 0.627924 0.738700
O O13 0.636180 0.702480 0.675592
O O14 0.612303 0.651843 0.000000
O O15 0.000000 0.320300 0.729786
O O16 0.888123 0.313718 0.000000
O O17 0.500000 0.892386 0.500000
O O18 0.361750 0.814358 0.500000
O O19 0.500000 0.254389 0.500000
#
# Coordination Sequence:
#
# PCOD9388070 Si02
#       7
#     8   8   8   8   8   4   4
#     4   8  15  30  54  84 116 150 189 235 289 346
#     4  10  22  39  61  90 120 154 195 235 284 346
#     4   9  17  27  43  72 107 145 186 225 273 329
#     4   9  18  33  53  77 108 142 178 228 283 334
#     4   8  14  25  43  70 105 144 184 226 272 324
#     4  11  25  42  60  85 120 157 196 244 288 335
#     4   9  20  37  55  80 107 137 184 230 277 334
#
# _framework density 20.791602000000001
#
# number of rings (size 3 to 8) (size 9 to 14) (size 15 to 20)
#    0.000    3.000    0.000    1.250    2.333    2.667 
#    0.000    8.333    0.000    2.500    0.000    0.583 
#    0.000    1.333    0.000    0.167    0.000    0.000 
#
# Total GULP energy -267878.444361 kJ/mol
# GULP energy per Si atom -5580.800924 kJ/mol
# Density = 2.074428 g / cm^3
# Si number density = 20.791602 Si / 1000 Ang^3
#
#
#
# Elastic Constant Matrix: (Units=GPa)
#
#
# Indices 1 2 3 4 5 6 
#
# 1 113.5083 97.9430 21.7753 0.0000 0.0000 0.0000
# 2 97.9430 199.6709 33.0795 0.0000 0.0000 0.0000
# 3 21.7753 33.0795 75.6828 0.0000 0.0000 0.0000
# 4 0.0000 0.0000 0.0000 1.1713 0.0000 0.0000
# 5 0.0000 0.0000 0.0000 0.0000 101.2570 0.0000
# 6 0.0000 0.0000 0.0000 0.0000 0.0000 22.8105
#
#
#
# Elastic Compliance Matrix: (Units=1/GPa)
#
#
# Indices 1 2 3 4 5 6 
#
# 1 0.015378 -0.007342 -0.001216 0.000000 0.000000 0.000000
# 2 -0.007342 0.008904 -0.001780 0.000000 0.000000 0.000000
# 3 -0.001216 -0.001780 0.014341 0.000000 0.000000 0.000000
# 4 0.000000 0.000000 0.000000 0.853751 0.000000 0.000000
# 5 0.000000 0.000000 0.000000 0.000000 0.009876 0.000000
# 6 0.000000 0.000000 0.000000 0.000000 0.000000 0.043840
#
#
# Mechanical properties :
#
#
# Convention : Reuss Voigt Hill
#
# Bulk Modulus (GPa) = 55.71298 77.16195 66.43747
# Shear Modulus (GPa) = 5.14008 40.78536 22.96272
#
# Velocity S-wave (km/s) = 1.57403 4.43383 3.32689
# Velocity P-wave (km/s) = 5.49158 7.96269 6.83966
#
# Compressibility (1/GPa) = 0.01794914
#
# Stress axis : x y z
#
# Youngs Moduli (GPa) = 65.02644 112.30277 69.73218
#
# Poissons Ratio (x) = 0.82453 0.08476
# Poissons Ratio (y) = 0.47743 0.12409
# Poissons Ratio (z) = 0.07904 0.19985
#
# Static dielectric constant tensor:
#      x y z
#    x 1.721530 0.000000 0.000000 
#    y 0.000000 1.731170 0.000000 
#    z 0.000000 0.000000 1.782280 
# 
# From -- ./inp_files/7047.got.cif
#   From: 2010.05.17/outbox.cif.g08.bks.cpg/sg47_4_cif.got.tgz:7047.got - 2010.06.03 20:15:42.
