data_PCOD9388561
_publ_section_title
;
Structure prediction by ZEFSAII (Michael W. Deem and Ramdas Pophale) SiO2 
 PCOD9388561
Probable space group: P M M M
;
_chemical_formula_sum "Si O2"
_cell_formula_units_Z 32
_cell_length_a 7.748918
_cell_length_b 14.712359
_cell_length_c 14.394445
_cell_angle_alpha 90.000000
_cell_angle_beta 90.000000
_cell_angle_gamma 90.000000
_cell_volume 1641.036737
_symmetry_space_group_name_H-M "P M M M"
_symmetry_group_IT_number 47
_symmetry_cell_setting 'orthorhombic'
loop_
_space_group_symop_operation_xyz
x,y,z
-x,-y,z
x,-y,-z
-x,y,-z
-x,-y,-z
x,y,-z
-x,y,z
x,-y,z
loop_
_atom_site_type_symbol
_atom_site_label
_atom_site_fract_x
_atom_site_fract_y
_atom_site_fract_z
Si Si1 0.796268 0.701346 0.604274
Si Si2 0.500000 0.891402 0.891597
Si Si3 0.304648 0.500000 0.387226
Si Si4 0.200021 0.215117 0.789909
Si Si5 0.292317 0.398667 0.110579
O O1 0.721674 0.710626 0.500000
O O2 0.774863 0.596832 0.636919
O O3 0.732960 0.767387 0.684905
O O4 0.000000 0.717475 0.597760
O O5 0.669754 0.849841 0.843805
O O6 0.500000 0.000000 0.884989
O O7 0.500000 0.864528 0.000000
O O8 0.500000 0.500000 0.352924
O O9 0.303063 0.500000 0.500000
O O10 0.207903 0.314050 0.838600
O O11 0.000000 0.184581 0.789464
O O12 0.500000 0.391671 0.122943
O O13 0.239365 0.500000 0.142535
O O14 0.258839 0.393409 0.000000
#
# Coordination Sequence:
#
# PCOD9388561 Si02
#       5
#     8   4   4   8   8
#     4   9  19  35  53  78 119 166 206 248 292 338
#     4  11  26  48  70  92 119 148 186 248 321 379
#     4   9  17  27  45  77 115 162 213 250 282 326
#     4  11  23  38  63  93 119 157 205 247 294 360
#     4   9  18  33  53  79 117 162 200 237 286 346
#
# _framework density 19.499866999999998
#
# number of rings (size 3 to 8) (size 9 to 14) (size 15 to 20)
#    0.000    2.250    1.250    1.875    3.500    4.500 
#    0.000    2.500    0.000    1.500    0.000    3.500 
#    0.000    0.000    0.000    0.000    0.000    0.000 
#
# Total GULP energy -178642.622515 kJ/mol
# GULP energy per Si atom -5582.581954 kJ/mol
# Density = 1.945548 g / cm^3
# Si number density = 19.499867 Si / 1000 Ang^3
#
#
#
# Elastic Constant Matrix: (Units=GPa)
#
#
# Indices 1 2 3 4 5 6 
#
# 1 71.7783 33.2447 44.9310 0.0000 0.0000 0.0000
# 2 33.2447 60.5733 52.8229 0.0000 0.0000 0.0000
# 3 44.9310 52.8229 118.5769 0.0000 0.0000 0.0000
# 4 0.0000 0.0000 0.0000 26.0579 0.0000 0.0000
# 5 0.0000 0.0000 0.0000 0.0000 -38.3645 0.0000
# 6 0.0000 0.0000 0.0000 0.0000 0.0000 -18.0454
#
#
#
# Elastic Compliance Matrix: (Units=1/GPa)
#
#
# Indices 1 2 3 4 5 6 
#
# 1 0.019989 -0.007139 -0.004394 0.000000 0.000000 0.000000
# 2 -0.007139 0.029546 -0.010457 0.000000 0.000000 0.000000
# 3 -0.004394 -0.010457 0.014757 0.000000 0.000000 0.000000
# 4 0.000000 0.000000 0.000000 0.038376 0.000000 0.000000
# 5 0.000000 0.000000 0.000000 0.000000 -0.026066 0.000000
# 6 0.000000 0.000000 0.000000 0.000000 0.000000 -0.055416
#
#
# Mechanical properties :
#
#
# Convention : Reuss Voigt Hill
#
# Bulk Modulus (GPa) = 49.23222 56.99174 53.11198
# Shear Modulus (GPa) = 69.50707 1.92495 35.71601
#
# Velocity S-wave (km/s) = 5.97681 0.99464 4.28437
# Velocity P-wave (km/s) = 8.54002 5.53256 7.19518
#
# Compressibility (1/GPa) = 0.02031190
#
# Stress axis : x y z
#
# Youngs Moduli (GPa) = 50.02856 33.84573 67.76641
#
# Poissons Ratio (x) = 0.24161 0.29776
# Poissons Ratio (y) = 0.35714 0.70863
# Poissons Ratio (z) = 0.21982 0.35392
#
# Static dielectric constant tensor:
#      x y z
#    x 1.696050 0.000000 0.000000 
#    y 0.000000 1.647080 0.000000 
#    z 0.000000 0.000000 1.756370 
# 
# From -- ./inp_files/20483.got.cif
#   From: 2010.05.17/outbox.cif.g08.bks.cpg/sg47_11_cif.got.tgz:20483.got - 2010.06.03 20:15:42.
