data_PCOD9388742
_publ_section_title
;
Structure prediction by ZEFSAII (Michael W. Deem and Ramdas Pophale) SiO2 
 PCOD9388742
Probable space group: P M M M
;
_chemical_formula_sum "Si O2"
_cell_formula_units_Z 56
_cell_length_a 7.645947
_cell_length_b 22.339960
_cell_length_c 19.446442
_cell_angle_alpha 90.000000
_cell_angle_beta 90.000000
_cell_angle_gamma 90.000000
_cell_volume 3321.649678
_symmetry_space_group_name_H-M "P M M M"
_symmetry_group_IT_number 47
_symmetry_cell_setting 'orthorhombic'
loop_
_space_group_symop_operation_xyz
x,y,z
-x,-y,z
x,-y,-z
-x,y,-z
-x,-y,-z
x,y,-z
-x,y,z
x,-y,z
loop_
_atom_site_type_symbol
_atom_site_label
_atom_site_fract_x
_atom_site_fract_y
_atom_site_fract_z
Si Si1 0.289246 0.184850 0.285023
Si Si2 0.292955 0.934850 0.210745
Si Si3 0.707472 0.500000 0.078053
Si Si4 0.714510 0.867937 0.578287
Si Si5 0.699570 0.000000 0.416401
Si Si6 0.790983 0.369699 0.921126
Si Si7 0.211903 0.868540 0.078308
Si Si8 0.208370 0.252060 0.845954
O O1 0.500000 0.183376 0.284468
O O2 0.221856 0.123399 0.249640
O O3 0.233356 0.179998 0.364266
O O4 0.238981 0.238298 0.234265
O O5 0.500000 0.936285 0.225338
O O6 0.268856 0.920378 0.130278
O O7 0.220150 0.000000 0.229049
O O8 0.500000 0.500000 0.073486
O O9 0.758147 0.564053 0.108590
O O10 0.783261 0.500000 0.000000
O O11 0.770682 0.856402 0.500000
O O12 0.500000 0.870822 0.577108
O O13 0.774925 0.934904 0.600610
O O14 0.500000 0.000000 0.389552
O O15 0.692049 0.000000 0.500000
O O16 0.722827 0.314453 0.876020
O O17 0.000000 0.363364 0.925592
O O18 0.722168 0.367213 0.000000
O O19 0.275091 0.805452 0.111032
O O20 0.000000 0.867565 0.078289
O O21 0.270819 0.875277 0.000000
O O22 0.000000 0.252434 0.855936
#
# Coordination Sequence:
#
# PCOD9388742 Si02
#       8
#     8   8   4   8   4   8   8   8
#     4   9  17  27  40  57  77 100 127 160 198 241
#     4   9  18  29  38  51  72  96 120 151 198 249
#     4   9  17  27  39  61  91 115 134 161 198 233
#     4   8  13  21  35  56  78  98 123 158 198 238
#     4   7  10  16  28  50  75  93 114 149 192 234
#     4   9  16  27  44  62  80 107 142 173 197 225
#     4   9  17  29  43  56  69  88 122 166 202 233
#     4   9  17  29  43  58  77 102 132 164 198 232
#
# _framework density 16.859092
#
# number of rings (size 3 to 8) (size 9 to 14) (size 15 to 20)
#    0.000    3.286    0.000    1.500    1.000    4.000 
#    0.000    1.429    0.000    3.000    0.000    0.000 
#    0.000    1.714    0.000    0.643    0.000   13.000 
#
# Total GULP energy -311891.763499 kJ/mol
# GULP energy per Si atom -5569.495777 kJ/mol
# Density = 1.682072 g / cm^3
# Si number density = 16.859092 Si / 1000 Ang^3
#
#
#
# Elastic Constant Matrix: (Units=GPa)
#
#
# Indices 1 2 3 4 5 6 
#
# 1 31.6350 3.7904 -1.7809 0.0000 0.0000 0.0000
# 2 3.7904 99.5256 35.3624 0.0000 0.0000 0.0000
# 3 -1.7809 35.3624 81.6896 0.0000 0.0000 0.0000
# 4 0.0000 0.0000 0.0000 16.1913 0.0000 0.0000
# 5 0.0000 0.0000 0.0000 0.0000 56.6134 0.0000
# 6 0.0000 0.0000 0.0000 0.0000 0.0000 10.7154
#
#
#
# Elastic Compliance Matrix: (Units=1/GPa)
#
#
# Indices 1 2 3 4 5 6 
#
# 1 0.031899 -0.001728 0.001443 0.000000 0.000000 0.000000
# 2 -0.001728 0.011968 -0.005218 0.000000 0.000000 0.000000
# 3 0.001443 -0.005218 0.014532 0.000000 0.000000 0.000000
# 4 0.000000 0.000000 0.000000 0.061762 0.000000 0.000000
# 5 0.000000 0.000000 0.000000 0.000000 0.017664 0.000000
# 6 0.000000 0.000000 0.000000 0.000000 0.000000 0.093324
#
#
# Mechanical properties :
#
#
# Convention : Reuss Voigt Hill
#
# Bulk Modulus (GPa) = 21.10020 31.95491 26.52756
# Shear Modulus (GPa) = 19.38357 28.40257 23.89307
#
# Velocity S-wave (km/s) = 3.39446 4.10897 3.76868
# Velocity P-wave (km/s) = 5.28261 6.44257 5.89121
#
# Compressibility (1/GPa) = 0.04739292
#
# Stress axis : x y z
#
# Youngs Moduli (GPa) = 31.34911 83.55919 68.81438
#
# Poissons Ratio (x) = 0.14436 -0.09932
# Poissons Ratio (y) = 0.05416 0.35909
# Poissons Ratio (z) = -0.04525 0.43603
#
# Static dielectric constant tensor:
#      x y z
#    x 1.638440 0.000000 0.000000 
#    y 0.000000 1.580340 0.000000 
#    z 0.000000 0.000000 1.595550 
# 
# From -- ./inp_files/30108.got.cif
#   From: 2010.05.17/outbox.cif.g08.bks.cpg/sg47_16_cif.got.tgz:30108.got - 2010.06.03 20:15:42.
