data_PCOD9388506
_publ_section_title
;
Structure prediction by ZEFSAII (Michael W. Deem and Ramdas Pophale) SiO2 
 PCOD9388506
Probable space group: P M M M
;
_chemical_formula_sum "Si O2"
_cell_formula_units_Z 38
_cell_length_a 9.828945
_cell_length_b 23.099063
_cell_length_c 7.847286
_cell_angle_alpha 90.000000
_cell_angle_beta 90.000000
_cell_angle_gamma 90.000000
_cell_volume 1781.643260
_symmetry_space_group_name_H-M "P M M M"
_symmetry_group_IT_number 47
_symmetry_cell_setting 'orthorhombic'
loop_
_space_group_symop_operation_xyz
x,y,z
-x,-y,z
x,-y,-z
-x,y,-z
-x,-y,-z
x,y,-z
-x,y,z
x,-y,z
loop_
_atom_site_type_symbol
_atom_site_label
_atom_site_fract_x
_atom_site_fract_y
_atom_site_fract_z
Si Si1 0.500000 0.569382 0.696000
Si Si2 0.798670 0.599022 0.810984
Si Si3 0.654287 0.171456 0.201635
Si Si4 0.000000 0.428296 0.500000
Si Si5 0.849078 0.273734 0.302234
Si Si6 0.154889 0.933955 0.293936
O O1 0.500000 0.500000 0.696929
O O2 0.500000 0.590077 0.500000
O O3 0.638592 0.589717 0.782884
O O4 0.882434 0.572797 0.652543
O O5 0.825977 0.668006 0.801618
O O6 0.836503 0.577728 0.000000
O O7 0.500000 0.167761 0.267368
O O8 0.737652 0.224734 0.278859
O O9 0.737295 0.112715 0.233320
O O10 0.649229 0.181381 0.000000
O O11 0.850538 0.292434 0.500000
O O12 0.000000 0.249920 0.262708
O O13 0.155110 0.932987 0.500000
O O14 0.000000 0.919958 0.238865
O O15 0.185105 0.000000 0.240267
#
# Coordination Sequence:
#
# PCOD9388506 Si02
#       6
#     4   8   8   2   8   8
#     4  11  25  49  75 102 143 189 235 285 342 410
#     4  12  24  43  73 103 138 183 230 283 345 410
#     4  11  25  39  53  84 124 163 207 254 313 382
#     4  12  22  46  67 108 144 176 233 284 346 398
#     4  11  22  41  65  93 128 164 210 267 327 391
#     4   9  19  38  62  85 110 147 199 257 318 383
#
# _framework density 21.328626
#
# number of rings (size 3 to 8) (size 9 to 14) (size 15 to 20)
#    0.000    1.158    3.158    3.158    1.474    7.579 
#    0.000    4.211    0.000    1.263    0.000    0.000 
#    0.000    0.000    0.000    0.000    0.000    0.000 
#
# Total GULP energy -211987.479335 kJ/mol
# GULP energy per Si atom -5578.617877 kJ/mol
# Density = 2.128008 g / cm^3
# Si number density = 21.328626 Si / 1000 Ang^3
#
#
#
# Elastic Constant Matrix: (Units=GPa)
#
#
# Indices 1 2 3 4 5 6 
#
# 1 177.2287 44.9255 48.7977 0.0000 0.0000 0.0000
# 2 44.9255 70.1104 14.7306 0.0000 0.0000 0.0000
# 3 48.7977 14.7306 141.1404 0.0000 0.0000 0.0000
# 4 0.0000 0.0000 0.0000 118.9036 0.0000 0.0000
# 5 0.0000 0.0000 0.0000 0.0000 33.1747 0.0000
# 6 0.0000 0.0000 0.0000 0.0000 0.0000 38.9627
#
#
#
# Elastic Compliance Matrix: (Units=1/GPa)
#
#
# Indices 1 2 3 4 5 6 
#
# 1 0.007288 -0.004233 -0.002078 0.000000 0.000000 0.000000
# 2 -0.004233 0.017042 -0.000315 0.000000 0.000000 0.000000
# 3 -0.002078 -0.000315 0.007836 0.000000 0.000000 0.000000
# 4 0.000000 0.000000 0.000000 0.008410 0.000000 0.000000
# 5 0.000000 0.000000 0.000000 0.000000 0.030143 0.000000
# 6 0.000000 0.000000 0.000000 0.000000 0.000000 0.025666
#
#
# Mechanical properties :
#
#
# Convention : Reuss Voigt Hill
#
# Bulk Modulus (GPa) = 52.87131 67.26522 60.06826
# Shear Modulus (GPa) = 43.12506 56.87659 50.00082
#
# Velocity S-wave (km/s) = 4.50147 5.16959 4.84706
# Velocity P-wave (km/s) = 7.20141 8.19993 7.71684
#
# Compressibility (1/GPa) = 0.01891385
#
# Stress axis : x y z
#
# Youngs Moduli (GPa) = 137.21963 58.67867 127.60962
#
# Poissons Ratio (x) = 0.24840 0.26515
# Poissons Ratio (y) = 0.58088 0.04021
# Poissons Ratio (z) = 0.28511 0.01849
#
# Static dielectric constant tensor:
#      x y z
#    x 1.743800 0.000000 0.000000 
#    y 0.000000 1.761340 0.000000 
#    z 0.000000 0.000000 1.793090 
# 
# From -- ./inp_files/1519.got.cif
#   From: 2010.05.17/outbox.cif.g08.bks.cpg/sg47_1_cif.got.tgz:1519.got - 2010.06.03 20:15:42.
