data_PCOD9388414
_publ_section_title
;
Structure prediction by ZEFSAII (Michael W. Deem and Ramdas Pophale) SiO2 
 PCOD9388414
Probable space group: P M M M
;
_chemical_formula_sum "Si O2"
_cell_formula_units_Z 44
_cell_length_a 19.184229
_cell_length_b 14.404480
_cell_length_c 8.285544
_cell_angle_alpha 90.000000
_cell_angle_beta 90.000000
_cell_angle_gamma 90.000000
_cell_volume 2289.617642
_symmetry_space_group_name_H-M "P M M M"
_symmetry_group_IT_number 47
_symmetry_cell_setting 'orthorhombic'
loop_
_space_group_symop_operation_xyz
x,y,z
-x,-y,z
x,-y,-z
-x,y,-z
-x,-y,-z
x,y,-z
-x,y,z
x,-y,z
loop_
_atom_site_type_symbol
_atom_site_label
_atom_site_fract_x
_atom_site_fract_y
_atom_site_fract_z
Si Si1 0.000000 0.391516 0.192309
Si Si2 0.422457 0.392765 0.805354
Si Si3 0.225570 0.105726 0.194995
Si Si4 0.925622 0.886745 0.810902
Si Si5 0.712842 0.285112 0.307870
Si Si6 0.149073 0.608126 0.694576
O O1 0.074235 0.352059 0.249702
O O2 0.000000 0.500000 0.249378
O O3 0.000000 0.390180 0.000000
O O4 0.500000 0.361865 0.752582
O O5 0.413639 0.500000 0.753839
O O6 0.358013 0.333457 0.745333
O O7 0.421942 0.391584 0.000000
O O8 0.149369 0.138511 0.259602
O O9 0.281584 0.179898 0.248474
O O10 0.238292 0.000000 0.247715
O O11 0.221111 0.104719 0.000000
O O12 0.000000 0.857460 0.738211
O O13 0.924886 0.000000 0.810425
O O14 0.926482 0.858771 0.000000
O O15 0.716417 0.287143 0.500000
O O16 0.782046 0.339054 0.245403
O O17 0.149261 0.609025 0.500000
O O18 0.153004 0.500000 0.747706
#
# Coordination Sequence:
#
# PCOD9388414 Si02
#       6
#     4   8   8   8   8   8
#     4   9  17  29  47  71  96 127 174 227 269 302
#     4   9  19  37  61  88 116 143 170 207 259 316
#     4   9  18  33  52  73 101 140 184 229 276 321
#     4   7  10  20  41  66  89 117 160 216 272 317
#     4  11  22  34  52  80 111 144 179 216 262 319
#     4   9  18  33  50  68  98 141 179 210 254 315
#
# _framework density 19.217182000000001
#
# number of rings (size 3 to 8) (size 9 to 14) (size 15 to 20)
#    0.000    3.000    0.000    3.545    0.000    4.364 
#    1.636    2.727    0.000    0.545    0.000    6.364 
#    0.000    0.000    0.000    0.000    0.000    0.000 
#
# Total GULP energy -245367.390794 kJ/mol
# GULP energy per Si atom -5576.531609 kJ/mol
# Density = 1.917344 g / cm^3
# Si number density = 19.217182 Si / 1000 Ang^3
#
#
#
# Elastic Constant Matrix: (Units=GPa)
#
#
# Indices 1 2 3 4 5 6 
#
# 1 169.7754 86.3897 22.9581 0.0000 0.0000 0.0000
# 2 86.3897 88.3794 14.5302 0.0000 0.0000 0.0000
# 3 22.9581 14.5302 11.6304 0.0000 0.0000 0.0000
# 4 0.0000 0.0000 0.0000 5.8382 0.0000 0.0000
# 5 0.0000 0.0000 0.0000 0.0000 22.0464 0.0000
# 6 0.0000 0.0000 0.0000 0.0000 0.0000 28.2739
#
#
#
# Elastic Compliance Matrix: (Units=1/GPa)
#
#
# Indices 1 2 3 4 5 6 
#
# 1 0.012981 -0.010667 -0.012297 0.000000 0.000000 0.000000
# 2 -0.010667 0.023005 -0.007685 0.000000 0.000000 0.000000
# 3 -0.012297 -0.007685 0.119857 0.000000 0.000000 0.000000
# 4 0.000000 0.000000 0.000000 0.171285 0.000000 0.000000
# 5 0.000000 0.000000 0.000000 0.000000 0.045359 0.000000
# 6 0.000000 0.000000 0.000000 0.000000 0.000000 0.035368
#
#
# Mechanical properties :
#
#
# Convention : Reuss Voigt Hill
#
# Bulk Modulus (GPa) = 10.57698 57.50457 34.04077
# Shear Modulus (GPa) = 9.98664 20.95885 15.47275
#
# Velocity S-wave (km/s) = 2.28211 3.30605 2.84060
# Velocity P-wave (km/s) = 3.52985 6.67546 5.33955
#
# Compressibility (1/GPa) = 0.09454498
#
# Stress axis : x y z
#
# Youngs Moduli (GPa) = 77.03651 43.46884 8.34325
#
# Poissons Ratio (x) = 0.46367 0.10260
# Poissons Ratio (y) = 0.82174 0.06412
# Poissons Ratio (z) = 0.94735 0.33405
#
# Static dielectric constant tensor:
#      x y z
#    x 1.686360 0.000000 0.000000 
#    y 0.000000 1.703700 0.000000 
#    z 0.000000 0.000000 1.663900 
# 
# From -- ./inp_files/9019.got.cif
#   From: 2010.05.17/outbox.cif.g08.bks.cpg/sg47_5_cif.got.tgz:9019.got - 2010.06.03 20:15:42.
