data_PCOD9388250
_publ_section_title
;
Structure prediction by ZEFSAII (Michael W. Deem and Ramdas Pophale) SiO2 
 PCOD9388250
Probable space group: P M M M
;
_chemical_formula_sum "Si O2"
_cell_formula_units_Z 40
_cell_length_a 18.836665
_cell_length_b 17.474115
_cell_length_c 8.932521
_cell_angle_alpha 90.000000
_cell_angle_beta 90.000000
_cell_angle_gamma 90.000000
_cell_volume 2940.175468
_symmetry_space_group_name_H-M "P M M M"
_symmetry_group_IT_number 47
_symmetry_cell_setting 'orthorhombic'
loop_
_space_group_symop_operation_xyz
x,y,z
-x,-y,z
x,-y,-z
-x,y,-z
-x,-y,-z
x,y,-z
-x,y,z
x,-y,z
loop_
_atom_site_type_symbol
_atom_site_label
_atom_site_fract_x
_atom_site_fract_y
_atom_site_fract_z
Si Si1 0.584510 0.000000 0.819930
Si Si2 0.414926 0.167970 0.180234
Si Si3 0.776027 0.588916 0.679957
Si Si4 0.922370 0.407510 0.823230
Si Si5 0.500000 0.408620 0.176861
Si Si6 0.366219 0.323141 0.679937
O O1 0.610176 0.083306 0.768081
O O2 0.500000 0.000000 0.791809
O O3 0.592965 0.000000 0.000000
O O4 0.500000 0.174503 0.209020
O O5 0.375807 0.237353 0.259983
O O6 0.406424 0.173277 0.000000
O O7 0.779226 0.588948 0.500000
O O8 0.766294 0.500000 0.728214
O O9 0.851077 0.618622 0.742155
O O10 0.708414 0.638874 0.725971
O O11 0.923057 0.500000 0.806968
O O12 0.000000 0.380056 0.768746
O O13 0.917586 0.391206 0.000000
O O14 0.500000 0.500000 0.195036
O O15 0.569364 0.372241 0.251962
O O16 0.500000 0.390279 0.000000
O O17 0.370867 0.324446 0.500000
#
# Coordination Sequence:
#
# PCOD9388250 Si02
#       6
#     4   8   8   8   4   8
#     4   7  12  24  43  63  79  99 125 160 203 244
#     4   9  16  28  45  62  80 102 133 167 202 247
#     4   9  18  30  41  55  77 107 140 168 198 239
#     4   8  14  25  41  60  79  98 124 162 205 242
#     4  11  23  35  45  56  71 100 145 185 212 241
#     4  11  21  31  43  59  82 108 135 171 212 244
#
# _framework density 13.604630999999999
#
# number of rings (size 3 to 8) (size 9 to 14) (size 15 to 20)
#    0.000    2.800    1.000    3.300    0.000    3.600 
#    0.000    4.500    0.000    1.800    0.000    0.000 
#    0.000    0.000    0.000    0.900    0.000   17.600 
#
# Total GULP energy -222685.656897 kJ/mol
# GULP energy per Si atom -5567.141422 kJ/mol
# Density = 1.357367 g / cm^3
# Si number density = 13.604631 Si / 1000 Ang^3
#
#
#
# Elastic Constant Matrix: (Units=GPa)
#
#
# Indices 1 2 3 4 5 6 
#
# 1 123.2529 56.6278 33.8274 0.0000 0.0000 0.0000
# 2 56.6278 88.6859 31.2129 0.0000 0.0000 0.0000
# 3 33.8274 31.2129 30.9438 0.0000 0.0000 0.0000
# 4 0.0000 0.0000 0.0000 12.5888 0.0000 0.0000
# 5 0.0000 0.0000 0.0000 0.0000 31.8156 0.0000
# 6 0.0000 0.0000 0.0000 0.0000 0.0000 2.3583
#
#
#
# Elastic Compliance Matrix: (Units=1/GPa)
#
#
# Indices 1 2 3 4 5 6 
#
# 1 0.012917 -0.005082 -0.008994 0.000000 0.000000 0.000000
# 2 -0.005082 0.019482 -0.014095 0.000000 0.000000 0.000000
# 3 -0.008994 -0.014095 0.056367 0.000000 0.000000 0.000000
# 4 0.000000 0.000000 0.000000 0.079436 0.000000 0.000000
# 5 0.000000 0.000000 0.000000 0.000000 0.031431 0.000000
# 6 0.000000 0.000000 0.000000 0.000000 0.000000 0.424025
#
#
# Mechanical properties :
#
#
# Convention : Reuss Voigt Hill
#
# Bulk Modulus (GPa) = 30.84324 54.02431 42.43377
# Shear Modulus (GPa) = 7.23790 17.43352 12.33571
#
# Velocity S-wave (km/s) = 2.30905 3.58360 3.01446
# Velocity P-wave (km/s) = 5.46162 7.54449 6.58592
#
# Compressibility (1/GPa) = 0.03242202
#
# Stress axis : x y z
#
# Youngs Moduli (GPa) = 77.41805 51.33035 17.74099
#
# Poissons Ratio (x) = 0.26087 0.15956
# Poissons Ratio (y) = 0.39346 0.25006
# Poissons Ratio (z) = 0.69631 0.72351
#
# Static dielectric constant tensor:
#      x y z
#    x 1.442630 0.000000 0.000000 
#    y 0.000000 1.452800 0.000000 
#    z 0.000000 0.000000 1.455620 
# 
# From -- ./inp_files/9330.got.cif
#   From: 2010.05.17/outbox.cif.g08.bks.cpg/sg47_5_cif.got.tgz:9330.got - 2010.06.03 20:15:42.
