data_PCOD9388219
_publ_section_title
;
Structure prediction by ZEFSAII (Michael W. Deem and Ramdas Pophale) SiO2 
 PCOD9388219
Probable space group: P M M M
;
_chemical_formula_sum "Si O2"
_cell_formula_units_Z 56
_cell_length_a 7.738963
_cell_length_b 14.283227
_cell_length_c 30.457034
_cell_angle_alpha 90.000000
_cell_angle_beta 90.000000
_cell_angle_gamma 90.000000
_cell_volume 3366.640292
_symmetry_space_group_name_H-M "P M M M"
_symmetry_group_IT_number 47
_symmetry_cell_setting 'orthorhombic'
loop_
_space_group_symop_operation_xyz
x,y,z
-x,-y,z
x,-y,-z
-x,y,-z
-x,-y,-z
x,y,-z
-x,y,z
x,-y,z
loop_
_atom_site_type_symbol
_atom_site_label
_atom_site_fract_x
_atom_site_fract_y
_atom_site_fract_z
Si Si1 0.789184 0.108431 0.450879
Si Si2 0.788054 0.209937 0.363623
Si Si3 0.793923 0.386899 0.952776
Si Si4 0.299772 0.705063 0.232489
Si Si5 0.208472 0.104888 0.275584
Si Si6 0.798428 0.603905 0.680597
Si Si7 0.208693 0.607861 0.857268
O O1 0.733817 0.136451 0.500000
O O2 0.730331 0.172260 0.410652
O O3 0.000000 0.110025 0.450655
O O4 0.739133 0.000000 0.443806
O O5 0.736964 0.140593 0.323950
O O6 0.725547 0.313148 0.349776
O O7 0.000000 0.211066 0.363700
O O8 0.776584 0.500000 0.952249
O O9 0.727003 0.356727 0.905013
O O10 0.000000 0.367449 0.953488
O O11 0.722413 0.353904 0.000000
O O12 0.500000 0.689226 0.240581
O O13 0.260185 0.813681 0.241917
O O14 0.206901 0.643133 0.269691
O O15 0.256631 0.670900 0.183901
O O16 0.000000 0.102500 0.275866
O O17 0.271590 0.000000 0.266458
O O18 0.721548 0.500000 0.677683
O O19 0.000000 0.596571 0.668727
O O20 0.267582 0.500000 0.850485
O O21 0.000000 0.604793 0.859653
#
# Coordination Sequence:
#
# PCOD9388219 Si02
#       7
#     8   8   8   8   8   8   8
#     4   8  12  17  28  50  79 105 125 150 191 243
#     4   8  13  22  37  56  76 100 131 162 192 231
#     4   7  10  18  34  56  78 100 131 170 205 232
#     4  11  21  29  39  58  84 109 133 165 204 243
#     4   9  17  30  47  62  77 102 135 167 198 236
#     4   9  17  29  43  56  73 102 140 176 205 235
#     4   9  16  26  41  59  81 111 143 172 200 233
#
# _framework density 16.633794000000002
#
# number of rings (size 3 to 8) (size 9 to 14) (size 15 to 20)
#    0.000    3.286    0.000    4.714    0.000    4.286 
#    0.000    0.000    0.000    0.857    0.000    5.000 
#    0.000    9.714    0.000   43.143    0.000   36.429 
#
# Total GULP energy -311745.793254 kJ/mol
# GULP energy per Si atom -5566.889165 kJ/mol
# Density = 1.659593 g / cm^3
# Si number density = 16.633794 Si / 1000 Ang^3
#
#
#
# Elastic Constant Matrix: (Units=GPa)
#
#
# Indices 1 2 3 4 5 6 
#
# 1 26.2080 2.9864 0.1202 0.0000 0.0000 0.0000
# 2 2.9864 107.5933 79.8444 0.0000 0.0000 0.0000
# 3 0.1202 79.8444 164.5849 0.0000 0.0000 0.0000
# 4 0.0000 0.0000 0.0000 20.3026 0.0000 0.0000
# 5 0.0000 0.0000 0.0000 0.0000 -20.3669 0.0000
# 6 0.0000 0.0000 0.0000 0.0000 0.0000 -24.3407
#
#
#
# Elastic Compliance Matrix: (Units=1/GPa)
#
#
# Indices 1 2 3 4 5 6 
#
# 1 0.038339 -0.001630 0.000763 0.000000 0.000000 0.000000
# 2 -0.001630 0.014592 -0.007078 0.000000 0.000000 0.000000
# 3 0.000763 -0.007078 0.009509 0.000000 0.000000 0.000000
# 4 0.000000 0.000000 0.000000 0.049255 0.000000 0.000000
# 5 0.000000 0.000000 0.000000 0.000000 -0.049099 0.000000
# 6 0.000000 0.000000 0.000000 0.000000 0.000000 -0.041084
#
#
# Mechanical properties :
#
#
# Convention : Reuss Voigt Hill
#
# Bulk Modulus (GPa) = 21.48267 51.58758 36.53513
# Shear Modulus (GPa) = 94.48599 9.48134 51.98366
#
# Velocity S-wave (km/s) = 7.54499 2.39007 5.59640
# Velocity P-wave (km/s) = 9.42580 6.22074 7.98572
#
# Compressibility (1/GPa) = 0.04654914
#
# Stress axis : x y z
#
# Youngs Moduli (GPa) = 26.08339 68.53155 105.16459
#
# Poissons Ratio (x) = 0.11173 -0.08023
# Poissons Ratio (y) = 0.04252 0.74432
# Poissons Ratio (z) = -0.01990 0.48504
#
# Static dielectric constant tensor:
#      x y z
#    x 1.602130 0.000000 0.000000 
#    y 0.000000 1.556330 0.000000 
#    z 0.000000 0.000000 1.585710 
# 
# From -- ./inp_files/14194.got.cif
#   From: 2010.05.17/outbox.cif.g08.bks.cpg/sg47_8_cif.got.tgz:14194.got - 2010.06.03 20:15:42.
