data_PCOD9388525
_publ_section_title
;
Structure prediction by ZEFSAII (Michael W. Deem and Ramdas Pophale) SiO2 
 PCOD9388525
Probable space group: P M M M
;
_chemical_formula_sum "Si O2"
_cell_formula_units_Z 44
_cell_length_a 7.955141
_cell_length_b 8.677017
_cell_length_c 33.337136
_cell_angle_alpha 90.000000
_cell_angle_beta 90.000000
_cell_angle_gamma 90.000000
_cell_volume 2301.158943
_symmetry_space_group_name_H-M "P M M M"
_symmetry_group_IT_number 47
_symmetry_cell_setting 'orthorhombic'
loop_
_space_group_symop_operation_xyz
x,y,z
-x,-y,z
x,-y,-z
-x,y,-z
-x,-y,-z
x,y,-z
-x,y,z
x,-y,z
loop_
_atom_site_type_symbol
_atom_site_label
_atom_site_fract_x
_atom_site_fract_y
_atom_site_fract_z
Si Si1 0.300228 0.686478 0.956268
Si Si2 0.803298 0.812529 0.328820
Si Si3 0.798174 0.826961 0.582837
Si Si4 0.700297 0.329728 0.500000
Si Si5 0.185099 0.688352 0.130355
Si Si6 0.500000 0.311944 0.816635
Si Si7 0.500000 0.685605 0.276232
O O1 0.500000 0.716844 0.953291
O O2 0.281568 0.500000 0.956785
O O3 0.214494 0.741021 0.915509
O O4 0.240591 0.743004 0.000000
O O5 0.751345 0.758295 0.373853
O O6 0.667591 0.748391 0.297906
O O7 0.000000 0.769817 0.321289
O O8 0.797784 0.000000 0.329137
O O9 0.751840 0.747918 0.541512
O O10 0.000000 0.835311 0.584402
O O11 0.728677 0.000000 0.581255
O O12 0.773804 0.500000 0.500000
O O13 0.500000 0.335556 0.500000
O O14 0.190650 0.500000 0.129627
O O15 0.335058 0.739453 0.159124
O O16 0.000000 0.734306 0.144242
O O17 0.500000 0.500000 0.817385
O O18 0.500000 0.265792 0.770377
O O19 0.500000 0.500000 0.278127
#
# Coordination Sequence:
#
# PCOD9388525 Si02
#       7
#     8   8   8   4   8   4   4
#     4   8  12  18  29  45  67  97 139 197 253 291
#     4   9  20  40  63  85 109 140 182 229 274 324
#     4   9  19  37  59  79 100 133 178 220 256 302
#     4  11  24  35  46  76 118 149 174 207 250 304
#     4   9  15  23  36  50  71 110 155 198 244 297
#     4   9  18  31  40  57  89 122 158 200 250 310
#     4  11  23  35  55  83 112 142 174 222 279 334
#
# _framework density 19.120801
#
# number of rings (size 3 to 8) (size 9 to 14) (size 15 to 20)
#    0.000    2.818    0.909    2.455    1.273    4.364 
#    0.000    5.455    0.000    0.000    0.000    0.000 
#    0.000    0.000    0.000    0.000    0.000    7.273 
#
# Total GULP energy -245164.751098 kJ/mol
# GULP energy per Si atom -5571.926161 kJ/mol
# Density = 1.907728 g / cm^3
# Si number density = 19.120801 Si / 1000 Ang^3
#
#
#
# Elastic Constant Matrix: (Units=GPa)
#
#
# Indices 1 2 3 4 5 6 
#
# 1 116.7179 17.9361 99.1099 0.0000 0.0000 0.0000
# 2 17.9361 12.5774 27.7749 0.0000 0.0000 0.0000
# 3 99.1099 27.7749 194.4031 0.0000 0.0000 0.0000
# 4 0.0000 0.0000 0.0000 39.8014 0.0000 0.0000
# 5 0.0000 0.0000 0.0000 0.0000 2.2039 0.0000
# 6 0.0000 0.0000 0.0000 0.0000 0.0000 16.4923
#
#
#
# Elastic Compliance Matrix: (Units=1/GPa)
#
#
# Indices 1 2 3 4 5 6 
#
# 1 0.015496 -0.006797 -0.006929 0.000000 0.000000 0.000000
# 2 -0.006797 0.119137 -0.013556 0.000000 0.000000 0.000000
# 3 -0.006929 -0.013556 0.010613 0.000000 0.000000 0.000000
# 4 0.000000 0.000000 0.000000 0.025125 0.000000 0.000000
# 5 0.000000 0.000000 0.000000 0.000000 0.453732 0.000000
# 6 0.000000 0.000000 0.000000 0.000000 0.000000 0.060634
#
#
# Mechanical properties :
#
#
# Convention : Reuss Voigt Hill
#
# Bulk Modulus (GPa) = 11.02753 68.14893 39.58823
# Shear Modulus (GPa) = 6.49749 23.62470 15.06110
#
# Velocity S-wave (km/s) = 1.84540 3.51885 2.80961
# Velocity P-wave (km/s) = 3.21255 7.22692 5.59236
#
# Compressibility (1/GPa) = 0.09068214
#
# Stress axis : x y z
#
# Youngs Moduli (GPa) = 64.53395 8.39370 94.22163
#
# Poissons Ratio (x) = 0.05705 0.65285
# Poissons Ratio (y) = 0.43861 1.27731
# Poissons Ratio (z) = 0.44715 0.11379
#
# Static dielectric constant tensor:
#      x y z
#    x 1.664540 0.000000 0.000000 
#    y 0.000000 1.677620 0.000000 
#    z 0.000000 0.000000 1.697150 
# 
# From -- ./inp_files/33979.got.cif
#   From: 2010.05.17/outbox.cif.g08.bks.cpg/sg47_17_cif.got.tgz:33979.got - 2010.06.03 20:15:42.
