data_PCOD9388118
_publ_section_title
;
Structure prediction by ZEFSAII (Michael W. Deem and Ramdas Pophale) SiO2 
 PCOD9388118
Probable space group: P M M M
;
_chemical_formula_sum "Si O2"
_cell_formula_units_Z 33
_cell_length_a 20.399135
_cell_length_b 7.339994
_cell_length_c 10.398023
_cell_angle_alpha 90.000000
_cell_angle_beta 90.000000
_cell_angle_gamma 90.000000
_cell_volume 1556.891081
_symmetry_space_group_name_H-M "P M M M"
_symmetry_group_IT_number 47
_symmetry_cell_setting 'orthorhombic'
loop_
_space_group_symop_operation_xyz
x,y,z
-x,-y,z
x,-y,-z
-x,y,-z
-x,-y,-z
x,y,-z
-x,y,z
x,-y,z
loop_
_atom_site_type_symbol
_atom_site_label
_atom_site_fract_x
_atom_site_fract_y
_atom_site_fract_z
Si Si1 0.859976 0.721012 0.356881
Si Si2 0.500000 0.222712 0.649080
Si Si3 0.000000 0.719448 0.238094
Si Si4 0.758921 0.281308 0.856535
Si Si5 0.000000 0.000000 0.000000
Si Si6 0.605590 0.215545 0.144773
O O1 0.844995 0.785508 0.500000
O O2 0.855448 0.500000 0.358331
O O3 0.808516 0.787305 0.250817
O O4 0.934116 0.762374 0.316747
O O5 0.500000 0.283140 0.500000
O O6 0.438043 0.282191 0.736446
O O7 0.500000 0.000000 0.643720
O O8 0.000000 0.500000 0.211576
O O9 0.000000 0.840310 0.111648
O O10 0.764907 0.500000 0.859675
O O11 0.682769 0.240849 0.831186
O O12 0.775081 0.213465 0.000000
O O13 0.592666 0.000000 0.137685
O O14 0.591046 0.288404 0.000000
#
# Coordination Sequence:
#
# PCOD9388118 Si02
#       6
#     8   4   4   8   1   8
#     4   9  18  35  60  84 109 149 192 229 279 344
#     4   9  17  29  48  71  96 126 168 217 262 318
#     4  10  22  41  63  87 120 157 196 242 296 348
#     4   9  18  32  51  77 108 139 177 224 272 327
#     4  12  26  40  58  98 120 152 196 250 296 346
#     4   9  17  31  49  71  96 131 171 214 264 321
#
# _framework density 21.196086999999999
#
# number of rings (size 3 to 8) (size 9 to 14) (size 15 to 20)
#    0.000    2.788    0.000    0.909    1.697    3.879 
#    2.182    1.818    0.000    3.636    0.000    0.000 
#    0.000    0.000    0.000    0.000    0.000    0.000 
#
# Total GULP energy -183954.900771 kJ/mol
# GULP energy per Si atom -5574.390932 kJ/mol
# Density = 2.114784 g / cm^3
# Si number density = 21.196087 Si / 1000 Ang^3
#
#
#
# Elastic Constant Matrix: (Units=GPa)
#
#
# Indices 1 2 3 4 5 6 
#
# 1 147.6111 3.9537 149.6035 0.0000 0.0000 0.0000
# 2 3.9537 85.6566 20.2919 0.0000 0.0000 0.0000
# 3 149.6035 20.2919 253.3242 0.0000 0.0000 0.0000
# 4 0.0000 0.0000 0.0000 -6.8121 0.0000 0.0000
# 5 0.0000 0.0000 0.0000 0.0000 80.1784 0.0000
# 6 0.0000 0.0000 0.0000 0.0000 0.0000 15.4061
#
#
#
# Elastic Compliance Matrix: (Units=1/GPa)
#
#
# Indices 1 2 3 4 5 6 
#
# 1 0.017096 0.001634 -0.010227 0.000000 0.000000 0.000000
# 2 0.001634 0.012056 -0.001931 0.000000 0.000000 0.000000
# 3 -0.010227 -0.001931 0.010142 0.000000 0.000000 0.000000
# 4 0.000000 0.000000 0.000000 -0.146798 0.000000 0.000000
# 5 0.000000 0.000000 0.000000 0.000000 0.012472 0.000000
# 6 0.000000 0.000000 0.000000 0.000000 0.000000 0.064909
#
#
# Mechanical properties :
#
#
# Convention : Reuss Voigt Hill
#
# Bulk Modulus (GPa) = 54.80538 92.69890 73.75214
# Shear Modulus (GPa) = -1671.07797 38.60400 -816.23698
#
# Velocity S-wave (km/s) = -28.10874 4.27228 -19.64496
# Velocity P-wave (km/s) = 32.05551 8.25623 21.90195
#
# Compressibility (1/GPa) = 0.01824638
#
# Stress axis : x y z
#
# Youngs Moduli (GPa) = 58.49376 82.94309 98.60158
#
# Poissons Ratio (x) = -0.13550 1.00840
# Poissons Ratio (y) = -0.09556 0.19035
# Poissons Ratio (z) = 0.59822 0.16012
#
# Static dielectric constant tensor:
#      x y z
#    x 1.726450 0.000000 0.000000 
#    y 0.000000 1.803520 0.000000 
#    z 0.000000 0.000000 1.743350 
# 
# From -- ./inp_files/10441.got.cif
#   From: 2010.05.17/outbox.cif.g08.bks.cpg/sg47_6_cif.got.tgz:10441.got - 2010.06.03 20:15:42.
