data_PCOD9388877
_publ_section_title
;
Structure prediction by ZEFSAII (Michael W. Deem and Ramdas Pophale) SiO2 
 PCOD9388877
Probable space group: P M M M
;
_chemical_formula_sum "Si O2"
_cell_formula_units_Z 44
_cell_length_a 7.381552
_cell_length_b 14.240194
_cell_length_c 22.365416
_cell_angle_alpha 90.000000
_cell_angle_beta 90.000000
_cell_angle_gamma 90.000000
_cell_volume 2350.934720
_symmetry_space_group_name_H-M "P M M M"
_symmetry_group_IT_number 47
_symmetry_cell_setting 'orthorhombic'
loop_
_space_group_symop_operation_xyz
x,y,z
-x,-y,z
x,-y,-z
-x,y,-z
-x,-y,-z
x,y,-z
-x,y,z
x,-y,z
loop_
_atom_site_type_symbol
_atom_site_label
_atom_site_fract_x
_atom_site_fract_y
_atom_site_fract_z
Si Si1 0.220873 0.707893 0.751022
Si Si2 0.779226 0.206075 0.566536
Si Si3 0.285575 0.606507 0.000000
Si Si4 0.785713 0.607157 0.130844
Si Si5 0.220971 0.105214 0.687065
Si Si6 0.220426 0.394779 0.629863
O O1 0.285283 0.668979 0.814492
O O2 0.278831 0.812418 0.732136
O O3 0.272143 0.638712 0.696575
O O4 0.000000 0.709504 0.751679
O O5 0.718604 0.181414 0.500000
O O6 0.723831 0.137942 0.620448
O O7 0.723933 0.311724 0.585198
O O8 0.000000 0.205038 0.566313
O O9 0.236241 0.648423 0.064212
O O10 0.207505 0.500000 0.000000
O O11 0.500000 0.599917 0.000000
O O12 0.711997 0.500000 0.131290
O O13 0.000000 0.599227 0.140796
O O14 0.000000 0.105060 0.687492
O O15 0.281267 0.000000 0.700708
O O16 0.282741 0.500000 0.616613
O O17 0.000000 0.396133 0.628637
#
# Coordination Sequence:
#
# PCOD9388877 Si02
#       6
#     8   8   4   8   8   8
#     4   8  13  20  30  45  62  80 108 146 182 213
#     4   8  13  18  22  31  48  73 109 146 175 210
#     4   9  17  27  37  53  80 107 124 140 167 205
#     4   9  15  23  37  55  74  97 124 150 174 203
#     4   8  13  20  28  38  55  79 106 141 185 222
#     4   8  12  17  24  34  51  75 103 139 180 213
#
# _framework density 18.715959999999999
#
# number of rings (size 3 to 8) (size 9 to 14) (size 15 to 20)
#    0.000    3.727    0.000    3.000    0.000    4.000 
#    0.000    3.636    0.000    0.000    0.000    0.636 
#    0.000    5.818    0.000    0.000    0.000   14.545 
#
# Total GULP energy -245140.153169 kJ/mol
# GULP energy per Si atom -5571.367117 kJ/mol
# Density = 1.867336 g / cm^3
# Si number density = 18.715960 Si / 1000 Ang^3
#
#
#
# Elastic Constant Matrix: (Units=GPa)
#
#
# Indices 1 2 3 4 5 6 
#
# 1 64.5973 4.2387 2.5153 0.0000 0.0000 0.0000
# 2 4.2387 92.0082 38.3630 0.0000 0.0000 0.0000
# 3 2.5153 38.3630 136.5506 0.0000 0.0000 0.0000
# 4 0.0000 0.0000 0.0000********** 0.0000 0.0000
# 5 0.0000 0.0000 0.0000 0.0000 -52.3874 0.0000
# 6 0.0000 0.0000 0.0000 0.0000 0.0000 -11.1884
#
#
#
# Elastic Compliance Matrix: (Units=1/GPa)
#
#
# Indices 1 2 3 4 5 6 
#
# 1 0.015529 -0.000675 -0.000096 0.000000 0.000000 0.000000
# 2 -0.000675 0.012340 -0.003454 0.000000 0.000000 0.000000
# 3 -0.000096 -0.003454 0.008296 0.000000 0.000000 0.000000
# 4 0.000000 0.000000 0.000000 -0.000034 0.000000 0.000000
# 5 0.000000 0.000000 0.000000 0.000000 -0.019089 0.000000
# 6 0.000000 0.000000 0.000000 0.000000 0.000000 -0.089379
#
#
# Mechanical properties :
#
#
# Convention : Reuss Voigt Hill
#
# Bulk Modulus (GPa) = 36.08513 42.59888 39.34201
# Shear Modulus (GPa) = -91.49467 -5807.29078 -2949.39272
#
# Velocity S-wave (km/s) = -6.99943 -55.76371 -39.74030
# Velocity P-wave (km/s) = 6.78236 64.21301 45.65803
#
# Compressibility (1/GPa) = 0.02771224
#
# Stress axis : x y z
#
# Youngs Moduli (GPa) = 64.39740 81.03709 120.54640
#
# Poissons Ratio (x) = 0.05472 0.01161
# Poissons Ratio (y) = 0.04348 0.41642
# Poissons Ratio (z) = 0.00620 0.27994
#
# Static dielectric constant tensor:
#      x y z
#    x 1.709810 0.000000 0.000000 
#    y 0.000000 1.629560 0.000000 
#    z 0.000000 0.000000 1.651810 
# 
# From -- ./inp_files/24903.got.cif
#   From: 2010.05.17/outbox.cif.g08.bks.cpg/sg47_13_cif.got.tgz:24903.got - 2010.06.03 20:15:42.
