data_PCOD9388679
_publ_section_title
;
Structure prediction by ZEFSAII (Michael W. Deem and Ramdas Pophale) SiO2 
 PCOD9388679
Probable space group: P M M M
;
_chemical_formula_sum "Si O2"
_cell_formula_units_Z 32
_cell_length_a 9.198688
_cell_length_b 7.492410
_cell_length_c 25.387462
_cell_angle_alpha 90.000000
_cell_angle_beta 90.000000
_cell_angle_gamma 90.000000
_cell_volume 1749.712562
_symmetry_space_group_name_H-M "P M M M"
_symmetry_group_IT_number 47
_symmetry_cell_setting 'orthorhombic'
loop_
_space_group_symop_operation_xyz
x,y,z
-x,-y,z
x,-y,-z
-x,y,-z
-x,-y,-z
x,y,-z
-x,y,z
x,-y,z
loop_
_atom_site_type_symbol
_atom_site_label
_atom_site_fract_x
_atom_site_fract_y
_atom_site_fract_z
Si Si1 0.322736 0.500000 0.439918
Si Si2 0.825082 0.211313 0.866776
Si Si3 0.167149 0.217146 0.748862
Si Si4 0.325381 0.207228 0.643260
Si Si5 0.326348 0.500000 0.062067
O O1 0.500000 0.500000 0.441652
O O2 0.270971 0.500000 0.500000
O O3 0.278565 0.671650 0.405668
O O4 0.782344 0.269647 0.807287
O O5 0.743587 0.328987 0.909423
O O6 0.000000 0.235009 0.870598
O O7 0.795625 0.000000 0.872594
O O8 0.259616 0.272708 0.698553
O O9 0.000000 0.273597 0.742393
O O10 0.168371 0.000000 0.749603
O O11 0.500000 0.215917 0.646852
O O12 0.284074 0.000000 0.635783
O O13 0.500000 0.500000 0.068740
O O14 0.293586 0.500000 0.000000
#
# Coordination Sequence:
#
# PCOD9388679 Si02
#       5
#     4   8   8   8   4
#     4   9  18  31  45  64  92 125 164 207 242 277
#     4   9  19  37  60  83 106 136 176 219 261 309
#     4   8  15  30  52  77 103 128 156 196 250 306
#     4   9  17  29  47  71  96 123 157 197 242 293
#     4  11  25  40  53  76 110 145 180 217 260 311
#
# _framework density 18.288719
#
# number of rings (size 3 to 8) (size 9 to 14) (size 15 to 20)
#    0.000    3.000    0.000    1.875    0.000    4.500 
#    0.000   10.625    0.000    1.500    0.000    3.500 
#    0.000    0.000    0.000    0.000    0.000    0.000 
#
# Total GULP energy -178441.372783 kJ/mol
# GULP energy per Si atom -5576.292899 kJ/mol
# Density = 1.824709 g / cm^3
# Si number density = 18.288719 Si / 1000 Ang^3
#
#
#
# Elastic Constant Matrix: (Units=GPa)
#
#
# Indices 1 2 3 4 5 6 
#
# 1 23.7406 37.8883 61.1710 0.0000 0.0000 0.0000
# 2 37.8883 99.7763 90.5998 0.0000 0.0000 0.0000
# 3 61.1710 90.5998 210.4312 0.0000 0.0000 0.0000
# 4 0.0000 0.0000 0.0000 33.2422 0.0000 0.0000
# 5 0.0000 0.0000 0.0000 0.0000 93.5307 0.0000
# 6 0.0000 0.0000 0.0000 0.0000 0.0000 15.4297
#
#
#
# Elastic Compliance Matrix: (Units=1/GPa)
#
#
# Indices 1 2 3 4 5 6 
#
# 1 0.265764 -0.050519 -0.055505 0.000000 0.000000 0.000000
# 2 -0.050519 0.026059 0.003466 0.000000 0.000000 0.000000
# 3 -0.055505 0.003466 0.019395 0.000000 0.000000 0.000000
# 4 0.000000 0.000000 0.000000 0.030082 0.000000 0.000000
# 5 0.000000 0.000000 0.000000 0.000000 0.010692 0.000000
# 6 0.000000 0.000000 0.000000 0.000000 0.000000 0.064810
#
#
# Mechanical properties :
#
#
# Convention : Reuss Voigt Hill
#
# Bulk Modulus (GPa) = 9.42493 79.25182 44.33838
# Shear Modulus (GPa) = 7.60705 38.05978 22.83342
#
# Velocity S-wave (km/s) = 2.04168 4.56680 3.53724
# Velocity P-wave (km/s) = 3.27453 8.44011 6.40148
#
# Compressibility (1/GPa) = 0.10610153
#
# Stress axis : x y z
#
# Youngs Moduli (GPa) = 3.76274 38.37486 51.55982
#
# Poissons Ratio (x) = 1.93865 2.86185
# Poissons Ratio (y) = 0.19009 -0.17871
# Poissons Ratio (z) = 0.20885 -0.13301
#
# Static dielectric constant tensor:
#      x y z
#    x 1.606360 0.000000 0.000000 
#    y 0.000000 1.662140 0.000000 
#    z 0.000000 0.000000 1.613120 
# 
# From -- ./inp_files/31614.got.cif
#   From: 2010.05.17/outbox.cif.g08.bks.cpg/sg47_16_cif.got.tgz:31614.got - 2010.06.03 20:15:42.
