data_PCOD9388988
_publ_section_title
;
Structure prediction by ZEFSAII (Michael W. Deem and Ramdas Pophale) SiO2 
 PCOD9388988
Probable space group: P M M M
;
_chemical_formula_sum "Si O2"
_cell_formula_units_Z 44
_cell_length_a 32.674139
_cell_length_b 8.007696
_cell_length_c 7.424433
_cell_angle_alpha 90.000000
_cell_angle_beta 90.000000
_cell_angle_gamma 90.000000
_cell_volume 1942.562596
_symmetry_space_group_name_H-M "P M M M"
_symmetry_group_IT_number 47
_symmetry_cell_setting 'orthorhombic'
loop_
_space_group_symop_operation_xyz
x,y,z
-x,-y,z
x,-y,-z
-x,y,-z
-x,-y,-z
x,y,-z
-x,y,z
x,-y,z
loop_
_atom_site_type_symbol
_atom_site_label
_atom_site_fract_x
_atom_site_fract_y
_atom_site_fract_z
Si Si1 0.694005 0.308781 0.214864
Si Si2 0.955969 0.700485 0.288525
Si Si3 0.603811 0.304994 0.219674
Si Si4 0.130773 0.802559 0.294735
Si Si5 0.452881 0.000000 0.779768
Si Si6 0.781888 0.689934 0.715521
O O1 0.696365 0.500000 0.285307
O O2 0.649623 0.246190 0.275747
O O3 0.737898 0.225282 0.250477
O O4 0.691272 0.316741 0.000000
O O5 0.955490 0.752999 0.500000
O O6 0.956728 0.500000 0.283789
O O7 0.912360 0.751797 0.208790
O O8 0.000000 0.759597 0.214385
O O9 0.597802 0.500000 0.274527
O O10 0.570853 0.168108 0.278039
O O11 0.602798 0.306987 0.000000
O O12 0.130008 0.730037 0.500000
O O13 0.174828 0.756606 0.214297
O O14 0.130270 0.000000 0.307495
O O15 0.500000 0.000000 0.723262
O O16 0.452270 0.000000 0.000000
O O17 0.785255 0.689847 0.500000
O O18 0.778674 0.500000 0.782450
#
# Coordination Sequence:
#
# PCOD9388988 Si02
#       6
#     8   8   8   8   4   8
#     4   8  14  26  43  60  80 108 139 169 204 245
#     4   8  13  21  33  48  66  92 128 164 195 234
#     4   8  14  25  39  55  79 110 140 172 211 252
#     4   9  16  24  33  48  74 104 129 158 200 244
#     4   9  16  24  36  58  85 111 141 173 208 255
#     4   9  16  26  41  59  79 105 136 169 204 242
#
# _framework density 22.650493000000001
#
# number of rings (size 3 to 8) (size 9 to 14) (size 15 to 20)
#    0.000    3.545    0.000    2.182    0.000    2.909 
#    1.636    3.636    0.000    0.000    0.000    0.000 
#    0.000    2.182    0.000   15.455    0.000   18.000 
#
# Total GULP energy -244950.463326 kJ/mol
# GULP energy per Si atom -5567.055985 kJ/mol
# Density = 2.259894 g / cm^3
# Si number density = 22.650493 Si / 1000 Ang^3
#
#
#
# Elastic Constant Matrix: (Units=GPa)
#
#
# Indices 1 2 3 4 5 6 
#
# 1 306.6823 85.6062 12.9822 0.0000 0.0000 0.0000
# 2 85.6062 65.9017 2.7293 0.0000 0.0000 0.0000
# 3 12.9822 2.7293 70.3060 0.0000 0.0000 0.0000
# 4 0.0000 0.0000 0.0000 -12.7902 0.0000 0.0000
# 5 0.0000 0.0000 0.0000 0.0000 6.1009 0.0000
# 6 0.0000 0.0000 0.0000 0.0000 0.0000 134.9833
#
#
#
# Elastic Compliance Matrix: (Units=1/GPa)
#
#
# Indices 1 2 3 4 5 6 
#
# 1 0.005149 -0.006660 -0.000692 0.000000 0.000000 0.000000
# 2 -0.006660 0.023813 0.000305 0.000000 0.000000 0.000000
# 3 -0.000692 0.000305 0.014340 0.000000 0.000000 0.000000
# 4 0.000000 0.000000 0.000000 -0.078185 0.000000 0.000000
# 5 0.000000 0.000000 0.000000 0.000000 0.163911 0.000000
# 6 0.000000 0.000000 0.000000 0.000000 0.000000 0.007408
#
#
# Mechanical properties :
#
#
# Convention : Reuss Voigt Hill
#
# Bulk Modulus (GPa) = 34.23767 71.72506 52.98137
# Shear Modulus (GPa) = 31.19825 48.43027 39.81426
#
# Velocity S-wave (km/s) = 3.71533 4.62904 4.19712
# Velocity P-wave (km/s) = 5.79252 7.76565 6.85050
#
# Compressibility (1/GPa) = 0.02920759
#
# Stress axis : x y z
#
# Youngs Moduli (GPa) = 194.21129 41.99445 69.73739
#
# Poissons Ratio (x) = 0.27968 0.04827
# Poissons Ratio (y) = 1.29343 -0.02129
# Poissons Ratio (z) = 0.13444 -0.01282
#
# Static dielectric constant tensor:
#      x y z
#    x 1.913180 0.000000 0.000000 
#    y 0.000000 1.800140 0.000000 
#    z 0.000000 0.000000 1.988520 
# 
# From -- ./inp_files/13162.got.cif
#   From: 2010.05.17/outbox.cif.g08.bks.cpg/sg47_7_cif.got.tgz:13162.got - 2010.06.03 20:15:42.
