data_PCOD9388605
_publ_section_title
;
Structure prediction by ZEFSAII (Michael W. Deem and Ramdas Pophale) SiO2 
 PCOD9388605
Probable space group: P M M M
;
_chemical_formula_sum "Si O2"
_cell_formula_units_Z 64
_cell_length_a 21.469847
_cell_length_b 7.725918
_cell_length_c 18.518937
_cell_angle_alpha 90.000000
_cell_angle_beta 90.000000
_cell_angle_gamma 90.000000
_cell_volume 3071.815293
_symmetry_space_group_name_H-M "P M M M"
_symmetry_group_IT_number 47
_symmetry_cell_setting 'orthorhombic'
loop_
_space_group_symop_operation_xyz
x,y,z
-x,-y,z
x,-y,-z
-x,y,-z
-x,-y,-z
x,y,-z
-x,y,z
x,-y,z
loop_
_atom_site_type_symbol
_atom_site_label
_atom_site_fract_x
_atom_site_fract_y
_atom_site_fract_z
Si Si1 0.567051 0.201485 0.813663
Si Si2 0.567121 0.293872 0.645972
Si Si3 0.298021 0.207905 0.638027
Si Si4 0.930432 0.790623 0.865250
Si Si5 0.797956 0.296816 0.921838
Si Si6 0.832473 0.787966 0.579597
Si Si7 0.699820 0.794120 0.802728
Si Si8 0.930010 0.210997 0.698750
O O1 0.500000 0.279880 0.835244
O O2 0.568969 0.210598 0.725993
O O3 0.634378 0.276314 0.834944
O O4 0.565375 0.000000 0.835594
O O5 0.500000 0.243750 0.612609
O O6 0.566373 0.500000 0.656036
O O7 0.632920 0.250708 0.609901
O O8 0.238367 0.268945 0.593830
O O9 0.291489 0.273250 0.721058
O O10 0.294189 0.000000 0.639747
O O11 0.871393 0.730247 0.909935
O O12 0.920650 0.735516 0.781780
O O13 0.000000 0.734221 0.887976
O O14 0.930346 0.000000 0.866713
O O15 0.785806 0.500000 0.923468
O O16 0.758012 0.228786 0.854937
O O17 0.780062 0.221062 0.000000
O O18 0.853419 0.734719 0.500000
O O19 0.877751 0.728697 0.643443
O O20 0.833138 0.000000 0.581112
O O21 0.690734 0.000000 0.794848
O O22 0.000000 0.261814 0.676881
O O23 0.928306 0.000000 0.699228
#
# Coordination Sequence:
#
# PCOD9388605 Si02
#       8
#     8   8   8   8   8   8   8   8
#     4   8  14  26  45  70  98 123 149 188 239 286
#     4   9  16  25  40  65  93 118 150 194 239 283
#     4   9  17  29  46  68  94 124 157 195 237 277
#     4   9  18  34  56  77  95 120 156 195 234 280
#     4  11  24  37  48  67  97 129 158 193 237 281
#     4   9  16  25  40  65  96 127 157 189 226 270
#     4   9  17  30  50  72  93 123 161 197 233 277
#     4   8  14  26  45  69  96 123 151 186 227 270
#
# _framework density 20.834585000000001
#
# number of rings (size 3 to 8) (size 9 to 14) (size 15 to 20)
#    0.000    3.000    0.000    3.000    0.000    6.500 
#    0.000    2.500    0.000    1.125    0.000    5.250 
#    0.000    0.000    0.000    7.625    0.000    7.500 
#
# Total GULP energy -356600.287047 kJ/mol
# GULP energy per Si atom -5571.879485 kJ/mol
# Density = 2.078716 g / cm^3
# Si number density = 20.834585 Si / 1000 Ang^3
#
#
#
# Elastic Constant Matrix: (Units=GPa)
#
#
# Indices 1 2 3 4 5 6 
#
# 1 83.5586 -2.7208 4.2059 0.0000 0.0000 0.0000
# 2 -2.7208 30.7652 2.1011 0.0000 0.0000 0.0000
# 3 4.2059 2.1011 18.3091 0.0000 0.0000 0.0000
# 4 0.0000 0.0000 0.0000 9.9117 0.0000 0.0000
# 5 0.0000 0.0000 0.0000 0.0000 -11.4906 0.0000
# 6 0.0000 0.0000 0.0000 0.0000 0.0000 -80.2924
#
#
#
# Elastic Compliance Matrix: (Units=1/GPa)
#
#
# Indices 1 2 3 4 5 6 
#
# 1 0.012157 0.001276 -0.002939 0.000000 0.000000 0.000000
# 2 0.001276 0.032895 -0.004068 0.000000 0.000000 0.000000
# 3 -0.002939 -0.004068 0.055760 0.000000 0.000000 0.000000
# 4 0.000000 0.000000 0.000000 0.100891 0.000000 0.000000
# 5 0.000000 0.000000 0.000000 0.000000 -0.087028 0.000000
# 6 0.000000 0.000000 0.000000 0.000000 0.000000 -0.012454
#
#
# Mechanical properties :
#
#
# Convention : Reuss Voigt Hill
#
# Bulk Modulus (GPa) = 11.19206 15.53394 13.36300
# Shear Modulus (GPa) = 34.85156 -7.77114 13.54021
#
# Velocity S-wave (km/s) = 4.09439 -1.93340 2.55206
# Velocity P-wave (km/s) = 5.26646 1.57734 3.88739
#
# Compressibility (1/GPa) = 0.08934908
#
# Stress axis : x y z
#
# Youngs Moduli (GPa) = 82.25630 30.39985 17.93416
#
# Poissons Ratio (x) = -0.03879 0.05271
# Poissons Ratio (y) = -0.10495 0.07296
# Poissons Ratio (z) = 0.24176 0.12367
#
# Static dielectric constant tensor:
#      x y z
#    x 1.794040 0.000000 0.000000 
#    y 0.000000 1.803670 0.000000 
#    z 0.000000 0.000000 1.727360 
# 
# From -- ./inp_files/28813.got.cif
#   From: 2010.05.17/outbox.cif.g08.bks.cpg/sg47_15_cif.got.tgz:28813.got - 2010.06.03 20:15:42.
