data_PCOD9388709
_publ_section_title
;
Structure prediction by ZEFSAII (Michael W. Deem and Ramdas Pophale) SiO2 
 PCOD9388709
Probable space group: P M M M
;
_chemical_formula_sum "Si O2"
_cell_formula_units_Z 44
_cell_length_a 19.067864
_cell_length_b 14.081409
_cell_length_c 8.933517
_cell_angle_alpha 90.000000
_cell_angle_beta 90.000000
_cell_angle_gamma 90.000000
_cell_volume 2398.670681
_symmetry_space_group_name_H-M "P M M M"
_symmetry_group_IT_number 47
_symmetry_cell_setting 'orthorhombic'
loop_
_space_group_symop_operation_xyz
x,y,z
-x,-y,z
x,-y,-z
-x,y,-z
-x,-y,-z
x,y,-z
-x,y,z
x,-y,z
loop_
_atom_site_type_symbol
_atom_site_label
_atom_site_fract_x
_atom_site_fract_y
_atom_site_fract_z
Si Si1 0.000000 0.387830 0.181556
Si Si2 0.420699 0.386377 0.822691
Si Si3 0.229305 0.110344 0.181016
Si Si4 0.925063 0.884383 0.824585
Si Si5 0.711241 0.286765 0.322704
Si Si6 0.154453 0.614929 0.823471
O O1 0.076741 0.350611 0.228418
O O2 0.000000 0.500000 0.220211
O O3 0.000000 0.382483 0.000000
O O4 0.500000 0.357782 0.779807
O O5 0.415664 0.500000 0.803771
O O6 0.359246 0.336951 0.732663
O O7 0.411888 0.367052 0.000000
O O8 0.151178 0.141601 0.235429
O O9 0.283517 0.182085 0.252157
O O10 0.239998 0.000000 0.219270
O O11 0.229659 0.117058 0.000000
O O12 0.000000 0.853539 0.758110
O O13 0.924878 0.000000 0.822912
O O14 0.926028 0.856459 0.000000
O O15 0.713787 0.282788 0.500000
O O16 0.779257 0.343366 0.261747
O O17 0.154854 0.500000 0.812541
O O18 0.161473 0.638794 0.000000
#
# Coordination Sequence:
#
# PCOD9388709 Si02
#       6
#     4   8   8   8   8   8
#     4   7  12  26  49  73  94 125 176 233 277 304
#     4   9  19  38  64  90 113 138 171 215 264 311
#     4   9  18  34  55  75  98 135 185 236 278 315
#     4   7  10  20  42  70  93 114 154 219 282 320
#     4  12  24  34  49  78 115 150 177 208 260 327
#     4   9  17  32  54  76 100 134 180 231 272 309
#
# _framework density 18.343492000000001
#
# number of rings (size 3 to 8) (size 9 to 14) (size 15 to 20)
#    0.000    3.000    0.000    5.455    0.000    3.636 
#    1.636    1.364    0.000    2.182    0.000    6.364 
#    0.000    0.000    0.000    0.000    0.000    0.000 
#
# Total GULP energy -245337.238555 kJ/mol
# GULP energy per Si atom -5575.846331 kJ/mol
# Density = 1.830174 g / cm^3
# Si number density = 18.343492 Si / 1000 Ang^3
#
#
#
# Elastic Constant Matrix: (Units=GPa)
#
#
# Indices 1 2 3 4 5 6 
#
# 1 131.0930 51.5357 56.4203 0.0000 0.0000 0.0000
# 2 51.5357 63.5456 37.1685 0.0000 0.0000 0.0000
# 3 56.4203 37.1685 45.6762 0.0000 0.0000 0.0000
# 4 0.0000 0.0000 0.0000 43.3815 0.0000 0.0000
# 5 0.0000 0.0000 0.0000 0.0000 -8.9620 0.0000
# 6 0.0000 0.0000 0.0000 0.0000 0.0000 29.4168
#
#
#
# Elastic Compliance Matrix: (Units=1/GPa)
#
#
# Indices 1 2 3 4 5 6 
#
# 1 0.016542 -0.002794 -0.018160 0.000000 0.000000 0.000000
# 2 -0.002794 0.030502 -0.021369 0.000000 0.000000 0.000000
# 3 -0.018160 -0.021369 0.061714 0.000000 0.000000 0.000000
# 4 0.000000 0.000000 0.000000 0.023051 0.000000 0.000000
# 5 0.000000 0.000000 0.000000 0.000000 -0.111582 0.000000
# 6 0.000000 0.000000 0.000000 0.000000 0.000000 0.033994
#
#
# Mechanical properties :
#
#
# Convention : Reuss Voigt Hill
#
# Bulk Modulus (GPa) = 41.47394 58.95156 50.21275
# Shear Modulus (GPa) = 34.03572 19.11329 26.57450
#
# Velocity S-wave (km/s) = 4.31218 3.23145 3.81033
# Velocity P-wave (km/s) = 6.88854 6.79194 6.84041
#
# Compressibility (1/GPa) = 0.02411153
#
# Stress axis : x y z
#
# Youngs Moduli (GPa) = 60.45132 32.78494 16.20383
#
# Poissons Ratio (x) = 0.09160 0.29426
# Poissons Ratio (y) = 0.16890 0.34627
# Poissons Ratio (z) = 1.09779 0.70059
#
# Static dielectric constant tensor:
#      x y z
#    x 1.648310 0.000000 0.000000 
#    y 0.000000 1.673400 0.000000 
#    z 0.000000 0.000000 1.597360 
# 
# From -- ./inp_files/9018.got.cif
#   From: 2010.05.17/outbox.cif.g08.bks.cpg/sg47_5_cif.got.tgz:9018.got - 2010.06.03 20:15:42.
