data_PCOD9388759
_publ_section_title
;
Structure prediction by ZEFSAII (Michael W. Deem and Ramdas Pophale) SiO2 
 PCOD9388759
Probable space group: P M M M
;
_chemical_formula_sum "Si O2"
_cell_formula_units_Z 56
_cell_length_a 30.592630
_cell_length_b 7.363736
_cell_length_c 14.343143
_cell_angle_alpha 90.000000
_cell_angle_beta 90.000000
_cell_angle_gamma 90.000000
_cell_volume 3231.166612
_symmetry_space_group_name_H-M "P M M M"
_symmetry_group_IT_number 47
_symmetry_cell_setting 'orthorhombic'
loop_
_space_group_symop_operation_xyz
x,y,z
-x,-y,z
x,-y,-z
-x,y,-z
-x,-y,-z
x,y,-z
-x,y,z
x,-y,z
loop_
_atom_site_type_symbol
_atom_site_label
_atom_site_fract_x
_atom_site_fract_y
_atom_site_fract_z
Si Si1 0.047076 0.716473 0.112482
Si Si2 0.683117 0.221614 0.895022
Si Si3 0.450936 0.778777 0.607785
Si Si4 0.364949 0.778994 0.711397
Si Si5 0.230798 0.216463 0.211509
Si Si6 0.858162 0.716873 0.106198
Si Si7 0.722949 0.778612 0.394880
O O1 0.046142 0.500000 0.130924
O O2 0.094706 0.786244 0.142538
O O3 0.000000 0.789456 0.145870
O O4 0.047613 0.738195 0.000000
O O5 0.648858 0.277652 0.815369
O O6 0.731016 0.280453 0.858609
O O7 0.683031 0.000000 0.896226
O O8 0.674600 0.282685 0.000000
O O9 0.443349 0.726113 0.500000
O O10 0.500000 0.721597 0.634567
O O11 0.411447 0.716800 0.672855
O O12 0.450700 0.000000 0.609144
O O13 0.325105 0.726937 0.642959
O O14 0.365616 0.000000 0.711470
O O15 0.183025 0.251555 0.171841
O O16 0.242890 0.281718 0.315367
O O17 0.235700 0.000000 0.214843
O O18 0.862867 0.500000 0.098884
O O19 0.850114 0.784361 0.000000
O O20 0.730808 0.716052 0.500000
O O21 0.723659 0.000000 0.396963
#
# Coordination Sequence:
#
# PCOD9388759 Si02
#       7
#     8   8   8   8   8   8   8
#     4   7  10  18  32  48  65  87 116 144 165 190
#     4   8  13  20  29  41  57  78 105 134 160 189
#     4   8  12  16  22  33  49  69  94 127 168 208
#     4   8  12  17  26  39  54  74 101 134 168 197
#     4   9  16  24  35  51  69  90 115 143 175 206
#     4   9  16  24  35  52  73  96 119 142 168 198
#     4   8  13  21  33  48  64  82 108 142 174 204
#
# _framework density 17.331201
#
# number of rings (size 3 to 8) (size 9 to 14) (size 15 to 20)
#    0.000    3.857    0.000    4.286    0.000    2.571 
#    0.000    0.000    0.000    1.286    0.000    5.000 
#    0.000    0.571    0.000    7.143    0.000   11.714 
#
# Total GULP energy -311765.984283 kJ/mol
# GULP energy per Si atom -5567.249719 kJ/mol
# Density = 1.729175 g / cm^3
# Si number density = 17.331201 Si / 1000 Ang^3
#
#
#
# Elastic Constant Matrix: (Units=GPa)
#
#
# Indices 1 2 3 4 5 6 
#
# 1 189.5457 3.9430 98.9161 0.0000 0.0000 0.0000
# 2 3.9430 59.6342 5.8379 0.0000 0.0000 0.0000
# 3 98.9161 5.8379 133.1214 0.0000 0.0000 0.0000
# 4 0.0000 0.0000 0.0000 -5.1326 0.0000 0.0000
# 5 0.0000 0.0000 0.0000 0.0000 22.5901 0.0000
# 6 0.0000 0.0000 0.0000 0.0000 0.0000 6.9398
#
#
#
# Elastic Compliance Matrix: (Units=1/GPa)
#
#
# Indices 1 2 3 4 5 6 
#
# 1 0.008617 0.000057 -0.006406 0.000000 0.000000 0.000000
# 2 0.000057 0.016842 -0.000781 0.000000 0.000000 0.000000
# 3 -0.006406 -0.000781 0.012306 0.000000 0.000000 0.000000
# 4 0.000000 0.000000 0.000000 -0.194833 0.000000 0.000000
# 5 0.000000 0.000000 0.000000 0.000000 0.044267 0.000000
# 6 0.000000 0.000000 0.000000 0.000000 0.000000 0.144097
#
#
# Mechanical properties :
#
#
# Convention : Reuss Voigt Hill
#
# Bulk Modulus (GPa) = 42.54255 66.63281 54.58768
# Shear Modulus (GPa) = 93.64936 23.11974 58.38455
#
# Velocity S-wave (km/s) = 7.35883 3.65635 5.81039
# Velocity P-wave (km/s) = 9.83887 7.50702 8.75096
#
# Compressibility (1/GPa) = 0.02350588
#
# Stress axis : x y z
#
# Youngs Moduli (GPa) = 116.04330 59.37680 81.26118
#
# Poissons Ratio (x) = -0.00340 0.52054
# Poissons Ratio (y) = -0.00665 0.06348
# Poissons Ratio (z) = 0.74334 0.04638
#
# Static dielectric constant tensor:
#      x y z
#    x 1.616700 0.000000 0.000000 
#    y 0.000000 1.731500 0.000000 
#    z 0.000000 0.000000 1.568950 
# 
# From -- ./inp_files/8132.got.cif
#   From: 2010.05.17/outbox.cif.g08.bks.cpg/sg47_5_cif.got.tgz:8132.got - 2010.06.03 20:15:42.
