data_PCOD9388052
_publ_section_title
;
Structure prediction by ZEFSAII (Michael W. Deem and Ramdas Pophale) SiO2 
 PCOD9388052
Probable space group: P M M M
;
_chemical_formula_sum "Si O2"
_cell_formula_units_Z 52
_cell_length_a 12.098223
_cell_length_b 26.751833
_cell_length_c 8.561937
_cell_angle_alpha 90.000000
_cell_angle_beta 90.000000
_cell_angle_gamma 90.000000
_cell_volume 2771.067839
_symmetry_space_group_name_H-M "P M M M"
_symmetry_group_IT_number 47
_symmetry_cell_setting 'orthorhombic'
loop_
_space_group_symop_operation_xyz
x,y,z
-x,-y,z
x,-y,-z
-x,y,-z
-x,-y,-z
x,y,-z
-x,y,z
x,-y,z
loop_
_atom_site_type_symbol
_atom_site_label
_atom_site_fract_x
_atom_site_fract_y
_atom_site_fract_z
Si Si1 0.500000 0.798445 0.313951
Si Si2 0.873338 0.442204 0.188425
Si Si3 0.500000 0.685211 0.185281
Si Si4 0.500000 0.058876 0.324892
Si Si5 0.872147 0.743676 0.688661
Si Si6 0.261380 0.944034 0.814128
Si Si7 0.729133 0.647129 0.686793
Si Si8 0.734422 0.836735 0.187792
O O1 0.500000 0.797501 0.500000
O O2 0.500000 0.741259 0.255061
O O3 0.611925 0.825122 0.254862
O O4 0.852259 0.500000 0.232069
O O5 0.787629 0.403610 0.260023
O O6 0.000000 0.429910 0.235447
O O7 0.868473 0.439261 0.000000
O O8 0.390618 0.656673 0.240933
O O9 0.500000 0.689746 0.000000
O O10 0.500000 0.082528 0.500000
O O11 0.389790 0.066024 0.225858
O O12 0.500000 0.000000 0.350935
O O13 0.866908 0.747157 0.500000
O O14 0.806828 0.693690 0.735355
O O15 0.811811 0.791574 0.759338
O O16 0.000000 0.740966 0.735363
O O17 0.214170 0.890532 0.759370
O O18 0.232048 0.000000 0.751084
O O19 0.245336 0.946900 0.000000
O O20 0.719609 0.647968 0.500000
O O21 0.725619 0.837740 0.000000
#
# Coordination Sequence:
#
# PCOD9388052 Si02
#       8
#     4   8   4   4   8   8   8   8
#     4  12  23  37  55  79 114 154 186 225 281 339
#     4   9  19  37  61  90 125 164 205 249 293 334
#     4  12  24  39  60  86 117 154 196 238 281 340
#     4   9  16  25  40  66  96 126 165 208 254 313
#     4  10  22  39  58  81 112 148 183 228 288 345
#     4   9  18  32  48  68  99 137 176 221 274 331
#     4  11  22  38  61  89 120 156 193 235 290 347
#     4  11  22  35  55  82 109 143 187 232 280 337
#
# _framework density 18.765328
#
# number of rings (size 3 to 8) (size 9 to 14) (size 15 to 20)
#    0.000    1.769    1.538    3.923    0.000    6.154 
#    0.000    1.154    0.000    2.769    0.000    3.231 
#    0.000    0.000    0.000    0.000    0.000    0.000 
#
# Total GULP energy -290078.933969 kJ/mol
# GULP energy per Si atom -5578.441038 kJ/mol
# Density = 1.872262 g / cm^3
# Si number density = 18.765328 Si / 1000 Ang^3
#
#
#
# Elastic Constant Matrix: (Units=GPa)
#
#
# Indices 1 2 3 4 5 6 
#
# 1 119.3030 79.6674 37.1991 0.0000 0.0000 0.0000
# 2 79.6674 158.5852 38.8672 0.0000 0.0000 0.0000
# 3 37.1991 38.8672 41.5182 0.0000 0.0000 0.0000
# 4 0.0000 0.0000 0.0000 -25.9905 0.0000 0.0000
# 5 0.0000 0.0000 0.0000 0.0000 20.8267 0.0000
# 6 0.0000 0.0000 0.0000 0.0000 0.0000 7.4189
#
#
#
# Elastic Compliance Matrix: (Units=1/GPa)
#
#
# Indices 1 2 3 4 5 6 
#
# 1 0.014385 -0.005279 -0.007947 0.000000 0.000000 0.000000
# 2 -0.005279 0.010120 -0.004745 0.000000 0.000000 0.000000
# 3 -0.007947 -0.004745 0.035648 0.000000 0.000000 0.000000
# 4 0.000000 0.000000 0.000000 -0.038476 0.000000 0.000000
# 5 0.000000 0.000000 0.000000 0.000000 0.048015 0.000000
# 6 0.000000 0.000000 0.000000 0.000000 0.000000 0.134791
#
#
# Mechanical properties :
#
#
# Convention : Reuss Voigt Hill
#
# Bulk Modulus (GPa) = 41.30073 70.09707 55.69890
# Shear Modulus (GPa) = 20.12118 11.36255 15.74186
#
# Velocity S-wave (km/s) = 3.27808 2.46338 2.89949
# Velocity P-wave (km/s) = 6.03196 6.74734 6.39966
#
# Compressibility (1/GPa) = 0.02421265
#
# Stress axis : x y z
#
# Youngs Moduli (GPa) = 69.51752 98.80954 28.05245
#
# Poissons Ratio (x) = 0.52160 0.22292
# Poissons Ratio (y) = 0.36697 0.13310
# Poissons Ratio (z) = 0.55243 0.46882
#
# Static dielectric constant tensor:
#      x y z
#    x 1.862530 0.000000 0.000000 
#    y 0.000000 1.683100 0.000000 
#    z 0.000000 0.000000 1.652900 
# 
# From -- ./inp_files/4591.got.cif
#   From: 2010.05.17/outbox.cif.g08.bks.cpg/sg47_3_cif.got.tgz:4591.got - 2010.06.03 20:15:42.
