data_PCOD9388715
_publ_section_title
;
Structure prediction by ZEFSAII (Michael W. Deem and Ramdas Pophale) SiO2 
 PCOD9388715
Probable space group: P M M M
;
_chemical_formula_sum "Si O2"
_cell_formula_units_Z 64
_cell_length_a 8.759900
_cell_length_b 18.857511
_cell_length_c 21.565006
_cell_angle_alpha 90.000000
_cell_angle_beta 90.000000
_cell_angle_gamma 90.000000
_cell_volume 3562.321413
_symmetry_space_group_name_H-M "P M M M"
_symmetry_group_IT_number 47
_symmetry_cell_setting 'orthorhombic'
loop_
_space_group_symop_operation_xyz
x,y,z
-x,-y,z
x,-y,-z
-x,y,-z
-x,-y,-z
x,y,-z
-x,y,z
x,-y,z
loop_
_atom_site_type_symbol
_atom_site_label
_atom_site_fract_x
_atom_site_fract_y
_atom_site_fract_z
Si Si1 0.816705 0.583169 0.428583
Si Si2 0.184666 0.416042 0.797465
Si Si3 0.817337 0.414505 0.066562
Si Si4 0.315334 0.916042 0.797465
Si Si5 0.681353 0.671570 0.316612
Si Si6 0.682664 0.914505 0.066562
Si Si7 0.316705 0.916831 0.428583
Si Si8 0.181353 0.171570 0.316612
O O1 0.777276 0.600162 0.500000
O O2 0.781369 0.500000 0.418051
O O3 0.734531 0.631465 0.378715
O O4 0.000000 0.590925 0.422035
O O5 0.219622 0.500000 0.791265
O O6 0.238674 0.390495 0.865949
O O7 0.256692 0.372313 0.742076
O O8 0.000000 0.409874 0.795170
O O9 0.798721 0.500000 0.066777
O O10 0.000000 0.401852 0.066069
O O11 0.755295 0.388103 0.000000
O O12 0.500000 0.909874 0.795170
O O13 0.261327 0.890495 0.865949
O O14 0.243307 0.872313 0.742076
O O15 0.280378 0.000000 0.791265
O O16 0.500000 0.675166 0.314305
O O17 0.750000 0.750000 0.315628
O O18 0.500000 0.901852 0.066069
O O19 0.701280 0.000000 0.066777
O O20 0.744705 0.888103 0.000000
O O21 0.277276 0.899838 0.500000
O O22 0.500000 0.909075 0.422035
O O23 0.234531 0.868535 0.378715
O O24 0.281368 0.000000 0.418051
O O25 0.000000 0.175166 0.314305
#
# Coordination Sequence:
#
# PCOD9388715 Si02
#       8
#     8   8   8   8   8   8   8   8
#     4   9  19  38  63  87 110 136 166 203 250 305
#     4   9  17  31  53  79 107 138 171 211 259 310
#     4   7  10  19  40  72 104 131 163 204 250 302
#     4   9  17  31  53  79 107 138 171 211 259 310
#     4  12  25  38  53  74 104 141 179 219 259 303
#     4   7  10  19  40  72 104 131 163 204 250 302
#     4   9  19  38  63  87 110 136 166 203 250 305
#     4  12  25  38  53  74 104 141 179 219 259 303
#
# _framework density 17.965814000000002
#
# number of rings (size 3 to 8) (size 9 to 14) (size 15 to 20)
#    0.000    2.750    0.000    6.000    0.000    5.000 
#    0.000    1.250    0.000    1.500    0.000    3.500 
#    0.000    0.000    0.000    0.000    0.000    0.000 
#
# Total GULP energy -356674.849969 kJ/mol
# GULP energy per Si atom -5573.044531 kJ/mol
# Density = 1.792492 g / cm^3
# Si number density = 17.965814 Si / 1000 Ang^3
#
#
#
# Elastic Constant Matrix: (Units=GPa)
#
#
# Indices 1 2 3 4 5 6 
#
# 1 48.0394 51.2756 71.6844 0.0000 0.0000 0.0000
# 2 51.2756 80.7361 102.0456 0.0000 0.0000 0.0000
# 3 71.6844 102.0456 200.4695 0.0000 0.0000 0.0000
# 4 0.0000 0.0000 0.0000 -9.3364 0.0000 0.0000
# 5 0.0000 0.0000 0.0000 0.0000 6.9307 0.0000
# 6 0.0000 0.0000 0.0000 0.0000 0.0000 24.5577
#
#
#
# Elastic Compliance Matrix: (Units=1/GPa)
#
#
# Indices 1 2 3 4 5 6 
#
# 1 0.067508 -0.034669 -0.006492 0.000000 0.000000 0.000000
# 2 -0.034669 0.052537 -0.014346 0.000000 0.000000 0.000000
# 3 -0.006492 -0.014346 0.014612 0.000000 0.000000 0.000000
# 4 0.000000 0.000000 0.000000 -0.107108 0.000000 0.000000
# 5 0.000000 0.000000 0.000000 0.000000 0.144285 0.000000
# 6 0.000000 0.000000 0.000000 0.000000 0.000000 0.040720
#
#
# Mechanical properties :
#
#
# Convention : Reuss Voigt Hill
#
# Bulk Modulus (GPa) = 42.29531 86.58403 64.43967
# Shear Modulus (GPa) = 15.08527 11.37970 13.23248
#
# Velocity S-wave (km/s) = 2.90084 2.51949 2.71687
# Velocity P-wave (km/s) = 5.90026 7.53407 6.76665
#
# Compressibility (1/GPa) = 0.02364328
#
# Stress axis : x y z
#
# Youngs Moduli (GPa) = 14.81305 19.03438 68.43551
#
# Poissons Ratio (x) = 0.65990 0.44429
# Poissons Ratio (y) = 0.51355 0.98177
# Poissons Ratio (z) = 0.09617 0.27306
#
# Static dielectric constant tensor:
#      x y z
#    x 1.600310 0.000000 0.000000 
#    y 0.000000 1.578250 0.000000 
#    z 0.000000 0.000000 1.656370 
# 
# From -- ./inp_files/29997.got.cif
#   From: 2010.05.17/outbox.cif.g08.bks.cpg/sg47_15_cif.got.tgz:29997.got - 2010.06.03 20:15:42.
