data_PCOD9388199
_publ_section_title
;
Structure prediction by ZEFSAII (Michael W. Deem and Ramdas Pophale) SiO2 
 PCOD9388199
Probable space group: P M M M
;
_chemical_formula_sum "Si O2"
_cell_formula_units_Z 52
_cell_length_a 12.454913
_cell_length_b 28.457536
_cell_length_c 7.590982
_cell_angle_alpha 90.000000
_cell_angle_beta 90.000000
_cell_angle_gamma 90.000000
_cell_volume 2690.518321
_symmetry_space_group_name_H-M "P M M M"
_symmetry_group_IT_number 47
_symmetry_cell_setting 'orthorhombic'
loop_
_space_group_symop_operation_xyz
x,y,z
-x,-y,z
x,-y,-z
-x,y,-z
-x,-y,-z
x,y,-z
-x,y,z
x,-y,z
loop_
_atom_site_type_symbol
_atom_site_label
_atom_site_fract_x
_atom_site_fract_y
_atom_site_fract_z
Si Si1 0.620274 0.719069 0.708651
Si Si2 0.376306 0.000000 0.285025
Si Si3 0.123617 0.551545 0.287394
Si Si4 0.692236 0.619690 0.797423
Si Si5 0.000000 0.054958 0.715119
Si Si6 0.500000 0.445662 0.783496
Si Si7 0.233528 0.089228 0.284635
Si Si8 0.375210 0.823584 0.284889
O O1 0.611143 0.725312 0.500000
O O2 0.500000 0.708399 0.777609
O O3 0.690676 0.672874 0.731916
O O4 0.653229 0.770578 0.775288
O O5 0.309681 0.045896 0.231335
O O6 0.500000 0.000000 0.226032
O O7 0.378522 0.000000 0.500000
O O8 0.125820 0.551987 0.500000
O O9 0.164565 0.500000 0.229185
O O10 0.195732 0.593573 0.222055
O O11 0.000000 0.555516 0.232529
O O12 0.602768 0.584321 0.720452
O O13 0.663121 0.623960 0.000000
O O14 0.889009 0.079610 0.771969
O O15 0.000000 0.055183 0.500000
O O16 0.000000 0.000000 0.767804
O O17 0.500000 0.500000 0.725366
O O18 0.500000 0.447509 0.000000
O O19 0.231736 0.089577 0.500000
O O20 0.291382 0.137050 0.225544
O O21 0.373804 0.824970 0.500000
O O22 0.500000 0.832892 0.234613
#
# Coordination Sequence:
#
# PCOD9388199 Si02
#       8
#     8   4   8   8   4   4   8   8
#     4   9  17  30  47  65  89 123 160 197 238 284
#     4   9  14  17  25  43  67  94 126 170 217 260
#     4   9  19  36  55  74  98 128 161 197 236 279
#     4  11  20  31  50  74 101 130 160 196 238 285
#     4   9  14  20  28  42  68 104 137 167 210 269
#     4   9  18  30  43  67 103 131 149 180 229 278
#     4   9  14  20  30  45  68  98 135 175 216 266
#     4   8  14  24  38  54  71  99 143 190 228 263
#
# _framework density 19.327131999999999
#
# number of rings (size 3 to 8) (size 9 to 14) (size 15 to 20)
#    0.000    2.846    1.538    2.769    0.000    3.077 
#    0.000    0.769    1.692    1.846    0.000    0.000 
#    0.000    0.000    0.000    0.692    0.000    9.231 
#
# Total GULP energy -289915.023018 kJ/mol
# GULP energy per Si atom -5575.288904 kJ/mol
# Density = 1.928314 g / cm^3
# Si number density = 19.327132 Si / 1000 Ang^3
#
#
#
# Elastic Constant Matrix: (Units=GPa)
#
#
# Indices 1 2 3 4 5 6 
#
# 1 125.2581 101.8445 0.5985 0.0000 0.0000 0.0000
# 2 101.8445 200.8603 6.7938 0.0000 0.0000 0.0000
# 3 0.5985 6.7938 36.0250 0.0000 0.0000 0.0000
# 4 0.0000 0.0000 0.0000 -37.3910 0.0000 0.0000
# 5 0.0000 0.0000 0.0000 0.0000 -5.2123 0.0000
# 6 0.0000 0.0000 0.0000 0.0000 0.0000 18.8624
#
#
#
# Elastic Compliance Matrix: (Units=1/GPa)
#
#
# Indices 1 2 3 4 5 6 
#
# 1 0.013625 -0.006945 0.001083 0.000000 0.000000 0.000000
# 2 -0.006945 0.008551 -0.001497 0.000000 0.000000 0.000000
# 3 0.001083 -0.001497 0.028023 0.000000 0.000000 0.000000
# 4 0.000000 0.000000 0.000000 -0.026744 0.000000 0.000000
# 5 0.000000 0.000000 0.000000 0.000000 -0.191853 0.000000
# 6 0.000000 0.000000 0.000000 0.000000 0.000000 0.053015
#
#
# Mechanical properties :
#
#
# Convention : Reuss Voigt Hill
#
# Bulk Modulus (GPa) = 28.18411 64.51300 46.34856
# Shear Modulus (GPa) = -56.28230 12.11225 -22.08503
#
# Velocity S-wave (km/s) = -5.40223 2.50611 -3.38405
# Velocity P-wave (km/s) = 4.92928 6.46731 2.96043
#
# Compressibility (1/GPa) = 0.03548098
#
# Stress axis : x y z
#
# Youngs Moduli (GPa) = 73.39236 116.94846 35.68512
#
# Poissons Ratio (x) = 0.81224 -0.03866
# Poissons Ratio (y) = 0.50973 0.05343
# Poissons Ratio (z) = -0.07952 0.17509
#
# Static dielectric constant tensor:
#      x y z
#    x 1.653030 0.000000 0.000000 
#    y 0.000000 1.687640 0.000000 
#    z 0.000000 0.000000 1.735010 
# 
# From -- ./inp_files/4667.got.cif
#   From: 2010.05.17/outbox.cif.g08.bks.cpg/sg47_3_cif.got.tgz:4667.got - 2010.06.03 20:15:42.
