data_PCOD9388443
_publ_section_title
;
Structure prediction by ZEFSAII (Michael W. Deem and Ramdas Pophale) SiO2 
 PCOD9388443
Probable space group: P M M M
;
_chemical_formula_sum "Si O2"
_cell_formula_units_Z 40
_cell_length_a 7.830471
_cell_length_b 14.295619
_cell_length_c 16.543080
_cell_angle_alpha 90.000000
_cell_angle_beta 90.000000
_cell_angle_gamma 90.000000
_cell_volume 1851.856032
_symmetry_space_group_name_H-M "P M M M"
_symmetry_group_IT_number 47
_symmetry_cell_setting 'orthorhombic'
loop_
_space_group_symop_operation_xyz
x,y,z
-x,-y,z
x,-y,-z
-x,y,-z
-x,-y,-z
x,y,-z
-x,y,z
x,-y,z
loop_
_atom_site_type_symbol
_atom_site_label
_atom_site_fract_x
_atom_site_fract_y
_atom_site_fract_z
Si Si1 0.293503 0.390241 0.324335
Si Si2 0.299722 0.396875 0.000000
Si Si3 0.799505 0.286335 0.840496
Si Si4 0.202265 0.113783 0.414252
Si Si5 0.789826 0.893096 0.237722
Si Si6 0.703835 0.613752 0.500000
O O1 0.500000 0.385569 0.325511
O O2 0.246568 0.500000 0.319098
O O3 0.232023 0.339642 0.243897
O O4 0.229459 0.353449 0.412282
O O5 0.261145 0.341579 0.081763
O O6 0.216638 0.500000 0.000000
O O7 0.500000 0.408941 0.000000
O O8 0.729541 0.181680 0.827439
O O9 0.000000 0.276738 0.851076
O O10 0.277305 0.147171 0.500000
O O11 0.270986 0.140949 0.326711
O O12 0.000000 0.135279 0.415186
O O13 0.214316 0.000000 0.414190
O O14 0.000000 0.893485 0.240464
O O15 0.737245 0.000000 0.224410
O O16 0.724339 0.500000 0.500000
O O17 0.500000 0.630532 0.500000
#
# Coordination Sequence:
#
# PCOD9388443 Si02
#       6
#     8   4   8   8   8   4
#     4   9  17  32  54  77 105 145 188 224 263 321
#     4  11  25  45  66  83 102 136 179 219 266 335
#     4  11  22  35  55  86 115 139 171 223 284 329
#     4   7   9  16  34  59  89 132 182 219 243 278
#     4   8  15  29  47  70 106 149 185 215 256 316
#     4   7  12  26  49  73  98 139 192 228 251 303
#
# _framework density 21.599951999999998
#
# number of rings (size 3 to 8) (size 9 to 14) (size 15 to 20)
#    0.000    3.200    0.000    4.500    0.000    3.600 
#    1.800    1.000    0.000    7.200    0.000    0.000 
#    0.000    2.400    0.000    0.000    0.000    0.000 
#
# Total GULP energy -223047.273492 kJ/mol
# GULP energy per Si atom -5576.181837 kJ/mol
# Density = 2.155079 g / cm^3
# Si number density = 21.599952 Si / 1000 Ang^3
#
#
#
# Elastic Constant Matrix: (Units=GPa)
#
#
# Indices 1 2 3 4 5 6 
#
# 1 27.7548 10.7918 14.8606 0.0000 0.0000 0.0000
# 2 10.7918 111.9727 95.6294 0.0000 0.0000 0.0000
# 3 14.8606 95.6294 188.2872 0.0000 0.0000 0.0000
# 4 0.0000 0.0000 0.0000 38.9870 0.0000 0.0000
# 5 0.0000 0.0000 0.0000 0.0000 45.0972 0.0000
# 6 0.0000 0.0000 0.0000 0.0000 0.0000 18.7407
#
#
#
# Elastic Compliance Matrix: (Units=1/GPa)
#
#
# Indices 1 2 3 4 5 6 
#
# 1 0.037856 -0.001937 -0.002004 0.000000 0.000000 0.000000
# 2 -0.001937 0.015871 -0.007908 0.000000 0.000000 0.000000
# 3 -0.002004 -0.007908 0.009486 0.000000 0.000000 0.000000
# 4 0.000000 0.000000 0.000000 0.025650 0.000000 0.000000
# 5 0.000000 0.000000 0.000000 0.000000 0.022174 0.000000
# 6 0.000000 0.000000 0.000000 0.000000 0.000000 0.053360
#
#
# Mechanical properties :
#
#
# Convention : Reuss Voigt Hill
#
# Bulk Modulus (GPa) = 25.30698 63.39760 44.35229
# Shear Modulus (GPa) = 24.84274 34.34716 29.59495
#
# Velocity S-wave (km/s) = 3.39503 3.99199 3.70556
# Velocity P-wave (km/s) = 5.20673 7.11776 6.23589
#
# Compressibility (1/GPa) = 0.03951479
#
# Stress axis : x y z
#
# Youngs Moduli (GPa) = 26.41589 63.00743 105.42327
#
# Poissons Ratio (x) = 0.12205 0.21127
# Poissons Ratio (y) = 0.05117 0.83368
# Poissons Ratio (z) = 0.05294 0.49826
#
# Static dielectric constant tensor:
#      x y z
#    x 1.783190 0.000000 0.000000 
#    y 0.000000 1.866300 0.000000 
#    z 0.000000 0.000000 1.349610 
# 
# From -- ./inp_files/20696.got.cif
#   From: 2010.05.17/outbox.cif.g08.bks.cpg/sg47_11_cif.got.tgz:20696.got - 2010.06.03 20:15:42.
