data_PCOD9388147
_publ_section_title
;
Structure prediction by ZEFSAII (Michael W. Deem and Ramdas Pophale) SiO2 
 PCOD9388147
Probable space group: P M M M
;
_chemical_formula_sum "Si O2"
_cell_formula_units_Z 29
_cell_length_a 13.091133
_cell_length_b 10.261287
_cell_length_c 12.766193
_cell_angle_alpha 90.000000
_cell_angle_beta 90.000000
_cell_angle_gamma 90.000000
_cell_volume 1714.906615
_symmetry_space_group_name_H-M "P M M M"
_symmetry_group_IT_number 47
_symmetry_cell_setting 'orthorhombic'
loop_
_space_group_symop_operation_xyz
x,y,z
-x,-y,z
x,-y,-z
-x,y,-z
-x,-y,-z
x,y,-z
-x,y,z
x,-y,z
loop_
_atom_site_type_symbol
_atom_site_label
_atom_site_fract_x
_atom_site_fract_y
_atom_site_fract_z
Si Si1 0.000000 0.500000 0.500000
Si Si2 0.887137 0.500000 0.277579
Si Si3 0.757036 0.744685 0.802804
Si Si4 0.381299 0.156884 0.616851
Si Si5 0.379816 0.343040 0.000000
Si Si6 0.119081 0.000000 0.874017
O O1 0.088065 0.500000 0.403333
O O2 0.827193 0.374082 0.236000
O O3 0.000000 0.500000 0.227883
O O4 0.686111 0.782335 0.705881
O O5 0.824629 0.870264 0.833493
O O6 0.683268 0.706140 0.899148
O O7 0.347836 0.195170 0.500000
O O8 0.500000 0.192723 0.629038
O O9 0.375504 0.000000 0.623240
O O10 0.378981 0.500000 0.000000
O O11 0.500000 0.301439 0.000000
O O12 0.000000 0.000000 0.842235
O O13 0.123866 0.000000 0.000000
#
# Coordination Sequence:
#
# PCOD9388147 Si02
#       6
#     1   4   8   8   4   4
#     4   8  24  48  60  92 118 164 208 270 282 356
#     4  10  24  41  64  85 119 157 205 249 301 359
#     4  12  21  41  63  90 117 167 198 246 312 359
#     4   9  19  35  57  87 121 154 193 242 299 365
#     4  11  24  41  60  91 129 161 207 253 298 365
#     4  11  24  40  59  88 125 153 202 260 292 355
#
# _framework density 16.910540999999998
#
# number of rings (size 3 to 8) (size 9 to 14) (size 15 to 20)
#    0.414    1.103    4.138    2.483    1.931    0.000 
#    0.000    1.379    0.000    3.310    0.000    0.000 
#    0.000    0.000    0.000    0.000    0.000    0.000 
#
# Total GULP energy -161451.845685 kJ/mol
# GULP energy per Si atom -5567.305024 kJ/mol
# Density = 1.687205 g / cm^3
# Si number density = 16.910541 Si / 1000 Ang^3
#
#
#
# Elastic Constant Matrix: (Units=GPa)
#
#
# Indices 1 2 3 4 5 6 
#
# 1 147.9364 80.0918 117.5892 0.0000 0.0000 0.0000
# 2 80.0918 116.6002 74.0647 0.0000 0.0000 0.0000
# 3 117.5892 74.0647 162.0117 0.0000 0.0000 0.0000
# 4 0.0000 0.0000 0.0000 10.0681 0.0000 0.0000
# 5 0.0000 0.0000 0.0000 0.0000 37.2467 0.0000
# 6 0.0000 0.0000 0.0000 0.0000 0.0000 -7.6699
#
#
#
# Elastic Compliance Matrix: (Units=1/GPa)
#
#
# Indices 1 2 3 4 5 6 
#
# 1 0.018448 -0.005872 -0.010705 0.000000 0.000000 0.000000
# 2 -0.005872 0.013955 -0.002118 0.000000 0.000000 0.000000
# 3 -0.010705 -0.002118 0.014910 0.000000 0.000000 0.000000
# 4 0.000000 0.000000 0.000000 0.099324 0.000000 0.000000
# 5 0.000000 0.000000 0.000000 0.000000 0.026848 0.000000
# 6 0.000000 0.000000 0.000000 0.000000 0.000000 -0.130380
#
#
# Mechanical properties :
#
#
# Convention : Reuss Voigt Hill
#
# Bulk Modulus (GPa) = 100.76999 107.78217 104.27608
# Shear Modulus (GPa) = 59.66476 18.24916 38.95696
#
# Velocity S-wave (km/s) = 5.94636 3.28862 4.80490
# Velocity P-wave (km/s) = 10.33755 8.84845 9.62185
#
# Compressibility (1/GPa) = 0.00992359
#
# Stress axis : x y z
#
# Youngs Moduli (GPa) = 54.20732 71.66029 67.06684
#
# Poissons Ratio (x) = 0.42076 0.71797
# Poissons Ratio (y) = 0.31828 0.14204
# Poissons Ratio (z) = 0.58030 0.15177
#
# Static dielectric constant tensor:
#      x y z
#    x 1.557970 0.000000 0.000000 
#    y 0.000000 0.585760 0.000000 
#    z 0.000000 0.000000 1.557510 
# 
# From -- ./inp_files/17034.got.cif
#   From: 2010.05.17/outbox.cif.g08.bks.cpg/sg47_9_cif.got.tgz:17034.got - 2010.06.03 20:15:42.
