data_PCOD9388891
_publ_section_title
;
Structure prediction by ZEFSAII (Michael W. Deem and Ramdas Pophale) SiO2 
 PCOD9388891
Probable space group: P M M M
;
_chemical_formula_sum "Si O2"
_cell_formula_units_Z 52
_cell_length_a 21.420898
_cell_length_b 7.311911
_cell_length_c 13.960155
_cell_angle_alpha 90.000000
_cell_angle_beta 90.000000
_cell_angle_gamma 90.000000
_cell_volume 2186.546965
_symmetry_space_group_name_H-M "P M M M"
_symmetry_group_IT_number 47
_symmetry_cell_setting 'orthorhombic'
loop_
_space_group_symop_operation_xyz
x,y,z
-x,-y,z
x,-y,-z
-x,y,-z
-x,-y,-z
x,y,-z
-x,y,z
x,-y,z
loop_
_atom_site_type_symbol
_atom_site_label
_atom_site_fract_x
_atom_site_fract_y
_atom_site_fract_z
Si Si1 0.396543 0.289300 0.395289
Si Si2 0.000000 0.778656 0.389232
Si Si3 0.298856 0.789652 0.104737
Si Si4 0.928200 0.222085 0.892873
Si Si5 0.735891 0.222006 0.683957
Si Si6 0.871074 0.222810 0.701855
Si Si7 0.431191 0.278281 0.183914
O O1 0.412052 0.209916 0.500000
O O2 0.417357 0.500000 0.397537
O O3 0.321640 0.285532 0.380044
O O4 0.422111 0.213829 0.294512
O O5 0.935004 0.713869 0.345799
O O6 0.000000 0.738238 0.500000
O O7 0.000000 0.000000 0.375800
O O8 0.274437 0.714204 0.205933
O O9 0.373644 0.787145 0.120464
O O10 0.276978 0.000000 0.102749
O O11 0.283783 0.710398 0.000000
O O12 0.879329 0.277471 0.812656
O O13 0.000000 0.275319 0.869195
O O14 0.928622 0.000000 0.893597
O O15 0.913994 0.283677 0.000000
O O16 0.805649 0.279397 0.656688
O O17 0.732522 0.000000 0.683223
O O18 0.870806 0.000000 0.698389
O O19 0.500000 0.226397 0.150332
O O20 0.427342 0.500000 0.184889
#
# Coordination Sequence:
#
# PCOD9388891 Si02
#       7
#     8   4   8   8   8   8   8
#     4   9  18  33  51  69  91 120 151 185 229 278
#     4   9  16  24  33  49  78 112 141 174 222 276
#     4   9  18  32  47  65  94 130 161 187 221 267
#     4   8  12  18  30  49  75 107 138 169 212 265
#     4   9  18  30  46  68  92 120 155 195 231 267
#     4   9  15  24  37  55  82 113 144 181 225 269
#     4   9  18  32  50  73  97 119 149 190 230 268
#
# _framework density 23.781790000000001
#
# number of rings (size 3 to 8) (size 9 to 14) (size 15 to 20)
#    0.000    3.154    0.769    0.462    0.000    2.769 
#    0.000    7.692    0.000    0.000    0.000    4.846 
#    0.000    1.846    0.000    1.692    0.000    1.692 
#
# Total GULP energy -290200.630973 kJ/mol
# GULP energy per Si atom -5580.781365 kJ/mol
# Density = 2.372766 g / cm^3
# Si number density = 23.781790 Si / 1000 Ang^3
#
#
#
# Elastic Constant Matrix: (Units=GPa)
#
#
# Indices 1 2 3 4 5 6 
#
# 1 88.2948 -10.6526 -12.5055 0.0000 0.0000 0.0000
# 2 -10.6526 95.9149 0.8858 0.0000 0.0000 0.0000
# 3 -12.5055 0.8858 42.7598 0.0000 0.0000 0.0000
# 4 0.0000 0.0000 0.0000 -0.8739 0.0000 0.0000
# 5 0.0000 0.0000 0.0000 0.0000 0.4423 0.0000
# 6 0.0000 0.0000 0.0000 0.0000 0.0000 16.5433
#
#
#
# Elastic Compliance Matrix: (Units=1/GPa)
#
#
# Indices 1 2 3 4 5 6 
#
# 1 0.011974 0.001298 0.003475 0.000000 0.000000 0.000000
# 2 0.001298 0.010569 0.000161 0.000000 0.000000 0.000000
# 3 0.003475 0.000161 0.024399 0.000000 0.000000 0.000000
# 4 0.000000 0.000000 0.000000 -1.144250 0.000000 0.000000
# 5 0.000000 0.000000 0.000000 0.000000 2.261113 0.000000
# 6 0.000000 0.000000 0.000000 0.000000 0.000000 0.060447
#
#
# Mechanical properties :
#
#
# Convention : Reuss Voigt Hill
#
# Bulk Modulus (GPa) = 17.60261 20.26942 18.93602
# Shear Modulus (GPa) = 4.05409 19.83844 11.94627
#
# Velocity S-wave (km/s) = 1.30706 2.89136 2.24370
# Velocity P-wave (km/s) = 3.11379 4.43714 3.83301
#
# Compressibility (1/GPa) = 0.05680975
#
# Stress axis : x y z
#
# Youngs Moduli (GPa) = 83.51097 94.62016 40.98451
#
# Poissons Ratio (x) = -0.12280 -0.14243
# Poissons Ratio (y) = -0.10838 -0.00658
# Poissons Ratio (z) = -0.29021 -0.01520
#
# Static dielectric constant tensor:
#      x y z
#    x 1.888140 0.000000 0.000000 
#    y 0.000000 1.979840 0.000000 
#    z 0.000000 0.000000 1.884630 
# 
# From -- ./inp_files/25448.got.cif
#   From: 2010.05.17/outbox.cif.g08.bks.cpg/sg47_13_cif.got.tgz:25448.got - 2010.06.03 20:15:42.
