data_PCOD9388576
_publ_section_title
;
Structure prediction by ZEFSAII (Michael W. Deem and Ramdas Pophale) SiO2 
 PCOD9388576
Probable space group: P M M M
;
_chemical_formula_sum "Si O2"
_cell_formula_units_Z 34
_cell_length_a 10.748946
_cell_length_b 19.937493
_cell_length_c 7.522016
_cell_angle_alpha 90.000000
_cell_angle_beta 90.000000
_cell_angle_gamma 90.000000
_cell_volume 1612.020951
_symmetry_space_group_name_H-M "P M M M"
_symmetry_group_IT_number 47
_symmetry_cell_setting 'orthorhombic'
loop_
_space_group_symop_operation_xyz
x,y,z
-x,-y,z
x,-y,-z
-x,y,-z
-x,-y,-z
x,y,-z
-x,y,z
x,-y,z
loop_
_atom_site_type_symbol
_atom_site_label
_atom_site_fract_x
_atom_site_fract_y
_atom_site_fract_z
Si Si1 0.205739 0.296434 0.796834
Si Si2 0.641522 0.423962 0.783799
Si Si3 0.637304 0.175682 0.291483
Si Si4 0.000000 0.735876 0.500000
Si Si5 0.863339 0.077647 0.785707
O O1 0.260094 0.367665 0.732528
O O2 0.318541 0.243475 0.800977
O O3 0.107566 0.268576 0.657037
O O4 0.158013 0.302770 0.000000
O O5 0.500000 0.408771 0.725602
O O6 0.671956 0.500000 0.727929
O O7 0.639917 0.423450 0.000000
O O8 0.630459 0.190044 0.500000
O O9 0.500000 0.153320 0.231224
O O10 0.745637 0.120984 0.267931
O O11 0.000000 0.102687 0.722247
O O12 0.851502 0.000000 0.729876
O O13 0.866977 0.078655 0.000000
#
# Coordination Sequence:
#
# PCOD9388576 Si02
#       5
#     8   8   8   2   8
#     4  11  23  41  65  90 123 165 210 261 318 376
#     4   8  15  32  61  93 122 158 207 260 316 378
#     4  11  24  40  60  90 128 164 205 264 322 375
#     4  12  26  44  59  90 125 164 214 262 314 382
#     4   9  20  39  62  89 121 161 211 261 310 372
#
# _framework density 21.091536000000001
#
# number of rings (size 3 to 8) (size 9 to 14) (size 15 to 20)
#    0.000    2.118    1.176    3.176    1.647    4.235 
#    0.000    5.294    0.000    4.235    0.000    0.000 
#    0.000    0.000    0.000    0.000    0.000    0.000 
#
# Total GULP energy -189361.484110 kJ/mol
# GULP energy per Si atom -5569.455415 kJ/mol
# Density = 2.104353 g / cm^3
# Si number density = 21.091536 Si / 1000 Ang^3
#
#
#
# Elastic Constant Matrix: (Units=GPa)
#
#
# Indices 1 2 3 4 5 6 
#
# 1 153.1689 54.8396 24.7884 0.0000 0.0000 0.0000
# 2 54.8396 72.6452 3.1769 0.0000 0.0000 0.0000
# 3 24.7884 3.1769 96.7020 0.0000 0.0000 0.0000
# 4 0.0000 0.0000 0.0000 29.1817 0.0000 0.0000
# 5 0.0000 0.0000 0.0000 0.0000 -12.5470 0.0000
# 6 0.0000 0.0000 0.0000 0.0000 0.0000 -8.1388
#
#
#
# Elastic Compliance Matrix: (Units=1/GPa)
#
#
# Indices 1 2 3 4 5 6 
#
# 1 0.009383 -0.006988 -0.002176 0.000000 0.000000 0.000000
# 2 -0.006988 0.018990 0.001167 0.000000 0.000000 0.000000
# 3 -0.002176 0.001167 0.010860 0.000000 0.000000 0.000000
# 4 0.000000 0.000000 0.000000 0.034268 0.000000 0.000000
# 5 0.000000 0.000000 0.000000 0.000000 -0.079700 0.000000
# 6 0.000000 0.000000 0.000000 0.000000 0.000000 -0.122869
#
#
# Mechanical properties :
#
#
# Convention : Reuss Voigt Hill
#
# Bulk Modulus (GPa) = 43.02808 54.23621 48.63214
# Shear Modulus (GPa) = -47.47017 17.67992 -14.89513
#
# Velocity S-wave (km/s) = -4.74927 2.89839 -2.66035
# Velocity P-wave (km/s) = 3.10310 6.08041 3.69744
#
# Compressibility (1/GPa) = 0.02324064
#
# Stress axis : x y z
#
# Youngs Moduli (GPa) = 106.57900 52.66048 92.07778
#
# Poissons Ratio (x) = 0.36798 0.20032
# Poissons Ratio (y) = 0.74476 -0.10749
# Poissons Ratio (z) = 0.23187 -0.06148
#
# Static dielectric constant tensor:
#      x y z
#    x 1.774270 0.000000 0.000000 
#    y 0.000000 1.759540 0.000000 
#    z 0.000000 0.000000 1.798430 
# 
# From -- ./inp_files/1109.got.cif
#   From: 2010.05.17/outbox.cif.g08.bks.cpg/sg47_1_cif.got.tgz:1109.got - 2010.06.03 20:15:42.
