data_PCOD9388936
_publ_section_title
;
Structure prediction by ZEFSAII (Michael W. Deem and Ramdas Pophale) SiO2 
 PCOD9388936
Probable space group: P M M M
;
_chemical_formula_sum "Si O2"
_cell_formula_units_Z 44
_cell_length_a 7.296258
_cell_length_b 8.903770
_cell_length_c 30.499424
_cell_angle_alpha 90.000000
_cell_angle_beta 90.000000
_cell_angle_gamma 90.000000
_cell_volume 1981.370775
_symmetry_space_group_name_H-M "P M M M"
_symmetry_group_IT_number 47
_symmetry_cell_setting 'orthorhombic'
loop_
_space_group_symop_operation_xyz
x,y,z
-x,-y,z
x,-y,-z
-x,y,-z
-x,-y,-z
x,y,-z
-x,y,z
x,-y,z
loop_
_atom_site_type_symbol
_atom_site_label
_atom_site_fract_x
_atom_site_fract_y
_atom_site_fract_z
Si Si1 0.776671 0.672346 0.863048
Si Si2 0.222636 0.824633 0.952458
Si Si3 0.282983 0.000000 0.552168
Si Si4 0.291469 0.673503 0.585118
Si Si5 0.776923 0.828114 0.773945
Si Si6 0.781573 0.672268 0.313569
O O1 0.726648 0.500000 0.864654
O O2 0.713174 0.750259 0.907691
O O3 0.714726 0.740829 0.817012
O O4 0.000000 0.683592 0.862882
O O5 0.000000 0.815521 0.952175
O O6 0.270295 0.000000 0.951392
O O7 0.281766 0.762238 0.000000
O O8 0.212197 0.834442 0.568194
O O9 0.500000 0.000000 0.564464
O O10 0.264866 0.000000 0.500000
O O11 0.500000 0.668273 0.567970
O O12 0.216739 0.500000 0.577091
O O13 0.294636 0.691750 0.637793
O O14 0.713255 0.770854 0.726645
O O15 0.000000 0.815185 0.772771
O O16 0.728941 0.000000 0.779621
O O17 0.751156 0.500000 0.300517
O O18 0.000000 0.696084 0.318237
#
# Coordination Sequence:
#
# PCOD9388936 Si02
#       6
#     8   8   4   8   8   8
#     4   9  15  21  29  41  60  86 117 158 204 248
#     4   8  13  20  28  37  51  75 110 153 200 248
#     4   9  18  32  51  75  99 123 155 193 226 261
#     4   9  18  32  50  72  97 124 153 187 227 268
#     4   9  16  24  35  52  73  99 132 169 209 254
#     4   9  17  29  45  65  89 117 149 185 223 264
#
# _framework density 22.206849999999999
#
# number of rings (size 3 to 8) (size 9 to 14) (size 15 to 20)
#    0.000    3.182    0.000    1.636    1.273    5.091 
#    0.000    3.636    0.000    1.091    0.000    2.545 
#    0.000    0.000    0.000    0.000    0.000    0.909 
#
# Total GULP energy -245249.925206 kJ/mol
# GULP energy per Si atom -5573.861937 kJ/mol
# Density = 2.215631 g / cm^3
# Si number density = 22.206850 Si / 1000 Ang^3
#
#
#
# Elastic Constant Matrix: (Units=GPa)
#
#
# Indices 1 2 3 4 5 6 
#
# 1 75.4548 26.0678 8.7744 0.0000 0.0000 0.0000
# 2 26.0678 128.4668 64.3862 0.0000 0.0000 0.0000
# 3 8.7744 64.3862 78.6376 0.0000 0.0000 0.0000
# 4 0.0000 0.0000 0.0000 76.9601 0.0000 0.0000
# 5 0.0000 0.0000 0.0000 0.0000 -3.8654 0.0000
# 6 0.0000 0.0000 0.0000 0.0000 0.0000 -14.3296
#
#
#
# Elastic Compliance Matrix: (Units=1/GPa)
#
#
# Indices 1 2 3 4 5 6 
#
# 1 0.014333 -0.003573 0.001326 0.000000 0.000000 0.000000
# 2 -0.003573 0.014092 -0.011140 0.000000 0.000000 0.000000
# 3 0.001326 -0.011140 0.021689 0.000000 0.000000 0.000000
# 4 0.000000 0.000000 0.000000 0.012994 0.000000 0.000000
# 5 0.000000 0.000000 0.000000 0.000000 -0.258703 0.000000
# 6 0.000000 0.000000 0.000000 0.000000 0.000000 -0.069786
#
#
# Mechanical properties :
#
#
# Convention : Reuss Voigt Hill
#
# Bulk Modulus (GPa) = 42.84153 53.44622 48.14387
# Shear Modulus (GPa) = -21.66130 23.97506 1.15688
#
# Velocity S-wave (km/s) = -3.12658 3.28933 0.72256
# Velocity P-wave (km/s) = 2.50996 6.20854 4.73528
#
# Compressibility (1/GPa) = 0.02334184
#
# Stress axis : x y z
#
# Youngs Moduli (GPa) = 69.76825 70.96122 46.10550
#
# Poissons Ratio (x) = 0.25355 -0.06115
# Poissons Ratio (y) = 0.24929 0.51360
# Poissons Ratio (z) = -0.09253 0.79048
#
# Static dielectric constant tensor:
#      x y z
#    x 2.012270 0.000000 0.000000 
#    y 0.000000 1.794250 0.000000 
#    z 0.000000 0.000000 1.787980 
# 
# From -- ./inp_files/2227.got.cif
#   From: 2010.05.17/outbox.cif.g08.bks.cpg/sg47_2_cif.got.tgz:2227.got - 2010.06.03 20:15:42.
