data_PCOD9388939
_publ_section_title
;
Structure prediction by ZEFSAII (Michael W. Deem and Ramdas Pophale) SiO2 
 PCOD9388939
Probable space group: P M M M
;
_chemical_formula_sum "Si O2"
_cell_formula_units_Z 48
_cell_length_a 32.015009
_cell_length_b 9.650895
_cell_length_c 7.331545
_cell_angle_alpha 90.000000
_cell_angle_beta 90.000000
_cell_angle_gamma 90.000000
_cell_volume 2265.253048
_symmetry_space_group_name_H-M "P M M M"
_symmetry_group_IT_number 47
_symmetry_cell_setting 'orthorhombic'
loop_
_space_group_symop_operation_xyz
x,y,z
-x,-y,z
x,-y,-z
-x,y,-z
-x,-y,-z
x,y,-z
-x,y,z
x,-y,z
loop_
_atom_site_type_symbol
_atom_site_label
_atom_site_fract_x
_atom_site_fract_y
_atom_site_fract_z
Si Si1 0.952638 0.841153 0.721995
Si Si2 0.623335 0.657418 0.781737
Si Si3 0.453700 0.160259 0.222243
Si Si4 0.205134 0.840442 0.722858
Si Si5 0.282613 0.658263 0.716799
Si Si6 0.125281 0.340620 0.277452
O O1 0.952494 0.840126 0.500000
O O2 0.917286 0.734651 0.781576
O O3 0.000000 0.807656 0.779043
O O4 0.943227 0.000000 0.776197
O O5 0.621120 0.500000 0.711679
O O6 0.585253 0.749837 0.713243
O O7 0.670163 0.709756 0.745910
O O8 0.619066 0.651471 0.000000
O O9 0.500000 0.209746 0.277548
O O10 0.449414 0.000000 0.276467
O O11 0.453247 0.162250 0.000000
O O12 0.205245 0.842480 0.500000
O O13 0.246871 0.760839 0.784499
O O14 0.164868 0.751409 0.778327
O O15 0.203308 0.000000 0.781756
O O16 0.276476 0.648650 0.500000
O O17 0.279503 0.500000 0.788859
O O18 0.125217 0.341727 0.500000
O O19 0.128291 0.500000 0.218748
#
# Coordination Sequence:
#
# PCOD9388939 Si02
#       6
#     8   8   8   8   8   8
#     4   8  13  20  28  38  55  81 113 150 192 235
#     4   9  17  28  43  64  86 106 131 164 199 234
#     4   8  14  25  41  61  84 108 133 162 196 232
#     4   9  16  25  37  52  69  91 123 161 196 231
#     4   9  17  29  43  58  79 106 133 162 198 238
#     4   9  15  21  30  44  62  85 115 153 195 236
#
# _framework density 21.189685000000001
#
# number of rings (size 3 to 8) (size 9 to 14) (size 15 to 20)
#    0.000    3.333    0.000    2.000    0.000    5.333 
#    0.000    3.333    0.000    0.500    0.000    3.500 
#    0.000    0.000    0.000    0.000    0.000    0.833 
#
# Total GULP energy -267897.725096 kJ/mol
# GULP energy per Si atom -5581.202606 kJ/mol
# Density = 2.114146 g / cm^3
# Si number density = 21.189685 Si / 1000 Ang^3
#
#
#
# Elastic Constant Matrix: (Units=GPa)
#
#
# Indices 1 2 3 4 5 6 
#
# 1 236.0717 153.3677 2.2876 0.0000 0.0000 0.0000
# 2 153.3677 160.7555 5.7013 0.0000 0.0000 0.0000
# 3 2.2876 5.7013 82.5506 0.0000 0.0000 0.0000
# 4 0.0000 0.0000 0.0000 -10.9189 0.0000 0.0000
# 5 0.0000 0.0000 0.0000 0.0000 10.0211 0.0000
# 6 0.0000 0.0000 0.0000 0.0000 0.0000 46.6734
#
#
#
# Elastic Compliance Matrix: (Units=1/GPa)
#
#
# Indices 1 2 3 4 5 6 
#
# 1 0.011157 -0.010659 0.000427 0.000000 0.000000 0.000000
# 2 -0.010659 0.016420 -0.000839 0.000000 0.000000 0.000000
# 3 0.000427 -0.000839 0.012160 0.000000 0.000000 0.000000
# 4 0.000000 0.000000 0.000000 -0.091585 0.000000 0.000000
# 5 0.000000 0.000000 0.000000 0.000000 0.099790 0.000000
# 6 0.000000 0.000000 0.000000 0.000000 0.000000 0.021425
#
#
# Mechanical properties :
#
#
# Convention : Reuss Voigt Hill
#
# Bulk Modulus (GPa) = 56.83534 89.12123 72.97829
# Shear Modulus (GPa) = 51.34880 30.35653 40.85267
#
# Velocity S-wave (km/s) = 4.92804 3.78909 4.39561
# Velocity P-wave (km/s) = 7.69812 7.82899 7.76383
#
# Compressibility (1/GPa) = 0.01759469
#
# Stress axis : x y z
#
# Youngs Moduli (GPa) = 89.63171 60.90250 82.23777
#
# Poissons Ratio (x) = 0.64917 -0.03512
# Poissons Ratio (y) = 0.95540 0.06897
# Poissons Ratio (z) = -0.03827 0.05107
#
# Static dielectric constant tensor:
#      x y z
#    x 1.732350 0.000000 0.000000 
#    y 0.000000 1.718500 0.000000 
#    z 0.000000 0.000000 1.890540 
# 
# From -- ./inp_files/4703.got.cif
#   From: 2010.05.17/outbox.cif.g08.bks.cpg/sg47_3_cif.got.tgz:4703.got - 2010.06.03 20:15:42.
