data_PCOD9388998
_publ_section_title
;
Structure prediction by ZEFSAII (Michael W. Deem and Ramdas Pophale) SiO2 
 PCOD9388998
Probable space group: P M M M
;
_chemical_formula_sum "Si O2"
_cell_formula_units_Z 48
_cell_length_a 7.662906
_cell_length_b 32.188936
_cell_length_c 9.860404
_cell_angle_alpha 90.000000
_cell_angle_beta 90.000000
_cell_angle_gamma 90.000000
_cell_volume 2432.175048
_symmetry_space_group_name_H-M "P M M M"
_symmetry_group_IT_number 47
_symmetry_cell_setting 'orthorhombic'
loop_
_space_group_symop_operation_xyz
x,y,z
-x,-y,z
x,-y,-z
-x,y,-z
-x,-y,-z
x,y,-z
-x,y,z
x,-y,z
loop_
_atom_site_type_symbol
_atom_site_label
_atom_site_fract_x
_atom_site_fract_y
_atom_site_fract_z
Si Si1 0.297423 0.712220 0.835543
Si Si2 0.795269 0.803946 0.846504
Si Si3 0.787299 0.952678 0.154472
Si Si4 0.214196 0.122464 0.655661
Si Si5 0.789998 0.546174 0.345440
Si Si6 0.290893 0.377193 0.153796
O O1 0.500000 0.714649 0.796486
O O2 0.218023 0.756370 0.797036
O O3 0.223793 0.667431 0.791177
O O4 0.286895 0.710228 0.000000
O O5 0.724894 0.837495 0.741182
O O6 0.000000 0.813374 0.859218
O O7 0.719982 0.806564 0.000000
O O8 0.730590 0.918647 0.262691
O O9 0.000000 0.952621 0.155138
O O10 0.731961 0.000000 0.183503
O O11 0.734488 0.942023 0.000000
O O12 0.271603 0.122974 0.500000
O O13 0.000000 0.122673 0.653653
O O14 0.728549 0.553138 0.500000
O O15 0.729522 0.500000 0.301941
O O16 0.742182 0.583543 0.247479
O O17 0.000000 0.544852 0.349323
O O18 0.500000 0.372117 0.144837
O O19 0.225281 0.384035 0.000000
#
# Coordination Sequence:
#
# PCOD9388998 Si02
#       6
#     8   8   8   8   8   8
#     4   8  15  29  47  66  89 115 143 179 221 261
#     4   9  16  26  42  62  82 108 143 177 209 251
#     4   8  13  21  33  49  71 102 139 175 210 251
#     4   9  16  24  34  51  78 109 138 172 214 255
#     4   9  19  35  51  68  94 127 160 192 226 267
#     4   9  18  32  50  73  98 121 149 189 234 277
#
# _framework density 19.735422
#
# number of rings (size 3 to 8) (size 9 to 14) (size 15 to 20)
#    0.000    3.333    0.000    2.500    0.000    4.333 
#    0.000    6.667    0.000    3.500    0.000    0.000 
#    0.000    0.667    0.000    7.667    0.000    9.833 
#
# Total GULP energy -267393.742295 kJ/mol
# GULP energy per Si atom -5570.702964 kJ/mol
# Density = 1.969050 g / cm^3
# Si number density = 19.735422 Si / 1000 Ang^3
#
#
#
# Elastic Constant Matrix: (Units=GPa)
#
#
# Indices 1 2 3 4 5 6 
#
# 1 30.7437 4.5403 6.3149 0.0000 0.0000 0.0000
# 2 4.5403 202.4423 125.9032 0.0000 0.0000 0.0000
# 3 6.3149 125.9032 118.7279 0.0000 0.0000 0.0000
# 4 0.0000 0.0000 0.0000 -14.6863 0.0000 0.0000
# 5 0.0000 0.0000 0.0000 0.0000 7.7914 0.0000
# 6 0.0000 0.0000 0.0000 0.0000 0.0000 29.9873
#
#
#
# Elastic Compliance Matrix: (Units=1/GPa)
#
#
# Indices 1 2 3 4 5 6 
#
# 1 0.032959 0.001031 -0.002846 0.000000 0.000000 0.000000
# 2 0.001031 0.014540 -0.015473 0.000000 0.000000 0.000000
# 3 -0.002846 -0.015473 0.024982 0.000000 0.000000 0.000000
# 4 0.000000 0.000000 0.000000 -0.068090 0.000000 0.000000
# 5 0.000000 0.000000 0.000000 0.000000 0.128347 0.000000
# 6 0.000000 0.000000 0.000000 0.000000 0.000000 0.033347
#
#
# Mechanical properties :
#
#
# Convention : Reuss Voigt Hill
#
# Bulk Modulus (GPa) = 26.38224 69.49229 47.93727
# Shear Modulus (GPa) = 23.44147 18.96216 21.20182
#
# Velocity S-wave (km/s) = 3.45017 3.10307 3.28121
# Velocity P-wave (km/s) = 5.41004 6.93737 6.22076
#
# Compressibility (1/GPa) = 0.03790429
#
# Stress axis : x y z
#
# Youngs Moduli (GPa) = 30.34033 68.77725 40.02822
#
# Poissons Ratio (x) = -0.07091 0.11394
# Poissons Ratio (y) = -0.03128 0.61937
# Poissons Ratio (z) = 0.08636 1.06421
#
# Static dielectric constant tensor:
#      x y z
#    x 1.752160 0.000000 0.000000 
#    y 0.000000 1.711800 0.000000 
#    z 0.000000 0.000000 1.666460 
# 
# From -- ./inp_files/2507.got.cif
#   From: 2010.05.17/outbox.cif.g08.bks.cpg/sg47_2_cif.got.tgz:2507.got - 2010.06.03 20:15:42.
