data_PCOD9388412
_publ_section_title
;
Structure prediction by ZEFSAII (Michael W. Deem and Ramdas Pophale) SiO2 
 PCOD9388412
Probable space group: P M M M
;
_chemical_formula_sum "Si O2"
_cell_formula_units_Z 44
_cell_length_a 9.003772
_cell_length_b 15.245163
_cell_length_c 17.479124
_cell_angle_alpha 90.000000
_cell_angle_beta 90.000000
_cell_angle_gamma 90.000000
_cell_volume 2399.253983
_symmetry_space_group_name_H-M "P M M M"
_symmetry_group_IT_number 47
_symmetry_cell_setting 'orthorhombic'
loop_
_space_group_symop_operation_xyz
x,y,z
-x,-y,z
x,-y,-z
-x,y,-z
-x,-y,-z
x,y,-z
-x,y,z
x,-y,z
loop_
_atom_site_type_symbol
_atom_site_label
_atom_site_fract_x
_atom_site_fract_y
_atom_site_fract_z
Si Si1 0.175916 0.831282 0.688904
Si Si2 0.322263 0.102128 0.000000
Si Si3 0.325118 0.650988 0.656098
Si Si4 0.175002 0.790676 0.863980
Si Si5 0.164853 0.603325 0.500000
Si Si6 0.179447 0.000000 0.412000
Si Si7 0.178932 0.403071 0.187549
O O1 0.281879 0.752229 0.666181
O O2 0.189469 0.836772 0.780819
O O3 0.000000 0.810465 0.674579
O O4 0.217416 0.915169 0.638589
O O5 0.262763 0.154707 0.926551
O O6 0.500000 0.102518 0.000000
O O7 0.272307 0.000000 0.000000
O O8 0.500000 0.635593 0.657285
O O9 0.254087 0.625276 0.575980
O O10 0.248572 0.603387 0.728038
O O11 0.222861 0.687794 0.855063
O O12 0.000000 0.789952 0.883825
O O13 0.146920 0.500000 0.500000
O O14 0.000000 0.645258 0.500000
O O15 0.235401 0.000000 0.500000
O O16 0.000000 0.000000 0.416924
O O17 0.216079 0.500000 0.154627
O O18 0.000000 0.398625 0.194531
#
# Coordination Sequence:
#
# PCOD9388412 Si02
#       7
#     8   4   8   8   4   4   8
#     4   9  19  36  58  83 111 147 190 232 279 338
#     4  11  25  41  58  83 116 152 191 235 292 351
#     4  11  22  34  51  78 112 146 184 230 283 339
#     4   9  19  36  60  88 115 147 190 235 280 334
#     4  11  23  37  53  72  99 140 189 239 286 331
#     4   9  18  32  55  86 111 140 189 242 284 328
#     4   9  18  36  61  86 113 147 187 228 274 335
#
# _framework density 18.339034000000002
#
# number of rings (size 3 to 8) (size 9 to 14) (size 15 to 20)
#    0.000    2.273    0.000    3.818    2.545    6.909 
#    0.000    0.909    0.000    3.273    0.000    0.000 
#    0.000    0.000    0.000    0.000    0.000    0.000 
#
# Total GULP energy -245314.588600 kJ/mol
# GULP energy per Si atom -5575.331559 kJ/mol
# Density = 1.829729 g / cm^3
# Si number density = 18.339034 Si / 1000 Ang^3
#
#
#
# Elastic Constant Matrix: (Units=GPa)
#
#
# Indices 1 2 3 4 5 6 
#
# 1 41.1215 32.1912 39.2608 0.0000 0.0000 0.0000
# 2 32.1912 135.6069 68.8347 0.0000 0.0000 0.0000
# 3 39.2608 68.8347 96.0305 0.0000 0.0000 0.0000
# 4 0.0000 0.0000 0.0000 9.8299 0.0000 0.0000
# 5 0.0000 0.0000 0.0000 0.0000 -20.4646 0.0000
# 6 0.0000 0.0000 0.0000 0.0000 0.0000 129.2974
#
#
#
# Elastic Compliance Matrix: (Units=1/GPa)
#
#
# Indices 1 2 3 4 5 6 
#
# 1 0.040193 -0.001886 -0.015080 0.000000 0.000000 0.000000
# 2 -0.001886 0.011681 -0.007601 0.000000 0.000000 0.000000
# 3 -0.015080 -0.007601 0.022027 0.000000 0.000000 0.000000
# 4 0.000000 0.000000 0.000000 0.101731 0.000000 0.000000
# 5 0.000000 0.000000 0.000000 0.000000 -0.048865 0.000000
# 6 0.000000 0.000000 0.000000 0.000000 0.000000 0.007734
#
#
# Mechanical properties :
#
#
# Convention : Reuss Voigt Hill
#
# Bulk Modulus (GPa) = 40.37990 61.48134 50.93062
# Shear Modulus (GPa) = 26.05640 32.56400 29.31020
#
# Velocity S-wave (km/s) = 3.77346 4.21844 4.00214
# Velocity P-wave (km/s) = 6.40716 7.57130 7.01343
#
# Compressibility (1/GPa) = 0.02476480
#
# Stress axis : x y z
#
# Youngs Moduli (GPa) = 24.88015 85.61220 45.39823
#
# Poissons Ratio (x) = 0.16151 0.68461
# Poissons Ratio (y) = 0.04694 0.34509
# Poissons Ratio (z) = 0.37519 0.65077
#
# Static dielectric constant tensor:
#      x y z
#    x 1.621920 0.000000 0.000000 
#    y 0.000000 1.672290 0.000000 
#    z 0.000000 0.000000 1.590180 
# 
# From -- ./inp_files/26437.got.cif
#   From: 2010.05.17/outbox.cif.g08.bks.cpg/sg47_14_cif.got.tgz:26437.got - 2010.06.03 20:15:42.
