data_PCOD9388669
_publ_section_title
;
Structure prediction by ZEFSAII (Michael W. Deem and Ramdas Pophale) SiO2 
 PCOD9388669
Probable space group: P M M M
;
_chemical_formula_sum "Si O2"
_cell_formula_units_Z 34
_cell_length_a 20.026857
_cell_length_b 10.662058
_cell_length_c 7.737506
_cell_angle_alpha 90.000000
_cell_angle_beta 90.000000
_cell_angle_gamma 90.000000
_cell_volume 1652.170397
_symmetry_space_group_name_H-M "P M M M"
_symmetry_group_IT_number 47
_symmetry_cell_setting 'orthorhombic'
loop_
_space_group_symop_operation_xyz
x,y,z
-x,-y,z
x,-y,-z
-x,y,-z
-x,-y,-z
x,y,-z
-x,y,z
x,-y,z
loop_
_atom_site_type_symbol
_atom_site_label
_atom_site_fract_x
_atom_site_fract_y
_atom_site_fract_z
Si Si1 0.176654 0.860791 0.796683
Si Si2 0.423235 0.855542 0.790713
Si Si3 0.077578 0.361655 0.291328
Si Si4 0.277373 0.500000 0.000000
Si Si5 0.296561 0.702081 0.691199
O O1 0.121259 0.753915 0.769697
O O2 0.243377 0.814792 0.704699
O O3 0.155305 0.000000 0.739635
O O4 0.190998 0.866274 0.000000
O O5 0.500000 0.827880 0.742732
O O6 0.369999 0.759946 0.715551
O O7 0.408885 0.000000 0.740937
O O8 0.419026 0.849517 0.000000
O O9 0.079499 0.362355 0.500000
O O10 0.102057 0.500000 0.231865
O O11 0.000000 0.349834 0.239402
O O12 0.280348 0.608552 0.846921
O O13 0.290026 0.646073 0.500000
#
# Coordination Sequence:
#
# PCOD9388669 Si02
#       5
#     8   8   8   2   8
#     4  11  24  41  62  91 130 170 211 268 329 384
#     4   9  18  37  66  96 129 169 211 264 328 386
#     4   9  20  39  62  90 124 164 214 269 322 382
#     4  12  26  48  63  90 129 170 216 266 324 388
#     4  12  25  42  67  95 126 167 216 267 324 385
#
# _framework density 20.578990999999998
#
# number of rings (size 3 to 8) (size 9 to 14) (size 15 to 20)
#    0.000    1.647    2.353    3.176    1.647    7.059 
#    0.000    5.882    0.000    1.412    0.000    0.000 
#    0.000    0.000    0.000    0.000    0.000    0.000 
#
# Total GULP energy -189474.624055 kJ/mol
# GULP energy per Si atom -5572.783060 kJ/mol
# Density = 2.053215 g / cm^3
# Si number density = 20.578991 Si / 1000 Ang^3
#
#
#
# Elastic Constant Matrix: (Units=GPa)
#
#
# Indices 1 2 3 4 5 6 
#
# 1 66.8241 56.4073 14.5996 0.0000 0.0000 0.0000
# 2 56.4073 155.9442 40.6625 0.0000 0.0000 0.0000
# 3 14.5996 40.6625 120.1982 0.0000 0.0000 0.0000
# 4 0.0000 0.0000 0.0000 -12.1603 0.0000 0.0000
# 5 0.0000 0.0000 0.0000 0.0000 27.8315 0.0000
# 6 0.0000 0.0000 0.0000 0.0000 0.0000 11.5401
#
#
#
# Elastic Compliance Matrix: (Units=1/GPa)
#
#
# Indices 1 2 3 4 5 6 
#
# 1 0.021542 -0.007798 0.000021 0.000000 0.000000 0.000000
# 2 -0.007798 0.009855 -0.002387 0.000000 0.000000 0.000000
# 3 0.000021 -0.002387 0.009124 0.000000 0.000000 0.000000
# 4 0.000000 0.000000 0.000000 -0.082235 0.000000 0.000000
# 5 0.000000 0.000000 0.000000 0.000000 0.035931 0.000000
# 6 0.000000 0.000000 0.000000 0.000000 0.000000 0.086654
#
#
# Mechanical properties :
#
#
# Convention : Reuss Voigt Hill
#
# Bulk Modulus (GPa) = 49.51580 62.92282 56.21931
# Shear Modulus (GPa) = 46.32604 20.86206 33.59405
#
# Velocity S-wave (km/s) = 4.74976 3.18741 4.04473
# Velocity P-wave (km/s) = 7.36165 6.64746 7.01365
#
# Compressibility (1/GPa) = 0.02019558
#
# Stress axis : x y z
#
# Youngs Moduli (GPa) = 46.42064 101.46644 109.59524
#
# Poissons Ratio (x) = 0.79120 -0.00234
# Poissons Ratio (y) = 0.36197 0.26160
# Poissons Ratio (z) = -0.00099 0.24219
#
# Static dielectric constant tensor:
#      x y z
#    x 1.722340 0.000000 0.000000 
#    y 0.000000 1.713130 0.000000 
#    z 0.000000 0.000000 1.751190 
# 
# From -- ./inp_files/1099.got.cif
#   From: 2010.05.17/outbox.cif.g08.bks.cpg/sg47_1_cif.got.tgz:1099.got - 2010.06.03 20:15:42.
