data_PCOD9388655
_publ_section_title
;
Structure prediction by ZEFSAII (Michael W. Deem and Ramdas Pophale) SiO2 
 PCOD9388655
Probable space group: P M M M
;
_chemical_formula_sum "Si O2"
_cell_formula_units_Z 36
_cell_length_a 24.110189
_cell_length_b 9.586287
_cell_length_c 8.001483
_cell_angle_alpha 90.000000
_cell_angle_beta 90.000000
_cell_angle_gamma 90.000000
_cell_volume 1849.360293
_symmetry_space_group_name_H-M "P M M M"
_symmetry_group_IT_number 47
_symmetry_cell_setting 'orthorhombic'
loop_
_space_group_symop_operation_xyz
x,y,z
-x,-y,z
x,-y,-z
-x,y,-z
-x,-y,-z
x,y,-z
-x,y,z
x,-y,z
loop_
_atom_site_type_symbol
_atom_site_label
_atom_site_fract_x
_atom_site_fract_y
_atom_site_fract_z
Si Si1 0.894648 0.158242 0.801304
Si Si2 0.789761 0.660688 0.701828
Si Si3 0.665615 0.338505 0.296183
Si Si4 0.000000 0.341764 0.301489
Si Si5 0.438803 0.837787 0.703990
O O1 0.837532 0.235018 0.756249
O O2 0.945692 0.254485 0.746193
O O3 0.897740 0.000000 0.732224
O O4 0.897781 0.148474 0.000000
O O5 0.789516 0.657971 0.500000
O O6 0.800047 0.500000 0.757234
O O7 0.727714 0.703259 0.757560
O O8 0.665459 0.331701 0.500000
O O9 0.657934 0.500000 0.250716
O O10 0.614147 0.247651 0.235324
O O11 0.000000 0.500000 0.230887
O O12 0.000000 0.354014 0.500000
O O13 0.438308 0.832374 0.500000
O O14 0.500000 0.786628 0.756858
O O15 0.434057 0.000000 0.750451
#
# Coordination Sequence:
#
# PCOD9388655 Si02
#       5
#     8   8   8   4   8
#     4  11  24  39  55  79 109 137 168 206 246 291
#     4   9  18  33  52  74 100 131 170 212 252 299
#     4   8  14  24  38  58  85 117 155 200 245 289
#     4  11  24  41  62  86 108 133 168 205 242 290
#     4   8  13  20  30  48  78 116 156 196 239 290
#
# _framework density 19.466190000000001
#
# number of rings (size 3 to 8) (size 9 to 14) (size 15 to 20)
#    0.000    2.778    0.000    4.000    0.000    8.444 
#    0.000    4.444    0.000    0.000    0.000    0.000 
#    0.000    0.889    0.000    9.778    0.000   16.000 
#
# Total GULP energy -200770.790195 kJ/mol
# GULP energy per Si atom -5576.966394 kJ/mol
# Density = 1.942188 g / cm^3
# Si number density = 19.466190 Si / 1000 Ang^3
#
#
#
# Elastic Constant Matrix: (Units=GPa)
#
#
# Indices 1 2 3 4 5 6 
#
# 1 224.2609 134.2306 16.1040 0.0000 0.0000 0.0000
# 2 134.2306 141.5157 15.0467 0.0000 0.0000 0.0000
# 3 16.1040 15.0467 21.0783 0.0000 0.0000 0.0000
# 4 0.0000 0.0000 0.0000 19.4380 0.0000 0.0000
# 5 0.0000 0.0000 0.0000 0.0000 -78.4483 0.0000
# 6 0.0000 0.0000 0.0000 0.0000 0.0000 82.6254
#
#
#
# Elastic Compliance Matrix: (Units=1/GPa)
#
#
# Indices 1 2 3 4 5 6 
#
# 1 0.010334 -0.009699 -0.000972 0.000000 0.000000 0.000000
# 2 -0.009699 0.016749 -0.004547 0.000000 0.000000 0.000000
# 3 -0.000972 -0.004547 0.051430 0.000000 0.000000 0.000000
# 4 0.000000 0.000000 0.000000 0.051446 0.000000 0.000000
# 5 0.000000 0.000000 0.000000 0.000000 -0.012747 0.000000
# 6 0.000000 0.000000 0.000000 0.000000 0.000000 0.012103
#
#
# Mechanical properties :
#
#
# Convention : Reuss Voigt Hill
#
# Bulk Modulus (GPa) = 20.79896 79.73528 50.26712
# Shear Modulus (GPa) = 28.44542 19.48791 23.96666
#
# Velocity S-wave (km/s) = 3.82681 3.16747 3.51264
# Velocity P-wave (km/s) = 5.49853 7.37747 6.50618
#
# Compressibility (1/GPa) = 0.04807932
#
# Stress axis : x y z
#
# Youngs Moduli (GPa) = 96.76809 59.70452 19.44380
#
# Poissons Ratio (x) = 0.57905 0.01890
# Poissons Ratio (y) = 0.93852 0.08840
# Poissons Ratio (z) = 0.09405 0.27145
#
# Static dielectric constant tensor:
#      x y z
#    x 1.709770 0.000000 0.000000 
#    y 0.000000 1.675380 0.000000 
#    z 0.000000 0.000000 1.697250 
# 
# From -- ./inp_files/12078.got.cif
#   From: 2010.05.17/outbox.cif.g08.bks.cpg/sg47_7_cif.got.tgz:12078.got - 2010.06.03 20:15:42.
