data_PCOD9388031
_publ_section_title
;
Structure prediction by ZEFSAII (Michael W. Deem and Ramdas Pophale) SiO2 
 PCOD9388031
Probable space group: P M M M
;
_chemical_formula_sum "Si O2"
_cell_formula_units_Z 48
_cell_length_a 8.434864
_cell_length_b 15.495506
_cell_length_c 17.733310
_cell_angle_alpha 90.000000
_cell_angle_beta 90.000000
_cell_angle_gamma 90.000000
_cell_volume 2317.787697
_symmetry_space_group_name_H-M "P M M M"
_symmetry_group_IT_number 47
_symmetry_cell_setting 'orthorhombic'
loop_
_space_group_symop_operation_xyz
x,y,z
-x,-y,z
x,-y,-z
-x,y,-z
-x,-y,-z
x,y,-z
-x,y,z
x,-y,z
loop_
_atom_site_type_symbol
_atom_site_label
_atom_site_fract_x
_atom_site_fract_y
_atom_site_fract_z
Si Si1 0.810652 0.407747 0.246268
Si Si2 0.312096 0.722306 0.361499
Si Si3 0.000000 0.101868 0.913087
Si Si4 0.672670 0.834478 0.087958
Si Si5 0.812861 0.351780 0.917760
Si Si6 0.693696 0.399471 0.500000
Si Si7 0.809161 0.904252 0.588031
O O1 0.751700 0.500000 0.277234
O O2 0.733658 0.325551 0.284840
O O3 0.782996 0.405404 0.156834
O O4 0.000000 0.403570 0.258263
O O5 0.500000 0.727707 0.368694
O O6 0.254235 0.656905 0.427614
O O7 0.246833 0.818745 0.369686
O O8 0.833840 0.129034 0.876460
O O9 0.000000 0.000000 0.918321
O O10 0.000000 0.137876 0.000000
O O11 0.500000 0.855014 0.120920
O O12 0.703196 0.732373 0.085681
O O13 0.669790 0.864881 0.000000
O O14 0.000000 0.325153 0.914067
O O15 0.790997 0.393173 0.000000
O O16 0.746361 0.500000 0.500000
O O17 0.500000 0.401629 0.500000
O O18 0.760033 0.895485 0.500000
O O19 0.000000 0.904723 0.589575
O O20 0.755605 0.000000 0.614308
#
# Coordination Sequence:
#
# PCOD9388031 Si02
#       7
#     8   8   4   8   8   4   8
#     4  10  22  38  56  83 118 155 198 246 297 359
#     4  11  21  35  56  83 119 161 200 244 295 344
#     4   9  16  26  42  68 103 137 171 218 278 343
#     4   9  16  27  46  72 101 134 175 222 276 342
#     4   9  17  33  57  80 106 144 190 243 302 360
#     4   9  18  32  50  75 110 156 205 243 280 337
#     4   9  18  34  58  88 121 155 193 241 295 351
#
# _framework density 20.709402999999998
#
# number of rings (size 3 to 8) (size 9 to 14) (size 15 to 20)
#    0.000    2.500    1.667    1.500    0.000    2.667 
#    0.000    4.167    0.000    3.000    0.000    5.833 
#    0.000    0.000    0.000    0.000    0.000    0.000 
#
# Total GULP energy -267548.639151 kJ/mol
# GULP energy per Si atom -5573.929982 kJ/mol
# Density = 2.066227 g / cm^3
# Si number density = 20.709403 Si / 1000 Ang^3
#
#
#
# Elastic Constant Matrix: (Units=GPa)
#
#
# Indices 1 2 3 4 5 6 
#
# 1 87.3401 39.9509 11.5704 0.0000 0.0000 0.0000
# 2 39.9509 161.6986 46.2385 0.0000 0.0000 0.0000
# 3 11.5704 46.2385 62.4710 0.0000 0.0000 0.0000
# 4 0.0000 0.0000 0.0000 48.7572 0.0000 0.0000
# 5 0.0000 0.0000 0.0000 0.0000 10.3254 0.0000
# 6 0.0000 0.0000 0.0000 0.0000 0.0000 10.0761
#
#
#
# Elastic Compliance Matrix: (Units=1/GPa)
#
#
# Indices 1 2 3 4 5 6 
#
# 1 0.012908 -0.003178 -0.000038 0.000000 0.000000 0.000000
# 2 -0.003178 0.008627 -0.005797 0.000000 0.000000 0.000000
# 3 -0.000038 -0.005797 0.020305 0.000000 0.000000 0.000000
# 4 0.000000 0.000000 0.000000 0.020510 0.000000 0.000000
# 5 0.000000 0.000000 0.000000 0.000000 0.096849 0.000000
# 6 0.000000 0.000000 0.000000 0.000000 0.000000 0.099245
#
#
# Mechanical properties :
#
#
# Convention : Reuss Voigt Hill
#
# Bulk Modulus (GPa) = 41.99257 56.33659 49.16458
# Shear Modulus (GPa) = 17.58028 28.08171 22.83099
#
# Velocity S-wave (km/s) = 2.91676 3.68637 3.32391
# Velocity P-wave (km/s) = 5.62711 6.73658 6.20669
#
# Compressibility (1/GPa) = 0.02381374
#
# Stress axis : x y z
#
# Youngs Moduli (GPa) = 77.46894 115.91155 49.24861
#
# Poissons Ratio (x) = 0.36840 0.00189
# Poissons Ratio (y) = 0.24622 0.28549
# Poissons Ratio (z) = 0.00297 0.67193
#
# Static dielectric constant tensor:
#      x y z
#    x 1.754800 0.000000 0.000000 
#    y 0.000000 1.746350 0.000000 
#    z 0.000000 0.000000 1.758930 
# 
# From -- ./inp_files/26497.got.cif
#   From: 2010.05.17/outbox.cif.g08.bks.cpg/sg47_14_cif.got.tgz:26497.got - 2010.06.03 20:15:42.
