data_PCOD9388274
_publ_section_title
;
Structure prediction by ZEFSAII (Michael W. Deem and Ramdas Pophale) SiO2 
 PCOD9388274
Probable space group: P M M M
;
_chemical_formula_sum "Si O2"
_cell_formula_units_Z 52
_cell_length_a 7.662395
_cell_length_b 21.037088
_cell_length_c 16.446353
_cell_angle_alpha 90.000000
_cell_angle_beta 90.000000
_cell_angle_gamma 90.000000
_cell_volume 2651.061285
_symmetry_space_group_name_H-M "P M M M"
_symmetry_group_IT_number 47
_symmetry_cell_setting 'orthorhombic'
loop_
_space_group_symop_operation_xyz
x,y,z
-x,-y,z
x,-y,-z
-x,y,-z
-x,-y,-z
x,y,-z
-x,y,z
x,-y,z
loop_
_atom_site_type_symbol
_atom_site_label
_atom_site_fract_x
_atom_site_fract_y
_atom_site_fract_z
Si Si1 0.210531 0.926891 0.590923
Si Si2 0.291633 0.172439 0.269272
Si Si3 0.712152 0.569119 0.404271
Si Si4 0.709322 0.572293 0.000000
Si Si5 0.795384 0.327175 0.865377
Si Si6 0.293843 0.814321 0.088509
Si Si7 0.699147 0.690189 0.687509
O O1 0.268814 0.905844 0.500000
O O2 0.264250 0.882666 0.665523
O O3 0.000000 0.927099 0.589678
O O4 0.268361 0.000000 0.602041
O O5 0.500000 0.181914 0.259623
O O6 0.224371 0.161732 0.176620
O O7 0.221204 0.239190 0.305700
O O8 0.748232 0.571031 0.500000
O O9 0.500000 0.569480 0.394562
O O10 0.772882 0.500000 0.372521
O O11 0.781538 0.633193 0.363556
O O12 0.768676 0.612847 0.077373
O O13 0.773397 0.500000 0.000000
O O14 0.500000 0.571301 0.000000
O O15 0.728121 0.262024 0.905880
O O16 0.699120 0.333777 0.780127
O O17 0.000000 0.318610 0.849571
O O18 0.500000 0.829292 0.086726
O O19 0.220610 0.834855 0.000000
O O20 0.500000 0.698396 0.657284
#
# Coordination Sequence:
#
# PCOD9388274 Si02
#       7
#     8   8   8   4   8   8   8
#     4   9  19  36  55  74 101 140 178 210 255 316
#     4   9  18  30  48  79 107 130 168 215 257 299
#     4   8  14  26  46  70  92 119 162 210 248 289
#     4  11  23  37  51  65  87 125 168 207 254 311
#     4  11  21  32  48  71  97 123 158 206 253 298
#     4   9  17  32  54  74 100 136 168 200 244 302
#     4   9  18  32  49  71 101 133 164 202 252 305
#
# _framework density 19.614785000000001
#
# number of rings (size 3 to 8) (size 9 to 14) (size 15 to 20)
#    0.000    2.692    0.769    3.462    0.000    4.923 
#    0.000    3.846    0.000    0.923    0.000    4.308 
#    0.000    0.000    0.000    0.000    0.000    0.000 
#
# Total GULP energy -289669.946106 kJ/mol
# GULP energy per Si atom -5570.575887 kJ/mol
# Density = 1.957014 g / cm^3
# Si number density = 19.614785 Si / 1000 Ang^3
#
#
#
# Elastic Constant Matrix: (Units=GPa)
#
#
# Indices 1 2 3 4 5 6 
#
# 1 42.9486 -3.5392 -2.9633 0.0000 0.0000 0.0000
# 2 -3.5392 98.2784 84.7935 0.0000 0.0000 0.0000
# 3 -2.9633 84.7935 133.3150 0.0000 0.0000 0.0000
# 4 0.0000 0.0000 0.0000 39.0016 0.0000 0.0000
# 5 0.0000 0.0000 0.0000 0.0000 87.4743 0.0000
# 6 0.0000 0.0000 0.0000 0.0000 0.0000 30.1021
#
#
#
# Elastic Compliance Matrix: (Units=1/GPa)
#
#
# Indices 1 2 3 4 5 6 
#
# 1 0.023353 0.000871 -0.000035 0.000000 0.000000 0.000000
# 2 0.000871 0.022582 -0.014344 0.000000 0.000000 0.000000
# 3 -0.000035 -0.014344 0.016623 0.000000 0.000000 0.000000
# 4 0.000000 0.000000 0.000000 0.025640 0.000000 0.000000
# 5 0.000000 0.000000 0.000000 0.000000 0.011432 0.000000
# 6 0.000000 0.000000 0.000000 0.000000 0.000000 0.033220
#
#
# Mechanical properties :
#
#
# Convention : Reuss Voigt Hill
#
# Bulk Modulus (GPa) = 28.13455 47.90266 38.01861
# Shear Modulus (GPa) = 29.11819 44.39900 36.75859
#
# Velocity S-wave (km/s) = 3.85710 4.76284 4.33370
# Velocity P-wave (km/s) = 5.84902 7.39736 6.66828
#
# Compressibility (1/GPa) = 0.03554348
#
# Stress axis : x y z
#
# Youngs Moduli (GPa) = 42.82097 44.28261 60.15589
#
# Poissons Ratio (x) = -0.03858 0.00211
# Poissons Ratio (y) = -0.03731 0.86286
# Poissons Ratio (z) = 0.00150 0.63518
#
# Static dielectric constant tensor:
#      x y z
#    x 1.740800 0.000000 0.000000 
#    y 0.000000 1.679690 0.000000 
#    z 0.000000 0.000000 1.699310 
# 
# From -- ./inp_files/26751.got.cif
#   From: 2010.05.17/outbox.cif.g08.bks.cpg/sg47_14_cif.got.tgz:26751.got - 2010.06.03 20:15:42.
