data_PCOD9388029
_publ_section_title
;
Structure prediction by ZEFSAII (Michael W. Deem and Ramdas Pophale) SiO2 
 PCOD9388029
Probable space group: P M M M
;
_chemical_formula_sum "Si O2"
_cell_formula_units_Z 48
_cell_length_a 8.606722
_cell_length_b 10.261107
_cell_length_c 29.815401
_cell_angle_alpha 90.000000
_cell_angle_beta 90.000000
_cell_angle_gamma 90.000000
_cell_volume 2633.132093
_symmetry_space_group_name_H-M "P M M M"
_symmetry_group_IT_number 47
_symmetry_cell_setting 'orthorhombic'
loop_
_space_group_symop_operation_xyz
x,y,z
-x,-y,z
x,-y,-z
-x,y,-z
-x,-y,-z
x,y,-z
-x,y,z
x,-y,z
loop_
_atom_site_type_symbol
_atom_site_label
_atom_site_fract_x
_atom_site_fract_y
_atom_site_fract_z
Si Si1 0.686059 0.649701 0.773874
Si Si2 0.681055 0.000000 0.553442
Si Si3 0.187890 0.151942 0.700259
Si Si4 0.814594 0.751299 0.602216
Si Si5 0.314250 0.500000 0.448047
Si Si6 0.810608 0.149512 0.949139
Si Si7 0.812410 0.649713 0.873283
O O1 0.500000 0.653029 0.772207
O O2 0.736229 0.500000 0.762785
O O3 0.752709 0.756833 0.740139
O O4 0.742105 0.676807 0.824483
O O5 0.765244 0.874314 0.572806
O O6 0.500000 0.000000 0.567132
O O7 0.687171 0.000000 0.500000
O O8 0.237164 0.216217 0.652979
O O9 0.000000 0.150761 0.701043
O O10 0.238732 0.000000 0.702888
O O11 0.741938 0.625324 0.579280
O O12 0.000000 0.737022 0.602756
O O13 0.500000 0.500000 0.449695
O O14 0.257487 0.500000 0.500000
O O15 0.758272 0.250096 0.911332
O O16 0.000000 0.151847 0.949012
O O17 0.764206 0.000000 0.939831
O O18 0.761905 0.183014 0.000000
O O19 0.774238 0.500000 0.885253
O O20 0.000000 0.658947 0.869863
#
# Coordination Sequence:
#
# PCOD9388029 Si02
#       7
#     8   4   8   8   4   8   8
#     4  10  22  38  56  81 111 145 185 228 276 332
#     4  11  23  39  61  89 121 157 191 229 282 337
#     4  10  22  41  61  84 113 143 180 228 280 332
#     4  11  23  41  63  89 117 150 193 238 283 335
#     4  11  25  43  61  87 123 157 191 233 282 337
#     4   8  14  25  43  70 103 136 173 220 272 324
#     4   9  17  30  49  74 103 137 177 222 273 324
#
# _framework density 18.229241999999999
#
# number of rings (size 3 to 8) (size 9 to 14) (size 15 to 20)
#    0.000    2.167    0.833    2.500    1.167    7.000 
#    0.000    3.333    0.000    0.500    0.000    3.500 
#    0.000    0.000    0.000    0.000    0.000    0.000 
#
# Total GULP energy -267900.439094 kJ/mol
# GULP energy per Si atom -5581.259148 kJ/mol
# Density = 1.818775 g / cm^3
# Si number density = 18.229242 Si / 1000 Ang^3
#
#
#
# Elastic Constant Matrix: (Units=GPa)
#
#
# Indices 1 2 3 4 5 6 
#
# 1 19.9724 33.4421 33.0867 0.0000 0.0000 0.0000
# 2 33.4421 179.8216 125.3081 0.0000 0.0000 0.0000
# 3 33.0867 125.3081 157.6622 0.0000 0.0000 0.0000
# 4 0.0000 0.0000 0.0000 42.0205 0.0000 0.0000
# 5 0.0000 0.0000 0.0000 0.0000 -715.5739 0.0000
# 6 0.0000 0.0000 0.0000 0.0000 0.0000 14.4105
#
#
#
# Elastic Compliance Matrix: (Units=1/GPa)
#
#
# Indices 1 2 3 4 5 6 
#
# 1 0.080694 -0.007187 -0.011222 0.000000 0.000000 0.000000
# 2 -0.007187 0.013104 -0.008907 0.000000 0.000000 0.000000
# 3 -0.011222 -0.008907 0.015777 0.000000 0.000000 0.000000
# 4 0.000000 0.000000 0.000000 0.023798 0.000000 0.000000
# 5 0.000000 0.000000 0.000000 0.000000 -0.001397 0.000000
# 6 0.000000 0.000000 0.000000 0.000000 0.000000 0.069394
#
#
# Mechanical properties :
#
#
# Convention : Reuss Voigt Hill
#
# Bulk Modulus (GPa) = 18.20070 82.34779 50.27424
# Shear Modulus (GPa) = 18.22715 -120.78727 -51.28006
#
# Velocity S-wave (km/s) = 3.16553 -8.14887 -5.30959
# Velocity P-wave (km/s) = 4.83392 6.57778 3.15439
#
# Compressibility (1/GPa) = 0.05494295
#
# Stress axis : x y z
#
# Youngs Moduli (GPa) = 12.39255 76.30968 63.38306
#
# Poissons Ratio (x) = 0.54841 0.71131
# Poissons Ratio (y) = 0.08906 0.56456
# Poissons Ratio (z) = 0.13907 0.67970
#
# Static dielectric constant tensor:
#      x y z
#    x 1.617260 0.000000 0.000000 
#    y 0.000000 1.603040 0.000000 
#    z 0.000000 0.000000 1.606060 
# 
# From -- ./inp_files/2815.got.cif
#   From: 2010.05.17/outbox.cif.g08.bks.cpg/sg47_2_cif.got.tgz:2815.got - 2010.06.03 20:15:42.
