data_PCOD9388490
_publ_section_title
;
Structure prediction by ZEFSAII (Michael W. Deem and Ramdas Pophale) SiO2 
 PCOD9388490
Probable space group: P M M M
;
_chemical_formula_sum "Si O2"
_cell_formula_units_Z 48
_cell_length_a 9.035556
_cell_length_b 30.440503
_cell_length_c 10.160910
_cell_angle_alpha 90.000000
_cell_angle_beta 90.000000
_cell_angle_gamma 90.000000
_cell_volume 2794.726487
_symmetry_space_group_name_H-M "P M M M"
_symmetry_group_IT_number 47
_symmetry_cell_setting 'orthorhombic'
loop_
_space_group_symop_operation_xyz
x,y,z
-x,-y,z
x,-y,-z
-x,y,-z
-x,-y,-z
x,y,-z
-x,y,z
x,-y,z
loop_
_atom_site_type_symbol
_atom_site_label
_atom_site_fract_x
_atom_site_fract_y
_atom_site_fract_z
Si Si1 0.671493 0.947595 0.500000
Si Si2 0.820129 0.194475 0.347574
Si Si3 0.330831 0.363152 0.160035
Si Si4 0.178116 0.902918 0.747253
Si Si5 0.677914 0.052175 0.000000
Si Si6 0.826655 0.548431 0.159954
Si Si7 0.178552 0.272022 0.847005
O O1 0.500000 0.932494 0.500000
O O2 0.758544 0.929979 0.374687
O O3 0.670295 0.000000 0.500000
O O4 0.769151 0.196723 0.500000
O O5 0.782088 0.147891 0.281434
O O6 0.771091 0.234328 0.253831
O O7 0.000000 0.196043 0.351833
O O8 0.500000 0.359151 0.202797
O O9 0.260479 0.408890 0.207358
O O10 0.239950 0.319549 0.194042
O O11 0.329100 0.364960 0.000000
O O12 0.253027 0.923517 0.874858
O O13 0.000000 0.905988 0.755591
O O14 0.500000 0.055781 0.000000
O O15 0.714195 0.000000 0.000000
O O16 0.773264 0.500000 0.203056
O O17 0.000000 0.552366 0.193517
O O18 0.818678 0.548538 0.000000
O O19 0.000000 0.273314 0.845330
O O20 0.222925 0.263436 0.000000
#
# Coordination Sequence:
#
# PCOD9388490 Si02
#       7
#     4   8   8   8   4   8   8
#     4  11  23  39  59  83 115 151 181 213 262 323
#     4   9  18  34  55  80 106 130 164 215 265 305
#     4   9  16  25  37  57  89 123 158 203 249 292
#     4  11  22  38  62  88 112 140 181 229 268 311
#     4  11  25  43  59  81 117 153 181 215 266 323
#     4   8  13  21  34  53  80 117 160 201 241 292
#     4   9  17  29  49  71  93 128 168 202 246 305
#
# _framework density 17.175205999999999
#
# number of rings (size 3 to 8) (size 9 to 14) (size 15 to 20)
#    0.000    2.500    0.833    2.500    1.167    5.667 
#    0.000    3.333    0.000    0.000    0.000    0.000 
#    0.000    0.667    0.000    7.667    0.000    9.833 
#
# Total GULP energy -267512.788116 kJ/mol
# GULP energy per Si atom -5573.183086 kJ/mol
# Density = 1.713611 g / cm^3
# Si number density = 17.175206 Si / 1000 Ang^3
#
#
#
# Elastic Constant Matrix: (Units=GPa)
#
#
# Indices 1 2 3 4 5 6 
#
# 1 51.5234 56.5950 36.2346 0.0000 0.0000 0.0000
# 2 56.5950 172.8038 76.3191 0.0000 0.0000 0.0000
# 3 36.2346 76.3191 106.9693 0.0000 0.0000 0.0000
# 4 0.0000 0.0000 0.0000 18.0002 0.0000 0.0000
# 5 0.0000 0.0000 0.0000 0.0000 9.7419 0.0000
# 6 0.0000 0.0000 0.0000 0.0000 0.0000 -20.5338
#
#
#
# Elastic Compliance Matrix: (Units=1/GPa)
#
#
# Indices 1 2 3 4 5 6 
#
# 1 0.031986 -0.008309 -0.004907 0.000000 0.000000 0.000000
# 2 -0.008309 0.010608 -0.004754 0.000000 0.000000 0.000000
# 3 -0.004907 -0.004754 0.014402 0.000000 0.000000 0.000000
# 4 0.000000 0.000000 0.000000 0.055555 0.000000 0.000000
# 5 0.000000 0.000000 0.000000 0.000000 0.102649 0.000000
# 6 0.000000 0.000000 0.000000 0.000000 0.000000 -0.048700
#
#
# Mechanical properties :
#
#
# Convention : Reuss Voigt Hill
#
# Bulk Modulus (GPa) = 47.48949 74.39934 60.94442
# Shear Modulus (GPa) = 23.87118 12.25150 18.06134
#
# Velocity S-wave (km/s) = 3.73213 2.67371 3.24635
# Velocity P-wave (km/s) = 6.80307 7.27623 7.04363
#
# Compressibility (1/GPa) = 0.02105729
#
# Stress axis : x y z
#
# Youngs Moduli (GPa) = 31.26365 94.27269 69.43345
#
# Poissons Ratio (x) = 0.78327 0.34071
# Poissons Ratio (y) = 0.25976 0.33007
# Poissons Ratio (z) = 0.15341 0.44814
#
# Static dielectric constant tensor:
#      x y z
#    x 1.571980 0.000000 0.000000 
#    y 0.000000 1.584880 0.000000 
#    z 0.000000 0.000000 1.536260 
# 
# From -- ./inp_files/2664.got.cif
#   From: 2010.05.17/outbox.cif.g08.bks.cpg/sg47_2_cif.got.tgz:2664.got - 2010.06.03 20:15:42.
