data_PCOD9388795
_publ_section_title
;
Structure prediction by ZEFSAII (Michael W. Deem and Ramdas Pophale) SiO2 
 PCOD9388795
Probable space group: P M M M
;
_chemical_formula_sum "Si O2"
_cell_formula_units_Z 36
_cell_length_a 24.476399
_cell_length_b 7.471151
_cell_length_c 9.860734
_cell_angle_alpha 90.000000
_cell_angle_beta 90.000000
_cell_angle_gamma 90.000000
_cell_volume 1803.201591
_symmetry_space_group_name_H-M "P M M M"
_symmetry_group_IT_number 47
_symmetry_cell_setting 'orthorhombic'
loop_
_space_group_symop_operation_xyz
x,y,z
-x,-y,z
x,-y,-z
-x,y,-z
-x,-y,-z
x,y,-z
-x,y,z
x,-y,z
loop_
_atom_site_type_symbol
_atom_site_label
_atom_site_fract_x
_atom_site_fract_y
_atom_site_fract_z
Si Si1 0.058832 0.713051 0.164158
Si Si2 0.176693 0.714001 0.153668
Si Si3 0.500000 0.780934 0.156267
Si Si4 0.277675 0.785563 0.347333
Si Si5 0.400186 0.781782 0.656455
O O1 0.057401 0.500000 0.192898
O O2 0.118103 0.782875 0.209481
O O3 0.000000 0.786817 0.211168
O O4 0.059908 0.731626 0.000000
O O5 0.170339 0.500000 0.144117
O O6 0.228786 0.745406 0.246339
O O7 0.185162 0.781786 0.000000
O O8 0.553506 0.722715 0.239544
O O9 0.500000 0.000000 0.155959
O O10 0.500000 0.723701 0.000000
O O11 0.266314 0.719539 0.500000
O O12 0.338561 0.723320 0.307304
O O13 0.281295 0.000000 0.354186
O O14 0.411208 0.729092 0.500000
O O15 0.401000 0.000000 0.657686
#
# Coordination Sequence:
#
# PCOD9388795 Si02
#       5
#     8   8   4   8   8
#     4   7  10  19  37  60  84 108 135 171 214 256
#     4   9  17  28  44  68  92 112 140 179 221 263
#     4   9  15  21  33  57  84 105 130 169 214 254
#     4   9  18  31  45  62  86 118 153 182 210 251
#     4   8  14  25  39  54  76 108 142 173 206 246
#
# _framework density 19.964490000000001
#
# number of rings (size 3 to 8) (size 9 to 14) (size 15 to 20)
#    0.000    3.667    0.000    3.667    0.000    3.111 
#    0.000    2.222    0.000    1.333    0.000    8.556 
#    0.000    6.222    0.000    0.000    0.000    0.000 
#
# Total GULP energy -200453.875234 kJ/mol
# GULP energy per Si atom -5568.163201 kJ/mol
# Density = 1.991905 g / cm^3
# Si number density = 19.964490 Si / 1000 Ang^3
#
#
#
# Elastic Constant Matrix: (Units=GPa)
#
#
# Indices 1 2 3 4 5 6 
#
# 1 254.9149 8.2828 130.5673 0.0000 0.0000 0.0000
# 2 8.2828 54.2493 3.7858 0.0000 0.0000 0.0000
# 3 130.5673 3.7858 98.7241 0.0000 0.0000 0.0000
# 4 0.0000 0.0000 0.0000 8.5307 0.0000 0.0000
# 5 0.0000 0.0000 0.0000 0.0000 175.0230 0.0000
# 6 0.0000 0.0000 0.0000 0.0000 0.0000 15.3013
#
#
#
# Elastic Compliance Matrix: (Units=1/GPa)
#
#
# Indices 1 2 3 4 5 6 
#
# 1 0.012190 -0.000738 -0.016093 0.000000 0.000000 0.000000
# 2 -0.000738 0.018528 0.000266 0.000000 0.000000 0.000000
# 3 -0.016093 0.000266 0.031403 0.000000 0.000000 0.000000
# 4 0.000000 0.000000 0.000000 0.117223 0.000000 0.000000
# 5 0.000000 0.000000 0.000000 0.000000 0.005714 0.000000
# 6 0.000000 0.000000 0.000000 0.000000 0.000000 0.065354
#
#
# Mechanical properties :
#
#
# Convention : Reuss Voigt Hill
#
# Bulk Modulus (GPa) = 34.49563 77.01780 55.75671
# Shear Modulus (GPa) = 17.05282 57.45448 37.25365
#
# Velocity S-wave (km/s) = 2.92577 5.37036 4.32440
# Velocity P-wave (km/s) = 5.35999 8.78155 7.27479
#
# Compressibility (1/GPa) = 0.02898918
#
# Stress axis : x y z
#
# Youngs Moduli (GPa) = 82.03491 53.97362 31.84365
#
# Poissons Ratio (x) = 0.03984 0.51247
# Poissons Ratio (y) = 0.06055 -0.00846
# Poissons Ratio (z) = 1.32023 -0.01434
#
# Static dielectric constant tensor:
#      x y z
#    x 1.748580 0.000000 0.000000 
#    y 0.000000 1.805470 0.000000 
#    z 0.000000 0.000000 1.672260 
# 
# From -- ./inp_files/10576.got.cif
#   From: 2010.05.17/outbox.cif.g08.bks.cpg/sg47_6_cif.got.tgz:10576.got - 2010.06.03 20:15:42.
