data_PCOD9388194
_publ_section_title
;
Structure prediction by ZEFSAII (Michael W. Deem and Ramdas Pophale) SiO2 
 PCOD9388194
Probable space group: P M M M
;
_chemical_formula_sum "Si O2"
_cell_formula_units_Z 52
_cell_length_a 23.764848
_cell_length_b 14.485966
_cell_length_c 8.774916
_cell_angle_alpha 90.000000
_cell_angle_beta 90.000000
_cell_angle_gamma 90.000000
_cell_volume 3020.824328
_symmetry_space_group_name_H-M "P M M M"
_symmetry_group_IT_number 47
_symmetry_cell_setting 'orthorhombic'
loop_
_space_group_symop_operation_xyz
x,y,z
-x,-y,z
x,-y,-z
-x,y,-z
-x,-y,-z
x,y,-z
-x,y,z
x,-y,z
loop_
_atom_site_type_symbol
_atom_site_label
_atom_site_fract_x
_atom_site_fract_y
_atom_site_fract_z
Si Si1 0.220251 0.605160 0.817121
Si Si2 0.646850 0.394556 0.183013
Si Si3 0.936896 0.106667 0.685437
Si Si4 0.500000 0.891858 0.182899
Si Si5 0.825987 0.787775 0.682799
Si Si6 0.718244 0.109868 0.181010
Si Si7 0.391288 0.791518 0.318707
O O1 0.205280 0.500000 0.775557
O O2 0.286654 0.618200 0.781520
O O3 0.184571 0.683395 0.735667
O O4 0.214914 0.614285 0.000000
O O5 0.631738 0.500000 0.224101
O O6 0.612587 0.314573 0.264707
O O7 0.641070 0.385481 0.000000
O O8 0.937185 0.107880 0.500000
O O9 0.885882 0.171326 0.735105
O O10 0.000000 0.133218 0.735454
O O11 0.926845 0.000000 0.730615
O O12 0.444824 0.842295 0.247322
O O13 0.500000 0.000000 0.225572
O O14 0.500000 0.886022 0.000000
O O15 0.823175 0.793496 0.500000
O O16 0.775482 0.848129 0.752512
O O17 0.665031 0.158514 0.258481
O O18 0.716191 0.000000 0.205680
O O19 0.715960 0.128029 0.000000
O O20 0.393551 0.796576 0.500000
#
# Coordination Sequence:
#
# PCOD9388194 Si02
#       7
#     8   8   8   4   8   8   8
#     4   9  18  33  53  76 106 145 182 216 263 327
#     4   9  18  35  59  83 110 147 185 219 263 325
#     4   8  15  29  48  71 104 145 182 217 265 326
#     4  11  25  45  66  83 106 149 195 226 262 323
#     4  11  20  30  51  83 110 134 174 229 280 322
#     4  11  23  37  53  75 108 148 183 217 265 326
#     4  12  24  38  59  87 115 142 177 229 279 319
#
# _framework density 17.213844999999999
#
# number of rings (size 3 to 8) (size 9 to 14) (size 15 to 20)
#    0.000    1.923    1.538    4.846    0.000    4.923 
#    0.000    1.923    0.000    4.615    0.000    8.615 
#    0.000    0.000    0.000    0.000    0.000    0.000 
#
# Total GULP energy -290361.978172 kJ/mol
# GULP energy per Si atom -5583.884196 kJ/mol
# Density = 1.717467 g / cm^3
# Si number density = 17.213845 Si / 1000 Ang^3
#
#
#
# Elastic Constant Matrix: (Units=GPa)
#
#
# Indices 1 2 3 4 5 6 
#
# 1 134.8407 93.3634 46.4117 0.0000 0.0000 0.0000
# 2 93.3634 148.3178 64.6583 0.0000 0.0000 0.0000
# 3 46.4117 64.6583 57.0673 0.0000 0.0000 0.0000
# 4 0.0000 0.0000 0.0000 11.2622 0.0000 0.0000
# 5 0.0000 0.0000 0.0000 0.0000 -22.0451 0.0000
# 6 0.0000 0.0000 0.0000 0.0000 0.0000 29.7468
#
#
#
# Elastic Compliance Matrix: (Units=1/GPa)
#
#
# Indices 1 2 3 4 5 6 
#
# 1 0.013344 -0.007249 -0.002638 0.000000 0.000000 0.000000
# 2 -0.007249 0.017261 -0.013662 0.000000 0.000000 0.000000
# 3 -0.002638 -0.013662 0.035148 0.000000 0.000000 0.000000
# 4 0.000000 0.000000 0.000000 0.088793 0.000000 0.000000
# 5 0.000000 0.000000 0.000000 0.000000 -0.045362 0.000000
# 6 0.000000 0.000000 0.000000 0.000000 0.000000 0.033617
#
#
# Mechanical properties :
#
#
# Convention : Reuss Voigt Hill
#
# Bulk Modulus (GPa) = 53.60803 83.23250 68.42026
# Shear Modulus (GPa) = 25.49479 12.84562 19.17020
#
# Velocity S-wave (km/s) = 3.85263 2.73470 3.34076
# Velocity P-wave (km/s) = 7.14145 7.64385 7.39692
#
# Compressibility (1/GPa) = 0.01865392
#
# Stress axis : x y z
#
# Youngs Moduli (GPa) = 74.94096 57.93273 28.45125
#
# Poissons Ratio (x) = 0.41998 0.07507
# Poissons Ratio (y) = 0.54328 0.38869
# Poissons Ratio (z) = 0.19773 0.79146
#
# Static dielectric constant tensor:
#      x y z
#    x 1.560940 0.000000 0.000000 
#    y 0.000000 1.584090 0.000000 
#    z 0.000000 0.000000 1.578190 
# 
# From -- ./inp_files/10943.got.cif
#   From: 2010.05.17/outbox.cif.g08.bks.cpg/sg47_6_cif.got.tgz:10943.got - 2010.06.03 20:15:42.
