data_PCOD9388139
_publ_section_title
;
Structure prediction by ZEFSAII (Michael W. Deem and Ramdas Pophale) SiO2 
 PCOD9388139
Probable space group: P M M M
;
_chemical_formula_sum "Si O2"
_cell_formula_units_Z 40
_cell_length_a 8.526441
_cell_length_b 21.011130
_cell_length_c 12.131911
_cell_angle_alpha 90.000000
_cell_angle_beta 90.000000
_cell_angle_gamma 90.000000
_cell_volume 2173.433800
_symmetry_space_group_name_H-M "P M M M"
_symmetry_group_IT_number 47
_symmetry_cell_setting 'orthorhombic'
loop_
_space_group_symop_operation_xyz
x,y,z
-x,-y,z
x,-y,-z
-x,y,-z
-x,-y,-z
x,y,-z
-x,y,z
x,-y,z
loop_
_atom_site_type_symbol
_atom_site_label
_atom_site_fract_x
_atom_site_fract_y
_atom_site_fract_z
Si Si1 0.687293 0.930416 0.240144
Si Si2 0.318737 0.231381 0.000000
Si Si3 0.188818 0.190728 0.625368
Si Si4 0.812977 0.301180 0.789773
Si Si5 0.817815 0.095172 0.000000
Si Si6 0.311046 0.573372 0.871313
O O1 0.500000 0.926856 0.245160
O O2 0.754519 0.869857 0.304489
O O3 0.737372 0.000000 0.284816
O O4 0.739235 0.927543 0.112757
O O5 0.280943 0.271921 0.892483
O O6 0.205634 0.171001 0.000000
O O7 0.500000 0.210400 0.000000
O O8 0.247643 0.188022 0.500000
O O9 0.230231 0.256960 0.685949
O O10 0.000000 0.188012 0.623174
O O11 0.767624 0.375193 0.791836
O O12 0.000000 0.294837 0.807672
O O13 0.000000 0.078244 0.000000
O O14 0.500000 0.579633 0.865946
O O15 0.271315 0.500000 0.846483
O O16 0.265764 0.585273 0.000000
#
# Coordination Sequence:
#
# PCOD9388139 Si02
#       6
#     8   4   8   8   4   8
#     4  11  24  40  59  85 116 149 185 231 287 343
#     4  12  22  33  54  83 116 150 182 224 282 341
#     4  10  23  42  61  81 109 148 193 240 288 338
#     4  11  21  34  56  85 114 145 188 235 278 332
#     4  12  23  37  58  86 117 149 186 227 277 342
#     4   9  18  32  51  79 117 156 186 218 272 338
#
# _framework density 18.404057000000002
#
# number of rings (size 3 to 8) (size 9 to 14) (size 15 to 20)
#    0.000    1.400    3.000    3.900    0.000    4.800 
#    0.000    3.000    0.000    0.600    0.000    4.200 
#    0.000    0.000    0.000    0.000    0.000    0.000 
#
# Total GULP energy -223368.383860 kJ/mol
# GULP energy per Si atom -5584.209597 kJ/mol
# Density = 1.836217 g / cm^3
# Si number density = 18.404057 Si / 1000 Ang^3
#
#
#
# Elastic Constant Matrix: (Units=GPa)
#
#
# Indices 1 2 3 4 5 6 
#
# 1 30.4850 23.8517 22.5950 0.0000 0.0000 0.0000
# 2 23.8517 156.2302 63.8300 0.0000 0.0000 0.0000
# 3 22.5950 63.8300 114.3995 0.0000 0.0000 0.0000
# 4 0.0000 0.0000 0.0000 23.7405 0.0000 0.0000
# 5 0.0000 0.0000 0.0000 0.0000 -307.7713 0.0000
# 6 0.0000 0.0000 0.0000 0.0000 0.0000 33.9564
#
#
#
# Elastic Compliance Matrix: (Units=1/GPa)
#
#
# Indices 1 2 3 4 5 6 
#
# 1 0.040042 -0.003733 -0.005826 0.000000 0.000000 0.000000
# 2 -0.003733 0.008639 -0.004083 0.000000 0.000000 0.000000
# 3 -0.005826 -0.004083 0.012170 0.000000 0.000000 0.000000
# 4 0.000000 0.000000 0.000000 0.042122 0.000000 0.000000
# 5 0.000000 0.000000 0.000000 0.000000 -0.003249 0.000000
# 6 0.000000 0.000000 0.000000 0.000000 0.000000 0.029450
#
#
# Mechanical properties :
#
#
# Convention : Reuss Voigt Hill
#
# Bulk Modulus (GPa) = 29.79085 57.96313 43.87699
# Shear Modulus (GPa) = 29.82493 -37.29233 -3.73370
#
# Velocity S-wave (km/s) = 4.02999 -4.50634 -1.42588
# Velocity P-wave (km/s) = 6.15440 2.11826 4.60237
#
# Compressibility (1/GPa) = 0.03356735
#
# Stress axis : x y z
#
# Youngs Moduli (GPa) = 24.97400 115.75685 82.16952
#
# Poissons Ratio (x) = 0.43211 0.47870
# Poissons Ratio (y) = 0.09323 0.33548
# Poissons Ratio (z) = 0.14549 0.47261
#
# Static dielectric constant tensor:
#      x y z
#    x 1.622150 0.000000 0.000000 
#    y 0.000000 1.669200 0.000000 
#    z 0.000000 0.000000 1.618460 
# 
# From -- ./inp_files/15080.got.cif
#   From: 2010.05.17/outbox.cif.g08.bks.cpg/sg47_8_cif.got.tgz:15080.got - 2010.06.03 20:15:42.
