data_PCOD9388500
_publ_section_title
;
Structure prediction by ZEFSAII (Michael W. Deem and Ramdas Pophale) SiO2 
 PCOD9388500
Probable space group: P M M M
;
_chemical_formula_sum "Si O2"
_cell_formula_units_Z 32
_cell_length_a 8.592062
_cell_length_b 19.354195
_cell_length_c 10.242944
_cell_angle_alpha 90.000000
_cell_angle_beta 90.000000
_cell_angle_gamma 90.000000
_cell_volume 1703.324185
_symmetry_space_group_name_H-M "P M M M"
_symmetry_group_IT_number 47
_symmetry_cell_setting 'orthorhombic'
loop_
_space_group_symop_operation_xyz
x,y,z
-x,-y,z
x,-y,-z
-x,y,-z
-x,-y,-z
x,y,-z
-x,y,z
x,-y,z
loop_
_atom_site_type_symbol
_atom_site_label
_atom_site_fract_x
_atom_site_fract_y
_atom_site_fract_z
Si Si1 0.313608 0.692235 0.347358
Si Si2 0.187574 0.418838 0.851837
Si Si3 0.686592 0.080673 0.000000
Si Si4 0.810720 0.922032 0.500000
Si Si5 0.812930 0.163543 0.752529
O O1 0.260708 0.690460 0.500000
O O2 0.500000 0.695877 0.348339
O O3 0.260470 0.626693 0.262319
O O4 0.247147 0.759466 0.273759
O O5 0.225614 0.500000 0.837271
O O6 0.000000 0.412410 0.845660
O O7 0.235054 0.397549 0.000000
O O8 0.747302 0.123336 0.123690
O O9 0.500000 0.080063 0.000000
O O10 0.739836 0.000000 0.000000
O O11 0.762813 0.880822 0.372743
O O12 0.000000 0.923971 0.500000
O O13 0.752957 0.000000 0.500000
O O14 0.000000 0.165214 0.760495
#
# Coordination Sequence:
#
# PCOD9388500 Si02
#       5
#     8   8   4   4   8
#     4  11  24  40  59  87 126 165 201 245 301 364
#     4   9  20  40  65  92 121 155 200 251 300 354
#     4  11  25  43  61  87 124 161 198 245 305 369
#     4   9  18  34  59  89 116 145 192 251 301 346
#     4  11  22  39  63  89 119 157 203 253 300 352
#
# _framework density 18.786792999999999
#
# number of rings (size 3 to 8) (size 9 to 14) (size 15 to 20)
#    0.000    1.750    1.250    3.375    1.750    5.000 
#    0.000    3.750    0.000    3.000    0.000    0.000 
#    0.000    0.000    0.000    0.000    0.000    0.000 
#
# Total GULP energy -178710.365191 kJ/mol
# GULP energy per Si atom -5584.698912 kJ/mol
# Density = 1.874403 g / cm^3
# Si number density = 18.786793 Si / 1000 Ang^3
#
#
#
# Elastic Constant Matrix: (Units=GPa)
#
#
# Indices 1 2 3 4 5 6 
#
# 1 50.0725 41.3874 46.9998 0.0000 0.0000 0.0000
# 2 41.3874 127.6601 92.0735 0.0000 0.0000 0.0000
# 3 46.9998 92.0735 185.9821 0.0000 0.0000 0.0000
# 4 0.0000 0.0000 0.0000 40.3900 0.0000 0.0000
# 5 0.0000 0.0000 0.0000 0.0000 31.3223 0.0000
# 6 0.0000 0.0000 0.0000 0.0000 0.0000 26.2679
#
#
#
# Elastic Compliance Matrix: (Units=1/GPa)
#
#
# Indices 1 2 3 4 5 6 
#
# 1 0.029244 -0.006456 -0.004194 0.000000 0.000000 0.000000
# 2 -0.006456 0.013609 -0.005106 0.000000 0.000000 0.000000
# 3 -0.004194 -0.005106 0.008964 0.000000 0.000000 0.000000
# 4 0.000000 0.000000 0.000000 0.024759 0.000000 0.000000
# 5 0.000000 0.000000 0.000000 0.000000 0.031926 0.000000
# 6 0.000000 0.000000 0.000000 0.000000 0.000000 0.038069
#
#
# Mechanical properties :
#
#
# Convention : Reuss Voigt Hill
#
# Bulk Modulus (GPa) = 49.24768 80.51514 64.88141
# Shear Modulus (GPa) = 27.04874 31.81297 29.43085
#
# Velocity S-wave (km/s) = 3.79855 4.11952 3.96229
# Velocity P-wave (km/s) = 6.74608 8.09800 7.45276
#
# Compressibility (1/GPa) = 0.02030552
#
# Stress axis : x y z
#
# Youngs Moduli (GPa) = 34.19507 73.48186 111.55124
#
# Poissons Ratio (x) = 0.47439 0.46787
# Poissons Ratio (y) = 0.22076 0.56956
# Poissons Ratio (z) = 0.14342 0.37518
#
# Static dielectric constant tensor:
#      x y z
#    x 1.638330 0.000000 0.000000 
#    y 0.000000 1.638880 0.000000 
#    z 0.000000 0.000000 1.623760 
# 
# From -- ./inp_files/14830.got.cif
#   From: 2010.05.17/outbox.cif.g08.bks.cpg/sg47_8_cif.got.tgz:14830.got - 2010.06.03 20:15:42.
