data_PCOD9388515
_publ_section_title
;
Structure prediction by ZEFSAII (Michael W. Deem and Ramdas Pophale) SiO2 
 PCOD9388515
Probable space group: P M M M
;
_chemical_formula_sum "Si O2"
_cell_formula_units_Z 56
_cell_length_a 19.114082
_cell_length_b 7.531574
_cell_length_c 20.030843
_cell_angle_alpha 90.000000
_cell_angle_beta 90.000000
_cell_angle_gamma 90.000000
_cell_volume 2883.622592
_symmetry_space_group_name_H-M "P M M M"
_symmetry_group_IT_number 47
_symmetry_cell_setting 'orthorhombic'
loop_
_space_group_symop_operation_xyz
x,y,z
-x,-y,z
x,-y,-z
-x,y,-z
-x,-y,-z
x,y,-z
-x,y,z
x,-y,z
loop_
_atom_site_type_symbol
_atom_site_label
_atom_site_fract_x
_atom_site_fract_y
_atom_site_fract_z
Si Si1 0.422374 0.207718 0.789661
Si Si2 0.712273 0.290853 0.706869
Si Si3 0.654409 0.714025 0.073696
Si Si4 0.077438 0.716347 0.350038
Si Si5 0.849300 0.716853 0.216329
Si Si6 0.782110 0.717061 0.574980
Si Si7 0.817554 0.716635 0.073673
O O1 0.500000 0.287209 0.783458
O O2 0.363690 0.271243 0.738097
O O3 0.392491 0.231045 0.864325
O O4 0.427880 0.000000 0.777496
O O5 0.726066 0.500000 0.703137
O O6 0.772819 0.223787 0.756863
O O7 0.727899 0.223010 0.632364
O O8 0.654625 0.500000 0.073818
O O9 0.735690 0.767957 0.081558
O O10 0.630506 0.773485 0.000000
O O11 0.077324 0.500000 0.350838
O O12 0.097107 0.770352 0.274276
O O13 0.141028 0.769919 0.398047
O O14 0.000000 0.776531 0.368931
O O15 0.850402 0.500000 0.214834
O O16 0.857846 0.776001 0.140032
O O17 0.768846 0.779405 0.500000
O O18 0.781161 0.500000 0.572874
O O19 0.818825 0.500000 0.073051
O O20 0.841198 0.775358 0.000000
#
# Coordination Sequence:
#
# PCOD9388515 Si02
#       7
#     8   8   8   8   8   8   8
#     4  11  23  34  44  62  90 120 146 180 229 275
#     4   9  16  29  48  65  83 111 150 188 220 261
#     4   9  17  30  48  67  86 113 152 190 222 265
#     4   8  13  19  29  52  89 127 150 166 204 265
#     4   8  12  20  36  55  76 106 146 186 217 248
#     4   8  14  24  41  66  90 112 142 182 223 260
#     4   8  12  19  35  57  76  98 137 187 224 246
#
# _framework density 19.420016
#
# number of rings (size 3 to 8) (size 9 to 14) (size 15 to 20)
#    0.000    3.286    1.429    3.000    0.000    2.000 
#    0.000    2.857    0.000    1.286    0.000    6.000 
#    0.000    9.143    0.000    5.143    0.000   24.000 
#
# Total GULP energy -311963.090230 kJ/mol
# GULP energy per Si atom -5570.769468 kJ/mol
# Density = 1.937582 g / cm^3
# Si number density = 19.420016 Si / 1000 Ang^3
#
#
#
# Elastic Constant Matrix: (Units=GPa)
#
#
# Indices 1 2 3 4 5 6 
#
# 1 49.8791 -5.0093 37.9237 0.0000 0.0000 0.0000
# 2 -5.0093 40.2244 0.5809 0.0000 0.0000 0.0000
# 3 37.9237 0.5809 166.3672 0.0000 0.0000 0.0000
# 4 0.0000 0.0000 0.0000 -33.6462 0.0000 0.0000
# 5 0.0000 0.0000 0.0000 0.0000 30.1276 0.0000
# 6 0.0000 0.0000 0.0000 0.0000 0.0000 24.5990
#
#
#
# Elastic Compliance Matrix: (Units=1/GPa)
#
#
# Indices 1 2 3 4 5 6 
#
# 1 0.024644 0.003150 -0.005629 0.000000 0.000000 0.000000
# 2 0.003150 0.025264 -0.000806 0.000000 0.000000 0.000000
# 3 -0.005629 -0.000806 0.007297 0.000000 0.000000 0.000000
# 4 0.000000 0.000000 0.000000 -0.029721 0.000000 0.000000
# 5 0.000000 0.000000 0.000000 0.000000 0.033192 0.000000
# 6 0.000000 0.000000 0.000000 0.000000 0.000000 0.040652
#
#
# Mechanical properties :
#
#
# Convention : Reuss Voigt Hill
#
# Bulk Modulus (GPa) = 19.74872 35.94013 27.84442
# Shear Modulus (GPa) = 40.07149 19.08112 29.57630
#
# Velocity S-wave (km/s) = 4.54741 3.13796 3.90677
# Velocity P-wave (km/s) = 6.14518 5.62815 5.89234
#
# Compressibility (1/GPa) = 0.05063620
#
# Stress axis : x y z
#
# Youngs Moduli (GPa) = 40.57701 39.58127 137.04823
#
# Poissons Ratio (x) = -0.12470 0.77141
# Poissons Ratio (y) = -0.12783 0.11051
# Poissons Ratio (z) = 0.22840 0.03192
#
# Static dielectric constant tensor:
#      x y z
#    x 1.699100 0.000000 0.000000 
#    y 0.000000 1.735380 0.000000 
#    z 0.000000 0.000000 1.700290 
# 
# From -- ./inp_files/9799.got.cif
#   From: 2010.05.17/outbox.cif.g08.bks.cpg/sg47_5_cif.got.tgz:9799.got - 2010.06.03 20:15:42.
