data_PCOD9388783
_publ_section_title
;
Structure prediction by ZEFSAII (Michael W. Deem and Ramdas Pophale) SiO2 
 PCOD9388783
Probable space group: P M M M
;
_chemical_formula_sum "Si O2"
_cell_formula_units_Z 36
_cell_length_a 10.183152
_cell_length_b 7.393954
_cell_length_c 24.015400
_cell_angle_alpha 90.000000
_cell_angle_beta 90.000000
_cell_angle_gamma 90.000000
_cell_volume 1808.209703
_symmetry_space_group_name_H-M "P M M M"
_symmetry_group_IT_number 47
_symmetry_cell_setting 'orthorhombic'
loop_
_space_group_symop_operation_xyz
x,y,z
-x,-y,z
x,-y,-z
-x,y,-z
-x,-y,-z
x,y,-z
-x,y,z
x,-y,z
loop_
_atom_site_type_symbol
_atom_site_label
_atom_site_fract_x
_atom_site_fract_y
_atom_site_fract_z
Si Si1 0.340469 0.791026 0.500000
Si Si2 0.149321 0.216043 0.283360
Si Si3 0.651852 0.221820 0.622001
Si Si4 0.650424 0.279411 0.936916
Si Si5 0.850984 0.283763 0.843582
O O1 0.500000 0.790381 0.500000
O O2 0.303542 0.715535 0.560362
O O3 0.296714 0.000000 0.500000
O O4 0.251476 0.282831 0.329310
O O5 0.192094 0.249948 0.219860
O O6 0.000000 0.286209 0.289619
O O7 0.143045 0.000000 0.290282
O O8 0.500000 0.275054 0.631087
O O9 0.651934 0.000000 0.620749
O O10 0.500000 0.224015 0.926183
O O11 0.651095 0.500000 0.936160
O O12 0.750851 0.215279 0.890037
O O13 0.686069 0.225432 0.000000
O O14 0.857193 0.500000 0.850388
O O15 0.000000 0.213519 0.849621
#
# Coordination Sequence:
#
# PCOD9388783 Si02
#       5
#     4   8   8   8   8
#     4   7  10  18  33  53  76  99 124 158 196 229
#     4   9  17  28  40  56  81 108 130 157 195 232
#     4   8  13  22  37  56  77 102 131 160 192 232
#     4   8  14  25  41  61  83 103 124 157 200 235
#     4   9  17  28  42  60  80 103 132 162 190 225
#
# _framework density 19.909195
#
# number of rings (size 3 to 8) (size 9 to 14) (size 15 to 20)
#    0.000    3.667    0.000    2.000    0.000    1.333 
#    0.000    2.778    0.000    4.000    0.000    5.444 
#    0.000    6.222    0.000    0.000    0.000    0.000 
#
# Total GULP energy -200607.757775 kJ/mol
# GULP energy per Si atom -5572.437716 kJ/mol
# Density = 1.986388 g / cm^3
# Si number density = 19.909195 Si / 1000 Ang^3
#
#
#
# Elastic Constant Matrix: (Units=GPa)
#
#
# Indices 1 2 3 4 5 6 
#
# 1 105.2530 5.3467 139.5926 0.0000 0.0000 0.0000
# 2 5.3467 67.8828 3.7907 0.0000 0.0000 0.0000
# 3 139.5926 3.7907 237.7338 0.0000 0.0000 0.0000
# 4 0.0000 0.0000 0.0000 14.5830 0.0000 0.0000
# 5 0.0000 0.0000 0.0000 0.0000 -946.1907 0.0000
# 6 0.0000 0.0000 0.0000 0.0000 0.0000 -3.4827
#
#
#
# Elastic Compliance Matrix: (Units=1/GPa)
#
#
# Indices 1 2 3 4 5 6 
#
# 1 0.043209 -0.001988 -0.025340 0.000000 0.000000 0.000000
# 2 -0.001988 0.014836 0.000931 0.000000 0.000000 0.000000
# 3 -0.025340 0.000931 0.019071 0.000000 0.000000 0.000000
# 4 0.000000 0.000000 0.000000 0.068573 0.000000 0.000000
# 5 0.000000 0.000000 0.000000 0.000000 -0.001057 0.000000
# 6 0.000000 0.000000 0.000000 0.000000 0.000000 -0.287134
#
#
# Mechanical properties :
#
#
# Convention : Reuss Voigt Hill
#
# Bulk Modulus (GPa) = 41.11641 78.70329 59.90985
# Shear Modulus (GPa) = -61.27371 -169.54211 -115.40791
#
# Velocity S-wave (km/s) = -5.55368 -9.23810 -7.62188
# Velocity P-wave (km/s) = 4.51971 8.61238 6.87753
#
# Compressibility (1/GPa) = 0.02432119
#
# Stress axis : x y z
#
# Youngs Moduli (GPa) = 23.14339 67.40408 52.43699
#
# Poissons Ratio (x) = 0.13402 1.32874
# Poissons Ratio (y) = 0.04601 -0.04881
# Poissons Ratio (z) = 0.58645 -0.06275
#
# Static dielectric constant tensor:
#      x y z
#    x 1.674790 0.000000 0.000000 
#    y 0.000000 1.800480 0.000000 
#    z 0.000000 0.000000 1.692040 
# 
# From -- ./inp_files/3743.got.cif
#   From: 2010.05.17/outbox.cif.g08.bks.cpg/sg47_2_cif.got.tgz:3743.got - 2010.06.03 20:15:42.
