data_PCOD9388698
_publ_section_title
;
Structure prediction by ZEFSAII (Michael W. Deem and Ramdas Pophale) SiO2 
 PCOD9388698
Probable space group: P M M M
;
_chemical_formula_sum "Si O2"
_cell_formula_units_Z 44
_cell_length_a 7.435259
_cell_length_b 30.977906
_cell_length_c 9.865606
_cell_angle_alpha 90.000000
_cell_angle_beta 90.000000
_cell_angle_gamma 90.000000
_cell_volume 2272.332741
_symmetry_space_group_name_H-M "P M M M"
_symmetry_group_IT_number 47
_symmetry_cell_setting 'orthorhombic'
loop_
_space_group_symop_operation_xyz
x,y,z
-x,-y,z
x,-y,-z
-x,y,-z
-x,-y,-z
x,y,-z
-x,y,z
x,-y,z
loop_
_atom_site_type_symbol
_atom_site_label
_atom_site_fract_x
_atom_site_fract_y
_atom_site_fract_z
Si Si1 0.500000 0.051733 0.159556
Si Si2 0.785676 0.198810 0.650762
Si Si3 0.715014 0.721981 0.153043
Si Si4 0.784416 0.101068 0.338639
Si Si5 0.719208 0.373474 0.842583
Si Si6 0.719326 0.548240 0.656626
O O1 0.671564 0.070393 0.240938
O O2 0.500000 0.000000 0.165659
O O3 0.500000 0.064388 0.000000
O O4 0.715293 0.208693 0.500000
O O5 0.751408 0.237622 0.752232
O O6 0.725831 0.150691 0.690665
O O7 0.000000 0.194771 0.640724
O O8 0.500000 0.718571 0.144585
O O9 0.777934 0.674643 0.201538
O O10 0.783184 0.728964 0.000000
O O11 0.750386 0.093523 0.500000
O O12 0.000000 0.096882 0.318364
O O13 0.500000 0.374289 0.838008
O O14 0.782559 0.412772 0.750306
O O15 0.769781 0.378823 0.000000
O O16 0.772289 0.554233 0.500000
O O17 0.500000 0.548571 0.659122
O O18 0.774805 0.500000 0.700225
#
# Coordination Sequence:
#
# PCOD9388698 Si02
#       6
#     4   8   8   8   8   8
#     4  11  25  41  59  89 125 157 191 235 286 339
#     4   9  19  35  53  75 102 131 168 213 256 301
#     4   9  18  30  44  67  98 129 162 201 246 299
#     4   9  20  40  63  86 115 152 194 240 285 332
#     4   8  14  24  35  50  78 113 148 188 232 283
#     4   8  13  20  30  46  70 102 142 188 235 284
#
# _framework density 19.363363
#
# number of rings (size 3 to 8) (size 9 to 14) (size 15 to 20)
#    0.000    3.182    0.000    3.000    1.273    4.000 
#    0.000    7.273    0.000    0.000    0.000    0.000 
#    0.000    0.727    0.000    8.000    0.000   13.091 
#
# Total GULP energy -245284.320315 kJ/mol
# GULP energy per Si atom -5574.643644 kJ/mol
# Density = 1.931929 g / cm^3
# Si number density = 19.363363 Si / 1000 Ang^3
#
#
#
# Elastic Constant Matrix: (Units=GPa)
#
#
# Indices 1 2 3 4 5 6 
#
# 1 73.6805 32.4192 30.3261 0.0000 0.0000 0.0000
# 2 32.4192 170.3450 112.6554 0.0000 0.0000 0.0000
# 3 30.3261 112.6554 107.4705 0.0000 0.0000 0.0000
# 4 0.0000 0.0000 0.0000 42.9054 0.0000 0.0000
# 5 0.0000 0.0000 0.0000 0.0000 20.9197 0.0000
# 6 0.0000 0.0000 0.0000 0.0000 0.0000 75.6647
#
#
#
# Elastic Compliance Matrix: (Units=1/GPa)
#
#
# Indices 1 2 3 4 5 6 
#
# 1 0.015357 -0.000185 -0.004139 0.000000 0.000000 0.000000
# 2 -0.000185 0.019139 -0.020010 0.000000 0.000000 0.000000
# 3 -0.004139 -0.020010 0.031449 0.000000 0.000000 0.000000
# 4 0.000000 0.000000 0.000000 0.023307 0.000000 0.000000
# 5 0.000000 0.000000 0.000000 0.000000 0.047802 0.000000
# 6 0.000000 0.000000 0.000000 0.000000 0.000000 0.013216
#
#
# Mechanical properties :
#
#
# Convention : Reuss Voigt Hill
#
# Bulk Modulus (GPa) = 57.88599 78.03304 67.95951
# Shear Modulus (GPa) = 24.42609 39.63764 32.03187
#
# Velocity S-wave (km/s) = 3.55556 4.52933 4.07166
# Velocity P-wave (km/s) = 6.84218 8.23043 7.56820
#
# Compressibility (1/GPa) = 0.01727534
#
# Stress axis : x y z
#
# Youngs Moduli (GPa) = 65.11543 52.24847 31.79771
#
# Poissons Ratio (x) = 0.00967 0.13163
# Poissons Ratio (y) = 0.01206 0.63629
# Poissons Ratio (z) = 0.26954 1.04552
#
# Static dielectric constant tensor:
#      x y z
#    x 2.008560 0.000000 0.000000 
#    y 0.000000 1.676840 0.000000 
#    z 0.000000 0.000000 1.689220 
# 
# From -- ./inp_files/2322.got.cif
#   From: 2010.05.17/outbox.cif.g08.bks.cpg/sg47_2_cif.got.tgz:2322.got - 2010.06.03 20:15:42.
