data_PCOD9388911
_publ_section_title
;
Structure prediction by ZEFSAII (Michael W. Deem and Ramdas Pophale) SiO2 
 PCOD9388911
Probable space group: P M M M
;
_chemical_formula_sum "Si O2"
_cell_formula_units_Z 64
_cell_length_a 7.341947
_cell_length_b 20.832461
_cell_length_c 20.832452
_cell_angle_alpha 90.000000
_cell_angle_beta 90.000000
_cell_angle_gamma 90.000000
_cell_volume 3186.340711
_symmetry_space_group_name_H-M "P M M M"
_symmetry_group_IT_number 47
_symmetry_cell_setting 'orthorhombic'
loop_
_space_group_symop_operation_xyz
x,y,z
-x,-y,z
x,-y,-z
-x,y,-z
-x,-y,-z
x,y,-z
-x,y,z
x,-y,z
loop_
_atom_site_type_symbol
_atom_site_label
_atom_site_fract_x
_atom_site_fract_y
_atom_site_fract_z
Si Si1 0.721900 0.073138 0.426876
Si Si2 0.284157 0.678839 0.678838
Si Si3 0.277762 0.823150 0.323735
Si Si4 0.278100 0.426876 0.073137
Si Si5 0.722238 0.323735 0.176850
Si Si6 0.218003 0.572210 0.427790
Si Si7 0.721899 0.073282 0.926718
Si Si8 0.278408 0.176962 0.176961
O O1 0.777096 0.088194 0.500000
O O2 0.500000 0.073664 0.426310
O O3 0.784599 0.124808 0.375152
O O4 0.777235 0.000000 0.412070
O O5 0.500000 0.686141 0.686140
O O6 0.217408 0.750267 0.661223
O O7 0.217408 0.661223 0.750266
O O8 0.257197 0.625285 0.625285
O O9 0.500000 0.824236 0.325188
O O10 0.224103 0.837692 0.250306
O O11 0.500000 0.426310 0.073663
O O12 0.222904 0.500000 0.088193
O O13 0.215401 0.375153 0.124809
O O14 0.222765 0.412069 0.000000
O O15 0.500000 0.325188 0.175764
O O16 0.775897 0.250306 0.162307
O O17 0.283309 0.588393 0.500000
O O18 0.283309 0.500000 0.411606
O O19 0.000000 0.568826 0.431173
O O20 0.500000 0.073927 0.926073
O O21 0.783940 0.125137 0.874863
O O22 0.776897 0.000000 0.911896
O O23 0.776897 0.088103 0.000000
O O24 0.500000 0.176190 0.176189
#
# Coordination Sequence:
#
# PCOD9388911 Si02
#       8
#     8   8   8   8   8   8   8   8
#     4   8  13  20  29  42  63  93 125 152 181 222
#     4   9  17  28  43  64  87 109 134 168 210 250
#     4   8  14  23  33  49  74  99 125 160 198 236
#     4   8  13  20  29  42  63  93 125 152 181 222
#     4   8  14  23  33  49  74  99 125 160 198 236
#     4   9  19  35  50  63  83 110 137 167 202 240
#     4   8  13  19  25  35  53  81 125 176 209 229
#     4   8  13  20  28  38  56  84 115 149 193 237
#
# _framework density 20.085736000000001
#
# number of rings (size 3 to 8) (size 9 to 14) (size 15 to 20)
#    0.000    3.750    0.000    3.000    0.000    2.500 
#    0.000    8.125    0.000    0.000    0.000    0.000 
#    0.000    1.000    0.000    5.500    0.000    6.500 
#
# Total GULP energy -356809.752847 kJ/mol
# GULP energy per Si atom -5575.152388 kJ/mol
# Density = 2.004002 g / cm^3
# Si number density = 20.085736 Si / 1000 Ang^3
#
#
#
# Elastic Constant Matrix: (Units=GPa)
#
#
# Indices 1 2 3 4 5 6 
#
# 1 73.5675 4.8694 4.8695 0.0000 0.0000 0.0000
# 2 4.8694 197.1080 180.4034 0.0000 0.0000 0.0000
# 3 4.8695 180.4034 197.1081 0.0000 0.0000 0.0000
# 4 0.0000 0.0000 0.0000 49.8715 0.0000 0.0000
# 5 0.0000 0.0000 0.0000 0.0000 25.3036 0.0000
# 6 0.0000 0.0000 0.0000 0.0000 0.0000 25.3034
#
#
#
# Elastic Compliance Matrix: (Units=1/GPa)
#
#
# Indices 1 2 3 4 5 6 
#
# 1 0.013616 -0.000176 -0.000176 0.000000 0.000000 0.000000
# 2 -0.000176 0.031259 -0.028605 0.000000 0.000000 0.000000
# 3 -0.000176 -0.028605 0.031259 0.000000 0.000000 0.000000
# 4 0.000000 0.000000 0.000000 0.020052 0.000000 0.000000
# 5 0.000000 0.000000 0.000000 0.000000 0.039520 0.000000
# 6 0.000000 0.000000 0.000000 0.000000 0.000000 0.039520
#
#
# Mechanical properties :
#
#
# Convention : Reuss Voigt Hill
#
# Bulk Modulus (GPa) = 54.88294 94.22979 74.55636
# Shear Modulus (GPa) = 20.90201 38.60513 29.75357
#
# Velocity S-wave (km/s) = 3.22939 4.38884 3.85298
# Velocity P-wave (km/s) = 6.42565 8.52632 7.54941
#
# Compressibility (1/GPa) = 0.01822060
#
# Stress axis : x y z
#
# Youngs Moduli (GPa) = 73.44184 31.99125 31.99126
#
# Poissons Ratio (x) = 0.00562 0.00562
# Poissons Ratio (y) = 0.01290 0.91511
# Poissons Ratio (z) = 0.01290 0.91511
#
# Static dielectric constant tensor:
#      x y z
#    x 1.764110 0.000000 0.000000 
#    y 0.000000 1.681680 0.000000 
#    z 0.000000 0.000000 1.681680 
# 
# From -- ./inp_files/30136.got.cif
#   From: 2010.05.17/outbox.cif.g08.bks.cpg/sg47_16_cif.got.tgz:30136.got - 2010.06.03 20:15:42.
