data_PCOD9388594
_publ_section_title
;
Structure prediction by ZEFSAII (Michael W. Deem and Ramdas Pophale) SiO2 
 PCOD9388594
Probable space group: P M M M
;
_chemical_formula_sum "Si O2"
_cell_formula_units_Z 36
_cell_length_a 24.604725
_cell_length_b 9.741914
_cell_length_c 7.484976
_cell_angle_alpha 90.000000
_cell_angle_beta 90.000000
_cell_angle_gamma 90.000000
_cell_volume 1794.127153
_symmetry_space_group_name_H-M "P M M M"
_symmetry_group_IT_number 47
_symmetry_cell_setting 'orthorhombic'
loop_
_space_group_symop_operation_xyz
x,y,z
-x,-y,z
x,-y,-z
-x,y,-z
-x,-y,-z
x,y,-z
-x,y,z
x,-y,z
loop_
_atom_site_type_symbol
_atom_site_label
_atom_site_fract_x
_atom_site_fract_y
_atom_site_fract_z
Si Si1 0.338737 0.158957 0.780968
Si Si2 0.000000 0.345734 0.288619
Si Si3 0.439552 0.341162 0.782220
Si Si4 0.779618 0.832845 0.206919
Si Si5 0.102643 0.155690 0.213681
O O1 0.389415 0.249352 0.721384
O O2 0.279065 0.208227 0.717847
O O3 0.345759 0.000000 0.729886
O O4 0.337358 0.161699 0.000000
O O5 0.053412 0.258442 0.242840
O O6 0.000000 0.500000 0.211657
O O7 0.000000 0.358259 0.500000
O O8 0.500000 0.294778 0.726520
O O9 0.432999 0.500000 0.729717
O O10 0.439126 0.338085 0.000000
O O11 0.838445 0.795476 0.285078
O O12 0.779286 0.000000 0.207822
O O13 0.779389 0.787231 0.000000
O O14 0.090959 0.000000 0.279112
O O15 0.109280 0.144660 0.000000
#
# Coordination Sequence:
#
# PCOD9388594 Si02
#       5
#     8   4   8   8   8
#     4   8  12  18  29  44  62  85 114 150 192 236
#     4  11  24  37  46  62  92 123 146 173 212 254
#     4   8  13  19  24  32  52  84 120 157 194 228
#     4   7  11  21  37  57  78  96 118 157 207 249
#     4   9  17  31  52  73  89 109 142 181 218 259
#
# _framework density 20.065467000000002
#
# number of rings (size 3 to 8) (size 9 to 14) (size 15 to 20)
#    0.000    3.667    0.000    4.000    0.000    3.111 
#    0.000    3.333    0.000    4.000    0.000    0.000 
#    0.000    0.000    0.000    0.000    0.000    1.111 
#
# Total GULP energy -200462.173100 kJ/mol
# GULP energy per Si atom -5568.393697 kJ/mol
# Density = 2.001980 g / cm^3
# Si number density = 20.065467 Si / 1000 Ang^3
#
#
#
# Elastic Constant Matrix: (Units=GPa)
#
#
# Indices 1 2 3 4 5 6 
#
# 1 270.0019 113.6924 8.7345 0.0000 0.0000 0.0000
# 2 113.6924 85.7429 4.1601 0.0000 0.0000 0.0000
# 3 8.7345 4.1601 55.8909 0.0000 0.0000 0.0000
# 4 0.0000 0.0000 0.0000 7.5715 0.0000 0.0000
# 5 0.0000 0.0000 0.0000 0.0000 -41.9621 0.0000
# 6 0.0000 0.0000 0.0000 0.0000 0.0000 -14.8742
#
#
#
# Elastic Compliance Matrix: (Units=1/GPa)
#
#
# Indices 1 2 3 4 5 6 
#
# 1 0.008399 -0.011113 -0.000485 0.000000 0.000000 0.000000
# 2 -0.011113 0.026410 -0.000229 0.000000 0.000000 0.000000
# 3 -0.000485 -0.000229 0.017985 0.000000 0.000000 0.000000
# 4 0.000000 0.000000 0.000000 0.132074 0.000000 0.000000
# 5 0.000000 0.000000 0.000000 0.000000 -0.023831 0.000000
# 6 0.000000 0.000000 0.000000 0.000000 0.000000 -0.067230
#
#
# Mechanical properties :
#
#
# Convention : Reuss Voigt Hill
#
# Bulk Modulus (GPa) = 34.31907 73.86774 54.09340
# Shear Modulus (GPa) = 39.31633 9.15028 24.23331
#
# Velocity S-wave (km/s) = 4.43132 2.13778 3.47899
# Velocity P-wave (km/s) = 6.58200 6.55643 6.56923
#
# Compressibility (1/GPa) = 0.02913832
#
# Stress axis : x y z
#
# Youngs Moduli (GPa) = 119.06330 37.86509 55.60219
#
# Poissons Ratio (x) = 0.42080 0.02699
# Poissons Ratio (y) = 1.32317 0.01273
# Poissons Ratio (z) = 0.05779 0.00867
#
# Static dielectric constant tensor:
#      x y z
#    x 1.763710 0.000000 0.000000 
#    y 0.000000 1.673610 0.000000 
#    z 0.000000 0.000000 1.763010 
# 
# From -- ./inp_files/12058.got.cif
#   From: 2010.05.17/outbox.cif.g08.bks.cpg/sg47_7_cif.got.tgz:12058.got - 2010.06.03 20:15:42.
