data_PCOD9388678
_publ_section_title
;
Structure prediction by ZEFSAII (Michael W. Deem and Ramdas Pophale) SiO2 
 PCOD9388678
Probable space group: P M M M
;
_chemical_formula_sum "Si O2"
_cell_formula_units_Z 64
_cell_length_a 14.336680
_cell_length_b 8.978633
_cell_length_c 26.879617
_cell_angle_alpha 90.000000
_cell_angle_beta 90.000000
_cell_angle_gamma 90.000000
_cell_volume 3460.046124
_symmetry_space_group_name_H-M "P M M M"
_symmetry_group_IT_number 47
_symmetry_cell_setting 'orthorhombic'
loop_
_space_group_symop_operation_xyz
x,y,z
-x,-y,z
x,-y,-z
-x,y,-z
-x,-y,-z
x,y,-z
-x,y,z
x,-y,z
loop_
_atom_site_type_symbol
_atom_site_label
_atom_site_fract_x
_atom_site_fract_y
_atom_site_fract_z
Si Si1 0.716608 0.323325 0.352334
Si Si2 0.388803 0.823499 0.442975
Si Si3 0.886795 0.169535 0.796723
Si Si4 0.612223 0.175166 0.147500
Si Si5 0.891753 0.819235 0.906568
Si Si6 0.388023 0.177545 0.259271
Si Si7 0.713080 0.677613 0.945525
Si Si8 0.891519 0.819573 0.312526
O O1 0.721051 0.500000 0.350121
O O2 0.664499 0.268963 0.401690
O O3 0.661449 0.260795 0.304219
O O4 0.819412 0.252124 0.349976
O O5 0.363533 0.786229 0.500000
O O6 0.500000 0.801451 0.437746
O O7 0.371141 0.000000 0.435515
O O8 0.864668 0.234472 0.850517
O O9 0.863234 0.235481 0.743223
O O10 0.000000 0.160295 0.796424
O O11 0.850517 0.000000 0.796832
O O12 0.500000 0.188499 0.146289
O O13 0.642493 0.223206 0.203284
O O14 0.655998 0.259867 0.101168
O O15 0.635441 0.000000 0.142827
O O16 0.816236 0.747521 0.941989
O O17 0.000000 0.781372 0.916362
O O18 0.885937 0.000000 0.907221
O O19 0.500000 0.198450 0.262396
O O20 0.370419 0.000000 0.263946
O O21 0.718522 0.500000 0.942024
O O22 0.672480 0.716464 0.000000
O O23 0.000000 0.783112 0.321088
O O24 0.884252 0.000000 0.312469
#
# Coordination Sequence:
#
# PCOD9388678 Si02
#       8
#     8   8   8   8   8   8   8   8
#     4  12  24  33  50  85 125 159 186 222 277 336
#     4   9  19  38  63  87 112 148 197 247 285 321
#     4   7  12  26  49  75  98 124 166 219 269 313
#     4   9  20  40  64  85 103 131 177 232 281 322
#     4   9  18  34  57  82 105 133 176 228 274 318
#     4   9  19  37  59  82 110 144 182 224 271 326
#     4  11  25  40  53  75 109 145 177 214 269 339
#     4   9  18  34  55  77 106 149 197 238 275 319
#
# _framework density 18.496863999999999
#
# number of rings (size 3 to 8) (size 9 to 14) (size 15 to 20)
#    0.000    2.625    0.000    4.500    1.750    5.000 
#    0.000    4.375    0.000    2.625    0.000    2.625 
#    0.000    0.000    0.000    0.000    0.000    0.000 
#
# Total GULP energy -357049.128899 kJ/mol
# GULP energy per Si atom -5578.892639 kJ/mol
# Density = 1.845476 g / cm^3
# Si number density = 18.496864 Si / 1000 Ang^3
#
#
#
# Elastic Constant Matrix: (Units=GPa)
#
#
# Indices 1 2 3 4 5 6 
#
# 1 68.4418 42.7612 58.6847 0.0000 0.0000 0.0000
# 2 42.7612 51.9400 59.7308 0.0000 0.0000 0.0000
# 3 58.6847 59.7308 122.6053 0.0000 0.0000 0.0000
# 4 0.0000 0.0000 0.0000 -64.3078 0.0000 0.0000
# 5 0.0000 0.0000 0.0000 0.0000 30.4327 0.0000
# 6 0.0000 0.0000 0.0000 0.0000 0.0000 391.4305
#
#
#
# Elastic Compliance Matrix: (Units=1/GPa)
#
#
# Indices 1 2 3 4 5 6 
#
# 1 0.031686 -0.019659 -0.005589 0.000000 0.000000 0.000000
# 2 -0.019659 0.055979 -0.017862 0.000000 0.000000 0.000000
# 3 -0.005589 -0.017862 0.019533 0.000000 0.000000 0.000000
# 4 0.000000 0.000000 0.000000 -0.015550 0.000000 0.000000
# 5 0.000000 0.000000 0.000000 0.000000 0.032859 0.000000
# 6 0.000000 0.000000 0.000000 0.000000 0.000000 0.002555
#
#
# Mechanical properties :
#
#
# Convention : Reuss Voigt Hill
#
# Bulk Modulus (GPa) = 47.66838 62.81561 55.24199
# Shear Modulus (GPa) = 22.69887 76.96511 49.83199
#
# Velocity S-wave (km/s) = 3.50690 6.45757 5.19608
# Velocity P-wave (km/s) = 6.49807 9.46753 8.11970
#
# Compressibility (1/GPa) = 0.02097827
#
# Stress axis : x y z
#
# Youngs Moduli (GPa) = 31.56008 17.86370 51.19440
#
# Poissons Ratio (x) = 0.35119 0.28611
# Poissons Ratio (y) = 0.62044 0.91445
# Poissons Ratio (z) = 0.17638 0.31909
#
# Static dielectric constant tensor:
#      x y z
#    x 1.658100 0.000000 0.000000 
#    y 0.000000 1.608940 0.000000 
#    z 0.000000 0.000000 1.654470 
# 
# From -- ./inp_files/32791.got.cif
#   From: 2010.05.17/outbox.cif.g08.bks.cpg/sg47_17_cif.got.tgz:32791.got - 2010.06.03 20:15:42.
