data_PCOD9388518
_publ_section_title
;
Structure prediction by ZEFSAII (Michael W. Deem and Ramdas Pophale) SiO2 
 PCOD9388518
Probable space group: P M M M
;
_chemical_formula_sum "Si O2"
_cell_formula_units_Z 40
_cell_length_a 30.846493
_cell_length_b 7.756964
_cell_length_c 9.051842
_cell_angle_alpha 90.000000
_cell_angle_beta 90.000000
_cell_angle_gamma 90.000000
_cell_volume 2165.880723
_symmetry_space_group_name_H-M "P M M M"
_symmetry_group_IT_number 47
_symmetry_cell_setting 'orthorhombic'
loop_
_space_group_symop_operation_xyz
x,y,z
-x,-y,z
x,-y,-z
-x,y,-z
-x,-y,-z
x,y,-z
-x,y,z
x,-y,z
loop_
_atom_site_type_symbol
_atom_site_label
_atom_site_fract_x
_atom_site_fract_y
_atom_site_fract_z
Si Si1 0.634616 0.205890 0.834821
Si Si2 0.950775 0.196995 0.679930
Si Si3 0.888156 0.500000 0.680069
Si Si4 0.787408 0.500000 0.678404
Si Si5 0.453180 0.707506 0.669887
Si Si6 0.730328 0.796339 0.179425
O O1 0.590831 0.241413 0.748498
O O2 0.681469 0.260544 0.773579
O O3 0.638760 0.000000 0.845474
O O4 0.630063 0.278002 0.000000
O O5 0.950369 0.198134 0.500000
O O6 0.914927 0.332255 0.730129
O O7 0.000000 0.245199 0.723533
O O8 0.942516 0.000000 0.726314
O O9 0.889046 0.500000 0.500000
O O10 0.838027 0.500000 0.722080
O O11 0.784257 0.500000 0.500000
O O12 0.764101 0.331048 0.744757
O O13 0.451427 0.765675 0.500000
O O14 0.500000 0.766528 0.733002
O O15 0.454127 0.500000 0.670109
O O16 0.736857 0.000000 0.214759
O O17 0.731923 0.781566 0.000000
#
# Coordination Sequence:
#
# PCOD9388518 Si02
#       6
#     8   8   4   4   8   8
#     4   9  19  35  54  75  95 120 161 211 256 295
#     4   8  13  22  38  59  86 129 179 214 245 296
#     4   9  17  27  38  61 100 137 167 206 259 314
#     4  11  23  34  51  82 113 143 176 216 275 331
#     4   9  19  34  49  70 103 136 161 189 234 298
#     4   9  20  40  60  76 101 139 182 226 269 318
#
# _framework density 18.468236999999998
#
# number of rings (size 3 to 8) (size 9 to 14) (size 15 to 20)
#    0.000    3.000    0.000    3.000    1.400    4.800 
#    0.000    7.000    0.000    0.000    0.000    0.000 
#    0.000    6.400    0.000   17.600    0.000   14.400 
#
# Total GULP energy -222810.616504 kJ/mol
# GULP energy per Si atom -5570.265413 kJ/mol
# Density = 1.842620 g / cm^3
# Si number density = 18.468237 Si / 1000 Ang^3
#
#
#
# Elastic Constant Matrix: (Units=GPa)
#
#
# Indices 1 2 3 4 5 6 
#
# 1 219.4419 93.2747 45.6413 0.0000 0.0000 0.0000
# 2 93.2747 87.9225 25.3808 0.0000 0.0000 0.0000
# 3 45.6413 25.3808 20.3754 0.0000 0.0000 0.0000
# 4 0.0000 0.0000 0.0000 21.8310 0.0000 0.0000
# 5 0.0000 0.0000 0.0000 0.0000********** 0.0000
# 6 0.0000 0.0000 0.0000 0.0000 0.0000 19.1835
#
#
#
# Elastic Compliance Matrix: (Units=1/GPa)
#
#
# Indices 1 2 3 4 5 6 
#
# 1 0.010679 -0.006907 -0.015316 0.000000 0.000000 0.000000
# 2 -0.006907 0.022228 -0.012216 0.000000 0.000000 0.000000
# 3 -0.015316 -0.012216 0.098604 0.000000 0.000000 0.000000
# 4 0.000000 0.000000 0.000000 0.045806 0.000000 0.000000
# 5 0.000000 0.000000 0.000000 0.000000 0.000006 0.000000
# 6 0.000000 0.000000 0.000000 0.000000 0.000000 0.052128
#
#
# Mechanical properties :
#
#
# Convention : Reuss Voigt Hill
#
# Bulk Modulus (GPa) = 15.96629 72.92592 44.44610
# Shear Modulus (GPa) = 15.66381 31328.69755 15672.18068
#
# Velocity S-wave (km/s) = 2.91546 130.38551 92.21953
# Velocity P-wave (km/s) = 4.47183 150.68759 106.59912
#
# Compressibility (1/GPa) = 0.06263197
#
# Stress axis : x y z
#
# Youngs Moduli (GPa) = 93.64596 44.98869 10.14156
#
# Poissons Ratio (x) = 0.31075 0.15533
# Poissons Ratio (y) = 0.64684 0.12389
# Poissons Ratio (z) = 1.43428 0.54958
#
# Static dielectric constant tensor:
#      x y z
#    x 1.654780 0.000000 0.000000 
#    y 0.000000 1.653260 0.000000 
#    z 0.000000 0.000000 1.632620 
# 
# From -- ./inp_files/13037.got.cif
#   From: 2010.05.17/outbox.cif.g08.bks.cpg/sg47_7_cif.got.tgz:13037.got - 2010.06.03 20:15:42.
