data_PCOD9388072
_publ_section_title
;
Structure prediction by ZEFSAII (Michael W. Deem and Ramdas Pophale) SiO2 
 PCOD9388072
Probable space group: P M M M
;
_chemical_formula_sum "Si O2"
_cell_formula_units_Z 37
_cell_length_a 9.266220
_cell_length_b 17.975945
_cell_length_c 12.424176
_cell_angle_alpha 90.000000
_cell_angle_beta 90.000000
_cell_angle_gamma 90.000000
_cell_volume 2069.483331
_symmetry_space_group_name_H-M "P M M M"
_symmetry_group_IT_number 47
_symmetry_cell_setting 'orthorhombic'
loop_
_space_group_symop_operation_xyz
x,y,z
-x,-y,z
x,-y,-z
-x,y,-z
-x,-y,-z
x,y,-z
-x,y,z
x,-y,z
loop_
_atom_site_type_symbol
_atom_site_label
_atom_site_fract_x
_atom_site_fract_y
_atom_site_fract_z
Si Si1 0.159447 0.845886 0.500000
Si Si2 0.672359 0.366800 0.218012
Si Si3 0.832006 0.410516 0.000000
Si Si4 0.830503 0.086177 0.128674
Si Si5 0.328751 0.196831 0.714273
Si Si6 0.000000 0.000000 0.500000
Si Si7 0.324619 0.500000 0.623557
O O1 0.247029 0.823699 0.394755
O O2 0.000000 0.809157 0.500000
O O3 0.123165 0.933602 0.500000
O O4 0.500000 0.376336 0.200551
O O5 0.754202 0.381644 0.107031
O O6 0.697439 0.282948 0.256861
O O7 0.717565 0.427142 0.308059
O O8 0.822989 0.500000 0.000000
O O9 0.000000 0.388796 0.000000
O O10 0.733640 0.143568 0.192961
O O11 0.000000 0.097859 0.155518
O O12 0.796782 0.000000 0.155884
O O13 0.815091 0.094459 0.000000
O O14 0.500000 0.186171 0.702977
O O15 0.500000 0.500000 0.619138
O O16 0.272946 0.500000 0.500000
#
# Coordination Sequence:
#
# PCOD9388072 Si02
#       7
#     4   8   4   8   8   1   4
#     4  10  23  43  65  86 116 161 203 246 294 366
#     4  10  22  39  62  89 121 161 202 247 305 372
#     4  11  23  39  61  89 124 157 206 265 309 358
#     4   9  20  39  61  83 113 158 203 240 290 362
#     4  11  24  38  59  92 126 153 194 257 310 355
#     4   8  24  44  70  88 110 166 222 244 284 382
#     4   9  18  35  63  88 110 155 206 241 284 359
#
# _framework density 17.87886
#
# number of rings (size 3 to 8) (size 9 to 14) (size 15 to 20)
#    0.324    1.730    1.081    1.946    4.541    3.027 
#    0.000    1.622    0.000    0.649    0.000    0.000 
#    0.000    0.000    0.000    0.000    0.000    0.000 
#
# Total GULP energy -206265.071560 kJ/mol
# GULP energy per Si atom -5574.731664 kJ/mol
# Density = 1.783817 g / cm^3
# Si number density = 17.878860 Si / 1000 Ang^3
#
#
#
# Elastic Constant Matrix: (Units=GPa)
#
#
# Indices 1 2 3 4 5 6 
#
# 1 92.1919 95.4251 81.5247 0.0000 0.0000 0.0000
# 2 95.4251 144.5541 94.2356 0.0000 0.0000 0.0000
# 3 81.5247 94.2356 141.6531 0.0000 0.0000 0.0000
# 4 0.0000 0.0000 0.0000 9.4134 0.0000 0.0000
# 5 0.0000 0.0000 0.0000 0.0000 38.3794 0.0000
# 6 0.0000 0.0000 0.0000 0.0000 0.0000 19.6343
#
#
#
# Elastic Compliance Matrix: (Units=1/GPa)
#
#
# Indices 1 2 3 4 5 6 
#
# 1 0.040738 -0.020498 -0.009809 0.000000 0.000000 0.000000
# 2 -0.020498 0.022529 -0.003191 0.000000 0.000000 0.000000
# 3 -0.009809 -0.003191 0.014828 0.000000 0.000000 0.000000
# 4 0.000000 0.000000 0.000000 0.106232 0.000000 0.000000
# 5 0.000000 0.000000 0.000000 0.000000 0.026056 0.000000
# 6 0.000000 0.000000 0.000000 0.000000 0.000000 0.050931
#
#
# Mechanical properties :
#
#
# Convention : Reuss Voigt Hill
#
# Bulk Modulus (GPa) = 90.09772 102.30774 96.20273
# Shear Modulus (GPa) = 15.05987 20.63299 17.84643
#
# Velocity S-wave (km/s) = 2.90544 3.40081 3.16284
# Velocity P-wave (km/s) = 7.85864 8.53039 8.20140
#
# Compressibility (1/GPa) = 0.01109906
#
# Stress axis : x y z
#
# Youngs Moduli (GPa) = 24.54728 44.38718 67.44135
#
# Poissons Ratio (x) = 0.90983 0.66156
# Poissons Ratio (y) = 0.50316 0.21519
# Poissons Ratio (z) = 0.24079 0.14163
#
# Static dielectric constant tensor:
#      x y z
#    x 1.595650 0.000000 0.000000 
#    y 0.000000 1.592100 0.000000 
#    z 0.000000 0.000000 1.585230 
# 
# From -- ./inp_files/14933.got.cif
#   From: 2010.05.17/outbox.cif.g08.bks.cpg/sg47_8_cif.got.tgz:14933.got - 2010.06.03 20:15:42.
