data_PCOD9388512
_publ_section_title
;
Structure prediction by ZEFSAII (Michael W. Deem and Ramdas Pophale) SiO2 
 PCOD9388512
Probable space group: P M M M
;
_chemical_formula_sum "Si O2"
_cell_formula_units_Z 48
_cell_length_a 20.212277
_cell_length_b 15.089560
_cell_length_c 9.482453
_cell_angle_alpha 90.000000
_cell_angle_beta 90.000000
_cell_angle_gamma 90.000000
_cell_volume 2892.094746
_symmetry_space_group_name_H-M "P M M M"
_symmetry_group_IT_number 47
_symmetry_cell_setting 'orthorhombic'
loop_
_space_group_symop_operation_xyz
x,y,z
-x,-y,z
x,-y,-z
-x,y,-z
-x,-y,-z
x,y,-z
-x,y,z
x,-y,z
loop_
_atom_site_type_symbol
_atom_site_label
_atom_site_fract_x
_atom_site_fract_y
_atom_site_fract_z
Si Si1 0.000000 0.894580 0.656217
Si Si2 0.690568 0.706157 0.829340
Si Si3 0.164258 0.642481 0.162650
Si Si4 0.079158 0.500000 0.669812
Si Si5 0.125304 0.848088 0.160915
Si Si6 0.728965 0.096867 0.828839
Si Si7 0.576483 0.605179 0.332561
O O1 0.935161 0.867665 0.739862
O O2 0.000000 0.855225 0.500000
O O3 0.000000 0.000000 0.646719
O O4 0.758648 0.653378 0.793574
O O5 0.696616 0.809808 0.784245
O O6 0.628530 0.660119 0.757369
O O7 0.685993 0.704614 0.000000
O O8 0.118140 0.583137 0.261583
O O9 0.138692 0.743229 0.160507
O O10 0.162127 0.609770 0.000000
O O11 0.085116 0.500000 0.500000
O O12 0.000000 0.500000 0.703647
O O13 0.193438 0.894156 0.206980
O O14 0.111029 0.876116 0.000000
O O15 0.703866 0.000000 0.780775
O O16 0.725694 0.097462 0.000000
O O17 0.586203 0.620209 0.500000
O O18 0.500000 0.627145 0.299106
O O19 0.585218 0.500000 0.307388
#
# Coordination Sequence:
#
# PCOD9388512 Si02
#       7
#     4   8   8   4   8   8   8
#     4  11  23  33  43  66  99 128 153 197 260 307
#     4   9  18  32  53  82 108 130 166 213 254 297
#     4   9  20  37  54  75 100 128 165 212 263 304
#     4  11  25  39  51  71  98 133 178 215 251 306
#     4   9  18  33  53  72  90 121 166 207 247 303
#     4   8  14  28  51  76 101 128 161 205 252 296
#     4   9  19  35  53  75 106 142 174 204 246 302
#
# _framework density 16.596966999999999
#
# number of rings (size 3 to 8) (size 9 to 14) (size 15 to 20)
#    0.000    2.833    0.000    3.500    2.333    4.000 
#    0.000    3.333    0.000    2.000    0.000    3.500 
#    0.000    0.000    0.000    0.000    0.000    0.000 
#
# Total GULP energy -267404.060586 kJ/mol
# GULP energy per Si atom -5570.917929 kJ/mol
# Density = 1.655919 g / cm^3
# Si number density = 16.596967 Si / 1000 Ang^3
#
#
#
# Elastic Constant Matrix: (Units=GPa)
#
#
# Indices 1 2 3 4 5 6 
#
# 1 126.8009 67.4346 61.4450 0.0000 0.0000 0.0000
# 2 67.4346 91.6240 36.3629 0.0000 0.0000 0.0000
# 3 61.4450 36.3629 52.5262 0.0000 0.0000 0.0000
# 4 0.0000 0.0000 0.0000 3.1149 0.0000 0.0000
# 5 0.0000 0.0000 0.0000 0.0000 -11.0027 0.0000
# 6 0.0000 0.0000 0.0000 0.0000 0.0000 10.6868
#
#
#
# Elastic Compliance Matrix: (Units=1/GPa)
#
#
# Indices 1 2 3 4 5 6 
#
# 1 0.021933 -0.008218 -0.019968 0.000000 0.000000 0.000000
# 2 -0.008218 0.018128 -0.002937 0.000000 0.000000 0.000000
# 3 -0.019968 -0.002937 0.044429 0.000000 0.000000 0.000000
# 4 0.000000 0.000000 0.000000 0.321034 0.000000 0.000000
# 5 0.000000 0.000000 0.000000 0.000000 -0.090887 0.000000
# 6 0.000000 0.000000 0.000000 0.000000 0.000000 0.093573
#
#
# Mechanical properties :
#
#
# Convention : Reuss Voigt Hill
#
# Bulk Modulus (GPa) = 44.95248 66.82624 55.88936
# Shear Modulus (GPa) = 10.46314 7.60706 9.03510
#
# Velocity S-wave (km/s) = 2.51355 2.14321 2.33573
# Velocity P-wave (km/s) = 5.96385 6.81733 6.40482
#
# Compressibility (1/GPa) = 0.02224571
#
# Stress axis : x y z
#
# Youngs Moduli (GPa) = 45.59437 55.16428 22.50766
#
# Poissons Ratio (x) = 0.45332 0.44943
# Poissons Ratio (y) = 0.37467 0.06610
# Poissons Ratio (z) = 0.91042 0.16200
#
# Static dielectric constant tensor:
#      x y z
#    x 1.526470 0.000000 0.000000 
#    y 0.000000 1.583200 0.000000 
#    z 0.000000 0.000000 1.557480 
# 
# From -- ./inp_files/9210.got.cif
#   From: 2010.05.17/outbox.cif.g08.bks.cpg/sg47_5_cif.got.tgz:9210.got - 2010.06.03 20:15:42.
