data_PCOD9388361
_publ_section_title
;
Structure prediction by ZEFSAII (Michael W. Deem and Ramdas Pophale) SiO2 
 PCOD9388361
Probable space group: P M M M
;
_chemical_formula_sum "Si O2"
_cell_formula_units_Z 40
_cell_length_a 8.045683
_cell_length_b 13.806610
_cell_length_c 17.373751
_cell_angle_alpha 90.000000
_cell_angle_beta 90.000000
_cell_angle_gamma 90.000000
_cell_volume 1929.938935
_symmetry_space_group_name_H-M "P M M M"
_symmetry_group_IT_number 47
_symmetry_cell_setting 'orthorhombic'
loop_
_space_group_symop_operation_xyz
x,y,z
-x,-y,z
x,-y,-z
-x,y,-z
-x,-y,-z
x,y,-z
-x,y,z
x,-y,z
loop_
_atom_site_type_symbol
_atom_site_label
_atom_site_fract_x
_atom_site_fract_y
_atom_site_fract_z
Si Si1 0.807199 0.000000 0.594185
Si Si2 0.805566 0.301794 0.160049
Si Si3 0.693936 0.607642 0.686317
Si Si4 0.692736 0.615391 0.000000
Si Si5 0.800492 0.790262 0.412559
Si Si6 0.797120 0.890765 0.088876
O O1 0.734874 0.895111 0.616813
O O2 0.807137 0.000000 0.500000
O O3 0.000000 0.000000 0.620198
O O4 0.715289 0.363850 0.224494
O O5 0.782582 0.348059 0.076365
O O6 0.742093 0.192014 0.147548
O O7 0.000000 0.298935 0.181105
O O8 0.500000 0.603325 0.667867
O O9 0.766383 0.500000 0.672210
O O10 0.765693 0.696893 0.638314
O O11 0.693135 0.500000 0.000000
O O12 0.500000 0.648393 0.000000
O O13 0.739308 0.775373 0.500000
O O14 0.000000 0.801075 0.416283
O O15 0.000000 0.888444 0.088736
O O16 0.745522 0.000000 0.107903
O O17 0.746558 0.870300 0.000000
#
# Coordination Sequence:
#
# PCOD9388361 Si02
#       6
#     4   8   8   4   8   8
#     4   7  12  28  57  91 121 144 173 222 281 335
#     4  11  21  36  59  84 107 140 191 242 280 325
#     4  11  25  42  56  76 115 160 194 232 288 344
#     4  11  23  37  54  77 108 146 183 225 286 349
#     4   9  18  36  64  93 117 145 186 233 279 334
#     4   8  14  28  52  81 110 136 169 219 277 333
#
# _framework density 20.726043000000001
#
# number of rings (size 3 to 8) (size 9 to 14) (size 15 to 20)
#    0.000    2.400    1.000    3.900    0.000    5.600 
#    1.800    2.500    0.000    4.200    0.000    0.000 
#    0.000    0.000    0.000    0.000    0.000    0.000 
#
# Total GULP energy -223110.646693 kJ/mol
# GULP energy per Si atom -5577.766167 kJ/mol
# Density = 2.067887 g / cm^3
# Si number density = 20.726043 Si / 1000 Ang^3
#
#
#
# Elastic Constant Matrix: (Units=GPa)
#
#
# Indices 1 2 3 4 5 6 
#
# 1 20.1276 10.0789 -5.4067 0.0000 0.0000 0.0000
# 2 10.0789 188.5398 54.8540 0.0000 0.0000 0.0000
# 3 -5.4067 54.8540 60.4706 0.0000 0.0000 0.0000
# 4 0.0000 0.0000 0.0000 -129.6339 0.0000 0.0000
# 5 0.0000 0.0000 0.0000 0.0000 25.0463 0.0000
# 6 0.0000 0.0000 0.0000 0.0000 0.0000 50.3987
#
#
#
# Elastic Compliance Matrix: (Units=1/GPa)
#
#
# Indices 1 2 3 4 5 6 
#
# 1 0.055474 -0.005989 0.010393 0.000000 0.000000 0.000000
# 2 -0.005989 0.007852 -0.007658 0.000000 0.000000 0.000000
# 3 0.010393 -0.007658 0.024413 0.000000 0.000000 0.000000
# 4 0.000000 0.000000 0.000000 -0.007714 0.000000 0.000000
# 5 0.000000 0.000000 0.000000 0.000000 0.039926 0.000000
# 6 0.000000 0.000000 0.000000 0.000000 0.000000 0.019842
#
#
# Mechanical properties :
#
#
# Convention : Reuss Voigt Hill
#
# Bulk Modulus (GPa) = 12.31075 43.13226 27.72150
# Shear Modulus (GPa) = 28.83852 3.13633 15.98743
#
# Velocity S-wave (km/s) = 3.73421 1.23147 2.78037
# Velocity P-wave (km/s) = 4.95430 4.78308 4.86944
#
# Compressibility (1/GPa) = 0.08122983
#
# Stress axis : x y z
#
# Youngs Moduli (GPa) = 18.02652 127.35234 40.96136
#
# Poissons Ratio (x) = 0.76274 -0.42571
# Poissons Ratio (y) = 0.10796 0.31370
# Poissons Ratio (z) = -0.18735 0.97531
#
# Static dielectric constant tensor:
#      x y z
#    x 1.763700 0.000000 0.000000 
#    y 0.000000 1.799440 0.000000 
#    z 0.000000 0.000000 1.713060 
# 
# From -- ./inp_files/20678.got.cif
#   From: 2010.05.17/outbox.cif.g08.bks.cpg/sg47_11_cif.got.tgz:20678.got - 2010.06.03 20:15:42.
