data_PCOD9388082
_publ_section_title
;
Structure prediction by ZEFSAII (Michael W. Deem and Ramdas Pophale) SiO2 
 PCOD9388082
Probable space group: P M M M
;
_chemical_formula_sum "Si O2"
_cell_formula_units_Z 64
_cell_length_a 24.575814
_cell_length_b 15.664203
_cell_length_c 8.260352
_cell_angle_alpha 90.000000
_cell_angle_beta 90.000000
_cell_angle_gamma 90.000000
_cell_volume 3179.909561
_symmetry_space_group_name_H-M "P M M M"
_symmetry_group_IT_number 47
_symmetry_cell_setting 'orthorhombic'
loop_
_space_group_symop_operation_xyz
x,y,z
-x,-y,z
x,-y,-z
-x,y,-z
-x,-y,-z
x,y,-z
-x,y,z
x,-y,z
loop_
_atom_site_type_symbol
_atom_site_label
_atom_site_fract_x
_atom_site_fract_y
_atom_site_fract_z
Si Si1 0.349323 0.768911 0.190218
Si Si2 0.167919 0.177436 0.814131
Si Si3 0.297010 0.594080 0.805363
Si Si4 0.061984 0.898728 0.692235
Si Si5 0.178651 0.357563 0.313425
Si Si6 0.437263 0.903829 0.305121
Si Si7 0.266277 0.906792 0.693293
Si Si8 0.940794 0.602716 0.311146
O O1 0.331819 0.675488 0.257092
O O2 0.399601 0.824576 0.256265
O O3 0.298506 0.831171 0.222312
O O4 0.358197 0.758662 0.000000
O O5 0.105444 0.154219 0.790622
O O6 0.183789 0.256158 0.701288
O O7 0.204624 0.099728 0.753444
O O8 0.179989 0.198462 0.000000
O O9 0.314515 0.500000 0.746628
O O10 0.232897 0.605013 0.765590
O O11 0.301633 0.595191 0.000000
O O12 0.071419 0.885709 0.500000
O O13 0.000000 0.874459 0.727661
O O14 0.067635 0.000000 0.723586
O O15 0.177488 0.386438 0.500000
O O16 0.118444 0.375020 0.239600
O O17 0.435976 0.907031 0.500000
O O18 0.500000 0.891292 0.254122
O O19 0.420561 0.000000 0.248497
O O20 0.269493 0.896959 0.500000
O O21 0.288868 0.000000 0.734498
O O22 0.939702 0.632136 0.500000
O O23 0.942264 0.500000 0.312215
O O24 0.000000 0.631499 0.243287
#
# Coordination Sequence:
#
# PCOD9388082 Si02
#       8
#     8   8   8   8   8   8   8   8
#     4  11  22  36  58  89 122 157 198 244 290 342
#     4  12  24  36  51  75 108 142 179 228 286 346
#     4  10  22  40  59  81 115 157 196 243 305 361
#     4   9  19  37  58  76  96 129 177 230 283 343
#     4  11  21  34  55  80 105 139 188 239 290 354
#     4   9  19  37  61  90 127 170 208 242 287 341
#     4  11  23  38  57  81 112 151 190 233 287 345
#     4   8  15  29  49  74 101 126 161 218 284 345
#
# _framework density 20.126359000000001
#
# number of rings (size 3 to 8) (size 9 to 14) (size 15 to 20)
#    0.000    1.875    1.250    4.500    0.000    6.750 
#    0.000    2.500    0.000    1.500    0.000    7.000 
#    0.000    0.000    0.000    0.000    0.000    0.000 
#
# Total GULP energy -357029.738896 kJ/mol
# GULP energy per Si atom -5578.589670 kJ/mol
# Density = 2.008055 g / cm^3
# Si number density = 20.126359 Si / 1000 Ang^3
#
#
#
# Elastic Constant Matrix: (Units=GPa)
#
#
# Indices 1 2 3 4 5 6 
#
# 1 109.0977 59.0734 12.6293 0.0000 0.0000 0.0000
# 2 59.0734 126.4812 14.4788 0.0000 0.0000 0.0000
# 3 12.6293 14.4788 13.2931 0.0000 0.0000 0.0000
# 4 0.0000 0.0000 0.0000 23.8598 0.0000 0.0000
# 5 0.0000 0.0000 0.0000 0.0000 36.7386 0.0000
# 6 0.0000 0.0000 0.0000 0.0000 0.0000 28.8485
#
#
#
# Elastic Compliance Matrix: (Units=1/GPa)
#
#
# Indices 1 2 3 4 5 6 
#
# 1 0.012731 -0.005211 -0.006419 0.000000 0.000000 0.000000
# 2 -0.005211 0.011166 -0.007211 0.000000 0.000000 0.000000
# 3 -0.006419 -0.007211 0.089179 0.000000 0.000000 0.000000
# 4 0.000000 0.000000 0.000000 0.041912 0.000000 0.000000
# 5 0.000000 0.000000 0.000000 0.000000 0.027219 0.000000
# 6 0.000000 0.000000 0.000000 0.000000 0.000000 0.034664
#
#
# Mechanical properties :
#
#
# Convention : Reuss Voigt Hill
#
# Bulk Modulus (GPa) = 13.26370 46.80389 30.03380
# Shear Modulus (GPa) = 17.87735 28.73540 23.30638
#
# Velocity S-wave (km/s) = 2.98360 3.78266 3.40664
# Velocity P-wave (km/s) = 4.29810 6.51026 5.51621
#
# Compressibility (1/GPa) = 0.07539374
#
# Stress axis : x y z
#
# Youngs Moduli (GPa) = 78.54900 89.56067 11.21339
#
# Poissons Ratio (x) = 0.46672 0.07198
# Poissons Ratio (y) = 0.40933 0.08085
# Poissons Ratio (z) = 0.50422 0.64578
#
# Static dielectric constant tensor:
#      x y z
#    x 1.749110 0.000000 0.000000 
#    y 0.000000 1.744870 0.000000 
#    z 0.000000 0.000000 1.722760 
# 
# From -- ./inp_files/12787.got.cif
#   From: 2010.05.17/outbox.cif.g08.bks.cpg/sg47_7_cif.got.tgz:12787.got - 2010.06.03 20:15:42.
