data_PCOD9388812
_publ_section_title
;
Structure prediction by ZEFSAII (Michael W. Deem and Ramdas Pophale) SiO2 
 PCOD9388812
Probable space group: P M M M
;
_chemical_formula_sum "Si O2"
_cell_formula_units_Z 52
_cell_length_a 7.403682
_cell_length_b 14.165485
_cell_length_c 27.955372
_cell_angle_alpha 90.000000
_cell_angle_beta 90.000000
_cell_angle_gamma 90.000000
_cell_volume 2931.868457
_symmetry_space_group_name_H-M "P M M M"
_symmetry_group_IT_number 47
_symmetry_cell_setting 'orthorhombic'
loop_
_space_group_symop_operation_xyz
x,y,z
-x,-y,z
x,-y,-z
-x,y,-z
-x,-y,-z
x,y,-z
-x,y,z
x,-y,z
loop_
_atom_site_type_symbol
_atom_site_label
_atom_site_fract_x
_atom_site_fract_y
_atom_site_fract_z
Si Si1 0.712695 0.395904 0.095919
Si Si2 0.781350 0.701519 0.194604
Si Si3 0.788018 0.896425 0.848458
Si Si4 0.217878 0.387334 0.396950
Si Si5 0.219218 0.612302 0.500000
Si Si6 0.281347 0.199281 0.053295
Si Si7 0.779523 0.610078 0.707232
O O1 0.500000 0.399899 0.084761
O O2 0.788588 0.500000 0.086083
O O3 0.731274 0.369825 0.151915
O O4 0.784185 0.304653 0.067632
O O5 0.713846 0.805292 0.179420
O O6 0.719193 0.666945 0.246331
O O7 0.000000 0.703806 0.195201
O O8 0.773681 0.870720 0.904499
O O9 0.000000 0.900245 0.836612
O O10 0.710509 0.000000 0.838904
O O11 0.254104 0.500000 0.396722
O O12 0.283196 0.349721 0.448456
O O13 0.280717 0.352786 0.344968
O O14 0.000000 0.377269 0.397326
O O15 0.259729 0.500000 0.500000
O O16 0.000000 0.619448 0.500000
O O17 0.500000 0.201192 0.053736
O O18 0.222317 0.173934 0.000000
O O19 0.727675 0.500000 0.711830
O O20 0.000000 0.611573 0.707008
#
# Coordination Sequence:
#
# PCOD9388812 Si02
#       7
#     8   8   8   8   4   8   8
#     4   9  17  28  41  57  77  99 119 139 166 200
#     4   9  16  26  40  55  71  93 120 148 176 208
#     4   9  18  31  44  57  73  93 116 143 178 216
#     4   7   9  12  18  31  53  81 111 138 163 194
#     4   7   8  10  16  26  46  80 114 136 158 193
#     4   9  18  31  45  61  78  94 115 142 169 201
#     4   8  12  17  27  45  66  86 111 142 171 199
#
# _framework density 17.736129999999999
#
# number of rings (size 3 to 8) (size 9 to 14) (size 15 to 20)
#    0.000    3.615    0.000    2.308    0.000    2.154 
#    0.000    3.077    0.000    0.000    0.000    4.308 
#    0.000    0.000    0.000    1.385    0.000   37.077 
#
# Total GULP energy -289500.113907 kJ/mol
# GULP energy per Si atom -5567.309883 kJ/mol
# Density = 1.769576 g / cm^3
# Si number density = 17.736130 Si / 1000 Ang^3
#
#
#
# Elastic Constant Matrix: (Units=GPa)
#
#
# Indices 1 2 3 4 5 6 
#
# 1 57.2469 -0.5447 -10.3481 0.0000 0.0000 0.0000
# 2 -0.5447 61.0543 9.0054 0.0000 0.0000 0.0000
# 3 -10.3481 9.0054 107.6133 0.0000 0.0000 0.0000
# 4 0.0000 0.0000 0.0000 7.7779 0.0000 0.0000
# 5 0.0000 0.0000 0.0000 0.0000 28.7558 0.0000
# 6 0.0000 0.0000 0.0000 0.0000 0.0000 6.8762
#
#
#
# Elastic Compliance Matrix: (Units=1/GPa)
#
#
# Indices 1 2 3 4 5 6 
#
# 1 0.017778 -0.000095 0.001717 0.000000 0.000000 0.000000
# 2 -0.000095 0.016584 -0.001397 0.000000 0.000000 0.000000
# 3 0.001717 -0.001397 0.009575 0.000000 0.000000 0.000000
# 4 0.000000 0.000000 0.000000 0.128570 0.000000 0.000000
# 5 0.000000 0.000000 0.000000 0.000000 0.034776 0.000000
# 6 0.000000 0.000000 0.000000 0.000000 0.000000 0.145429
#
#
# Mechanical properties :
#
#
# Convention : Reuss Voigt Hill
#
# Bulk Modulus (GPa) = 22.52861 24.68219 23.60540
# Shear Modulus (GPa) = 13.62194 23.86877 18.74536
#
# Velocity S-wave (km/s) = 2.77435 3.67246 3.25453
# Velocity P-wave (km/s) = 4.79503 5.65059 5.24030
#
# Compressibility (1/GPa) = 0.04438800
#
# Stress axis : x y z
#
# Youngs Moduli (GPa) = 56.25010 60.29888 104.44322
#
# Poissons Ratio (x) = 0.00571 -0.17937
# Poissons Ratio (y) = 0.00533 0.14590
# Poissons Ratio (z) = -0.09661 0.08423
#
# Static dielectric constant tensor:
#      x y z
#    x 1.691800 0.000000 0.000000 
#    y 0.000000 1.589450 0.000000 
#    z 0.000000 0.000000 1.644880 
# 
# From -- ./inp_files/33406.got.cif
#   From: 2010.05.17/outbox.cif.g08.bks.cpg/sg47_17_cif.got.tgz:33406.got - 2010.06.03 20:15:42.
