data_PCOD9388227
_publ_section_title
;
Structure prediction by ZEFSAII (Michael W. Deem and Ramdas Pophale) SiO2 
 PCOD9388227
Probable space group: P M M M
;
_chemical_formula_sum "Si O2"
_cell_formula_units_Z 64
_cell_length_a 9.054700
_cell_length_b 23.923647
_cell_length_c 19.644855
_cell_angle_alpha 90.000000
_cell_angle_beta 90.000000
_cell_angle_gamma 90.000000
_cell_volume 4255.496906
_symmetry_space_group_name_H-M "P M M M"
_symmetry_group_IT_number 47
_symmetry_cell_setting 'orthorhombic'
loop_
_space_group_symop_operation_xyz
x,y,z
-x,-y,z
x,-y,-z
-x,y,-z
-x,-y,-z
x,y,-z
-x,y,z
x,-y,z
loop_
_atom_site_type_symbol
_atom_site_label
_atom_site_fract_x
_atom_site_fract_y
_atom_site_fract_z
Si Si1 0.677146 0.768935 0.421082
Si Si2 0.679413 0.242307 0.924874
Si Si3 0.323828 0.434560 0.579626
Si Si4 0.824141 0.665651 0.655680
Si Si5 0.677541 0.110810 0.077263
Si Si6 0.676015 0.721233 0.219229
Si Si7 0.674169 0.839899 0.294395
Si Si8 0.823826 0.936607 0.210673
O O1 0.709548 0.779205 0.500000
O O2 0.500000 0.759418 0.413864
O O3 0.759237 0.714203 0.393347
O O4 0.714383 0.819955 0.370494
O O5 0.500000 0.244059 0.924612
O O6 0.717005 0.176683 0.916668
O O7 0.727643 0.276774 0.858963
O O8 0.729650 0.260667 0.000000
O O9 0.289737 0.423163 0.500000
O O10 0.500000 0.425852 0.588196
O O11 0.293134 0.500000 0.592361
O O12 0.235683 0.392813 0.627401
O O13 0.761118 0.680306 0.730294
O O14 0.000000 0.667436 0.655502
O O15 0.500000 0.106750 0.085203
O O16 0.755862 0.077477 0.136882
O O17 0.713992 0.092937 0.000000
O O18 0.500000 0.709557 0.222287
O O19 0.695729 0.784157 0.248661
O O20 0.500000 0.853179 0.292141
O O21 0.762729 0.891055 0.263354
O O22 0.000000 0.932432 0.206885
O O23 0.783522 0.000000 0.229890
#
# Coordination Sequence:
#
# PCOD9388227 Si02
#       8
#     8   8   8   8   8   8   8   8
#     4   9  18  33  52  71  91 115 144 182 228 274
#     4   8  13  24  45  69  89 111 144 186 228 268
#     4   9  18  33  51  68  90 126 168 202 231 265
#     4  11  21  29  42  69 102 130 157 189 222 261
#     4   9  17  31  50  68  85 109 146 188 224 262
#     4   9  16  29  48  67  90 120 152 187 229 271
#     4   9  17  31  50  69  85 108 145 184 224 269
#     4  11  23  34  44  61  88 119 147 179 221 272
#
# _framework density 15.039370999999999
#
# number of rings (size 3 to 8) (size 9 to 14) (size 15 to 20)
#    0.000    2.625    1.250    3.750    0.000    5.750 
#    0.000    1.875    0.000    0.750    0.000    2.625 
#    0.000    0.500    0.000    5.750    0.000    1.625 
#
# Total GULP energy -356737.456040 kJ/mol
# GULP energy per Si atom -5574.022751 kJ/mol
# Density = 1.500514 g / cm^3
# Si number density = 15.039371 Si / 1000 Ang^3
#
#
#
# Elastic Constant Matrix: (Units=GPa)
#
#
# Indices 1 2 3 4 5 6 
#
# 1 42.5985 45.0581 46.5447 0.0000 0.0000 0.0000
# 2 45.0581 74.7940 55.6315 0.0000 0.0000 0.0000
# 3 46.5447 55.6315 123.6801 0.0000 0.0000 0.0000
# 4 0.0000 0.0000 0.0000 22.8620 0.0000 0.0000
# 5 0.0000 0.0000 0.0000 0.0000 5.7985 0.0000
# 6 0.0000 0.0000 0.0000 0.0000 0.0000 66.3751
#
#
#
# Elastic Compliance Matrix: (Units=1/GPa)
#
#
# Indices 1 2 3 4 5 6 
#
# 1 0.074677 -0.036193 -0.011823 0.000000 0.000000 0.000000
# 2 -0.036193 0.037634 -0.003307 0.000000 0.000000 0.000000
# 3 -0.011823 -0.003307 0.014022 0.000000 0.000000 0.000000
# 4 0.000000 0.000000 0.000000 0.043741 0.000000 0.000000
# 5 0.000000 0.000000 0.000000 0.000000 0.172458 0.000000
# 6 0.000000 0.000000 0.000000 0.000000 0.000000 0.015066
#
#
# Mechanical properties :
#
#
# Convention : Reuss Voigt Hill
#
# Bulk Modulus (GPa) = 42.22009 59.50458 50.86234
# Shear Modulus (GPa) = 10.68057 25.26301 17.97179
#
# Velocity S-wave (km/s) = 2.66780 4.10297 3.46060
# Velocity P-wave (km/s) = 6.13380 7.88020 7.06120
#
# Compressibility (1/GPa) = 0.02368541
#
# Stress axis : x y z
#
# Youngs Moduli (GPa) = 13.39109 26.57195 71.31455
#
# Poissons Ratio (x) = 0.96172 0.84318
# Poissons Ratio (y) = 0.48467 0.23584
# Poissons Ratio (z) = 0.15833 0.08788
#
# Static dielectric constant tensor:
#      x y z
#    x 1.493080 0.000000 0.000000 
#    y 0.000000 1.475620 0.000000 
#    z 0.000000 0.000000 1.518450 
# 
# From -- ./inp_files/30142.got.cif
#   From: 2010.05.17/outbox.cif.g08.bks.cpg/sg47_16_cif.got.tgz:30142.got - 2010.06.03 20:15:42.
