data_PCOD9388077
_publ_section_title
;
Structure prediction by ZEFSAII (Michael W. Deem and Ramdas Pophale) SiO2 
 PCOD9388077
Probable space group: P M M M
;
_chemical_formula_sum "Si O2"
_cell_formula_units_Z 36
_cell_length_a 18.408596
_cell_length_b 11.070415
_cell_length_c 9.453415
_cell_angle_alpha 90.000000
_cell_angle_beta 90.000000
_cell_angle_gamma 90.000000
_cell_volume 1926.518980
_symmetry_space_group_name_H-M "P M M M"
_symmetry_group_IT_number 47
_symmetry_cell_setting 'orthorhombic'
loop_
_space_group_symop_operation_xyz
x,y,z
-x,-y,z
x,-y,-z
-x,y,-z
-x,-y,-z
x,y,-z
-x,y,z
x,-y,z
loop_
_atom_site_type_symbol
_atom_site_label
_atom_site_fract_x
_atom_site_fract_y
_atom_site_fract_z
Si Si1 0.581695 0.643609 0.160540
Si Si2 0.087473 0.636944 0.833161
Si Si3 0.840913 0.860712 0.668858
Si Si4 0.413617 0.000000 0.837147
Si Si5 0.328266 0.198800 0.333347
O O1 0.500000 0.684666 0.204413
O O2 0.578251 0.500000 0.151679
O O3 0.646406 0.675794 0.266401
O O4 0.594403 0.690236 0.000000
O O5 0.110452 0.500000 0.787332
O O6 0.119398 0.750946 0.748702
O O7 0.000000 0.640417 0.821324
O O8 0.105755 0.648205 0.000000
O O9 0.855092 0.852470 0.500000
O O10 0.754786 0.839024 0.690311
O O11 0.858767 0.000000 0.712396
O O12 0.380749 0.888230 0.753542
O O13 0.500000 0.000000 0.833598
O O14 0.389872 0.000000 0.000000
O O15 0.341826 0.192542 0.500000
#
# Coordination Sequence:
#
# PCOD9388077 Si02
#       5
#     8   8   8   4   8
#     4   9  19  36  55  76 106 143 185 236 290 345
#     4   9  20  40  64  91 122 153 191 241 291 344
#     4  10  22  40  58  82 121 160 195 238 289 347
#     4  11  23  37  55  79 106 141 188 237 285 338
#     4  11  22  37  55  78 111 147 185 233 286 339
#
# _framework density 18.686554000000001
#
# number of rings (size 3 to 8) (size 9 to 14) (size 15 to 20)
#    0.000    2.111    1.111    3.000    0.000    8.889 
#    0.000    8.889    0.000    0.000    0.000    0.000 
#    0.000    0.000    0.000    0.000    0.000    0.000 
#
# Total GULP energy -200659.511618 kJ/mol
# GULP energy per Si atom -5573.875323 kJ/mol
# Density = 1.864402 g / cm^3
# Si number density = 18.686554 Si / 1000 Ang^3
#
#
#
# Elastic Constant Matrix: (Units=GPa)
#
#
# Indices 1 2 3 4 5 6 
#
# 1 45.2434 50.5901 49.5026 0.0000 0.0000 0.0000
# 2 50.5901 145.1078 63.9054 0.0000 0.0000 0.0000
# 3 49.5026 63.9054 78.1479 0.0000 0.0000 0.0000
# 4 0.0000 0.0000 0.0000 52.1411 0.0000 0.0000
# 5 0.0000 0.0000 0.0000 0.0000 33.5940 0.0000
# 6 0.0000 0.0000 0.0000 0.0000 0.0000 17.7550
#
#
#
# Elastic Compliance Matrix: (Units=1/GPa)
#
#
# Indices 1 2 3 4 5 6 
#
# 1 0.078214 -0.008516 -0.042581 0.000000 0.000000 0.000000
# 2 -0.008516 0.011697 -0.004171 0.000000 0.000000 0.000000
# 3 -0.042581 -0.004171 0.043180 0.000000 0.000000 0.000000
# 4 0.000000 0.000000 0.000000 0.019179 0.000000 0.000000
# 5 0.000000 0.000000 0.000000 0.000000 0.029767 0.000000
# 6 0.000000 0.000000 0.000000 0.000000 0.000000 0.056322
#
#
# Mechanical properties :
#
#
# Convention : Reuss Voigt Hill
#
# Bulk Modulus (GPa) = 44.33435 66.27725 55.30580
# Shear Modulus (GPa) = 14.02866 27.66476 20.84671
#
# Velocity S-wave (km/s) = 2.74293 3.85185 3.34368
# Velocity P-wave (km/s) = 5.81449 7.43823 6.67591
#
# Compressibility (1/GPa) = 0.02255587
#
# Stress axis : x y z
#
# Youngs Moduli (GPa) = 12.78543 85.48936 23.15900
#
# Poissons Ratio (x) = 0.72802 0.98612
# Poissons Ratio (y) = 0.10888 0.09660
# Poissons Ratio (z) = 0.54441 0.35659
#
# Static dielectric constant tensor:
#      x y z
#    x 1.629540 0.000000 0.000000 
#    y 0.000000 1.913890 0.000000 
#    z 0.000000 0.000000 1.623250 
# 
# From -- ./inp_files/3739.got.cif
#   From: 2010.05.17/outbox.cif.g08.bks.cpg/sg47_2_cif.got.tgz:3739.got - 2010.06.03 20:15:42.
