data_PCOD9388907
_publ_section_title
;
Structure prediction by ZEFSAII (Michael W. Deem and Ramdas Pophale) SiO2 
 PCOD9388907
Probable space group: P M M M
;
_chemical_formula_sum "Si O2"
_cell_formula_units_Z 44
_cell_length_a 7.336008
_cell_length_b 28.958566
_cell_length_c 10.122112
_cell_angle_alpha 90.000000
_cell_angle_beta 90.000000
_cell_angle_gamma 90.000000
_cell_volume 2150.344225
_symmetry_space_group_name_H-M "P M M M"
_symmetry_group_IT_number 47
_symmetry_cell_setting 'orthorhombic'
loop_
_space_group_symop_operation_xyz
x,y,z
-x,-y,z
x,-y,-z
-x,y,-z
-x,-y,-z
x,y,-z
-x,y,z
x,-y,z
loop_
_atom_site_type_symbol
_atom_site_label
_atom_site_fract_x
_atom_site_fract_y
_atom_site_fract_z
Si Si1 0.222024 0.368079 0.848071
Si Si2 0.283992 0.920802 0.350025
Si Si3 0.777809 0.263998 0.848330
Si Si4 0.276925 0.000000 0.152502
Si Si5 0.218631 0.185643 0.350605
Si Si6 0.777939 0.552086 0.651844
O O1 0.277209 0.316036 0.809692
O O2 0.284445 0.408055 0.750156
O O3 0.000000 0.368566 0.846548
O O4 0.276854 0.376054 0.000000
O O5 0.211180 0.927892 0.500000
O O6 0.500000 0.929008 0.358760
O O7 0.216758 0.955657 0.238211
O O8 0.257528 0.867287 0.313513
O O9 0.713863 0.223990 0.750989
O O10 0.000000 0.263538 0.847252
O O11 0.722464 0.256099 0.000000
O O12 0.500000 0.000000 0.148641
O O13 0.217209 0.000000 0.000000
O O14 0.286877 0.192716 0.500000
O O15 0.000000 0.189998 0.354572
O O16 0.723321 0.560313 0.500000
O O17 0.722366 0.500000 0.689435
O O18 0.000000 0.552491 0.653510
#
# Coordination Sequence:
#
# PCOD9388907 Si02
#       6
#     8   8   8   4   8   8
#     4   8  13  20  29  41  57  80 113 149 183 223
#     4   9  17  30  47  64  83 108 134 159 192 233
#     4   8  14  24  36  50  70  96 124 155 193 234
#     4   9  17  29  46  67  86 104 132 167 194 222
#     4   9  17  28  42  61  82 103 131 165 196 228
#     4   8  13  19  25  35  53  77 107 146 190 229
#
# _framework density 20.461839000000001
#
# number of rings (size 3 to 8) (size 9 to 14) (size 15 to 20)
#    0.000    3.545    0.000    1.909    0.000    2.909 
#    0.000    5.909    0.000    2.727    0.000    0.000 
#    0.000    0.000    0.000    0.000    0.000    0.909 
#
# Total GULP energy -245413.661820 kJ/mol
# GULP energy per Si atom -5577.583223 kJ/mol
# Density = 2.041527 g / cm^3
# Si number density = 20.461839 Si / 1000 Ang^3
#
#
#
# Elastic Constant Matrix: (Units=GPa)
#
#
# Indices 1 2 3 4 5 6 
#
# 1 78.6488 2.3648 6.4412 0.0000 0.0000 0.0000
# 2 2.3648 224.0733 170.9356 0.0000 0.0000 0.0000
# 3 6.4412 170.9356 160.4697 0.0000 0.0000 0.0000
# 4 0.0000 0.0000 0.0000 40.3260 0.0000 0.0000
# 5 0.0000 0.0000 0.0000 0.0000 -7.9888 0.0000
# 6 0.0000 0.0000 0.0000 0.0000 0.0000 17.4946
#
#
#
# Elastic Compliance Matrix: (Units=1/GPa)
#
#
# Indices 1 2 3 4 5 6 
#
# 1 0.012836 0.001374 -0.001979 0.000000 0.000000 0.000000
# 2 0.001374 0.023963 -0.025581 0.000000 0.000000 0.000000
# 3 -0.001979 -0.025581 0.033560 0.000000 0.000000 0.000000
# 4 0.000000 0.000000 0.000000 0.024798 0.000000 0.000000
# 5 0.000000 0.000000 0.000000 0.000000 -0.125175 0.000000
# 6 0.000000 0.000000 0.000000 0.000000 0.000000 0.057161
#
#
# Mechanical properties :
#
#
# Convention : Reuss Voigt Hill
#
# Bulk Modulus (GPa) = 55.59469 91.40832 73.50150
# Shear Modulus (GPa) = 58.47351 28.86305 43.66828
#
# Velocity S-wave (km/s) = 5.35153 3.75984 4.62468
# Velocity P-wave (km/s) = 8.08790 7.97610 8.03219
#
# Compressibility (1/GPa) = 0.01798733
#
# Stress axis : x y z
#
# Youngs Moduli (GPa) = 77.90875 41.73141 29.79709
#
# Poissons Ratio (x) = -0.05736 0.05898
# Poissons Ratio (y) = -0.10709 0.76223
# Poissons Ratio (z) = 0.15421 1.06752
#
# Static dielectric constant tensor:
#      x y z
#    x 1.814760 0.000000 0.000000 
#    y 0.000000 1.695540 0.000000 
#    z 0.000000 0.000000 1.694640 
# 
# From -- ./inp_files/2085.got.cif
#   From: 2010.05.17/outbox.cif.g08.bks.cpg/sg47_2_cif.got.tgz:2085.got - 2010.06.03 20:15:42.
