data_PCOD9388740
_publ_section_title
;
Structure prediction by ZEFSAII (Michael W. Deem and Ramdas Pophale) SiO2 
 PCOD9388740
Probable space group: P M M M
;
_chemical_formula_sum "Si O2"
_cell_formula_units_Z 36
_cell_length_a 9.510374
_cell_length_b 7.427792
_cell_length_c 24.759580
_cell_angle_alpha 90.000000
_cell_angle_beta 90.000000
_cell_angle_gamma 90.000000
_cell_volume 1749.043469
_symmetry_space_group_name_H-M "P M M M"
_symmetry_group_IT_number 47
_symmetry_cell_setting 'orthorhombic'
loop_
_space_group_symop_operation_xyz
x,y,z
-x,-y,z
x,-y,-z
-x,y,-z
-x,-y,-z
x,y,-z
-x,y,z
x,-y,z
loop_
_atom_site_type_symbol
_atom_site_label
_atom_site_fract_x
_atom_site_fract_y
_atom_site_fract_z
Si Si1 0.160047 0.212949 0.823584
Si Si2 0.837085 0.779745 0.617820
Si Si3 0.163552 0.716184 0.058011
Si Si4 0.171063 0.790573 0.500000
Si Si5 0.661323 0.779582 0.278037
O O1 0.223316 0.234307 0.883691
O O2 0.255147 0.282848 0.775087
O O3 0.000000 0.287230 0.822949
O O4 0.147764 0.000000 0.814621
O O5 0.787577 0.715988 0.558489
O O6 0.741995 0.723387 0.667743
O O7 0.000000 0.727114 0.625920
O O8 0.836316 0.000000 0.616277
O O9 0.162544 0.500000 0.056738
O O10 0.000000 0.777372 0.059121
O O11 0.223880 0.777704 0.000000
O O12 0.000000 0.786753 0.500000
O O13 0.214512 0.000000 0.500000
O O14 0.500000 0.722210 0.277555
O O15 0.661755 0.000000 0.277778
#
# Coordination Sequence:
#
# PCOD9388740 Si02
#       5
#     8   8   8   4   8
#     4   9  16  25  39  59  79 100 129 161 190 225
#     4   8  12  19  31  45  63  90 125 161 194 230
#     4   8  14  25  41  61  83 103 123 153 195 235
#     4   7  10  16  27  43  61  85 120 159 194 227
#     4   9  16  24  33  47  70  99 128 159 196 232
#
# _framework density 20.58268
#
# number of rings (size 3 to 8) (size 9 to 14) (size 15 to 20)
#    0.000    3.667    0.000    2.667    0.000    3.111 
#    0.000    2.778    0.000    4.667    0.000    4.667 
#    0.000    0.000    0.000    1.000    0.000   24.000 
#
# Total GULP energy -200482.991825 kJ/mol
# GULP energy per Si atom -5568.971995 kJ/mol
# Density = 2.053583 g / cm^3
# Si number density = 20.582680 Si / 1000 Ang^3
#
#
#
# Elastic Constant Matrix: (Units=GPa)
#
#
# Indices 1 2 3 4 5 6 
#
# 1 79.8298 4.5102 102.0767 0.0000 0.0000 0.0000
# 2 4.5102 62.6072 5.3382 0.0000 0.0000 0.0000
# 3 102.0767 5.3382 272.6658 0.0000 0.0000 0.0000
# 4 0.0000 0.0000 0.0000 66.6932 0.0000 0.0000
# 5 0.0000 0.0000 0.0000 0.0000 -5.6696 0.0000
# 6 0.0000 0.0000 0.0000 0.0000 0.0000 -7.2285
#
#
#
# Elastic Compliance Matrix: (Units=1/GPa)
#
#
# Indices 1 2 3 4 5 6 
#
# 1 0.024088 -0.000968 -0.008999 0.000000 0.000000 0.000000
# 2 -0.000968 0.016038 0.000048 0.000000 0.000000 0.000000
# 3 -0.008999 0.000048 0.007035 0.000000 0.000000 0.000000
# 4 0.000000 0.000000 0.000000 0.014994 0.000000 0.000000
# 5 0.000000 0.000000 0.000000 0.000000 -0.176378 0.000000
# 6 0.000000 0.000000 0.000000 0.000000 0.000000 -0.138341
#
#
# Mechanical properties :
#
#
# Convention : Reuss Voigt Hill
#
# Bulk Modulus (GPa) = 36.59688 70.99480 53.79584
# Shear Modulus (GPa) = -22.35946 30.97085 4.30569
#
# Velocity S-wave (km/s) = -3.29952 3.88326 1.44791
# Velocity P-wave (km/s) = 1.81749 7.39416 5.38409
#
# Compressibility (1/GPa) = 0.02732473
#
# Stress axis : x y z
#
# Youngs Moduli (GPa) = 41.51486 62.35113 142.13944
#
# Poissons Ratio (x) = 0.06036 1.27907
# Poissons Ratio (y) = 0.04019 -0.00688
# Poissons Ratio (z) = 0.37358 -0.00302
#
# Static dielectric constant tensor:
#      x y z
#    x 1.676430 0.000000 0.000000 
#    y 0.000000 1.792570 0.000000 
#    z 0.000000 0.000000 1.777870 
# 
# From -- ./inp_files/3885.got.cif
#   From: 2010.05.17/outbox.cif.g08.bks.cpg/sg47_2_cif.got.tgz:3885.got - 2010.06.03 20:15:42.
