data_PCOD9388563
_publ_section_title
;
Structure prediction by ZEFSAII (Michael W. Deem and Ramdas Pophale) SiO2 
 PCOD9388563
Probable space group: P M M M
;
_chemical_formula_sum "Si O2"
_cell_formula_units_Z 33
_cell_length_a 16.965925
_cell_length_b 7.948861
_cell_length_c 11.814063
_cell_angle_alpha 90.000000
_cell_angle_beta 90.000000
_cell_angle_gamma 90.000000
_cell_volume 1593.241932
_symmetry_space_group_name_H-M "P M M M"
_symmetry_group_IT_number 47
_symmetry_cell_setting 'orthorhombic'
loop_
_space_group_symop_operation_xyz
x,y,z
-x,-y,z
x,-y,-z
-x,y,-z
-x,-y,-z
x,y,-z
-x,y,z
x,-y,z
loop_
_atom_site_type_symbol
_atom_site_label
_atom_site_fract_x
_atom_site_fract_y
_atom_site_fract_z
Si Si1 0.207016 0.308289 0.193453
Si Si2 0.913212 0.801044 0.635020
Si Si3 0.500000 0.691867 0.689778
Si Si4 0.089230 0.798163 0.000000
Si Si5 0.500000 0.000000 0.500000
Si Si6 0.624366 0.194536 0.129825
O O1 0.231439 0.500000 0.178711
O O2 0.163969 0.281132 0.312545
O O3 0.137632 0.263510 0.107197
O O4 0.283911 0.201990 0.164811
O O5 0.912209 0.784947 0.500000
O O6 0.000000 0.737960 0.674484
O O7 0.910373 0.000000 0.663158
O O8 0.500000 0.500000 0.642683
O O9 0.500000 0.846669 0.599649
O O10 0.574299 0.712134 0.774820
O O11 0.000000 0.736610 0.000000
O O12 0.088332 0.000000 0.000000
O O13 0.598956 0.000000 0.129734
O O14 0.615631 0.258006 0.000000
#
# Coordination Sequence:
#
# PCOD9388563 Si02
#       6
#     8   8   4   4   1   8
#     4  12  24  37  58  93 131 167 213 274 338 400
#     4   9  19  38  61  83 113 163 223 274 326 395
#     4  12  26  48  80 111 143 188 232 280 347 415
#     4  11  23  39  59  84 121 174 223 271 339 409
#     4  12  26  56  74 110 152 188 228 282 332 418
#     4  11  23  44  73 103 138 180 230 284 350 416
#
# _framework density 20.712485000000001
#
# number of rings (size 3 to 8) (size 9 to 14) (size 15 to 20)
#    0.000    1.091    2.424    5.273    0.000    7.758 
#    2.182    1.212    0.000    0.000    0.000    0.000 
#    0.000    0.000    0.000    0.000    0.000    0.000 
#
# Total GULP energy -184073.332672 kJ/mol
# GULP energy per Si atom -5577.979778 kJ/mol
# Density = 2.066534 g / cm^3
# Si number density = 20.712485 Si / 1000 Ang^3
#
#
#
# Elastic Constant Matrix: (Units=GPa)
#
#
# Indices 1 2 3 4 5 6 
#
# 1 109.2890 12.7515 39.5373 0.0000 0.0000 0.0000
# 2 12.7515 102.8316 33.6402 0.0000 0.0000 0.0000
# 3 39.5373 33.6402 87.0197 0.0000 0.0000 0.0000
# 4 0.0000 0.0000 0.0000 35.2965 0.0000 0.0000
# 5 0.0000 0.0000 0.0000 0.0000 20.7412 0.0000
# 6 0.0000 0.0000 0.0000 0.0000 0.0000 -7.4855
#
#
#
# Elastic Compliance Matrix: (Units=1/GPa)
#
#
# Indices 1 2 3 4 5 6 
#
# 1 0.010958 0.000309 -0.005098 0.000000 0.000000 0.000000
# 2 0.000309 0.011141 -0.004447 0.000000 0.000000 0.000000
# 3 -0.005098 -0.004447 0.015527 0.000000 0.000000 0.000000
# 4 0.000000 0.000000 0.000000 0.028331 0.000000 0.000000
# 5 0.000000 0.000000 0.000000 0.000000 0.048213 0.000000
# 6 0.000000 0.000000 0.000000 0.000000 0.000000 -0.133592
#
#
# Mechanical properties :
#
#
# Convention : Reuss Voigt Hill
#
# Bulk Modulus (GPa) = 52.20986 52.33313 52.27149
# Shear Modulus (GPa) = 919.57330 23.92454 471.74892
#
# Velocity S-wave (km/s) = 21.09347 3.40233 15.10811
# Velocity P-wave (km/s) = 24.86981 6.38403 18.15576
#
# Compressibility (1/GPa) = 0.01915347
#
# Stress axis : x y z
#
# Youngs Moduli (GPa) = 91.25388 89.75664 64.40239
#
# Poissons Ratio (x) = -0.02773 0.32835
# Poissons Ratio (y) = -0.02820 0.28642
# Poissons Ratio (z) = 0.46525 0.39918
#
# Static dielectric constant tensor:
#      x y z
#    x 1.744750 0.000000 0.000000 
#    y 0.000000 1.772350 0.000000 
#    z 0.000000 0.000000 1.772020 
# 
# From -- ./inp_files/17116.got.cif
#   From: 2010.05.17/outbox.cif.g08.bks.cpg/sg47_9_cif.got.tgz:17116.got - 2010.06.03 20:15:42.
