data_PCOD9388352
_publ_section_title
;
Structure prediction by ZEFSAII (Michael W. Deem and Ramdas Pophale) SiO2 
 PCOD9388352
Probable space group: P M M M
;
_chemical_formula_sum "Si O2"
_cell_formula_units_Z 32
_cell_length_a 10.658945
_cell_length_b 17.123865
_cell_length_c 8.453491
_cell_angle_alpha 90.000000
_cell_angle_beta 90.000000
_cell_angle_gamma 90.000000
_cell_volume 1542.950918
_symmetry_space_group_name_H-M "P M M M"
_symmetry_group_IT_number 47
_symmetry_cell_setting 'orthorhombic'
loop_
_space_group_symop_operation_xyz
x,y,z
-x,-y,z
x,-y,-z
-x,y,-z
-x,-y,-z
x,y,-z
-x,y,z
x,-y,z
loop_
_atom_site_type_symbol
_atom_site_label
_atom_site_fract_x
_atom_site_fract_y
_atom_site_fract_z
Si Si1 0.644202 0.120178 0.812634
Si Si2 0.500000 0.413572 0.692159
Si Si3 0.851596 0.414703 0.181076
Si Si4 0.851351 0.000000 0.310904
Si Si5 0.705415 0.710802 0.313941
O O1 0.500000 0.101877 0.755382
O O2 0.671710 0.210752 0.776403
O O3 0.761512 0.072069 0.741626
O O4 0.643762 0.105768 0.000000
O O5 0.500000 0.500000 0.757861
O O6 0.500000 0.418383 0.500000
O O7 0.616000 0.360332 0.737194
O O8 0.805226 0.500000 0.246867
O O9 0.832290 0.334225 0.276181
O O10 0.000000 0.422530 0.171544
O O11 0.804594 0.406714 0.000000
O O12 0.858322 0.000000 0.500000
O O13 0.000000 0.000000 0.254716
O O14 0.689437 0.726545 0.500000
#
# Coordination Sequence:
#
# PCOD9388352 Si02
#       5
#     8   4   8   4   8
#     4  11  24  43  68  97 131 169 212 258 312 382
#     4   9  18  32  51  80 119 158 197 247 304 353
#     4   9  19  36  55  77 112 159 208 258 314 375
#     4  11  26  47  72 102 132 163 206 259 318 384
#     4  11  21  35  58  87 121 159 203 255 309 363
#
# _framework density 20.739478999999999
#
# number of rings (size 3 to 8) (size 9 to 14) (size 15 to 20)
#    0.000    1.750    1.250    3.750    0.000    7.000 
#    0.000    1.250    0.000    3.000    0.000    0.000 
#    0.000    0.000    0.000    0.000    0.000    0.000 
#
# Total GULP energy -178176.704620 kJ/mol
# GULP energy per Si atom -5568.022019 kJ/mol
# Density = 2.069228 g / cm^3
# Si number density = 20.739479 Si / 1000 Ang^3
#
#
#
# Elastic Constant Matrix: (Units=GPa)
#
#
# Indices 1 2 3 4 5 6 
#
# 1 130.9496 61.3605 26.7161 0.0000 0.0000 0.0000
# 2 61.3605 146.3712 17.1391 0.0000 0.0000 0.0000
# 3 26.7161 17.1391 39.9207 0.0000 0.0000 0.0000
# 4 0.0000 0.0000 0.0000 28.2177 0.0000 0.0000
# 5 0.0000 0.0000 0.0000 0.0000 25.2537 0.0000
# 6 0.0000 0.0000 0.0000 0.0000 0.0000 -220.7420
#
#
#
# Elastic Compliance Matrix: (Units=1/GPa)
#
#
# Indices 1 2 3 4 5 6 
#
# 1 0.010508 -0.003771 -0.005413 0.000000 0.000000 0.000000
# 2 -0.003771 0.008547 -0.001146 0.000000 0.000000 0.000000
# 3 -0.005413 -0.001146 0.029164 0.000000 0.000000 0.000000
# 4 0.000000 0.000000 0.000000 0.035439 0.000000 0.000000
# 5 0.000000 0.000000 0.000000 0.000000 0.039598 0.000000
# 6 0.000000 0.000000 0.000000 0.000000 0.000000 -0.004530
#
#
# Mechanical properties :
#
#
# Convention : Reuss Voigt Hill
#
# Bulk Modulus (GPa) = 36.28566 58.63032 47.45799
# Shear Modulus (GPa) = 33.65358 -19.31908 7.16725
#
# Velocity S-wave (km/s) = 4.03262 -3.05538 1.86101
# Velocity P-wave (km/s) = 6.26232 3.98549 5.24885
#
# Compressibility (1/GPa) = 0.02755910
#
# Stress axis : x y z
#
# Youngs Moduli (GPa) = 95.16514 116.99941 34.28860
#
# Poissons Ratio (x) = 0.44123 0.18561
# Poissons Ratio (y) = 0.35889 0.03928
# Poissons Ratio (z) = 0.51515 0.13404
#
# Static dielectric constant tensor:
#      x y z
#    x 5.870550 0.000000 0.000000 
#    y 0.000000 1.739000 0.000000 
#    z 0.000000 0.000000 1.748130 
# 
# From -- ./inp_files/3645.got.cif
#   From: 2010.05.17/outbox.cif.g08.bks.cpg/sg47_2_cif.got.tgz:3645.got - 2010.06.03 20:15:42.
