data_PCOD9388814
_publ_section_title
;
Structure prediction by ZEFSAII (Michael W. Deem and Ramdas Pophale) SiO2 
 PCOD9388814
Probable space group: P M M M
;
_chemical_formula_sum "Si O2"
_cell_formula_units_Z 52
_cell_length_a 13.888520
_cell_length_b 28.286418
_cell_length_c 7.412651
_cell_angle_alpha 90.000000
_cell_angle_beta 90.000000
_cell_angle_gamma 90.000000
_cell_volume 2912.107995
_symmetry_space_group_name_H-M "P M M M"
_symmetry_group_IT_number 47
_symmetry_cell_setting 'orthorhombic'
loop_
_space_group_symop_operation_xyz
x,y,z
-x,-y,z
x,-y,-z
-x,y,-z
-x,-y,-z
x,y,-z
-x,y,z
x,-y,z
loop_
_atom_site_type_symbol
_atom_site_label
_atom_site_fract_x
_atom_site_fract_y
_atom_site_fract_z
Si Si1 0.607612 0.350103 0.781764
Si Si2 0.885019 0.898133 0.717733
Si Si3 0.114541 0.000000 0.281060
Si Si4 0.195769 0.697529 0.711256
Si Si5 0.887080 0.795418 0.279985
Si Si6 0.693732 0.448300 0.211506
Si Si7 0.891821 0.401053 0.718538
O O1 0.500000 0.338301 0.722354
O O2 0.691755 0.314402 0.727683
O O3 0.638805 0.402356 0.714887
O O4 0.608314 0.351420 0.000000
O O5 0.874749 0.898526 0.500000
O O6 0.849357 0.846889 0.781877
O O7 0.000000 0.897865 0.753643
O O8 0.846762 0.949061 0.782932
O O9 0.121905 0.000000 0.500000
O O10 0.000000 0.000000 0.240673
O O11 0.170317 0.698985 0.500000
O O12 0.166595 0.748498 0.785275
O O13 0.139489 0.651432 0.783675
O O14 0.882388 0.796401 0.500000
O O15 0.000000 0.791348 0.233333
O O16 0.672852 0.500000 0.289138
O O17 0.807171 0.436407 0.225729
O O18 0.669059 0.450170 0.000000
O O19 0.891102 0.400510 0.500000
O O20 0.000000 0.412626 0.777147
#
# Coordination Sequence:
#
# PCOD9388814 Si02
#       7
#     8   8   4   8   8   8   8
#     4   9  18  32  47  60  74  93 116 143 180 225
#     4   7   9  12  19  34  58  90 126 157 180 203
#     4   7   8  10  16  28  52  88 126 157 180 202
#     4   9  16  26  41  59  77  97 123 154 182 210
#     4   8  12  18  30  49  72  98 128 157 181 207
#     4   9  18  31  45  61  78  94 116 147 179 211
#     4   9  17  28  41  57  78 104 129 149 172 205
#
# _framework density 17.856480000000001
#
# number of rings (size 3 to 8) (size 9 to 14) (size 15 to 20)
#    0.000    3.615    0.000    2.308    0.000    3.385 
#    0.000    3.077    0.000    1.385    0.000    4.308 
#    0.000    0.000    0.000    1.385    0.000   26.769 
#
# Total GULP energy -289479.624544 kJ/mol
# GULP energy per Si atom -5566.915857 kJ/mol
# Density = 1.781584 g / cm^3
# Si number density = 17.856480 Si / 1000 Ang^3
#
#
#
# Elastic Constant Matrix: (Units=GPa)
#
#
# Indices 1 2 3 4 5 6 
#
# 1 28.1847 11.7914 -11.9152 0.0000 0.0000 0.0000
# 2 11.7914 150.2025 1.2942 0.0000 0.0000 0.0000
# 3 -11.9152 1.2942 55.6495 0.0000 0.0000 0.0000
# 4 0.0000 0.0000 0.0000 19.2525 0.0000 0.0000
# 5 0.0000 0.0000 0.0000 0.0000 8.4302 0.0000
# 6 0.0000 0.0000 0.0000 0.0000 0.0000 10.0821
#
#
#
# Elastic Compliance Matrix: (Units=1/GPa)
#
#
# Indices 1 2 3 4 5 6 
#
# 1 0.040546 -0.003258 0.008757 0.000000 0.000000 0.000000
# 2 -0.003258 0.006921 -0.000859 0.000000 0.000000 0.000000
# 3 0.008757 -0.000859 0.019865 0.000000 0.000000 0.000000
# 4 0.000000 0.000000 0.000000 0.051941 0.000000 0.000000
# 5 0.000000 0.000000 0.000000 0.000000 0.118621 0.000000
# 6 0.000000 0.000000 0.000000 0.000000 0.000000 0.099186
#
#
# Mechanical properties :
#
#
# Convention : Reuss Voigt Hill
#
# Bulk Modulus (GPa) = 13.05296 26.26416 19.65856
# Shear Modulus (GPa) = 14.15083 23.07737 18.61410
#
# Velocity S-wave (km/s) = 2.81815 3.59887 3.23217
# Velocity P-wave (km/s) = 4.23262 5.65770 4.99623
#
# Compressibility (1/GPa) = 0.07661099
#
# Stress axis : x y z
#
# Youngs Moduli (GPa) = 24.66362 144.49040 50.34092
#
# Poissons Ratio (x) = 0.47081 -0.44084
# Poissons Ratio (y) = 0.08036 0.04322
# Poissons Ratio (z) = -0.21598 0.12406
#
# Static dielectric constant tensor:
#      x y z
#    x 1.567370 0.000000 0.000000 
#    y 0.000000 1.673410 0.000000 
#    z 0.000000 0.000000 1.872680 
# 
# From -- ./inp_files/8022.got.cif
#   From: 2010.05.17/outbox.cif.g08.bks.cpg/sg47_5_cif.got.tgz:8022.got - 2010.06.03 20:15:42.
