data_PCOD9388959
_publ_section_title
;
Structure prediction by ZEFSAII (Michael W. Deem and Ramdas Pophale) SiO2 
 PCOD9388959
Probable space group: P M M M
;
_chemical_formula_sum "Si O2"
_cell_formula_units_Z 44
_cell_length_a 9.464167
_cell_length_b 7.363452
_cell_length_c 30.076804
_cell_angle_alpha 90.000000
_cell_angle_beta 90.000000
_cell_angle_gamma 90.000000
_cell_volume 2096.020572
_symmetry_space_group_name_H-M "P M M M"
_symmetry_group_IT_number 47
_symmetry_cell_setting 'orthorhombic'
loop_
_space_group_symop_operation_xyz
x,y,z
-x,-y,z
x,-y,-z
-x,y,-z
-x,-y,-z
x,y,-z
-x,y,z
x,-y,z
loop_
_atom_site_type_symbol
_atom_site_label
_atom_site_fract_x
_atom_site_fract_y
_atom_site_fract_z
Si Si1 0.337362 0.277918 0.086937
Si Si2 0.664155 0.221211 0.450951
Si Si3 0.164959 0.221250 0.634559
Si Si4 0.838648 0.714489 0.171253
Si Si5 0.162925 0.278615 0.000000
Si Si6 0.836676 0.217754 0.268945
O O1 0.500000 0.219752 0.084470
O O2 0.338938 0.500000 0.087086
O O3 0.259549 0.215522 0.131862
O O4 0.246930 0.222276 0.044063
O O5 0.715948 0.277883 0.500000
O O6 0.500000 0.272728 0.447069
O O7 0.751278 0.285222 0.408514
O O8 0.668502 0.000000 0.450601
O O9 0.221869 0.278982 0.683245
O O10 0.000000 0.271351 0.631836
O O11 0.169878 0.000000 0.633882
O O12 0.851231 0.500000 0.163602
O O13 0.775844 0.735349 0.220856
O O14 0.000000 0.788840 0.170400
O O15 0.161273 0.500000 0.000000
O O16 0.000000 0.219572 0.000000
O O17 0.000000 0.281960 0.267620
O O18 0.839202 0.000000 0.270595
#
# Coordination Sequence:
#
# PCOD9388959 Si02
#       6
#     8   8   8   8   4   8
#     4   9  16  25  37  55  81 109 132 158 197 238
#     4   8  13  20  29  43  66  94 119 145 183 228
#     4   8  13  21  33  48  66  91 123 154 183 220
#     4   9  16  26  41  60  80 103 133 165 193 225
#     4   9  15  23  37  57  80 105 134 165 194 230
#     4   8  14  25  40  57  78 104 132 162 196 231
#
# _framework density 20.992160999999999
#
# number of rings (size 3 to 8) (size 9 to 14) (size 15 to 20)
#    0.000    3.545    0.000    2.455    0.000    3.636 
#    0.000    2.727    0.000    1.636    0.000    0.636 
#    0.000    5.818    0.000    9.091    0.000   10.545 
#
# Total GULP energy -245238.554292 kJ/mol
# GULP energy per Si atom -5573.603507 kJ/mol
# Density = 2.094438 g / cm^3
# Si number density = 20.992161 Si / 1000 Ang^3
#
#
#
# Elastic Constant Matrix: (Units=GPa)
#
#
# Indices 1 2 3 4 5 6 
#
# 1 104.8899 4.2984 116.2257 0.0000 0.0000 0.0000
# 2 4.2984 74.1121 3.7380 0.0000 0.0000 0.0000
# 3 116.2257 3.7380 274.2872 0.0000 0.0000 0.0000
# 4 0.0000 0.0000 0.0000 9.2921 0.0000 0.0000
# 5 0.0000 0.0000 0.0000 0.0000 -30.7760 0.0000
# 6 0.0000 0.0000 0.0000 0.0000 0.0000 -9.3850
#
#
#
# Elastic Compliance Matrix: (Units=1/GPa)
#
#
# Indices 1 2 3 4 5 6 
#
# 1 0.018005 -0.000660 -0.007620 0.000000 0.000000 0.000000
# 2 -0.000660 0.013527 0.000095 0.000000 0.000000 0.000000
# 3 -0.007620 0.000095 0.006873 0.000000 0.000000 0.000000
# 4 0.000000 0.000000 0.000000 0.107619 0.000000 0.000000
# 5 0.000000 0.000000 0.000000 0.000000 -0.032493 0.000000
# 6 0.000000 0.000000 0.000000 0.000000 0.000000 -0.106553
#
#
# Mechanical properties :
#
#
# Convention : Reuss Voigt Hill
#
# Bulk Modulus (GPa) = 45.38243 77.97926 61.68084
# Shear Modulus (GPa) = 162.90920 15.76135 89.33528
#
# Velocity S-wave (km/s) = 8.81891 2.74308 6.53061
# Velocity P-wave (km/s) = 11.19658 6.87460 9.29041
#
# Compressibility (1/GPa) = 0.02203496
#
# Stress axis : x y z
#
# Youngs Moduli (GPa) = 55.54132 73.92868 145.48653
#
# Poissons Ratio (x) = 0.04879 1.10864
# Poissons Ratio (y) = 0.03665 -0.01386
# Poissons Ratio (z) = 0.42324 -0.00704
#
# Static dielectric constant tensor:
#      x y z
#    x 1.701820 0.000000 0.000000 
#    y 0.000000 1.857980 0.000000 
#    z 0.000000 0.000000 1.771790 
# 
# From -- ./inp_files/2182.got.cif
#   From: 2010.05.17/outbox.cif.g08.bks.cpg/sg47_2_cif.got.tgz:2182.got - 2010.06.03 20:15:42.
