data_PCOD9388141
_publ_section_title
;
Structure prediction by ZEFSAII (Michael W. Deem and Ramdas Pophale) SiO2 
 PCOD9388141
Probable space group: P M M M
;
_chemical_formula_sum "Si O2"
_cell_formula_units_Z 52
_cell_length_a 8.779990
_cell_length_b 14.093212
_cell_length_c 22.328590
_cell_angle_alpha 90.000000
_cell_angle_beta 90.000000
_cell_angle_gamma 90.000000
_cell_volume 2762.900884
_symmetry_space_group_name_H-M "P M M M"
_symmetry_group_IT_number 47
_symmetry_cell_setting 'orthorhombic'
loop_
_space_group_symop_operation_xyz
x,y,z
-x,-y,z
x,-y,-z
-x,y,-z
-x,-y,-z
x,y,-z
-x,y,z
x,-y,z
loop_
_atom_site_type_symbol
_atom_site_label
_atom_site_fract_x
_atom_site_fract_y
_atom_site_fract_z
Si Si1 0.318511 0.703115 0.118578
Si Si2 0.176659 0.613546 0.000000
Si Si3 0.331755 0.609990 0.571290
Si Si4 0.682981 0.110125 0.433024
Si Si5 0.183162 0.109501 0.929526
Si Si6 0.815175 0.389709 0.762311
Si Si7 0.174826 0.742405 0.653807
O O1 0.500000 0.699631 0.122318
O O2 0.262327 0.811789 0.111218
O O3 0.245486 0.648947 0.174740
O O4 0.259141 0.652059 0.058684
O O5 0.178418 0.500000 0.000000
O O6 0.000000 0.645865 0.000000
O O7 0.324657 0.616619 0.500000
O O8 0.500000 0.648229 0.589517
O O9 0.327067 0.500000 0.587731
O O10 0.196229 0.664449 0.602005
O O11 0.731780 0.145440 0.500000
O O12 0.500000 0.114182 0.432847
O O13 0.743235 0.168255 0.376428
O O14 0.728541 0.000000 0.429080
O O15 0.000000 0.118343 0.924231
O O16 0.223380 0.000000 0.915719
O O17 0.221226 0.126188 0.000000
O O18 0.768178 0.500000 0.751714
O O19 0.763541 0.313958 0.711800
O O20 0.000000 0.389345 0.762245
O O21 0.000000 0.766577 0.665111
#
# Coordination Sequence:
#
# PCOD9388141 Si02
#       7
#     8   4   8   8   8   8   8
#     4  12  24  37  58  90 120 147 187 244 299 345
#     4  11  23  39  60  83 112 153 193 232 288 357
#     4   9  18  32  50  74 106 144 183 222 270 332
#     4   9  19  37  60  85 115 153 194 235 285 348
#     4   9  18  35  61  89 117 153 191 223 267 337
#     4  10  23  43  61  77 108 157 203 238 282 347
#     4  11  22  35  55  83 111 143 187 238 288 338
#
# _framework density 18.820798
#
# number of rings (size 3 to 8) (size 9 to 14) (size 15 to 20)
#    0.000    1.923    0.769    4.846    0.000    8.000 
#    0.000    3.077    0.000    0.923    0.000    0.000 
#    0.000    0.000    0.000    0.000    0.000    0.000 
#
# Total GULP energy -290110.326348 kJ/mol
# GULP energy per Si atom -5579.044737 kJ/mol
# Density = 1.877796 g / cm^3
# Si number density = 18.820798 Si / 1000 Ang^3
#
#
#
# Elastic Constant Matrix: (Units=GPa)
#
#
# Indices 1 2 3 4 5 6 
#
# 1 27.2219 25.0649 24.3949 0.0000 0.0000 0.0000
# 2 25.0649 116.5001 60.5232 0.0000 0.0000 0.0000
# 3 24.3949 60.5232 103.3656 0.0000 0.0000 0.0000
# 4 0.0000 0.0000 0.0000 37.6304 0.0000 0.0000
# 5 0.0000 0.0000 0.0000 0.0000 57.8274 0.0000
# 6 0.0000 0.0000 0.0000 0.0000 0.0000 25.7236
#
#
#
# Elastic Compliance Matrix: (Units=1/GPa)
#
#
# Indices 1 2 3 4 5 6 
#
# 1 0.049923 -0.006640 -0.007894 0.000000 0.000000 0.000000
# 2 -0.006640 0.013219 -0.006173 0.000000 0.000000 0.000000
# 3 -0.007894 -0.006173 0.015152 0.000000 0.000000 0.000000
# 4 0.000000 0.000000 0.000000 0.026574 0.000000 0.000000
# 5 0.000000 0.000000 0.000000 0.000000 0.017293 0.000000
# 6 0.000000 0.000000 0.000000 0.000000 0.000000 0.038875
#
#
# Mechanical properties :
#
#
# Convention : Reuss Voigt Hill
#
# Bulk Modulus (GPa) = 27.11504 51.89488 39.50496
# Shear Modulus (GPa) = 23.28346 33.37658 28.33002
#
# Velocity S-wave (km/s) = 3.52108 4.21573 3.88397
# Velocity P-wave (km/s) = 5.56497 7.16446 6.41476
#
# Compressibility (1/GPa) = 0.03687990
#
# Stress axis : x y z
#
# Youngs Moduli (GPa) = 20.03072 75.64716 65.99735
#
# Poissons Ratio (x) = 0.50227 0.52102
# Poissons Ratio (y) = 0.13300 0.40742
# Poissons Ratio (z) = 0.15813 0.46699
#
# Static dielectric constant tensor:
#      x y z
#    x 1.666050 0.000000 0.000000 
#    y 0.000000 1.679790 0.000000 
#    z 0.000000 0.000000 1.636730 
# 
# From -- ./inp_files/29559.got.cif
#   From: 2010.05.17/outbox.cif.g08.bks.cpg/sg47_15_cif.got.tgz:29559.got - 2010.06.03 20:15:42.
