data_PCOD9388300
_publ_section_title
;
Structure prediction by ZEFSAII (Michael W. Deem and Ramdas Pophale) SiO2 
 PCOD9388300
Probable space group: P M M M
;
_chemical_formula_sum "Si O2"
_cell_formula_units_Z 56
_cell_length_a 24.478882
_cell_length_b 14.862071
_cell_length_c 8.098337
_cell_angle_alpha 90.000000
_cell_angle_beta 90.000000
_cell_angle_gamma 90.000000
_cell_volume 2946.230736
_symmetry_space_group_name_H-M "P M M M"
_symmetry_group_IT_number 47
_symmetry_cell_setting 'orthorhombic'
loop_
_space_group_symop_operation_xyz
x,y,z
-x,-y,z
x,-y,-z
-x,y,-z
-x,-y,-z
x,y,-z
-x,y,z
x,-y,z
loop_
_atom_site_type_symbol
_atom_site_label
_atom_site_fract_x
_atom_site_fract_y
_atom_site_fract_z
Si Si1 0.230635 0.743578 0.307488
Si Si2 0.144338 0.601756 0.802605
Si Si3 0.353589 0.250063 0.805857
Si Si4 0.937440 0.244637 0.797747
Si Si5 0.151854 0.897894 0.198556
Si Si6 0.561084 0.896122 0.798566
Si Si7 0.561150 0.605815 0.698855
O O1 0.218987 0.740296 0.500000
O O2 0.199276 0.658505 0.229382
O O3 0.294965 0.741407 0.276694
O O4 0.203525 0.835184 0.239740
O O5 0.145138 0.500000 0.735936
O O6 0.094928 0.665753 0.742617
O O7 0.138072 0.595607 0.000000
O O8 0.390860 0.168206 0.739659
O O9 0.391402 0.336941 0.780069
O O10 0.343943 0.235681 0.000000
O O11 0.901168 0.158923 0.744914
O O12 0.000000 0.241644 0.743327
O O13 0.937376 0.244918 0.000000
O O14 0.154789 0.000000 0.262389
O O15 0.148614 0.902670 0.000000
O O16 0.500000 0.868342 0.744420
O O17 0.569221 0.000000 0.751933
O O18 0.561024 0.892416 0.000000
O O19 0.564183 0.616127 0.500000
O O20 0.500000 0.634619 0.751872
O O21 0.566438 0.500000 0.735058
#
# Coordination Sequence:
#
# PCOD9388300 Si02
#       7
#     8   8   8   8   8   8   8
#     4  11  23  37  52  72 101 136 176 220 263 310
#     4   9  18  34  55  77 103 136 173 213 257 305
#     4  11  21  33  53  79 103 130 169 215 262 308
#     4   8  14  26  48  82 116 137 161 204 256 308
#     4   9  18  34  55  77 104 139 176 214 256 301
#     4   8  15  29  49  74 102 128 155 191 239 296
#     4   9  19  36  55  75 103 138 171 205 253 313
#
# _framework density 19.007338000000001
#
# number of rings (size 3 to 8) (size 9 to 14) (size 15 to 20)
#    0.000    2.714    0.000    3.857    0.000    3.429 
#    0.000    5.000    0.000    8.143    0.000   13.000 
#    0.000    0.000    0.000    0.000    0.000    0.000 
#
# Total GULP energy -312335.526745 kJ/mol
# GULP energy per Si atom -5577.420120 kJ/mol
# Density = 1.896408 g / cm^3
# Si number density = 19.007338 Si / 1000 Ang^3
#
#
#
# Elastic Constant Matrix: (Units=GPa)
#
#
# Indices 1 2 3 4 5 6 
#
# 1 135.6928 61.9554 -3.5879 0.0000 0.0000 0.0000
# 2 61.9554 134.3713 6.0173 0.0000 0.0000 0.0000
# 3 -3.5879 6.0173 11.7212 0.0000 0.0000 0.0000
# 4 0.0000 0.0000 0.0000 -4.5405 0.0000 0.0000
# 5 0.0000 0.0000 0.0000 0.0000 -110.0679 0.0000
# 6 0.0000 0.0000 0.0000 0.0000 0.0000 -11.4352
#
#
#
# Elastic Compliance Matrix: (Units=1/GPa)
#
#
# Indices 1 2 3 4 5 6 
#
# 1 0.009653 -0.004691 0.005363 0.000000 0.000000 0.000000
# 2 -0.004691 0.009897 -0.006517 0.000000 0.000000 0.000000
# 3 0.005363 -0.006517 0.090303 0.000000 0.000000 0.000000
# 4 0.000000 0.000000 0.000000 -0.220238 0.000000 0.000000
# 5 0.000000 0.000000 0.000000 0.000000 -0.009085 0.000000
# 6 0.000000 0.000000 0.000000 0.000000 0.000000 -0.087450
#
#
# Mechanical properties :
#
#
# Convention : Reuss Voigt Hill
#
# Bulk Modulus (GPa) = 10.18707 45.61720 27.90213
# Shear Modulus (GPa) = -30.76742 -10.71536 -20.74139
#
# Velocity S-wave (km/s) = -4.02769 -2.37692 -3.30696
# Velocity P-wave (km/s) = 4.03218 4.06435 0.36084
#
# Compressibility (1/GPa) = 0.09816369
#
# Stress axis : x y z
#
# Youngs Moduli (GPa) = 103.59191 101.04256 11.07386
#
# Poissons Ratio (x) = 0.47400 -0.05939
# Poissons Ratio (y) = 0.48596 0.07216
# Poissons Ratio (z) = -0.55558 0.65846
#
# Static dielectric constant tensor:
#      x y z
#    x 1.634030 0.000000 0.000000 
#    y 0.000000 1.583060 0.000000 
#    z 0.000000 0.000000 1.678020 
# 
# From -- ./inp_files/11213.got.cif
#   From: 2010.05.17/outbox.cif.g08.bks.cpg/sg47_6_cif.got.tgz:11213.got - 2010.06.03 20:15:42.
