data_PCOD9388592
_publ_section_title
;
Structure prediction by ZEFSAII (Michael W. Deem and Ramdas Pophale) SiO2 
 PCOD9388592
Probable space group: P M M M
;
_chemical_formula_sum "Si O2"
_cell_formula_units_Z 36
_cell_length_a 9.645388
_cell_length_b 25.653972
_cell_length_c 8.076843
_cell_angle_alpha 90.000000
_cell_angle_beta 90.000000
_cell_angle_gamma 90.000000
_cell_volume 1998.554335
_symmetry_space_group_name_H-M "P M M M"
_symmetry_group_IT_number 47
_symmetry_cell_setting 'orthorhombic'
loop_
_space_group_symop_operation_xyz
x,y,z
-x,-y,z
x,-y,-z
-x,y,-z
-x,-y,-z
x,y,-z
-x,y,z
x,-y,z
loop_
_atom_site_type_symbol
_atom_site_label
_atom_site_fract_x
_atom_site_fract_y
_atom_site_fract_z
Si Si1 0.343863 0.655446 0.803003
Si Si2 0.169210 0.939816 0.000000
Si Si3 0.841751 0.558767 0.699738
Si Si4 0.831217 0.130418 0.690915
Si Si5 0.157356 0.247791 0.301002
O O1 0.500000 0.655949 0.733696
O O2 0.262182 0.603392 0.753673
O O3 0.257595 0.706035 0.750009
O O4 0.352144 0.656273 0.000000
O O5 0.213569 0.909914 0.832394
O O6 0.000000 0.938869 0.000000
O O7 0.212550 0.000000 0.000000
O O8 0.843699 0.558332 0.500000
O O9 0.805021 0.500000 0.755168
O O10 0.000000 0.569864 0.755046
O O11 0.785645 0.120430 0.500000
O O12 0.793981 0.189484 0.743665
O O13 0.000000 0.129703 0.686410
O O14 0.149325 0.247672 0.500000
O O15 0.000000 0.255988 0.237080
#
# Coordination Sequence:
#
# PCOD9388592 Si02
#       5
#     8   4   8   8   8
#     4  11  24  36  47  72 107 136 164 203 253 307
#     4   9  16  24  38  64  97 135 172 203 248 307
#     4   9  19  37  59  79  98 125 166 211 250 296
#     4   8  15  27  42  64  94 127 167 213 255 301
#     4   9  18  33  53  74  95 126 171 216 255 300
#
# _framework density 18.013020000000001
#
# number of rings (size 3 to 8) (size 9 to 14) (size 15 to 20)
#    0.000    2.778    0.000    3.333    1.556    6.667 
#    0.000    5.556    0.000    0.000    0.000    0.000 
#    0.000    1.778    0.000    4.889    0.000    4.889 
#
# Total GULP energy -200659.886626 kJ/mol
# GULP energy per Si atom -5573.885740 kJ/mol
# Density = 1.797202 g / cm^3
# Si number density = 18.013020 Si / 1000 Ang^3
#
#
#
# Elastic Constant Matrix: (Units=GPa)
#
#
# Indices 1 2 3 4 5 6 
#
# 1 71.1219 84.4068 28.4008 0.0000 0.0000 0.0000
# 2 84.4068 189.2671 66.8267 0.0000 0.0000 0.0000
# 3 28.4008 66.8267 54.4395 0.0000 0.0000 0.0000
# 4 0.0000 0.0000 0.0000 38.6906 0.0000 0.0000
# 5 0.0000 0.0000 0.0000 0.0000 17.9902 0.0000
# 6 0.0000 0.0000 0.0000 0.0000 0.0000 -4.8559
#
#
#
# Elastic Compliance Matrix: (Units=1/GPa)
#
#
# Indices 1 2 3 4 5 6 
#
# 1 0.029926 -0.013826 0.001360 0.000000 0.000000 0.000000
# 2 -0.013826 0.015713 -0.012076 0.000000 0.000000 0.000000
# 3 0.001360 -0.012076 0.032483 0.000000 0.000000 0.000000
# 4 0.000000 0.000000 0.000000 0.025846 0.000000 0.000000
# 5 0.000000 0.000000 0.000000 0.000000 0.055586 0.000000
# 6 0.000000 0.000000 0.000000 0.000000 0.000000 -0.205937
#
#
# Mechanical properties :
#
#
# Convention : Reuss Voigt Hill
#
# Bulk Modulus (GPa) = 34.43709 74.89970 54.66839
# Shear Modulus (GPa) = 403.87196 19.37793 211.62495
#
# Velocity S-wave (km/s) = 14.98993 3.28346 10.85078
# Velocity P-wave (km/s) = 17.85375 7.48638 13.68946
#
# Compressibility (1/GPa) = 0.02903846
#
# Stress axis : x y z
#
# Youngs Moduli (GPa) = 33.41563 63.64064 30.78554
#
# Poissons Ratio (x) = 0.87991 -0.04187
# Poissons Ratio (y) = 0.46201 0.37175
# Poissons Ratio (z) = -0.04544 0.76850
#
# Static dielectric constant tensor:
#      x y z
#    x 1.535120 0.000000 0.000000 
#    y 0.000000 1.619570 0.000000 
#    z 0.000000 0.000000 1.632810 
# 
# From -- ./inp_files/1464.got.cif
#   From: 2010.05.17/outbox.cif.g08.bks.cpg/sg47_1_cif.got.tgz:1464.got - 2010.06.03 20:15:42.
