data_PCOD9388475
_publ_section_title
;
Structure prediction by ZEFSAII (Michael W. Deem and Ramdas Pophale) SiO2 
 PCOD9388475
Probable space group: P M M M
;
_chemical_formula_sum "Si O2"
_cell_formula_units_Z 52
_cell_length_a 13.470076
_cell_length_b 8.092578
_cell_length_c 23.037855
_cell_angle_alpha 90.000000
_cell_angle_beta 90.000000
_cell_angle_gamma 90.000000
_cell_volume 2511.302220
_symmetry_space_group_name_H-M "P M M M"
_symmetry_group_IT_number 47
_symmetry_cell_setting 'orthorhombic'
loop_
_space_group_symop_operation_xyz
x,y,z
-x,-y,z
x,-y,-z
-x,y,-z
-x,-y,-z
x,y,-z
-x,y,z
x,-y,z
loop_
_atom_site_type_symbol
_atom_site_label
_atom_site_fract_x
_atom_site_fract_y
_atom_site_fract_z
Si Si1 0.183906 0.298363 0.563652
Si Si2 0.891141 0.300145 0.687566
Si Si3 0.307197 0.696892 0.135467
Si Si4 0.314914 0.190411 0.733692
Si Si5 0.392061 0.304394 0.612624
Si Si6 0.500000 0.702399 0.066425
Si Si7 0.112532 0.198944 0.933222
O O1 0.151979 0.241906 0.500000
O O2 0.184811 0.500000 0.562574
O O3 0.119162 0.254563 0.619560
O O4 0.295966 0.239982 0.578418
O O5 0.878299 0.500000 0.691718
O O6 0.801641 0.214936 0.720405
O O7 0.000000 0.257435 0.709443
O O8 0.306897 0.500000 0.132794
O O9 0.329087 0.747181 0.201477
O O10 0.399261 0.759866 0.097159
O O11 0.201025 0.752006 0.109818
O O12 0.370380 0.282687 0.681179
O O13 0.343147 0.000000 0.729495
O O14 0.500000 0.233382 0.598027
O O15 0.394983 0.500000 0.600549
O O16 0.500000 0.500000 0.068519
O O17 0.500000 0.753069 0.000000
O O18 0.000000 0.255488 0.917610
O O19 0.110050 0.000000 0.934207
O O20 0.132817 0.254741 0.000000
#
# Coordination Sequence:
#
# PCOD9388475 Si02
#       7
#     8   8   8   8   8   4   8
#     4   8  14  26  47  79 112 136 167 216 271 325
#     4   9  18  34  55  78 106 141 180 222 271 326
#     4  11  22  37  59  85 112 145 186 229 276 330
#     4  11  23  37  53  76 106 139 180 226 271 321
#     4   9  18  33  53  75 103 139 177 219 268 319
#     4   9  20  38  59  85 115 145 176 217 270 325
#     4   9  19  37  59  83 114 149 182 221 272 325
#
# _framework density 20.706388
#
# number of rings (size 3 to 8) (size 9 to 14) (size 15 to 20)
#    0.000    2.538    0.000    3.692    1.077    3.077 
#    0.000    5.000    0.000   10.154    0.000    8.615 
#    0.000    0.000    0.000    0.000    0.000    0.000 
#
# Total GULP energy -290129.697884 kJ/mol
# GULP energy per Si atom -5579.417267 kJ/mol
# Density = 2.065926 g / cm^3
# Si number density = 20.706388 Si / 1000 Ang^3
#
#
#
# Elastic Constant Matrix: (Units=GPa)
#
#
# Indices 1 2 3 4 5 6 
#
# 1 55.1212 -1.6888 -8.5619 0.0000 0.0000 0.0000
# 2 -1.6888 15.8609 -7.7179 0.0000 0.0000 0.0000
# 3 -8.5619 -7.7179 72.2074 0.0000 0.0000 0.0000
# 4 0.0000 0.0000 0.0000 -5.5581 0.0000 0.0000
# 5 0.0000 0.0000 0.0000 0.0000 -8.1966 0.0000
# 6 0.0000 0.0000 0.0000 0.0000 0.0000 130.4094
#
#
#
# Elastic Compliance Matrix: (Units=1/GPa)
#
#
# Indices 1 2 3 4 5 6 
#
# 1 0.018638 0.003228 0.002555 0.000000 0.000000 0.000000
# 2 0.003228 0.067066 0.007551 0.000000 0.000000 0.000000
# 3 0.002555 0.007551 0.014959 0.000000 0.000000 0.000000
# 4 0.000000 0.000000 0.000000 -0.179918 0.000000 0.000000
# 5 0.000000 0.000000 0.000000 0.000000 -0.122001 0.000000
# 6 0.000000 0.000000 0.000000 0.000000 0.000000 0.007668
#
#
# Mechanical properties :
#
#
# Convention : Reuss Voigt Hill
#
# Bulk Modulus (GPa) = 7.85362 11.91695 9.88529
# Shear Modulus (GPa) = -28.11957 34.07481 2.97762
#
# Velocity S-wave (km/s) = -3.68912 4.06102 1.20048
# Velocity P-wave (km/s) = 3.78749 5.26848 2.58958
#
# Compressibility (1/GPa) = 0.12732974
#
# Stress axis : x y z
#
# Youngs Moduli (GPa) = 53.65506 14.91067 66.84930
#
# Poissons Ratio (x) = -0.04813 -0.17079
# Poissons Ratio (y) = -0.17318 -0.50478
# Poissons Ratio (z) = -0.13708 -0.11259
#
# Static dielectric constant tensor:
#      x y z
#    x 1.752350 0.000000 0.000000 
#    y 0.000000 1.746510 0.000000 
#    z 0.000000 0.000000 1.731940 
# 
# From -- ./inp_files/30857.got.cif
#   From: 2010.05.17/outbox.cif.g08.bks.cpg/sg47_16_cif.got.tgz:30857.got - 2010.06.03 20:15:42.
