data_PCOD9388504
_publ_section_title
;
Structure prediction by ZEFSAII (Michael W. Deem and Ramdas Pophale) SiO2 
 PCOD9388504
Probable space group: P M M M
;
_chemical_formula_sum "Si O2"
_cell_formula_units_Z 44
_cell_length_a 14.748142
_cell_length_b 8.912278
_cell_length_c 16.720248
_cell_angle_alpha 90.000000
_cell_angle_beta 90.000000
_cell_angle_gamma 90.000000
_cell_volume 2197.701731
_symmetry_space_group_name_H-M "P M M M"
_symmetry_group_IT_number 47
_symmetry_cell_setting 'orthorhombic'
loop_
_space_group_symop_operation_xyz
x,y,z
-x,-y,z
x,-y,-z
-x,y,-z
-x,-y,-z
x,y,-z
-x,y,z
x,-y,z
loop_
_atom_site_type_symbol
_atom_site_label
_atom_site_fract_x
_atom_site_fract_y
_atom_site_fract_z
Si Si1 0.231950 0.675140 0.649614
Si Si2 0.645108 0.325506 0.910243
Si Si3 0.602931 0.821426 0.739246
Si Si4 0.892895 0.316711 0.500000
Si Si5 0.101361 0.831679 0.759067
Si Si6 0.136018 0.331491 0.090860
O O1 0.249888 0.500000 0.637239
O O2 0.324675 0.754372 0.676592
O O3 0.168943 0.730194 0.575925
O O4 0.166289 0.706275 0.724042
O O5 0.616713 0.500000 0.904153
O O6 0.615227 0.240630 0.829985
O O7 0.754565 0.323611 0.908972
O O8 0.617287 0.271101 0.000000
O O9 0.500000 0.786471 0.714322
O O10 0.614931 0.000000 0.742129
O O11 0.896433 0.500000 0.500000
O O12 0.000000 0.268040 0.500000
O O13 0.099864 0.797221 0.852477
O O14 0.000000 0.818704 0.726034
O O15 0.135432 0.000000 0.742796
O O16 0.110100 0.500000 0.117993
O O17 0.106369 0.314997 0.000000
#
# Coordination Sequence:
#
# PCOD9388504 Si02
#       6
#     8   8   8   4   8   8
#     4  11  22  40  66  92 119 152 192 243 297 352
#     4   9  18  34  57  85 116 154 204 259 309 353
#     4  11  24  40  59  87 124 164 204 246 298 359
#     4   9  20  40  68 101 128 150 185 237 296 355
#     4  11  23  36  53  82 119 156 194 237 291 355
#     4   9  18  33  53  78 109 149 198 248 297 347
#
# _framework density 20.020914999999999
#
# number of rings (size 3 to 8) (size 9 to 14) (size 15 to 20)
#    0.000    1.909    1.818    3.273    0.000    5.091 
#    0.000    7.727    0.000    6.000    0.000    0.000 
#    0.000    0.000    0.000    0.000    0.000    0.000 
#
# Total GULP energy -245362.200450 kJ/mol
# GULP energy per Si atom -5576.413647 kJ/mol
# Density = 1.997535 g / cm^3
# Si number density = 20.020915 Si / 1000 Ang^3
#
#
#
# Elastic Constant Matrix: (Units=GPa)
#
#
# Indices 1 2 3 4 5 6 
#
# 1 142.3268 38.8245 58.1860 0.0000 0.0000 0.0000
# 2 38.8245 35.5142 28.2502 0.0000 0.0000 0.0000
# 3 58.1860 28.2502 101.7003 0.0000 0.0000 0.0000
# 4 0.0000 0.0000 0.0000 1.2467 0.0000 0.0000
# 5 0.0000 0.0000 0.0000 0.0000 -82.6856 0.0000
# 6 0.0000 0.0000 0.0000 0.0000 0.0000 30.1403
#
#
#
# Elastic Compliance Matrix: (Units=1/GPa)
#
#
# Indices 1 2 3 4 5 6 
#
# 1 0.011053 -0.009053 -0.003809 0.000000 0.000000 0.000000
# 2 -0.009053 0.043560 -0.006920 0.000000 0.000000 0.000000
# 3 -0.003809 -0.006920 0.013934 0.000000 0.000000 0.000000
# 4 0.000000 0.000000 0.000000 0.802148 0.000000 0.000000
# 5 0.000000 0.000000 0.000000 0.000000 -0.012094 0.000000
# 6 0.000000 0.000000 0.000000 0.000000 0.000000 0.033178
#
#
# Mechanical properties :
#
#
# Convention : Reuss Voigt Hill
#
# Bulk Modulus (GPa) = 34.50426 58.89587 46.70007
# Shear Modulus (GPa) = 5.31347 0.02565 2.66956
#
# Velocity S-wave (km/s) = 1.63087 0.11332 1.15598
# Velocity P-wave (km/s) = 4.56265 5.43122 5.01577
#
# Compressibility (1/GPa) = 0.02898192
#
# Stress axis : x y z
#
# Youngs Moduli (GPa) = 90.47485 22.95704 71.76533
#
# Poissons Ratio (x) = 0.20784 0.27334
# Poissons Ratio (y) = 0.81909 0.49664
# Poissons Ratio (z) = 0.34461 0.15887
#
# Static dielectric constant tensor:
#      x y z
#    x 1.736340 0.000000 0.000000 
#    y 0.000000 1.691230 0.000000 
#    z 0.000000 0.000000 1.756640 
# 
# From -- ./inp_files/27895.got.cif
#   From: 2010.05.17/outbox.cif.g08.bks.cpg/sg47_14_cif.got.tgz:27895.got - 2010.06.03 20:15:42.
