data_PCOD9388789
_publ_section_title
;
Structure prediction by ZEFSAII (Michael W. Deem and Ramdas Pophale) SiO2 
 PCOD9388789
Probable space group: P M M M
;
_chemical_formula_sum "Si O2"
_cell_formula_units_Z 44
_cell_length_a 9.255118
_cell_length_b 13.713419
_cell_length_c 16.781218
_cell_angle_alpha 90.000000
_cell_angle_beta 90.000000
_cell_angle_gamma 90.000000
_cell_volume 2129.860627
_symmetry_space_group_name_H-M "P M M M"
_symmetry_group_IT_number 47
_symmetry_cell_setting 'orthorhombic'
loop_
_space_group_symop_operation_xyz
x,y,z
-x,-y,z
x,-y,-z
-x,y,-z
-x,-y,-z
x,y,-z
-x,y,z
x,-y,z
loop_
_atom_site_type_symbol
_atom_site_label
_atom_site_fract_x
_atom_site_fract_y
_atom_site_fract_z
Si Si1 0.324055 0.613477 0.000000
Si Si2 0.333032 0.619048 0.173804
Si Si3 0.175334 0.195036 0.413638
Si Si4 0.826938 0.389700 0.664848
Si Si5 0.834391 0.117190 0.754824
Si Si6 0.668199 0.118863 0.087687
O O1 0.281493 0.654023 0.086460
O O2 0.278333 0.500000 0.000000
O O3 0.500000 0.614666 0.000000
O O4 0.500000 0.647907 0.185907
O O5 0.332097 0.500000 0.169330
O O6 0.238862 0.643158 0.250645
O O7 0.228184 0.160357 0.500000
O O8 0.208251 0.309305 0.400998
O O9 0.226111 0.144824 0.332133
O O10 0.000000 0.183427 0.414212
O O11 0.777461 0.500000 0.647369
O O12 0.000000 0.391535 0.672326
O O13 0.747241 0.151328 0.832162
O O14 0.000000 0.153133 0.759894
O O15 0.838201 0.000000 0.758028
O O16 0.500000 0.147041 0.090519
O O17 0.672539 0.000000 0.088571
O O18 0.725879 0.147845 0.000000
#
# Coordination Sequence:
#
# PCOD9388789 Si02
#       6
#     4   8   8   8   8   8
#     4   7  10  18  35  59  83 109 144 179 212 260
#     4   8  13  23  41  63  86 114 147 183 225 271
#     4   9  18  32  49  69  94 123 155 195 241 285
#     4   9  17  29  46  67  89 115 151 193 234 277
#     4   9  17  29  48  74  99 124 157 195 233 275
#     4   8  14  26  46  72 101 132 161 188 226 277
#
# _framework density 20.658626999999999
#
# number of rings (size 3 to 8) (size 9 to 14) (size 15 to 20)
#    0.000    3.545    0.000    1.636    0.000    1.091 
#    0.000    6.818    2.000    4.909    0.000    5.091 
#    0.000    0.000    0.000    0.000    0.000    0.000 
#
# Total GULP energy -245240.819814 kJ/mol
# GULP energy per Si atom -5573.654996 kJ/mol
# Density = 2.061161 g / cm^3
# Si number density = 20.658627 Si / 1000 Ang^3
#
#
#
# Elastic Constant Matrix: (Units=GPa)
#
#
# Indices 1 2 3 4 5 6 
#
# 1 16.1564 5.3908 41.7896 0.0000 0.0000 0.0000
# 2 5.3908 47.2350 25.5129 0.0000 0.0000 0.0000
# 3 41.7896 25.5129 197.2365 0.0000 0.0000 0.0000
# 4 0.0000 0.0000 0.0000 28.4104 0.0000 0.0000
# 5 0.0000 0.0000 0.0000 0.0000-1007.0571 0.0000
# 6 0.0000 0.0000 0.0000 0.0000 0.0000 6.8375
#
#
#
# Elastic Compliance Matrix: (Units=1/GPa)
#
#
# Indices 1 2 3 4 5 6 
#
# 1 0.136945 0.000046 -0.029021 0.000000 0.000000 0.000000
# 2 0.000046 0.022761 -0.002954 0.000000 0.000000 0.000000
# 3 -0.029021 -0.002954 0.011601 0.000000 0.000000 0.000000
# 4 0.000000 0.000000 0.000000 0.035198 0.000000 0.000000
# 5 0.000000 0.000000 0.000000 0.000000 -0.000993 0.000000
# 6 0.000000 0.000000 0.000000 0.000000 0.000000 0.146253
#
#
# Mechanical properties :
#
#
# Convention : Reuss Voigt Hill
#
# Bulk Modulus (GPa) = 9.30680 45.11272 27.20976
# Shear Modulus (GPa) = 11.07569 -181.83287 -85.37859
#
# Velocity S-wave (km/s) = 2.31796 -9.39196 -6.43568
# Velocity P-wave (km/s) = 3.41742 9.78403 6.48261
#
# Compressibility (1/GPa) = 0.10744831
#
# Stress axis : x y z
#
# Youngs Moduli (GPa) = 7.30223 43.93483 86.19935
#
# Poissons Ratio (x) = -0.00202 2.50160
# Poissons Ratio (y) = -0.00034 0.25462
# Poissons Ratio (z) = 0.21192 0.12978
#
# Static dielectric constant tensor:
#      x y z
#    x 1.698980 0.000000 0.000000 
#    y 0.000000 1.835980 0.000000 
#    z 0.000000 0.000000 1.747240 
# 
# From -- ./inp_files/20934.got.cif
#   From: 2010.05.17/outbox.cif.g08.bks.cpg/sg47_11_cif.got.tgz:20934.got - 2010.06.03 20:15:42.
