data_PCOD9388881
_publ_section_title
;
Structure prediction by ZEFSAII (Michael W. Deem and Ramdas Pophale) SiO2 
 PCOD9388881
Probable space group: P M M M
;
_chemical_formula_sum "Si O2"
_cell_formula_units_Z 64
_cell_length_a 20.039809
_cell_length_b 19.263092
_cell_length_c 7.353458
_cell_angle_alpha 90.000000
_cell_angle_beta 90.000000
_cell_angle_gamma 90.000000
_cell_volume 2838.645718
_symmetry_space_group_name_H-M "P M M M"
_symmetry_group_IT_number 47
_symmetry_cell_setting 'orthorhombic'
loop_
_space_group_symop_operation_xyz
x,y,z
-x,-y,z
x,-y,-z
-x,y,-z
-x,-y,-z
x,y,-z
-x,y,z
x,-y,z
loop_
_atom_site_type_symbol
_atom_site_label
_atom_site_fract_x
_atom_site_fract_y
_atom_site_fract_z
Si Si1 0.070291 0.078745 0.220702
Si Si2 0.923353 0.295610 0.222328
Si Si3 0.839120 0.577979 0.217067
Si Si4 0.183250 0.180664 0.779733
Si Si5 0.423780 0.311854 0.281987
Si Si6 0.295652 0.921251 0.777525
Si Si7 0.574503 0.848877 0.216463
Si Si8 0.687211 0.420301 0.282690
O O1 0.134046 0.119017 0.276346
O O2 0.000000 0.111266 0.276484
O O3 0.071716 0.000000 0.280783
O O4 0.070865 0.078667 0.000000
O O5 0.897364 0.371231 0.279505
O O6 0.861292 0.246273 0.280150
O O7 0.000000 0.281134 0.280126
O O8 0.924956 0.291053 0.000000
O O9 0.842928 0.500000 0.290903
O O10 0.763279 0.603806 0.248937
O O11 0.846217 0.574438 0.000000
O O12 0.253020 0.147001 0.720286
O O13 0.187671 0.187613 0.000000
O O14 0.425841 0.319023 0.500000
O O15 0.500000 0.323618 0.215340
O O16 0.405685 0.231810 0.243937
O O17 0.368714 0.366698 0.213967
O O18 0.370470 0.902892 0.718625
O O19 0.275427 0.000000 0.721718
O O20 0.291720 0.922139 0.000000
O O21 0.500000 0.857348 0.291287
O O22 0.571083 0.858767 0.000000
O O23 0.679465 0.423649 0.500000
O O24 0.680669 0.500000 0.213905
#
# Coordination Sequence:
#
# PCOD9388881 Si02
#       8
#     8   8   8   8   8   8   8   8
#     4   8  12  17  26  40  62  97 135 167 205 257
#     4   9  17  27  40  61  88 120 158 197 236 280
#     4   9  18  31  47  68  94 126 161 197 237 280
#     4   9  15  22  33  52  79 109 142 186 231 271
#     4   9  18  32  50  72  98 128 161 197 237 282
#     4   9  17  27  40  61  88 120 158 197 236 280
#     4   9  18  31  47  68  94 126 161 197 237 280
#     4   9  18  32  50  72  98 128 161 197 237 282
#
# _framework density 22.545961999999999
#
# number of rings (size 3 to 8) (size 9 to 14) (size 15 to 20)
#    0.000    3.125    0.000    1.125    1.750    4.250 
#    0.000    3.750    0.000    0.750    0.000    7.000 
#    0.000    0.000    0.000    0.000    0.000    3.750 
#
# Total GULP energy -356607.021910 kJ/mol
# GULP energy per Si atom -5571.984717 kJ/mol
# Density = 2.249465 g / cm^3
# Si number density = 22.545962 Si / 1000 Ang^3
#
#
#
# Elastic Constant Matrix: (Units=GPa)
#
#
# Indices 1 2 3 4 5 6 
#
# 1 118.2897 72.0626 0.9114 0.0000 0.0000 0.0000
# 2 72.0626 90.5546 -1.1265 0.0000 0.0000 0.0000
# 3 0.9114 -1.1265 83.9592 0.0000 0.0000 0.0000
# 4 0.0000 0.0000 0.0000 12.1790 0.0000 0.0000
# 5 0.0000 0.0000 0.0000 0.0000 13.4657 0.0000
# 6 0.0000 0.0000 0.0000 0.0000 0.0000 40.5815
#
#
#
# Elastic Compliance Matrix: (Units=1/GPa)
#
#
# Indices 1 2 3 4 5 6 
#
# 1 0.016419 -0.013071 -0.000354 0.000000 0.000000 0.000000
# 2 -0.013071 0.021450 0.000430 0.000000 0.000000 0.000000
# 3 -0.000354 0.000430 0.011920 0.000000 0.000000 0.000000
# 4 0.000000 0.000000 0.000000 0.082109 0.000000 0.000000
# 5 0.000000 0.000000 0.000000 0.000000 0.074263 0.000000
# 6 0.000000 0.000000 0.000000 0.000000 0.000000 0.024642
#
#
# Mechanical properties :
#
#
# Convention : Reuss Voigt Hill
#
# Bulk Modulus (GPa) = 42.01660 48.49984 45.25822
# Shear Modulus (GPa) = 18.88750 27.97563 23.43156
#
# Velocity S-wave (km/s) = 2.89750 3.52636 3.22728
# Velocity P-wave (km/s) = 5.46539 6.17564 5.83134
#
# Compressibility (1/GPa) = 0.02380012
#
# Stress axis : x y z
#
# Youngs Moduli (GPa) = 60.90406 46.62016 83.89152
#
# Poissons Ratio (x) = 0.60936 0.02967
# Poissons Ratio (y) = 0.79606 -0.03605
# Poissons Ratio (z) = 0.02154 -0.02003
#
# Static dielectric constant tensor:
#      x y z
#    x 1.847350 0.000000 0.000000 
#    y 0.000000 1.841950 0.000000 
#    z 0.000000 0.000000 1.905940 
# 
# From -- ./inp_files/11591.got.cif
#   From: 2010.05.17/outbox.cif.g08.bks.cpg/sg47_6_cif.got.tgz:11591.got - 2010.06.03 20:15:42.
