data_PCOD9388640
_publ_section_title
;
Structure prediction by ZEFSAII (Michael W. Deem and Ramdas Pophale) SiO2 
 PCOD9388640
Probable space group: P M M M
;
_chemical_formula_sum "Si O2"
_cell_formula_units_Z 48
_cell_length_a 9.421234
_cell_length_b 33.804648
_cell_length_c 8.147228
_cell_angle_alpha 90.000000
_cell_angle_beta 90.000000
_cell_angle_gamma 90.000000
_cell_volume 2594.741387
_symmetry_space_group_name_H-M "P M M M"
_symmetry_group_IT_number 47
_symmetry_cell_setting 'orthorhombic'
loop_
_space_group_symop_operation_xyz
x,y,z
-x,-y,z
x,-y,-z
-x,y,-z
-x,-y,-z
x,y,-z
-x,y,z
x,-y,z
loop_
_atom_site_type_symbol
_atom_site_label
_atom_site_fract_x
_atom_site_fract_y
_atom_site_fract_z
Si Si1 0.173276 0.454274 0.000000
Si Si2 0.162497 0.687544 0.697555
Si Si3 0.660834 0.762786 0.195365
Si Si4 0.327072 0.000000 0.810046
Si Si5 0.662805 0.085867 0.801691
Si Si6 0.827212 0.402472 0.688636
Si Si7 0.839583 0.161542 0.304471
O O1 0.219050 0.431899 0.833141
O O2 0.216970 0.500000 0.000000
O O3 0.000000 0.453349 0.000000
O O4 0.158647 0.690277 0.500000
O O5 0.262943 0.721712 0.762360
O O6 0.210430 0.642748 0.734548
O O7 0.000000 0.692817 0.757484
O O8 0.500000 0.763778 0.261055
O O9 0.751686 0.799513 0.259444
O O10 0.654582 0.766555 0.000000
O O11 0.286930 0.957313 0.738014
O O12 0.500000 0.000000 0.812048
O O13 0.278661 0.000000 0.000000
O O14 0.500000 0.092670 0.746122
O O15 0.760644 0.122292 0.755791
O O16 0.658525 0.083089 0.000000
O O17 0.780543 0.410970 0.500000
O O18 0.000000 0.403344 0.684268
O O19 0.846670 0.159526 0.500000
O O20 0.000000 0.163994 0.238171
#
# Coordination Sequence:
#
# PCOD9388640 Si02
#       7
#     4   8   8   4   8   8   8
#     4   9  16  24  38  64  97 137 181 217 259 314
#     4   9  18  33  53  76 101 133 173 212 254 308
#     4  11  24  38  53  77 104 129 164 210 258 309
#     4   7  12  26  50  79 106 130 160 203 252 299
#     4   9  17  32  56  82 105 131 167 210 254 301
#     4   8  15  27  42  64  96 132 172 217 261 310
#     4  11  24  39  53  72 101 137 174 209 250 303
#
# _framework density 18.498953
#
# number of rings (size 3 to 8) (size 9 to 14) (size 15 to 20)
#    0.000    2.667    0.000    4.000    1.167    7.667 
#    0.000    2.500    0.000    4.000    0.000    0.000 
#    0.000    1.333    0.000    3.667    0.000    3.667 
#
# Total GULP energy -267592.132678 kJ/mol
# GULP energy per Si atom -5574.836097 kJ/mol
# Density = 1.845685 g / cm^3
# Si number density = 18.498953 Si / 1000 Ang^3
#
#
#
# Elastic Constant Matrix: (Units=GPa)
#
#
# Indices 1 2 3 4 5 6 
#
# 1 83.3975 70.9699 26.8423 0.0000 0.0000 0.0000
# 2 70.9699 170.5952 62.6123 0.0000 0.0000 0.0000
# 3 26.8423 62.6123 53.1155 0.0000 0.0000 0.0000
# 4 0.0000 0.0000 0.0000 73.1631 0.0000 0.0000
# 5 0.0000 0.0000 0.0000 0.0000 19.0586 0.0000
# 6 0.0000 0.0000 0.0000 0.0000 0.0000 43.1562
#
#
#
# Elastic Compliance Matrix: (Units=1/GPa)
#
#
# Indices 1 2 3 4 5 6 
#
# 1 0.018569 -0.007545 -0.000490 0.000000 0.000000 0.000000
# 2 -0.007545 0.013398 -0.011980 0.000000 0.000000 0.000000
# 3 -0.000490 -0.011980 0.033196 0.000000 0.000000 0.000000
# 4 0.000000 0.000000 0.000000 0.013668 0.000000 0.000000
# 5 0.000000 0.000000 0.000000 0.000000 0.052470 0.000000
# 6 0.000000 0.000000 0.000000 0.000000 0.000000 0.023172
#
#
# Mechanical properties :
#
#
# Convention : Reuss Voigt Hill
#
# Bulk Modulus (GPa) = 39.78801 69.77302 54.78051
# Shear Modulus (GPa) = 24.64495 36.85450 30.74972
#
# Velocity S-wave (km/s) = 3.65394 4.46830 4.08148
# Velocity P-wave (km/s) = 6.27349 8.02622 7.20336
#
# Compressibility (1/GPa) = 0.02513320
#
# Stress axis : x y z
#
# Youngs Moduli (GPa) = 53.85215 74.63922 30.12367
#
# Poissons Ratio (x) = 0.56318 0.01475
# Poissons Ratio (y) = 0.40633 0.36089
# Poissons Ratio (z) = 0.02637 0.89419
#
# Static dielectric constant tensor:
#      x y z
#    x 1.634660 0.000000 0.000000 
#    y 0.000000 1.641690 0.000000 
#    z 0.000000 0.000000 1.658510 
# 
# From -- ./inp_files/2581.got.cif
#   From: 2010.05.17/outbox.cif.g08.bks.cpg/sg47_2_cif.got.tgz:2581.got - 2010.06.03 20:15:42.
