data_PCOD9388874
_publ_section_title
;
Structure prediction by ZEFSAII (Michael W. Deem and Ramdas Pophale) SiO2 
 PCOD9388874
Probable space group: P M M M
;
_chemical_formula_sum "Si O2"
_cell_formula_units_Z 56
_cell_length_a 7.295966
_cell_length_b 19.534616
_cell_length_c 19.779889
_cell_angle_alpha 90.000000
_cell_angle_beta 90.000000
_cell_angle_gamma 90.000000
_cell_volume 2819.106806
_symmetry_space_group_name_H-M "P M M M"
_symmetry_group_IT_number 47
_symmetry_cell_setting 'orthorhombic'
loop_
_space_group_symop_operation_xyz
x,y,z
-x,-y,z
x,-y,-z
-x,y,-z
-x,-y,-z
x,y,-z
-x,y,z
x,-y,z
loop_
_atom_site_type_symbol
_atom_site_label
_atom_site_fract_x
_atom_site_fract_y
_atom_site_fract_z
Si Si1 0.223000 0.076448 0.216019
Si Si2 0.287852 0.072416 0.581310
Si Si3 0.206059 0.226337 0.424270
Si Si4 0.222933 0.424600 0.078754
Si Si5 0.776998 0.716671 0.858455
Si Si6 0.222858 0.142343 0.924880
Si Si7 0.775938 0.217746 0.281771
O O1 0.277899 0.096389 0.139251
O O2 0.280303 0.139414 0.263979
O O3 0.000000 0.076387 0.217598
O O4 0.284985 0.000000 0.233387
O O5 0.286680 0.066840 0.500000
O O6 0.500000 0.077681 0.601872
O O7 0.194552 0.144776 0.591124
O O8 0.212068 0.000000 0.607934
O O9 0.287546 0.234404 0.500000
O O10 0.291066 0.248387 0.353080
O O11 0.000000 0.254048 0.428243
O O12 0.281146 0.500000 0.103135
O O13 0.285989 0.357640 0.118253
O O14 0.000000 0.424126 0.080741
O O15 0.274136 0.418411 0.000000
O O16 0.723289 0.779508 0.907296
O O17 0.721820 0.737917 0.783065
O O18 0.000000 0.716151 0.859591
O O19 0.000000 0.140562 0.925206
O O20 0.283752 0.122262 0.000000
O O21 0.000000 0.217814 0.284108
#
# Coordination Sequence:
#
# PCOD9388874 Si02
#       7
#     8   8   8   8   8   8   8
#     4   8  13  19  24  30  43  64  88 116 151 185
#     4   8  14  24  35  46  62  83 104 128 165 213
#     4   9  16  24  34  48  63  78 103 141 173 194
#     4   8  12  16  23  37  55  74 100 135 165 183
#     4   8  12  18  26  34  49  73  97 122 155 194
#     4   8  12  16  22  31  41  58  88 120 145 173
#     4   8  14  22  29  38  53  74  99 127 161 198
#
# _framework density 19.864447999999999
#
# number of rings (size 3 to 8) (size 9 to 14) (size 15 to 20)
#    0.000    3.857    0.000    3.000    0.000    2.857 
#    0.000    4.286    0.000    0.000    0.000    0.000 
#    0.000    0.571    0.000    8.000    0.000   18.571 
#
# Total GULP energy -311913.356598 kJ/mol
# GULP energy per Si atom -5569.881368 kJ/mol
# Density = 1.981924 g / cm^3
# Si number density = 19.864448 Si / 1000 Ang^3
#
#
#
# Elastic Constant Matrix: (Units=GPa)
#
#
# Indices 1 2 3 4 5 6 
#
# 1 79.7087 0.4170 1.6563 0.0000 0.0000 0.0000
# 2 0.4170 93.6628 35.7405 0.0000 0.0000 0.0000
# 3 1.6563 35.7405 154.9569 0.0000 0.0000 0.0000
# 4 0.0000 0.0000 0.0000 9.1820 0.0000 0.0000
# 5 0.0000 0.0000 0.0000 0.0000 -26.3078 0.0000
# 6 0.0000 0.0000 0.0000 0.0000 0.0000 -12.7862
#
#
#
# Elastic Compliance Matrix: (Units=1/GPa)
#
#
# Indices 1 2 3 4 5 6 
#
# 1 0.012548 -0.000005 -0.000133 0.000000 0.000000 0.000000
# 2 -0.000005 0.011707 -0.002700 0.000000 0.000000 0.000000
# 3 -0.000133 -0.002700 0.007078 0.000000 0.000000 0.000000
# 4 0.000000 0.000000 0.000000 0.108909 0.000000 0.000000
# 5 0.000000 0.000000 0.000000 0.000000 -0.038012 0.000000
# 6 0.000000 0.000000 0.000000 0.000000 0.000000 -0.078209
#
#
# Mechanical properties :
#
#
# Convention : Reuss Voigt Hill
#
# Bulk Modulus (GPa) = 38.97632 44.88401 41.93016
# Shear Modulus (GPa) = 130.71919 13.38524 72.05221
#
# Velocity S-wave (km/s) = 8.12087 2.59864 6.02915
# Velocity P-wave (km/s) = 10.37280 5.62566 8.34395
#
# Compressibility (1/GPa) = 0.02565661
#
# Stress axis : x y z
#
# Youngs Moduli (GPa) = 79.69102 85.41937 141.29069
#
# Poissons Ratio (x) = 0.00044 0.01878
# Poissons Ratio (y) = 0.00041 0.38150
# Poissons Ratio (z) = 0.01059 0.23064
#
# Static dielectric constant tensor:
#      x y z
#    x 1.745690 0.000000 0.000000 
#    y 0.000000 1.688750 0.000000 
#    z 0.000000 0.000000 1.742050 
# 
# From -- ./inp_files/30077.got.cif
#   From: 2010.05.17/outbox.cif.g08.bks.cpg/sg47_16_cif.got.tgz:30077.got - 2010.06.03 20:15:42.
