data_PCOD9388316
_publ_section_title
;
Structure prediction by ZEFSAII (Michael W. Deem and Ramdas Pophale) SiO2 
 PCOD9388316
Probable space group: P M M M
;
_chemical_formula_sum "Si O2"
_cell_formula_units_Z 44
_cell_length_a 11.259947
_cell_length_b 8.801551
_cell_length_c 24.838486
_cell_angle_alpha 90.000000
_cell_angle_beta 90.000000
_cell_angle_gamma 90.000000
_cell_volume 2461.618100
_symmetry_space_group_name_H-M "P M M M"
_symmetry_group_IT_number 47
_symmetry_cell_setting 'orthorhombic'
loop_
_space_group_symop_operation_xyz
x,y,z
-x,-y,z
x,-y,-z
-x,y,-z
-x,-y,-z
x,y,-z
-x,y,z
x,-y,z
loop_
_atom_site_type_symbol
_atom_site_label
_atom_site_fract_x
_atom_site_fract_y
_atom_site_fract_z
Si Si1 0.858962 0.826786 0.059580
Si Si2 0.702589 0.678327 0.136644
Si Si3 0.133624 0.815192 0.436943
Si Si4 0.500000 0.818444 0.062240
Si Si5 0.358479 0.323899 0.253337
Si Si6 0.363352 0.817253 0.631012
O O1 0.823987 0.714423 0.106744
O O2 0.000000 0.833155 0.056373
O O3 0.816576 0.000000 0.069902
O O4 0.813548 0.781480 0.000000
O O5 0.674866 0.500000 0.138872
O O6 0.610461 0.758815 0.096792
O O7 0.698524 0.734776 0.198027
O O8 0.144188 0.774809 0.500000
O O9 0.251703 0.762809 0.405121
O O10 0.000000 0.766524 0.418482
O O11 0.133699 0.000000 0.433921
O O12 0.500000 0.000000 0.061334
O O13 0.500000 0.765137 0.000000
O O14 0.500000 0.321684 0.243303
O O15 0.323351 0.500000 0.262209
O O16 0.337665 0.231073 0.307591
O O17 0.500000 0.764223 0.617885
O O18 0.366196 0.000000 0.627026
#
# Coordination Sequence:
#
# PCOD9388316 Si02
#       6
#     8   8   8   4   8   8
#     4   9  19  36  54  71  95 127 161 199 248 305
#     4  11  21  34  52  74  98 126 164 207 248 296
#     4   8  14  26  45  70 102 136 163 194 246 303
#     4  11  23  35  49  73 103 131 158 195 250 309
#     4   9  18  34  50  66  95 132 163 195 244 296
#     4   9  17  28  46  74  99 122 164 213 246 282
#
# _framework density 17.874423
#
# number of rings (size 3 to 8) (size 9 to 14) (size 15 to 20)
#    0.000    2.636    0.909    2.455    0.000    5.455 
#    0.000    3.636    0.000    4.364    0.000    3.818 
#    0.000    0.000    0.000    0.000    0.000    0.000 
#
# Total GULP energy -244939.206136 kJ/mol
# GULP energy per Si atom -5566.800139 kJ/mol
# Density = 1.783374 g / cm^3
# Si number density = 17.874423 Si / 1000 Ang^3
#
#
#
# Elastic Constant Matrix: (Units=GPa)
#
#
# Indices 1 2 3 4 5 6 
#
# 1 100.8294 15.7472 69.7653 0.0000 0.0000 0.0000
# 2 15.7472 10.2341 15.7557 0.0000 0.0000 0.0000
# 3 69.7653 15.7557 109.0883 0.0000 0.0000 0.0000
# 4 0.0000 0.0000 0.0000 51.2616 0.0000 0.0000
# 5 0.0000 0.0000 0.0000 0.0000 9.3281 0.0000
# 6 0.0000 0.0000 0.0000 0.0000 0.0000 16.2773
#
#
#
# Elastic Compliance Matrix: (Units=1/GPa)
#
#
# Indices 1 2 3 4 5 6 
#
# 1 0.019168 -0.013658 -0.010286 0.000000 0.000000 0.000000
# 2 -0.013658 0.135384 -0.010819 0.000000 0.000000 0.000000
# 3 -0.010286 -0.010819 0.017307 0.000000 0.000000 0.000000
# 4 0.000000 0.000000 0.000000 0.019508 0.000000 0.000000
# 5 0.000000 0.000000 0.000000 0.000000 0.107203 0.000000
# 6 0.000000 0.000000 0.000000 0.000000 0.000000 0.061435
#
#
# Mechanical properties :
#
#
# Convention : Reuss Voigt Hill
#
# Bulk Modulus (GPa) = 9.77196 46.96537 28.36867
# Shear Modulus (GPa) = 10.78421 23.29897 17.04159
#
# Velocity S-wave (km/s) = 2.45895 3.61429 3.09108
# Velocity P-wave (km/s) = 3.67978 6.61436 5.35212
#
# Compressibility (1/GPa) = 0.10233362
#
# Stress axis : x y z
#
# Youngs Moduli (GPa) = 52.17147 7.38642 57.77866
#
# Poissons Ratio (x) = 0.10088 0.59429
# Poissons Ratio (y) = 0.71256 0.62510
# Poissons Ratio (z) = 0.53662 0.07991
#
# Static dielectric constant tensor:
#      x y z
#    x 1.716870 0.000000 0.000000 
#    y 0.000000 1.617590 0.000000 
#    z 0.000000 0.000000 1.599920 
# 
# From -- ./inp_files/31868.got.cif
#   From: 2010.05.17/outbox.cif.g08.bks.cpg/sg47_16_cif.got.tgz:31868.got - 2010.06.03 20:15:42.
