data_PCOD9388600
_publ_section_title
;
Structure prediction by ZEFSAII (Michael W. Deem and Ramdas Pophale) SiO2 
 PCOD9388600
Probable space group: P M M M
;
_chemical_formula_sum "Si O2"
_cell_formula_units_Z 44
_cell_length_a 9.695024
_cell_length_b 7.754159
_cell_length_c 29.684582
_cell_angle_alpha 90.000000
_cell_angle_beta 90.000000
_cell_angle_gamma 90.000000
_cell_volume 2231.590626
_symmetry_space_group_name_H-M "P M M M"
_symmetry_group_IT_number 47
_symmetry_cell_setting 'orthorhombic'
loop_
_space_group_symop_operation_xyz
x,y,z
-x,-y,z
x,-y,-z
-x,y,-z
-x,-y,-z
x,y,-z
-x,y,z
x,-y,z
loop_
_atom_site_type_symbol
_atom_site_label
_atom_site_fract_x
_atom_site_fract_y
_atom_site_fract_z
Si Si1 0.656542 0.707653 0.314777
Si Si2 0.341402 0.289601 0.583770
Si Si3 0.845105 0.204401 0.769421
Si Si4 0.342917 0.293109 0.854047
Si Si5 0.667288 0.704270 0.951541
Si Si6 0.841655 0.711429 0.500000
O O1 0.500000 0.768279 0.304616
O O2 0.651072 0.500000 0.316204
O O3 0.693999 0.766539 0.365357
O O4 0.762881 0.754739 0.276163
O O5 0.500000 0.239467 0.574550
O O6 0.338745 0.500000 0.583609
O O7 0.239512 0.231481 0.544655
O O8 0.755929 0.259620 0.812417
O O9 0.000000 0.278667 0.769428
O O10 0.855946 0.000000 0.772067
O O11 0.500000 0.229590 0.845813
O O12 0.352612 0.500000 0.858796
O O13 0.289799 0.225567 0.902679
O O14 0.500000 0.715592 0.950802
O O15 0.701495 0.500000 0.952519
O O16 0.713474 0.777987 0.000000
O O17 0.840221 0.500000 0.500000
O O18 0.000000 0.766220 0.500000
#
# Coordination Sequence:
#
# PCOD9388600 Si02
#       6
#     8   8   8   8   8   4
#     4   9  18  33  53  75  95 118 155 200 242 285
#     4   8  14  25  41  62  90 121 149 182 227 275
#     4  11  24  37  47  64  93 128 163 197 236 284
#     4   9  17  30  51  77  99 121 154 194 234 279
#     4   7  10  19  39  69 100 122 142 178 229 277
#     4   9  15  21  33  59  94 127 156 183 214 260
#
# _framework density 19.716877
#
# number of rings (size 3 to 8) (size 9 to 14) (size 15 to 20)
#    0.000    3.182    0.000    4.091    0.000    6.182 
#    0.000    1.818    0.000    1.091    0.000    7.000 
#    0.000    5.091    0.000    0.000    0.000    0.000 
#
# Total GULP energy -245155.366833 kJ/mol
# GULP energy per Si atom -5571.712883 kJ/mol
# Density = 1.967200 g / cm^3
# Si number density = 19.716877 Si / 1000 Ang^3
#
#
#
# Elastic Constant Matrix: (Units=GPa)
#
#
# Indices 1 2 3 4 5 6 
#
# 1 125.8006 6.7657 132.9145 0.0000 0.0000 0.0000
# 2 6.7657 28.4240 8.8178 0.0000 0.0000 0.0000
# 3 132.9145 8.8178 224.8582 0.0000 0.0000 0.0000
# 4 0.0000 0.0000 0.0000 -49.7637 0.0000 0.0000
# 5 0.0000 0.0000 0.0000 0.0000 -6.4335 0.0000
# 6 0.0000 0.0000 0.0000 0.0000 0.0000 14.9679
#
#
#
# Elastic Compliance Matrix: (Units=1/GPa)
#
#
# Indices 1 2 3 4 5 6 
#
# 1 0.021210 -0.001173 -0.012491 0.000000 0.000000 0.000000
# 2 -0.001173 0.035680 -0.000706 0.000000 0.000000 0.000000
# 3 -0.012491 -0.000706 0.011858 0.000000 0.000000 0.000000
# 4 0.000000 0.000000 0.000000 -0.020095 0.000000 0.000000
# 5 0.000000 0.000000 0.000000 0.000000 -0.155437 0.000000
# 6 0.000000 0.000000 0.000000 0.000000 0.000000 0.066810
#
#
# Mechanical properties :
#
#
# Convention : Reuss Voigt Hill
#
# Bulk Modulus (GPa) = 24.99526 75.11988 50.05757
# Shear Modulus (GPa) = 2379.01350 7.12646 1193.06998
#
# Velocity S-wave (km/s) = 34.77365 1.90322 24.62549
# Velocity P-wave (km/s) = 40.31104 6.55833 28.87899
#
# Compressibility (1/GPa) = 0.04000759
#
# Stress axis : x y z
#
# Youngs Moduli (GPa) = 47.14840 28.02715 84.32823
#
# Poissons Ratio (x) = 0.03289 1.05335
# Poissons Ratio (y) = 0.05533 0.05950
# Poissons Ratio (z) = 0.58893 0.01977
#
# Static dielectric constant tensor:
#      x y z
#    x 1.670620 0.000000 0.000000 
#    y 0.000000 1.721100 0.000000 
#    z 0.000000 0.000000 1.728910 
# 
# From -- ./inp_files/33902.got.cif
#   From: 2010.05.17/outbox.cif.g08.bks.cpg/sg47_17_cif.got.tgz:33902.got - 2010.06.03 20:15:42.
