data_PCOD9388850
_publ_section_title
;
Structure prediction by ZEFSAII (Michael W. Deem and Ramdas Pophale) SiO2 
 PCOD9388850
Probable space group: P M M M
;
_chemical_formula_sum "Si O2"
_cell_formula_units_Z 36
_cell_length_a 27.064475
_cell_length_b 7.454259
_cell_length_c 7.735343
_cell_angle_alpha 90.000000
_cell_angle_beta 90.000000
_cell_angle_gamma 90.000000
_cell_volume 1560.571464
_symmetry_space_group_name_H-M "P M M M"
_symmetry_group_IT_number 47
_symmetry_cell_setting 'orthorhombic'
loop_
_space_group_symop_operation_xyz
x,y,z
-x,-y,z
x,-y,-z
-x,y,-z
-x,-y,-z
x,y,-z
-x,y,z
x,-y,z
loop_
_atom_site_type_symbol
_atom_site_label
_atom_site_fract_x
_atom_site_fract_y
_atom_site_fract_z
Si Si1 0.874303 0.710047 0.194678
Si Si2 0.235250 0.204779 0.207470
Si Si3 0.446850 0.218456 0.294637
Si Si4 0.341141 0.206923 0.707504
Si Si5 0.943019 0.720463 0.500000
O O1 0.885356 0.500000 0.179029
O O2 0.817813 0.721483 0.261923
O O3 0.913020 0.783562 0.331681
O O4 0.876604 0.787474 0.000000
O O5 0.287829 0.290452 0.254825
O O6 0.236509 0.000000 0.272253
O O7 0.234103 0.205897 0.000000
O O8 0.448152 0.260706 0.500000
O O9 0.500000 0.277059 0.221336
O O10 0.393583 0.282691 0.227070
O O11 0.445622 0.000000 0.282047
O O12 0.345377 0.201300 0.500000
O O13 0.338596 0.000000 0.772228
O O14 0.941849 0.500000 0.500000
O O15 0.000000 0.773885 0.500000
#
# Coordination Sequence:
#
# PCOD9388850 Si02
#       5
#     8   8   8   8   4
#     4   9  18  32  49  69  93 120 148 179 216 257
#     4   9  17  28  42  61  86 116 146 177 216 259
#     4   7   9  14  25  42  66  96 130 168 208 250
#     4   8  13  20  32  52  75 102 138 175 211 254
#     4   9  18  32  51  75  97 117 146 183 218 252
#
# _framework density 23.068473000000001
#
# number of rings (size 3 to 8) (size 9 to 14) (size 15 to 20)
#    0.000    3.667    0.000    2.000    1.556    0.444 
#    0.000    2.222    0.000    2.000    0.000    7.778 
#    0.000    0.889    0.000   11.111    0.000   10.222 
#
# Total GULP energy -200499.332341 kJ/mol
# GULP energy per Si atom -5569.425898 kJ/mol
# Density = 2.301597 g / cm^3
# Si number density = 23.068473 Si / 1000 Ang^3
#
#
#
# Elastic Constant Matrix: (Units=GPa)
#
#
# Indices 1 2 3 4 5 6 
#
# 1 282.6556 8.1886 82.9040 0.0000 0.0000 0.0000
# 2 8.1886 64.3502 6.0495 0.0000 0.0000 0.0000
# 3 82.9040 6.0495 66.0845 0.0000 0.0000 0.0000
# 4 0.0000 0.0000 0.0000 -1.5739 0.0000 0.0000
# 5 0.0000 0.0000 0.0000 0.0000 137.4737 0.0000
# 6 0.0000 0.0000 0.0000 0.0000 0.0000 14.6348
#
#
#
# Elastic Compliance Matrix: (Units=1/GPa)
#
#
# Indices 1 2 3 4 5 6 
#
# 1 0.005598 -0.000053 -0.007018 0.000000 0.000000 0.000000
# 2 -0.000053 0.015675 -0.001369 0.000000 0.000000 0.000000
# 3 -0.007018 -0.001369 0.024061 0.000000 0.000000 0.000000
# 4 0.000000 0.000000 0.000000 -0.635358 0.000000 0.000000
# 5 0.000000 0.000000 0.000000 0.000000 0.007274 0.000000
# 6 0.000000 0.000000 0.000000 0.000000 0.000000 0.068330
#
#
# Mechanical properties :
#
#
# Convention : Reuss Voigt Hill
#
# Bulk Modulus (GPa) = 35.14214 67.48605 51.31409
# Shear Modulus (GPa) = -10.24472 51.17014 20.46271
#
# Velocity S-wave (km/s) = -2.10966 4.71487 2.98156
# Velocity P-wave (km/s) = 3.05495 7.67842 5.84341
#
# Compressibility (1/GPa) = 0.02845587
#
# Stress axis : x y z
#
# Youngs Moduli (GPa) = 178.64571 63.79445 41.56090
#
# Poissons Ratio (x) = 0.00336 0.29166
# Poissons Ratio (y) = 0.00940 0.05690
# Poissons Ratio (z) = 1.25365 0.08733
#
# Static dielectric constant tensor:
#      x y z
#    x 1.902290 0.000000 0.000000 
#    y 0.000000 1.922600 0.000000 
#    z 0.000000 0.000000 1.862930 
# 
# From -- ./inp_files/10570.got.cif
#   From: 2010.05.17/outbox.cif.g08.bks.cpg/sg47_6_cif.got.tgz:10570.got - 2010.06.03 20:15:42.
