data_PCOD9388255
_publ_section_title
;
Structure prediction by ZEFSAII (Michael W. Deem and Ramdas Pophale) SiO2 
 PCOD9388255
Probable space group: P M M M
;
_chemical_formula_sum "Si O2"
_cell_formula_units_Z 56
_cell_length_a 8.305799
_cell_length_b 19.480917
_cell_length_c 19.580491
_cell_angle_alpha 90.000000
_cell_angle_beta 90.000000
_cell_angle_gamma 90.000000
_cell_volume 3168.213141
_symmetry_space_group_name_H-M "P M M M"
_symmetry_group_IT_number 47
_symmetry_cell_setting 'orthorhombic'
loop_
_space_group_symop_operation_xyz
x,y,z
-x,-y,z
x,-y,-z
-x,y,-z
-x,-y,-z
x,y,-z
-x,y,z
x,-y,z
loop_
_atom_site_type_symbol
_atom_site_label
_atom_site_fract_x
_atom_site_fract_y
_atom_site_fract_z
Si Si1 0.305308 0.922967 0.339952
Si Si2 0.811204 0.583104 0.073858
Si Si3 0.308184 0.422300 0.779590
Si Si4 0.305595 0.920967 0.921928
Si Si5 0.694483 0.288227 0.709651
Si Si6 0.303353 0.208265 0.576763
Si Si7 0.809142 0.841603 0.791054
O O1 0.500000 0.923381 0.339481
O O2 0.254955 0.867091 0.396214
O O3 0.250181 0.895384 0.266436
O O4 0.248043 0.000000 0.352761
O O5 0.801550 0.500000 0.071970
O O6 0.723233 0.602795 0.142996
O O7 0.000000 0.600915 0.079066
O O8 0.749796 0.608141 0.000000
O O9 0.500000 0.426723 0.770131
O O10 0.242177 0.500000 0.771562
O O11 0.244189 0.363461 0.729752
O O12 0.500000 0.920182 0.920430
O O13 0.244456 0.868929 0.864765
O O14 0.255028 0.000000 0.906805
O O15 0.255351 0.905085 0.000000
O O16 0.500000 0.290450 0.707719
O O17 0.750073 0.260586 0.635947
O O18 0.740592 0.231580 0.766236
O O19 0.247737 0.222107 0.500000
O O20 0.500000 0.209702 0.576008
O O21 0.000000 0.837571 0.788942
#
# Coordination Sequence:
#
# PCOD9388255 Si02
#       7
#     8   8   8   8   8   8   8
#     4   9  17  29  46  68  94 124 155 187 227 274
#     4   8  14  25  41  62  89 118 144 173 214 262
#     4   9  17  29  47  70  92 116 150 191 231 273
#     4   9  18  33  52  71  92 123 162 200 238 278
#     4   9  18  33  50  67  91 122 153 187 231 282
#     4   8  14  26  46  70  92 118 155 192 222 260
#     4  11  21  31  46  68  94 123 157 196 233 272
#
# _framework density 17.675578000000002
#
# number of rings (size 3 to 8) (size 9 to 14) (size 15 to 20)
#    0.000    3.000    0.000    3.429    0.000    3.714 
#    0.000    4.286    0.000    8.143    0.000    7.000 
#    0.000    0.000    0.000    8.714    0.000    9.429 
#
# Total GULP energy -311902.495721 kJ/mol
# GULP energy per Si atom -5569.687424 kJ/mol
# Density = 1.763535 g / cm^3
# Si number density = 17.675578 Si / 1000 Ang^3
#
#
#
# Elastic Constant Matrix: (Units=GPa)
#
#
# Indices 1 2 3 4 5 6 
#
# 1 6.3591 11.5365 9.0620 0.0000 0.0000 0.0000
# 2 11.5365 113.1826 82.4445 0.0000 0.0000 0.0000
# 3 9.0620 82.4445 135.0574 0.0000 0.0000 0.0000
# 4 0.0000 0.0000 0.0000 11.2098 0.0000 0.0000
# 5 0.0000 0.0000 0.0000 0.0000 -24.0964 0.0000
# 6 0.0000 0.0000 0.0000 0.0000 0.0000 1.1591
#
#
#
# Elastic Compliance Matrix: (Units=1/GPa)
#
#
# Indices 1 2 3 4 5 6 
#
# 1 0.193148 -0.018452 -0.001696 0.000000 0.000000 0.000000
# 2 -0.018452 0.017672 -0.009550 0.000000 0.000000 0.000000
# 3 -0.001696 -0.009550 0.013348 0.000000 0.000000 0.000000
# 4 0.000000 0.000000 0.000000 0.089208 0.000000 0.000000
# 5 0.000000 0.000000 0.000000 0.000000 -0.041500 0.000000
# 6 0.000000 0.000000 0.000000 0.000000 0.000000 0.862768
#
#
# Mechanical properties :
#
#
# Convention : Reuss Voigt Hill
#
# Bulk Modulus (GPa) = 6.06897 51.18724 28.62810
# Shear Modulus (GPa) = 4.00332 7.75822 5.88077
#
# Velocity S-wave (km/s) = 1.50659 2.09732 1.82600
# Velocity P-wave (km/s) = 2.54311 5.90654 4.54723
#
# Compressibility (1/GPa) = 0.16477269
#
# Stress axis : x y z
#
# Youngs Moduli (GPa) = 5.17737 56.58554 74.91945
#
# Poissons Ratio (x) = 1.04411 0.12706
# Poissons Ratio (y) = 0.09553 0.71547
# Poissons Ratio (z) = 0.00878 0.54038
#
# Static dielectric constant tensor:
#      x y z
#    x 1.603860 0.000000 0.000000 
#    y 0.000000 1.619270 0.000000 
#    z 0.000000 0.000000 1.611330 
# 
# From -- ./inp_files/11514.got.cif
#   From: 2010.05.17/outbox.cif.g08.bks.cpg/sg47_6_cif.got.tgz:11514.got - 2010.06.03 20:15:42.
