data_PCOD9388954
_publ_section_title
;
Structure prediction by ZEFSAII (Michael W. Deem and Ramdas Pophale) SiO2 
 PCOD9388954
Probable space group: P M M M
;
_chemical_formula_sum "Si O2"
_cell_formula_units_Z 40
_cell_length_a 7.391285
_cell_length_b 10.014716
_cell_length_c 27.115494
_cell_angle_alpha 90.000000
_cell_angle_beta 90.000000
_cell_angle_gamma 90.000000
_cell_volume 2007.132797
_symmetry_space_group_name_H-M "P M M M"
_symmetry_group_IT_number 47
_symmetry_cell_setting 'orthorhombic'
loop_
_space_group_symop_operation_xyz
x,y,z
-x,-y,z
x,-y,-z
-x,y,-z
-x,-y,-z
x,y,-z
-x,y,z
x,-y,z
loop_
_atom_site_type_symbol
_atom_site_label
_atom_site_fract_x
_atom_site_fract_y
_atom_site_fract_z
Si Si1 0.286135 0.848032 0.640823
Si Si2 0.783004 0.154157 0.749001
Si Si3 0.779472 0.653685 0.055624
Si Si4 0.279238 0.653301 0.555738
Si Si5 0.779247 0.844447 0.856819
O O1 0.500000 0.859266 0.632304
O O2 0.265789 0.787915 0.695852
O O3 0.213984 0.753505 0.597841
O O4 0.211733 0.000000 0.640266
O O5 0.722800 0.206906 0.802367
O O6 0.000000 0.152631 0.750444
O O7 0.719222 0.000000 0.747498
O O8 0.725653 0.500000 0.064454
O O9 0.717181 0.753018 0.098242
O O10 0.000000 0.655608 0.056036
O O11 0.723925 0.691420 0.000000
O O12 0.225631 0.691214 0.500000
O O13 0.500000 0.653807 0.556554
O O14 0.223952 0.500000 0.564573
O O15 0.000000 0.843293 0.857586
O O16 0.726165 0.000000 0.861869
#
# Coordination Sequence:
#
# PCOD9388954 Si02
#       5
#     8   8   8   8   8
#     4   9  16  25  40  62  81  96 122 160 191 215
#     4   8  14  25  39  54  76 105 129 150 184 227
#     4   8  13  20  29  43  66  93 116 143 184 224
#     4   8  14  25  40  57  78 103 126 149 185 230
#     4   8  13  21  33  47  63  89 124 151 171 208
#
# _framework density 19.928925
#
# number of rings (size 3 to 8) (size 9 to 14) (size 15 to 20)
#    0.000    3.800    0.000    2.400    0.000    0.800 
#    0.000    5.000    0.000    2.400    0.000    4.200 
#    0.000    0.800    0.000   10.000    0.000   11.600 
#
# Total GULP energy -222746.653820 kJ/mol
# GULP energy per Si atom -5568.666346 kJ/mol
# Density = 1.988357 g / cm^3
# Si number density = 19.928925 Si / 1000 Ang^3
#
#
#
# Elastic Constant Matrix: (Units=GPa)
#
#
# Indices 1 2 3 4 5 6 
#
# 1 66.1080 3.8539 4.8262 0.0000 0.0000 0.0000
# 2 3.8539 79.7037 116.5199 0.0000 0.0000 0.0000
# 3 4.8262 116.5199 243.9364 0.0000 0.0000 0.0000
# 4 0.0000 0.0000 0.0000 -21.7175 0.0000 0.0000
# 5 0.0000 0.0000 0.0000 0.0000 12.0773 0.0000
# 6 0.0000 0.0000 0.0000 0.0000 0.0000 -6.9321
#
#
#
# Elastic Compliance Matrix: (Units=1/GPa)
#
#
# Indices 1 2 3 4 5 6 
#
# 1 0.015172 -0.000977 0.000167 0.000000 0.000000 0.000000
# 2 -0.000977 0.041650 -0.019875 0.000000 0.000000 0.000000
# 3 0.000167 -0.019875 0.013590 0.000000 0.000000 0.000000
# 4 0.000000 0.000000 0.000000 -0.046046 0.000000 0.000000
# 5 0.000000 0.000000 0.000000 0.000000 0.082800 0.000000
# 6 0.000000 0.000000 0.000000 0.000000 0.000000 -0.144256
#
#
# Mechanical properties :
#
#
# Convention : Reuss Voigt Hill
#
# Bulk Modulus (GPa) = 34.43586 71.12758 52.78172
# Shear Modulus (GPa) = 358.14998 14.32208 186.23603
#
# Velocity S-wave (km/s) = 13.42028 2.68369 9.67745
# Velocity P-wave (km/s) = 16.04541 6.73580 12.30500
#
# Compressibility (1/GPa) = 0.02903950
#
# Stress axis : x y z
#
# Youngs Moduli (GPa) = 65.91280 24.00985 73.58441
#
# Poissons Ratio (x) = 0.02346 -0.01225
# Poissons Ratio (y) = 0.06440 1.46251
# Poissons Ratio (z) = -0.01098 0.47720
#
# Static dielectric constant tensor:
#      x y z
#    x 1.801250 0.000000 0.000000 
#    y 0.000000 1.667110 0.000000 
#    z 0.000000 0.000000 1.721950 
# 
# From -- ./inp_files/1415.got.cif
#   From: 2010.05.17/outbox.cif.g08.bks.cpg/sg47_1_cif.got.tgz:1415.got - 2010.06.03 20:15:42.
