data_PCOD9388963
_publ_section_title
;
Structure prediction by ZEFSAII (Michael W. Deem and Ramdas Pophale) SiO2 
 PCOD9388963
Probable space group: P M M M
;
_chemical_formula_sum "Si O2"
_cell_formula_units_Z 48
_cell_length_a 7.706218
_cell_length_b 9.820883
_cell_length_c 36.110719
_cell_angle_alpha 90.000000
_cell_angle_beta 90.000000
_cell_angle_gamma 90.000000
_cell_volume 2732.926573
_symmetry_space_group_name_H-M "P M M M"
_symmetry_group_IT_number 47
_symmetry_cell_setting 'orthorhombic'
loop_
_space_group_symop_operation_xyz
x,y,z
-x,-y,z
x,-y,-z
-x,y,-z
-x,-y,-z
x,y,-z
-x,y,z
x,-y,z
loop_
_atom_site_type_symbol
_atom_site_label
_atom_site_fract_x
_atom_site_fract_y
_atom_site_fract_z
Si Si1 0.708061 0.346105 0.609262
Si Si2 0.288850 0.657525 0.691541
Si Si3 0.000000 0.165042 0.181294
Si Si4 0.000000 0.166660 0.096685
Si Si5 0.698784 0.834361 0.958124
Si Si6 0.208425 0.845061 0.459149
Si Si7 0.294881 0.162757 0.761372
O O1 0.500000 0.353188 0.611756
O O2 0.772971 0.500000 0.602757
O O3 0.769746 0.301089 0.650169
O O4 0.747697 0.249348 0.575179
O O5 0.500000 0.659629 0.691474
O O6 0.236725 0.500000 0.697525
O O7 0.236934 0.756141 0.724727
O O8 0.828888 0.203191 0.204623
O O9 0.000000 0.214012 0.139049
O O10 0.000000 0.000000 0.179699
O O11 0.168048 0.210322 0.073238
O O12 0.000000 0.000000 0.097225
O O13 0.500000 0.792162 0.951569
O O14 0.700457 0.000000 0.957962
O O15 0.749792 0.793462 0.000000
O O16 0.269445 0.797734 0.500000
O O17 0.000000 0.850313 0.460721
O O18 0.271567 0.000000 0.453697
O O19 0.500000 0.189733 0.768255
O O20 0.277074 0.000000 0.755537
#
# Coordination Sequence:
#
# PCOD9388963 Si02
#       7
#     8   8   4   4   8   8   8
#     4   9  18  32  50  73  97 117 143 184 230 274
#     4   8  15  30  50  69  90 115 143 179 223 269
#     4   9  18  29  39  58  85 111 149 195 228 270
#     4   9  15  22  33  47  69 103 138 179 231 270
#     4   8  13  20  30  46  68  96 136 184 227 268
#     4   9  19  35  50  65  91 126 159 187 217 260
#     4   9  17  30  47  64  86 118 150 183 228 275
#
# _framework density 17.563589
#
# number of rings (size 3 to 8) (size 9 to 14) (size 15 to 20)
#    0.000    3.333    0.000    2.250    0.000    3.667 
#    1.500    7.917    0.000    0.000    0.000    0.000 
#    0.000    0.000    0.000    0.000    0.000    6.667 
#
# Total GULP energy -267243.321487 kJ/mol
# GULP energy per Si atom -5567.569198 kJ/mol
# Density = 1.752361 g / cm^3
# Si number density = 17.563589 Si / 1000 Ang^3
#
#
#
# Elastic Constant Matrix: (Units=GPa)
#
#
# Indices 1 2 3 4 5 6 
#
# 1 63.8692 24.5074 73.2722 0.0000 0.0000 0.0000
# 2 24.5074 29.2492 63.1900 0.0000 0.0000 0.0000
# 3 73.2722 63.1900 212.8898 0.0000 0.0000 0.0000
# 4 0.0000 0.0000 0.0000 -8.5210 0.0000 0.0000
# 5 0.0000 0.0000 0.0000 0.0000 12.9873 0.0000
# 6 0.0000 0.0000 0.0000 0.0000 0.0000 14.5968
#
#
#
# Elastic Compliance Matrix: (Units=1/GPa)
#
#
# Indices 1 2 3 4 5 6 
#
# 1 0.026368 -0.006932 -0.007018 0.000000 0.000000 0.000000
# 2 -0.006932 0.097123 -0.026442 0.000000 0.000000 0.000000
# 3 -0.007018 -0.026442 0.014961 0.000000 0.000000 0.000000
# 4 0.000000 0.000000 0.000000 -0.117358 0.000000 0.000000
# 5 0.000000 0.000000 0.000000 0.000000 0.076999 0.000000
# 6 0.000000 0.000000 0.000000 0.000000 0.000000 0.068508
#
#
# Mechanical properties :
#
#
# Convention : Reuss Voigt Hill
#
# Bulk Modulus (GPa) = 17.34065 69.77194 43.55629
# Shear Modulus (GPa) = 18.75416 13.48186 16.11801
#
# Velocity S-wave (km/s) = 3.27124 2.77357 3.03263
# Velocity P-wave (km/s) = 4.91554 7.07591 6.09225
#
# Compressibility (1/GPa) = 0.05766798
#
# Stress axis : x y z
#
# Youngs Moduli (GPa) = 37.92520 10.29621 66.83972
#
# Poissons Ratio (x) = 0.07138 0.46905
# Poissons Ratio (y) = 0.26291 1.76739
# Poissons Ratio (z) = 0.26614 0.27225
#
# Static dielectric constant tensor:
#      x y z
#    x 1.636220 0.000000 0.000000 
#    y 0.000000 1.577220 0.000000 
#    z 0.000000 0.000000 1.600990 
# 
# From -- ./inp_files/34195.got.cif
#   From: 2010.05.17/outbox.cif.g08.bks.cpg/sg47_18_cif.got.tgz:34195.got - 2010.06.03 20:15:42.
