data_PCOD9388923
_publ_section_title
;
Structure prediction by ZEFSAII (Michael W. Deem and Ramdas Pophale) SiO2 
 PCOD9388923
Probable space group: P M M M
;
_chemical_formula_sum "Si O2"
_cell_formula_units_Z 48
_cell_length_a 9.414619
_cell_length_b 7.349345
_cell_length_c 32.483297
_cell_angle_alpha 90.000000
_cell_angle_beta 90.000000
_cell_angle_gamma 90.000000
_cell_volume 2247.560998
_symmetry_space_group_name_H-M "P M M M"
_symmetry_group_IT_number 47
_symmetry_cell_setting 'orthorhombic'
loop_
_space_group_symop_operation_xyz
x,y,z
-x,-y,z
x,-y,-z
-x,y,-z
-x,-y,-z
x,y,-z
-x,y,z
x,-y,z
loop_
_atom_site_type_symbol
_atom_site_label
_atom_site_fract_x
_atom_site_fract_y
_atom_site_fract_z
Si Si1 0.336776 0.722502 0.213025
Si Si2 0.161860 0.285391 0.865335
Si Si3 0.834881 0.218287 0.044194
Si Si4 0.663145 0.722212 0.625646
Si Si5 0.836530 0.721920 0.293807
Si Si6 0.164083 0.278504 0.453847
O O1 0.500000 0.780729 0.215095
O O2 0.337973 0.500000 0.212867
O O3 0.258994 0.785276 0.171402
O O4 0.247856 0.778418 0.253040
O O5 0.148886 0.500000 0.858013
O O6 0.225414 0.266453 0.911255
O O7 0.000000 0.210418 0.864925
O O8 0.000000 0.280329 0.045101
O O9 0.836237 0.000000 0.043085
O O10 0.773811 0.280460 0.000000
O O11 0.500000 0.779515 0.628865
O O12 0.663797 0.500000 0.625568
O O13 0.754923 0.779344 0.665007
O O14 0.736005 0.781689 0.583156
O O15 0.837311 0.500000 0.293880
O O16 0.000000 0.780586 0.293292
O O17 0.206122 0.221331 0.500000
O O18 0.165886 0.500000 0.453713
O O19 0.000000 0.225016 0.446904
#
# Coordination Sequence:
#
# PCOD9388923 Si02
#       6
#     8   8   8   8   8   8
#     4   9  16  25  36  50  70  94 117 143 180 225
#     4   9  16  25  39  60  82 102 128 162 196 230
#     4   8  14  25  41  61  84 108 133 162 196 231
#     4   9  15  20  26  37  52  70  95 128 168 216
#     4   9  15  22  32  44  59  80 106 136 171 214
#     4   8  13  20  27  33  43  62  90 126 169 215
#
# _framework density 21.356483999999998
#
# number of rings (size 3 to 8) (size 9 to 14) (size 15 to 20)
#    0.000    3.333    0.000    2.500    0.000    6.667 
#    0.000    3.333    0.000    1.000    0.000    3.500 
#    0.000    0.000    0.000    0.000    0.000    0.000 
#
# Total GULP energy -267782.263928 kJ/mol
# GULP energy per Si atom -5578.797165 kJ/mol
# Density = 2.130788 g / cm^3
# Si number density = 21.356484 Si / 1000 Ang^3
#
#
#
# Elastic Constant Matrix: (Units=GPa)
#
#
# Indices 1 2 3 4 5 6 
#
# 1 158.4050 5.5793 141.1885 0.0000 0.0000 0.0000
# 2 5.5793 78.2480 3.2864 0.0000 0.0000 0.0000
# 3 141.1885 3.2864 257.1452 0.0000 0.0000 0.0000
# 4 0.0000 0.0000 0.0000 74.3542 0.0000 0.0000
# 5 0.0000 0.0000 0.0000 0.0000 -10.1463 0.0000
# 6 0.0000 0.0000 0.0000 0.0000 0.0000 -12.1081
#
#
#
# Elastic Compliance Matrix: (Units=1/GPa)
#
#
# Indices 1 2 3 4 5 6 
#
# 1 0.012391 -0.000598 -0.006796 0.000000 0.000000 0.000000
# 2 -0.000598 0.012816 0.000165 0.000000 0.000000 0.000000
# 3 -0.006796 0.000165 0.007618 0.000000 0.000000 0.000000
# 4 0.000000 0.000000 0.000000 0.013449 0.000000 0.000000
# 5 0.000000 0.000000 0.000000 0.000000 -0.098559 0.000000
# 6 0.000000 0.000000 0.000000 0.000000 0.000000 -0.082589
#
#
# Mechanical properties :
#
#
# Convention : Reuss Voigt Hill
#
# Bulk Modulus (GPa) = 54.44790 88.21183 71.32987
# Shear Modulus (GPa) = -43.74744 33.33623 -5.20561
#
# Velocity S-wave (km/s) = -4.53088 3.95516 -1.56294
# Velocity P-wave (km/s) = 1.34969 7.88999 5.49683
#
# Compressibility (1/GPa) = 0.01836618
#
# Stress axis : x y z
#
# Youngs Moduli (GPa) = 80.70159 78.02986 131.26550
#
# Poissons Ratio (x) = 0.04667 0.89207
# Poissons Ratio (y) = 0.04827 -0.02161
# Poissons Ratio (z) = 0.54844 -0.01284
#
# Static dielectric constant tensor:
#      x y z
#    x 1.713610 0.000000 0.000000 
#    y 0.000000 1.842570 0.000000 
#    z 0.000000 0.000000 1.765020 
# 
# From -- ./inp_files/4431.got.cif
#   From: 2010.05.17/outbox.cif.g08.bks.cpg/sg47_3_cif.got.tgz:4431.got - 2010.06.03 20:15:42.
