data_PCOD9388727
_publ_section_title
;
Structure prediction by ZEFSAII (Michael W. Deem and Ramdas Pophale) SiO2 
 PCOD9388727
Probable space group: P M M M
;
_chemical_formula_sum "Si O2"
_cell_formula_units_Z 52
_cell_length_a 35.092781
_cell_length_b 7.333586
_cell_length_c 9.570906
_cell_angle_alpha 90.000000
_cell_angle_beta 90.000000
_cell_angle_gamma 90.000000
_cell_volume 2463.129390
_symmetry_space_group_name_H-M "P M M M"
_symmetry_group_IT_number 47
_symmetry_cell_setting 'orthorhombic'
loop_
_space_group_symop_operation_xyz
x,y,z
-x,-y,z
x,-y,-z
-x,y,-z
-x,-y,-z
x,y,-z
-x,y,z
x,-y,z
loop_
_atom_site_type_symbol
_atom_site_label
_atom_site_fract_x
_atom_site_fract_y
_atom_site_fract_z
Si Si1 0.343712 0.722367 0.660896
Si Si2 0.198685 0.283163 0.340395
Si Si3 0.583342 0.722985 0.837985
Si Si4 0.729837 0.277166 0.839169
Si Si5 0.042135 0.777824 0.161736
Si Si6 0.500000 0.288832 0.830136
Si Si7 0.886784 0.781860 0.658739
O O1 0.341837 0.780944 0.500000
O O2 0.343740 0.500000 0.660236
O O3 0.382258 0.779879 0.739145
O O4 0.306958 0.778756 0.750002
O O5 0.201107 0.211164 0.500000
O O6 0.204073 0.500000 0.350040
O O7 0.231871 0.215505 0.239520
O O8 0.155781 0.253551 0.286616
O O9 0.582346 0.500000 0.837873
O O10 0.541316 0.786899 0.790421
O O11 0.589635 0.776108 0.000000
O O12 0.729929 0.500000 0.840743
O O13 0.728020 0.218620 0.000000
O O14 0.078035 0.713220 0.250391
O O15 0.000000 0.722378 0.212788
O O16 0.042540 0.000000 0.164022
O O17 0.045690 0.723935 0.000000
O O18 0.500000 0.500000 0.784853
O O19 0.500000 0.286781 0.000000
O O20 0.888278 0.711597 0.500000
O O21 0.890701 0.000000 0.652565
#
# Coordination Sequence:
#
# PCOD9388727 Si02
#       7
#     8   8   8   8   8   4   8
#     4   9  15  21  29  42  60  81 106 140 184 228
#     4   9  17  29  43  58  79 106 131 157 194 236
#     4   8  12  18  27  37  50  71 101 137 177 221
#     4   9  16  25  37  52  68  88 118 154 188 224
#     4   8  14  25  41  61  84 108 133 162 196 230
#     4   7  10  16  25  35  47  67  97 133 174 219
#     4   9  17  28  43  64  86 106 131 163 195 228
#
# _framework density 21.111355
#
# number of rings (size 3 to 8) (size 9 to 14) (size 15 to 20)
#    0.000    3.462    0.000    2.308    0.000    4.615 
#    0.000    1.923    0.000    2.769    0.000    3.231 
#    0.000    0.000    0.000    0.000    0.000    0.000 
#
# Total GULP energy -290073.985973 kJ/mol
# GULP energy per Si atom -5578.345884 kJ/mol
# Density = 2.106330 g / cm^3
# Si number density = 21.111355 Si / 1000 Ang^3
#
#
#
# Elastic Constant Matrix: (Units=GPa)
#
#
# Indices 1 2 3 4 5 6 
#
# 1 267.4511 4.6003 138.5216 0.0000 0.0000 0.0000
# 2 4.6003 81.6794 5.2841 0.0000 0.0000 0.0000
# 3 138.5216 5.2841 132.9374 0.0000 0.0000 0.0000
# 4 0.0000 0.0000 0.0000 -12.4735 0.0000 0.0000
# 5 0.0000 0.0000 0.0000 0.0000 69.8958 0.0000
# 6 0.0000 0.0000 0.0000 0.0000 0.0000 6.9674
#
#
#
# Elastic Compliance Matrix: (Units=1/GPa)
#
#
# Indices 1 2 3 4 5 6 
#
# 1 0.008123 0.000090 -0.008468 0.000000 0.000000 0.000000
# 2 0.000090 0.012276 -0.000582 0.000000 0.000000 0.000000
# 3 -0.008468 -0.000582 0.016369 0.000000 0.000000 0.000000
# 4 0.000000 0.000000 0.000000 -0.080170 0.000000 0.000000
# 5 0.000000 0.000000 0.000000 0.000000 0.014307 0.000000
# 6 0.000000 0.000000 0.000000 0.000000 0.000000 0.143525
#
#
# Mechanical properties :
#
#
# Convention : Reuss Voigt Hill
#
# Bulk Modulus (GPa) = 53.05475 86.54223 69.79849
# Shear Modulus (GPa) = 36.06634 35.12206 35.59420
#
# Velocity S-wave (km/s) = 4.13775 4.08322 4.11057
# Velocity P-wave (km/s) = 6.92917 7.95691 7.46076
#
# Compressibility (1/GPa) = 0.01884845
#
# Stress axis : x y z
#
# Youngs Moduli (GPa) = 123.10071 81.46274 61.08944
#
# Poissons Ratio (x) = -0.00736 0.51732
# Poissons Ratio (y) = -0.01112 0.03556
# Poissons Ratio (z) = 1.04245 0.04741
#
# Static dielectric constant tensor:
#      x y z
#    x 1.747370 0.000000 0.000000 
#    y 0.000000 1.905780 0.000000 
#    z 0.000000 0.000000 1.709960 
# 
# From -- ./inp_files/14098.got.cif
#   From: 2010.05.17/outbox.cif.g08.bks.cpg/sg47_8_cif.got.tgz:14098.got - 2010.06.03 20:15:42.
