data_PCOD9388480
_publ_section_title
;
Structure prediction by ZEFSAII (Michael W. Deem and Ramdas Pophale) SiO2 
 PCOD9388480
Probable space group: P M M M
;
_chemical_formula_sum "Si O2"
_cell_formula_units_Z 37
_cell_length_a 7.647456
_cell_length_b 12.349907
_cell_length_c 20.741884
_cell_angle_alpha 90.000000
_cell_angle_beta 90.000000
_cell_angle_gamma 90.000000
_cell_volume 1958.974917
_symmetry_space_group_name_H-M "P M M M"
_symmetry_group_IT_number 47
_symmetry_cell_setting 'orthorhombic'
loop_
_space_group_symop_operation_xyz
x,y,z
-x,-y,z
x,-y,-z
-x,y,-z
-x,-y,-z
x,y,-z
-x,y,z
x,-y,z
loop_
_atom_site_type_symbol
_atom_site_label
_atom_site_fract_x
_atom_site_fract_y
_atom_site_fract_z
Si Si1 0.210572 0.127320 0.569344
Si Si2 0.293787 0.124397 0.712095
Si Si3 0.193250 0.500000 0.888836
Si Si4 0.500000 0.500000 0.000000
Si Si5 0.210953 0.877032 0.074763
Si Si6 0.300909 0.712564 0.818292
O O1 0.270006 0.173795 0.500000
O O2 0.274905 0.165579 0.638665
O O3 0.000000 0.133524 0.570362
O O4 0.258919 0.000000 0.568385
O O5 0.500000 0.116102 0.726682
O O6 0.220551 0.212716 0.761739
O O7 0.222580 0.000000 0.717030
O O8 0.210013 0.604657 0.842894
O O9 0.000000 0.500000 0.918922
O O10 0.345539 0.500000 0.942653
O O11 0.299979 0.791557 0.120184
O O12 0.000000 0.866921 0.080079
O O13 0.257343 0.000000 0.092998
O O14 0.256495 0.860771 0.000000
O O15 0.500000 0.683925 0.800239
#
# Coordination Sequence:
#
# PCOD9388480 Si02
#       6
#     8   8   4   1   8   8
#     4   8  14  25  42  68 104 143 183 227 272 321
#     4   9  18  31  50  77 111 152 189 225 273 329
#     4  12  27  45  67  90 112 144 187 235 292 345
#     4  12  26  52  68  90 110 140 184 240 296 340
#     4   9  19  34  51  74 103 136 176 220 267 325
#     4  11  22  38  55  78 111 143 184 232 280 335
#
# _framework density 18.887429999999998
#
# number of rings (size 3 to 8) (size 9 to 14) (size 15 to 20)
#    0.000    2.378    1.081    2.757    1.514    3.892 
#    0.000    5.405    0.000    0.000    0.000    0.757 
#    0.000    6.054    0.000    0.000    0.000    0.000 
#
# Total GULP energy -205997.398582 kJ/mol
# GULP energy per Si atom -5567.497259 kJ/mol
# Density = 1.884444 g / cm^3
# Si number density = 18.887430 Si / 1000 Ang^3
#
#
#
# Elastic Constant Matrix: (Units=GPa)
#
#
# Indices 1 2 3 4 5 6 
#
# 1 70.2865 18.2424 24.3023 0.0000 0.0000 0.0000
# 2 18.2424 79.4995 88.5327 0.0000 0.0000 0.0000
# 3 24.3023 88.5327 85.5147 0.0000 0.0000 0.0000
# 4 0.0000 0.0000 0.0000 -43.6809 0.0000 0.0000
# 5 0.0000 0.0000 0.0000 0.0000 23.4297 0.0000
# 6 0.0000 0.0000 0.0000 0.0000 0.0000 16.1644
#
#
#
# Elastic Compliance Matrix: (Units=1/GPa)
#
#
# Indices 1 2 3 4 5 6 
#
# 1 0.014855 -0.008453 0.004529 0.000000 0.000000 0.000000
# 2 -0.008453 -0.077443 0.082578 0.000000 0.000000 0.000000
# 3 0.004529 0.082578 -0.075086 0.000000 0.000000 0.000000
# 4 0.000000 0.000000 0.000000 -0.022893 0.000000 0.000000
# 5 0.000000 0.000000 0.000000 0.000000 0.042681 0.000000
# 6 0.000000 0.000000 0.000000 0.000000 0.000000 0.061864
#
#
# Mechanical properties :
#
#
# Convention : Reuss Voigt Hill
#
# Bulk Modulus (GPa) = 50.92652 55.27284 53.09968
# Shear Modulus (GPa) = -24.17961 6.13086 -9.02438
#
# Velocity S-wave (km/s) = -3.58186 1.80362 -2.18823
# Velocity P-wave (km/s) = 3.14887 5.80218 4.66801
#
# Compressibility (1/GPa) = 0.01963614
#
# Stress axis : x y z
#
# Youngs Moduli (GPa) = 67.31611 -12.91273 -13.31810
#
# Poissons Ratio (x) = -0.10915 0.06032
# Poissons Ratio (y) = 0.56899 1.09978
# Poissons Ratio (z) = -0.30488 1.06631
#
# Static dielectric constant tensor:
#      x y z
#    x 1.711590 0.000000 0.000000 
#    y 0.000000 1.374570 0.000000 
#    z 0.000000 0.000000 1.580500 
# 
# From -- ./inp_files/3974.got.cif
#   From: 2010.05.17/outbox.cif.g08.bks.cpg/sg47_2_cif.got.tgz:3974.got - 2010.06.03 20:15:42.
