data_PCOD9388032
_publ_section_title
;
Structure prediction by ZEFSAII (Michael W. Deem and Ramdas Pophale) SiO2 
 PCOD9388032
Probable space group: P M M M
;
_chemical_formula_sum "Si O2"
_cell_formula_units_Z 37
_cell_length_a 8.804374
_cell_length_b 23.426341
_cell_length_c 10.161591
_cell_angle_alpha 90.000000
_cell_angle_beta 90.000000
_cell_angle_gamma 90.000000
_cell_volume 2095.871510
_symmetry_space_group_name_H-M "P M M M"
_symmetry_group_IT_number 47
_symmetry_cell_setting 'orthorhombic'
loop_
_space_group_symop_operation_xyz
x,y,z
-x,-y,z
x,-y,-z
-x,y,-z
-x,-y,-z
x,y,-z
-x,y,z
x,-y,z
loop_
_atom_site_type_symbol
_atom_site_label
_atom_site_fract_x
_atom_site_fract_y
_atom_site_fract_z
Si Si1 0.185015 0.064590 0.348750
Si Si2 0.318109 0.712255 0.152833
Si Si3 0.181651 0.619219 0.348815
Si Si4 0.667981 0.500000 0.726539
Si Si5 0.500000 0.500000 0.000000
Si Si6 0.816867 0.163990 0.152803
O O1 0.230150 0.076001 0.500000
O O2 0.235306 0.113347 0.248483
O O3 0.000000 0.064605 0.346311
O O4 0.233118 0.000000 0.313866
O O5 0.500000 0.711577 0.160836
O O6 0.250835 0.665064 0.249007
O O7 0.256130 0.775142 0.186149
O O8 0.275581 0.700636 0.000000
O O9 0.222530 0.632965 0.500000
O O10 0.244269 0.556763 0.314051
O O11 0.000000 0.619645 0.337910
O O12 0.500000 0.500000 0.662809
O O13 0.629985 0.500000 0.882214
O O14 0.000000 0.169088 0.163464
O O15 0.781218 0.151154 0.000000
#
# Coordination Sequence:
#
# PCOD9388032 Si02
#       6
#     8   8   8   4   1   8
#     4   8  14  25  43  69 100 132 166 209 262 316
#     4  10  22  38  57  78 107 143 183 226 270 324
#     4  11  24  40  59  85 115 145 181 225 272 319
#     4  10  22  40  62  84 118 146 180 218 263 315
#     4   8  24  40  60  92 120 144 184 224 258 320
#     4   9  17  30  48  73 102 133 171 217 267 315
#
# _framework density 17.653753999999999
#
# number of rings (size 3 to 8) (size 9 to 14) (size 15 to 20)
#    0.324    2.162    0.000    2.595    1.514    5.622 
#    0.000    4.865    0.000    0.649    0.000    4.541 
#    0.000    0.000    0.000    0.000    0.000    0.000 
#
# Total GULP energy -206080.706998 kJ/mol
# GULP energy per Si atom -5569.748838 kJ/mol
# Density = 1.761357 g / cm^3
# Si number density = 17.653754 Si / 1000 Ang^3
#
#
#
# Elastic Constant Matrix: (Units=GPa)
#
#
# Indices 1 2 3 4 5 6 
#
# 1 32.1210 48.7064 43.3567 0.0000 0.0000 0.0000
# 2 48.7064 189.4576 123.2773 0.0000 0.0000 0.0000
# 3 43.3567 123.2773 125.7948 0.0000 0.0000 0.0000
# 4 0.0000 0.0000 0.0000 21.2257 0.0000 0.0000
# 5 0.0000 0.0000 0.0000 0.0000 22.1258 0.0000
# 6 0.0000 0.0000 0.0000 0.0000 0.0000 -56.8801
#
#
#
# Elastic Compliance Matrix: (Units=1/GPa)
#
#
# Indices 1 2 3 4 5 6 
#
# 1 0.060188 -0.005451 -0.015402 0.000000 0.000000 0.000000
# 2 -0.005451 0.015061 -0.012881 0.000000 0.000000 0.000000
# 3 -0.015402 -0.012881 0.025881 0.000000 0.000000 0.000000
# 4 0.000000 0.000000 0.000000 0.047113 0.000000 0.000000
# 5 0.000000 0.000000 0.000000 0.000000 0.045196 0.000000
# 6 0.000000 0.000000 0.000000 0.000000 0.000000 -0.017581
#
#
# Mechanical properties :
#
#
# Convention : Reuss Voigt Hill
#
# Bulk Modulus (GPa) = 29.70758 86.45046 58.07902
# Shear Modulus (GPa) = 19.64271 6.09647 12.86959
#
# Velocity S-wave (km/s) = 3.33928 1.86034 2.70293
# Velocity P-wave (km/s) = 5.63313 7.32740 6.53540
#
# Compressibility (1/GPa) = 0.03366144
#
# Stress axis : x y z
#
# Youngs Moduli (GPa) = 16.61454 66.39688 38.63839
#
# Poissons Ratio (x) = 0.36195 0.59512
# Poissons Ratio (y) = 0.09057 0.49769
# Poissons Ratio (z) = 0.25590 0.85524
#
# Static dielectric constant tensor:
#      x y z
#    x 1.594400 0.000000 0.000000 
#    y 0.000000 1.574690 0.000000 
#    z 0.000000 0.000000 1.596850 
# 
# From -- ./inp_files/1543.got.cif
#   From: 2010.05.17/outbox.cif.g08.bks.cpg/sg47_1_cif.got.tgz:1543.got - 2010.06.03 20:15:42.
