data_PCOD9388937
_publ_section_title
;
Structure prediction by ZEFSAII (Michael W. Deem and Ramdas Pophale) SiO2 
 PCOD9388937
Probable space group: P M M M
;
_chemical_formula_sum "Si O2"
_cell_formula_units_Z 44
_cell_length_a 9.448665
_cell_length_b 7.609493
_cell_length_c 31.514110
_cell_angle_alpha 90.000000
_cell_angle_beta 90.000000
_cell_angle_gamma 90.000000
_cell_volume 2265.850333
_symmetry_space_group_name_H-M "P M M M"
_symmetry_group_IT_number 47
_symmetry_cell_setting 'orthorhombic'
loop_
_space_group_symop_operation_xyz
x,y,z
-x,-y,z
x,-y,-z
-x,y,-z
-x,-y,-z
x,y,-z
-x,y,z
x,-y,z
loop_
_atom_site_type_symbol
_atom_site_label
_atom_site_fract_x
_atom_site_fract_y
_atom_site_fract_z
Si Si1 0.162637 0.784978 0.211884
Si Si2 0.336991 0.787647 0.706187
Si Si3 0.672037 0.304155 0.611415
Si Si4 0.163553 0.214332 0.047556
Si Si5 0.673159 0.000000 0.548627
Si Si6 0.337481 0.215084 0.129167
O O1 0.241525 0.727789 0.254724
O O2 0.248441 0.729465 0.170211
O O3 0.000000 0.728592 0.210458
O O4 0.163170 0.000000 0.211985
O O5 0.500000 0.727280 0.711251
O O6 0.283062 0.734054 0.659701
O O7 0.339913 0.000000 0.706754
O O8 0.500000 0.292335 0.612872
O O9 0.712172 0.500000 0.599404
O O10 0.719459 0.166537 0.576334
O O11 0.262778 0.273364 0.085725
O O12 0.000000 0.265915 0.054643
O O13 0.165673 0.000000 0.047704
O O14 0.205626 0.270052 0.000000
O O15 0.500000 0.000000 0.547760
O O16 0.720589 0.000000 0.500000
O O17 0.500000 0.271000 0.131796
O O18 0.336735 0.000000 0.129015
#
# Coordination Sequence:
#
# PCOD9388937 Si02
#       6
#     8   8   8   8   4   8
#     4   9  16  24  35  52  73  98 131 174 224 277
#     4   9  15  25  41  58  80 111 146 184 227 276
#     4   9  16  26  41  62  89 123 161 198 239 286
#     4   8  13  20  28  37  53  83 124 171 224 278
#     4   9  16  26  40  62  95 131 165 201 240 283
#     4   9  15  21  29  43  64  90 125 171 222 277
#
# _framework density 19.418758
#
# number of rings (size 3 to 8) (size 9 to 14) (size 15 to 20)
#    0.000    3.182    0.909    1.636    0.000    5.091 
#    0.000    3.636    0.000    0.545    0.000    0.000 
#    0.000    1.455    0.000    1.636    0.000    2.727 
#
# Total GULP energy -245426.254037 kJ/mol
# GULP energy per Si atom -5577.869410 kJ/mol
# Density = 1.937456 g / cm^3
# Si number density = 19.418758 Si / 1000 Ang^3
#
#
#
# Elastic Constant Matrix: (Units=GPa)
#
#
# Indices 1 2 3 4 5 6 
#
# 1 94.5550 23.3827 98.6431 0.0000 0.0000 0.0000
# 2 23.3827 61.3803 52.5618 0.0000 0.0000 0.0000
# 3 98.6431 52.5618 228.1573 0.0000 0.0000 0.0000
# 4 0.0000 0.0000 0.0000 -15.0828 0.0000 0.0000
# 5 0.0000 0.0000 0.0000 0.0000 -7.4872 0.0000
# 6 0.0000 0.0000 0.0000 0.0000 0.0000 -4.0333
#
#
#
# Elastic Compliance Matrix: (Units=1/GPa)
#
#
# Indices 1 2 3 4 5 6 
#
# 1 0.019268 -0.000257 -0.008271 0.000000 0.000000 0.000000
# 2 -0.000257 0.020299 -0.004565 0.000000 0.000000 0.000000
# 3 -0.008271 -0.004565 0.009011 0.000000 0.000000 0.000000
# 4 0.000000 0.000000 0.000000 -0.066301 0.000000 0.000000
# 5 0.000000 0.000000 0.000000 0.000000 -0.133560 0.000000
# 6 0.000000 0.000000 0.000000 0.000000 0.000000 -0.247934
#
#
# Mechanical properties :
#
#
# Convention : Reuss Voigt Hill
#
# Bulk Modulus (GPa) = 44.66132 81.47420 63.06776
# Shear Modulus (GPa) = -13.67745 8.64632 -2.51557
#
# Velocity S-wave (km/s) = -2.65682 2.11240 -1.13940
# Velocity P-wave (km/s) = 3.69288 6.92800 5.55133
#
# Compressibility (1/GPa) = 0.02239074
#
# Stress axis : x y z
#
# Youngs Moduli (GPa) = 51.89821 49.26301 110.97826
#
# Poissons Ratio (x) = 0.01267 0.91795
# Poissons Ratio (y) = 0.01335 0.50664
# Poissons Ratio (z) = 0.42927 0.22490
#
# Static dielectric constant tensor:
#      x y z
#    x 1.642390 0.000000 0.000000 
#    y 0.000000 1.756560 0.000000 
#    z 0.000000 0.000000 1.650960 
# 
# From -- ./inp_files/33928.got.cif
#   From: 2010.05.17/outbox.cif.g08.bks.cpg/sg47_17_cif.got.tgz:33928.got - 2010.06.03 20:15:42.
