data_PCOD9388856
_publ_section_title
;
Structure prediction by ZEFSAII (Michael W. Deem and Ramdas Pophale) SiO2 
 PCOD9388856
Probable space group: P M M M
;
_chemical_formula_sum "Si O2"
_cell_formula_units_Z 52
_cell_length_a 7.377534
_cell_length_b 7.809956
_cell_length_c 38.583842
_cell_angle_alpha 90.000000
_cell_angle_beta 90.000000
_cell_angle_gamma 90.000000
_cell_volume 2223.132140
_symmetry_space_group_name_H-M "P M M M"
_symmetry_group_IT_number 47
_symmetry_cell_setting 'orthorhombic'
loop_
_space_group_symop_operation_xyz
x,y,z
-x,-y,z
x,-y,-z
-x,y,-z
-x,-y,-z
x,y,-z
-x,y,z
x,-y,z
loop_
_atom_site_type_symbol
_atom_site_label
_atom_site_fract_x
_atom_site_fract_y
_atom_site_fract_z
Si Si1 0.283872 0.291826 0.462680
Si Si2 0.778830 0.000000 0.960273
Si Si3 0.778201 0.697781 0.090207
Si Si4 0.217033 0.695202 0.313875
Si Si5 0.205784 0.202170 0.239128
Si Si6 0.793438 0.295327 0.165616
Si Si7 0.283720 0.303078 0.388635
O O1 0.210424 0.232776 0.500000
O O2 0.500000 0.257409 0.463662
O O3 0.263497 0.500000 0.461847
O O4 0.215800 0.228231 0.425240
O O5 0.722891 0.830798 0.939177
O O6 0.000000 0.000000 0.960412
O O7 0.719102 0.000000 0.000000
O O8 0.723237 0.500000 0.084277
O O9 0.716501 0.759134 0.128505
O O10 0.000000 0.697130 0.091528
O O11 0.281803 0.500000 0.316709
O O12 0.286851 0.759256 0.276842
O O13 0.254161 0.780592 0.351100
O O14 0.000000 0.698701 0.311303
O O15 0.292678 0.258123 0.202886
O O16 0.000000 0.278501 0.239066
O O17 0.192156 0.000000 0.237322
O O18 0.803325 0.500000 0.162693
O O19 0.000000 0.225075 0.167454
O O20 0.500000 0.313437 0.392303
O O21 0.213078 0.500000 0.386556
#
# Coordination Sequence:
#
# PCOD9388856 Si02
#       7
#     8   4   8   8   8   8   8
#     4   7   9  14  26  45  67  88 112 145 180 210
#     4   9  16  22  28  38  52  74 104 138 179 229
#     4   8  14  22  30  40  54  73  99 135 179 225
#     4   9  16  25  36  50  71  96 118 144 181 222
#     4   9  16  23  33  49  66  86 111 139 172 214
#     4   8  13  21  32  45  60  78 102 135 176 218
#     4   8  13  21  34  51  69  93 125 152 175 213
#
# _framework density 23.390422999999998
#
# number of rings (size 3 to 8) (size 9 to 14) (size 15 to 20)
#    0.000    3.769    0.000    2.769    1.077    2.154 
#    0.000    1.538    0.000    0.923    0.000    3.231 
#    0.000    0.615    0.000    7.692    0.000    7.077 
#
# Total GULP energy -289536.553626 kJ/mol
# GULP energy per Si atom -5568.010647 kJ/mol
# Density = 2.333719 g / cm^3
# Si number density = 23.390423 Si / 1000 Ang^3
#
#
#
# Elastic Constant Matrix: (Units=GPa)
#
#
# Indices 1 2 3 4 5 6 
#
# 1 80.9265 0.4061 14.3379 0.0000 0.0000 0.0000
# 2 0.4061 57.0570 69.3650 0.0000 0.0000 0.0000
# 3 14.3379 69.3650 330.4923 0.0000 0.0000 0.0000
# 4 0.0000 0.0000 0.0000 135.2389 0.0000 0.0000
# 5 0.0000 0.0000 0.0000 0.0000 -3.6002 0.0000
# 6 0.0000 0.0000 0.0000 0.0000 0.0000 -11.7083
#
#
#
# Elastic Compliance Matrix: (Units=1/GPa)
#
#
# Indices 1 2 3 4 5 6 
#
# 1 0.012477 0.000764 -0.000702 0.000000 0.000000 0.000000
# 2 0.000764 0.023577 -0.004982 0.000000 0.000000 0.000000
# 3 -0.000702 -0.004982 0.004102 0.000000 0.000000 0.000000
# 4 0.000000 0.000000 0.000000 0.007394 0.000000 0.000000
# 5 0.000000 0.000000 0.000000 0.000000 -0.277765 0.000000
# 6 0.000000 0.000000 0.000000 0.000000 0.000000 -0.085410
#
#
# Mechanical properties :
#
#
# Convention : Reuss Voigt Hill
#
# Bulk Modulus (GPa) = 32.98352 70.74375 51.86363
# Shear Modulus (GPa) = -16.91018 49.61054 16.35018
#
# Velocity S-wave (km/s) = -2.69170 4.61040 2.64675
# Velocity P-wave (km/s) = 2.11462 7.65843 5.61797
#
# Compressibility (1/GPa) = 0.03031818
#
# Stress axis : x y z
#
# Youngs Moduli (GPa) = 80.14503 42.41402 243.79582
#
# Poissons Ratio (x) = -0.03242 0.17108
# Poissons Ratio (y) = -0.06125 1.21450
# Poissons Ratio (z) = 0.05624 0.21129
#
# Static dielectric constant tensor:
#      x y z
#    x 1.771600 0.000000 0.000000 
#    y 0.000000 1.858200 0.000000 
#    z 0.000000 0.000000 1.965340 
# 
# From -- ./inp_files/34530.got.cif
#   From: 2010.05.17/outbox.cif.g08.bks.cpg/sg47_18_cif.got.tgz:34530.got - 2010.06.03 20:15:42.
