data_PCOD9388046
_publ_section_title
;
Structure prediction by ZEFSAII (Michael W. Deem and Ramdas Pophale) SiO2 
 PCOD9388046
Probable space group: P M M M
;
_chemical_formula_sum "Si O2"
_cell_formula_units_Z 52
_cell_length_a 13.316622
_cell_length_b 15.041679
_cell_length_c 14.316127
_cell_angle_alpha 90.000000
_cell_angle_beta 90.000000
_cell_angle_gamma 90.000000
_cell_volume 2867.582563
_symmetry_space_group_name_H-M "P M M M"
_symmetry_group_IT_number 47
_symmetry_cell_setting 'orthorhombic'
loop_
_space_group_symop_operation_xyz
x,y,z
-x,-y,z
x,-y,-z
-x,y,-z
-x,-y,-z
x,y,-z
-x,y,z
x,-y,z
loop_
_atom_site_type_symbol
_atom_site_label
_atom_site_fract_x
_atom_site_fract_y
_atom_site_fract_z
Si Si1 0.887182 0.787177 0.387261
Si Si2 0.612527 0.604885 0.694781
Si Si3 0.616044 0.134718 0.894627
Si Si4 0.500000 0.108402 0.608597
Si Si5 0.815837 0.399418 0.390334
Si Si6 0.707429 0.897577 0.298913
Si Si7 0.616953 0.349029 0.899412
O O1 0.869811 0.791054 0.500000
O O2 0.880344 0.683747 0.356383
O O3 0.801377 0.841647 0.334467
O O4 0.000000 0.820607 0.369736
O O5 0.500000 0.645053 0.686294
O O6 0.601177 0.500000 0.680477
O O7 0.700393 0.631509 0.625080
O O8 0.654800 0.618778 0.799662
O O9 0.500000 0.108205 0.874610
O O10 0.688274 0.104616 0.812199
O O11 0.618160 0.242129 0.896206
O O12 0.640376 0.105061 0.000000
O O13 0.500000 0.132681 0.500000
O O14 0.602688 0.138519 0.657676
O O15 0.500000 0.000000 0.615354
O O16 0.835792 0.406754 0.500000
O O17 0.829252 0.500000 0.351008
O O18 0.719730 0.000000 0.329003
O O19 0.500000 0.377711 0.900175
O O20 0.661033 0.377202 0.000000
#
# Coordination Sequence:
#
# PCOD9388046 Si02
#       7
#     8   8   8   4   8   8   8
#     4  10  22  39  57  78 103 134 179 229 271 317
#     4   9  16  25  40  65  99 136 167 200 248 310
#     4   9  17  30  49  75 107 141 177 215 257 309
#     4   9  18  32  49  73 106 140 173 210 255 313
#     4   9  18  33  52  74 100 130 167 212 260 308
#     4  11  21  34  54  79 108 143 177 216 266 317
#     4   8  14  24  38  58  88 129 171 207 243 288
#
# _framework density 18.133742000000002
#
# number of rings (size 3 to 8) (size 9 to 14) (size 15 to 20)
#    0.000    2.692    0.769    2.308    0.000    2.462 
#    1.385    6.154    0.000    0.462    0.000    1.077 
#    0.000    0.000    0.000   13.231    0.000    0.769 
#
# Total GULP energy -289603.465542 kJ/mol
# GULP energy per Si atom -5569.297414 kJ/mol
# Density = 1.809247 g / cm^3
# Si number density = 18.133742 Si / 1000 Ang^3
#
#
#
# Elastic Constant Matrix: (Units=GPa)
#
#
# Indices 1 2 3 4 5 6 
#
# 1 100.8451 46.1815 39.0520 0.0000 0.0000 0.0000
# 2 46.1815 47.9386 18.7184 0.0000 0.0000 0.0000
# 3 39.0520 18.7184 52.8722 0.0000 0.0000 0.0000
# 4 0.0000 0.0000 0.0000 -53.4640 0.0000 0.0000
# 5 0.0000 0.0000 0.0000 0.0000 11.5984 0.0000
# 6 0.0000 0.0000 0.0000 0.0000 0.0000 12.5476
#
#
#
# Elastic Compliance Matrix: (Units=1/GPa)
#
#
# Indices 1 2 3 4 5 6 
#
# 1 0.021432 -0.016786 -0.009887 0.000000 0.000000 0.000000
# 2 -0.016786 0.037353 -0.000826 0.000000 0.000000 0.000000
# 3 -0.009887 -0.000826 0.026509 0.000000 0.000000 0.000000
# 4 0.000000 0.000000 0.000000 -0.018704 0.000000 0.000000
# 5 0.000000 0.000000 0.000000 0.000000 0.086218 0.000000
# 6 0.000000 0.000000 0.000000 0.000000 0.000000 0.079697
#
#
# Mechanical properties :
#
#
# Convention : Reuss Voigt Hill
#
# Bulk Modulus (GPa) = 33.00778 45.50662 39.25720
# Shear Modulus (GPa) = 16.80100 0.65000 8.72550
#
# Velocity S-wave (km/s) = 3.04716 0.59936 2.19595
# Velocity P-wave (km/s) = 5.53373 5.06245 5.30333
#
# Compressibility (1/GPa) = 0.03029589
#
# Stress axis : x y z
#
# Youngs Moduli (GPa) = 46.65922 26.77148 37.72343
#
# Poissons Ratio (x) = 0.44938 0.37298
# Poissons Ratio (y) = 0.78322 0.03116
# Poissons Ratio (z) = 0.46133 0.02211
#
# Static dielectric constant tensor:
#      x y z
#    x 1.599000 0.000000 0.000000 
#    y 0.000000 1.672580 0.000000 
#    z 0.000000 0.000000 1.650280 
# 
# From -- ./inp_files/22790.got.cif
#   From: 2010.05.17/outbox.cif.g08.bks.cpg/sg47_12_cif.got.tgz:22790.got - 2010.06.03 20:15:42.
