data_PCOD9388829
_publ_section_title
;
Structure prediction by ZEFSAII (Michael W. Deem and Ramdas Pophale) SiO2 
 PCOD9388829
Probable space group: P M M M
;
_chemical_formula_sum "Si O2"
_cell_formula_units_Z 44
_cell_length_a 32.064776
_cell_length_b 7.287757
_cell_length_c 9.340861
_cell_angle_alpha 90.000000
_cell_angle_beta 90.000000
_cell_angle_gamma 90.000000
_cell_volume 2182.775161
_symmetry_space_group_name_H-M "P M M M"
_symmetry_group_IT_number 47
_symmetry_cell_setting 'orthorhombic'
loop_
_space_group_symop_operation_xyz
x,y,z
-x,-y,z
x,-y,-z
-x,y,-z
-x,-y,-z
x,y,-z
-x,y,z
x,-y,z
loop_
_atom_site_type_symbol
_atom_site_label
_atom_site_fract_x
_atom_site_fract_y
_atom_site_fract_z
Si Si1 0.135815 0.223732 0.333227
Si Si2 0.616855 0.782418 0.830601
Si Si3 0.700027 0.223511 0.335424
Si Si4 0.955144 0.778978 0.671160
Si Si5 0.217822 0.223919 0.164613
Si Si6 0.547241 0.500000 0.173788
O O1 0.140302 0.277070 0.500000
O O2 0.090217 0.284188 0.277062
O O3 0.175302 0.283150 0.241613
O O4 0.135490 0.000000 0.332013
O O5 0.657546 0.721834 0.743575
O O6 0.575407 0.674555 0.786052
O O7 0.611444 0.000000 0.811631
O O8 0.624014 0.748488 0.000000
O O9 0.700963 0.281752 0.500000
O O10 0.741228 0.282576 0.250874
O O11 0.700357 0.000000 0.334061
O O12 0.954936 0.743180 0.500000
O O13 0.000000 0.711912 0.727851
O O14 0.955534 0.000000 0.687508
O O15 0.217746 0.000000 0.166233
O O16 0.219534 0.280964 0.000000
O O17 0.500000 0.500000 0.228604
O O18 0.544747 0.500000 0.000000
#
# Coordination Sequence:
#
# PCOD9388829 Si02
#       6
#     8   8   8   8   8   4
#     4   8  12  17  25  37  54  78 111 154 205 259
#     4   9  17  30  49  72  98 128 161 197 236 276
#     4   9  16  26  41  60  82 109 142 180 223 272
#     4   7   9  13  21  32  45  65 100 148 199 250
#     4   9  15  21  30  46  69  95 124 162 211 267
#     4   9  18  32  51  77 105 131 163 201 236 273
#
# _framework density 20.157827000000001
#
# number of rings (size 3 to 8) (size 9 to 14) (size 15 to 20)
#    0.000    3.545    0.000    2.727    0.000    4.727 
#    0.000    2.273    0.000    1.636    0.000    6.364 
#    0.000    0.000    0.000    0.000    0.000    0.000 
#
# Total GULP energy -245331.985327 kJ/mol
# GULP energy per Si atom -5575.726939 kJ/mol
# Density = 2.011195 g / cm^3
# Si number density = 20.157827 Si / 1000 Ang^3
#
#
#
# Elastic Constant Matrix: (Units=GPa)
#
#
# Indices 1 2 3 4 5 6 
#
# 1 271.3390 37.2343 102.4326 0.0000 0.0000 0.0000
# 2 37.2343 82.1988 20.9264 0.0000 0.0000 0.0000
# 3 102.4326 20.9264 92.9756 0.0000 0.0000 0.0000
# 4 0.0000 0.0000 0.0000 -22.5050 0.0000 0.0000
# 5 0.0000 0.0000 0.0000 0.0000 28.7609 0.0000
# 6 0.0000 0.0000 0.0000 0.0000 0.0000 -438.8842
#
#
#
# Elastic Compliance Matrix: (Units=1/GPa)
#
#
# Indices 1 2 3 4 5 6 
#
# 1 0.006415 -0.001174 -0.006803 0.000000 0.000000 0.000000
# 2 -0.001174 0.013120 -0.001660 0.000000 0.000000 0.000000
# 3 -0.006803 -0.001660 0.018624 0.000000 0.000000 0.000000
# 4 0.000000 0.000000 0.000000 -0.044435 0.000000 0.000000
# 5 0.000000 0.000000 0.000000 0.000000 0.034769 0.000000
# 6 0.000000 0.000000 0.000000 0.000000 0.000000 -0.002279
#
#
# Mechanical properties :
#
#
# Convention : Reuss Voigt Hill
#
# Bulk Modulus (GPa) = 52.95058 85.30001 69.12529
# Shear Modulus (GPa) = 96.55673 -67.46432 14.54620
#
# Velocity S-wave (km/s) = 6.92852 -5.79143 2.68920
# Velocity P-wave (km/s) = 9.50425 1.52086 6.63392
#
# Compressibility (1/GPa) = 0.01888554
#
# Stress axis : x y z
#
# Youngs Moduli (GPa) = 155.89285 76.22024 53.69426
#
# Poissons Ratio (x) = 0.08947 0.36528
# Poissons Ratio (y) = 0.18299 0.08912
# Poissons Ratio (z) = 1.06053 0.12651
#
# Static dielectric constant tensor:
#      x y z
#    x 1.708350 0.000000 0.000000 
#    y 0.000000 1.195300 0.000000 
#    z 0.000000 0.000000 1.665560 
# 
# From -- ./inp_files/13561.got.cif
#   From: 2010.05.17/outbox.cif.g08.bks.cpg/sg47_7_cif.got.tgz:13561.got - 2010.06.03 20:15:42.
