data_PCOD9388093
_publ_section_title
;
Structure prediction by ZEFSAII (Michael W. Deem and Ramdas Pophale) SiO2 
 PCOD9388093
Probable space group: P M M M
;
_chemical_formula_sum "Si O2"
_cell_formula_units_Z 40
_cell_length_a 11.796976
_cell_length_b 8.404434
_cell_length_c 21.043291
_cell_angle_alpha 90.000000
_cell_angle_beta 90.000000
_cell_angle_gamma 90.000000
_cell_volume 2086.377199
_symmetry_space_group_name_H-M "P M M M"
_symmetry_group_IT_number 47
_symmetry_cell_setting 'orthorhombic'
loop_
_space_group_symop_operation_xyz
x,y,z
-x,-y,z
x,-y,-z
-x,y,-z
-x,-y,-z
x,y,-z
-x,y,z
x,-y,z
loop_
_atom_site_type_symbol
_atom_site_label
_atom_site_fract_x
_atom_site_fract_y
_atom_site_fract_z
Si Si1 0.867392 0.191207 0.249917
Si Si2 0.000000 0.818844 0.425207
Si Si3 0.768530 0.686476 0.622657
Si Si4 0.260970 0.810409 0.876649
Si Si5 0.631851 0.693324 0.500000
Si Si6 0.865124 0.686924 0.000000
Si Si7 0.500000 0.690032 0.925872
O O1 0.784534 0.236344 0.308202
O O2 0.807258 0.249530 0.185327
O O3 0.000000 0.247407 0.257254
O O4 0.873826 0.000000 0.247186
O O5 0.108345 0.719635 0.405976
O O6 0.000000 0.836718 0.500000
O O7 0.000000 0.000000 0.397089
O O8 0.744590 0.500000 0.631084
O O9 0.686757 0.750626 0.566526
O O10 0.386658 0.744466 0.889649
O O11 0.270175 0.000000 0.871051
O O12 0.187634 0.765805 0.937991
O O13 0.647187 0.500000 0.500000
O O14 0.500000 0.729408 0.500000
O O15 0.834979 0.500000 0.000000
O O16 0.000000 0.702720 0.000000
O O17 0.500000 0.500000 0.928722
O O18 0.500000 0.748882 0.000000
#
# Coordination Sequence:
#
# PCOD9388093 Si02
#       7
#     8   4   8   8   4   4   4
#     4  10  22  40  60  87 125 161 191 237 300 361
#     4  11  21  33  55  85 119 152 187 238 301 353
#     4  11  21  35  60  89 116 151 198 244 291 352
#     4  11  23  40  64  89 119 161 207 248 296 360
#     4   9  20  39  59  82 118 155 194 245 296 347
#     4  11  23  38  59  90 125 157 197 253 310 361
#     4  11  23  41  65  91 122 155 198 255 308 356
#
# _framework density 19.171987999999999
#
# number of rings (size 3 to 8) (size 9 to 14) (size 15 to 20)
#    0.000    1.400    3.000    2.700    0.000    4.000 
#    1.800    0.000    0.000    4.200    0.000    0.000 
#    0.000    0.000    0.000    0.000    0.000    0.000 
#
# Total GULP energy -223141.579104 kJ/mol
# GULP energy per Si atom -5578.539478 kJ/mol
# Density = 1.912835 g / cm^3
# Si number density = 19.171988 Si / 1000 Ang^3
#
#
#
# Elastic Constant Matrix: (Units=GPa)
#
#
# Indices 1 2 3 4 5 6 
#
# 1 102.0345 12.6780 69.4364 0.0000 0.0000 0.0000
# 2 12.6780 23.2756 9.6420 0.0000 0.0000 0.0000
# 3 69.4364 9.6420 177.8711 0.0000 0.0000 0.0000
# 4 0.0000 0.0000 0.0000 37.1859 0.0000 0.0000
# 5 0.0000 0.0000 0.0000 0.0000 78.7988 0.0000
# 6 0.0000 0.0000 0.0000 0.0000 0.0000 48.4671
#
#
#
# Elastic Compliance Matrix: (Units=1/GPa)
#
#
# Indices 1 2 3 4 5 6 
#
# 1 0.013999 -0.005484 -0.005167 0.000000 0.000000 0.000000
# 2 -0.005484 0.046099 -0.000358 0.000000 0.000000 0.000000
# 3 -0.005167 -0.000358 0.007659 0.000000 0.000000 0.000000
# 4 0.000000 0.000000 0.000000 0.026892 0.000000 0.000000
# 5 0.000000 0.000000 0.000000 0.000000 0.012691 0.000000
# 6 0.000000 0.000000 0.000000 0.000000 0.000000 0.020633
#
#
# Mechanical properties :
#
#
# Convention : Reuss Voigt Hill
#
# Bulk Modulus (GPa) = 21.86419 54.07712 37.97065
# Shear Modulus (GPa) = 30.25970 46.98533 38.62251
#
# Velocity S-wave (km/s) = 3.97713 4.95585 4.49322
# Velocity P-wave (km/s) = 5.70255 7.81120 6.83864
#
# Compressibility (1/GPa) = 0.04573690
#
# Stress axis : x y z
#
# Youngs Moduli (GPa) = 71.43592 21.69243 130.57083
#
# Poissons Ratio (x) = 0.11897 0.67471
# Poissons Ratio (y) = 0.39178 0.04674
# Poissons Ratio (z) = 0.36914 0.00777
#
# Static dielectric constant tensor:
#      x y z
#    x 1.645160 0.000000 0.000000 
#    y 0.000000 1.679120 0.000000 
#    z 0.000000 0.000000 1.703170 
# 
# From -- ./inp_files/30369.got.cif
#   From: 2010.05.17/outbox.cif.g08.bks.cpg/sg47_16_cif.got.tgz:30369.got - 2010.06.03 20:15:42.
