data_PCOD9388298
_publ_section_title
;
Structure prediction by ZEFSAII (Michael W. Deem and Ramdas Pophale) SiO2 
 PCOD9388298
Probable space group: P M M M
;
_chemical_formula_sum "Si O2"
_cell_formula_units_Z 52
_cell_length_a 28.375840
_cell_length_b 8.969595
_cell_length_c 11.933239
_cell_angle_alpha 90.000000
_cell_angle_beta 90.000000
_cell_angle_gamma 90.000000
_cell_volume 3037.245515
_symmetry_space_group_name_H-M "P M M M"
_symmetry_group_IT_number 47
_symmetry_cell_setting 'orthorhombic'
loop_
_space_group_symop_operation_xyz
x,y,z
-x,-y,z
x,-y,-z
-x,y,-z
-x,-y,-z
x,y,-z
-x,y,z
x,-y,z
loop_
_atom_site_type_symbol
_atom_site_label
_atom_site_fract_x
_atom_site_fract_y
_atom_site_fract_z
Si Si1 0.000000 0.328510 0.636074
Si Si2 0.197606 0.820870 0.278570
Si Si3 0.239780 0.327664 0.500000
Si Si4 0.362264 0.176612 0.263826
Si Si5 0.725416 0.322402 0.132407
Si Si6 0.647025 0.671549 0.500000
Si Si7 0.554483 0.673763 0.865699
Si Si8 0.097486 0.178924 0.631034
O O1 0.048438 0.249326 0.670109
O O2 0.000000 0.500000 0.670661
O O3 0.000000 0.322421 0.500000
O O4 0.222074 0.758051 0.390623
O O5 0.225862 0.747917 0.176505
O O6 0.142582 0.781133 0.293999
O O7 0.201641 0.000000 0.274678
O O8 0.223268 0.500000 0.500000
O O9 0.296132 0.329472 0.500000
O O10 0.317169 0.250090 0.202526
O O11 0.367709 0.244875 0.387357
O O12 0.408393 0.221031 0.193866
O O13 0.355535 0.000000 0.269263
O O14 0.725608 0.500000 0.152641
O O15 0.718758 0.296398 0.000000
O O16 0.630665 0.500000 0.500000
O O17 0.500000 0.703858 0.835794
O O18 0.564823 0.500000 0.837932
O O19 0.558569 0.687638 0.000000
O O20 0.106247 0.223113 0.500000
O O21 0.093062 0.000000 0.631229
#
# Coordination Sequence:
#
# PCOD9388298 Si02
#       8
#     4   8   4   8   8   4   8   8
#     4   9  17  27  41  67  98 133 176 217 255 303
#     4  11  21  34  54  79 107 139 180 223 268 319
#     4  11  21  33  53  77 106 144 182 218 263 317
#     4  12  24  37  58  86 115 144 179 225 273 318
#     4  11  24  40  56  77 108 145 183 221 265 319
#     4  11  23  39  58  80 109 149 188 219 264 323
#     4   9  19  38  63  87 112 146 186 225 268 321
#     4   9  17  30  46  68 101 139 172 209 263 319
#
# _framework density 17.120775999999999
#
# number of rings (size 3 to 8) (size 9 to 14) (size 15 to 20)
#    0.000    1.615    2.308    3.923    0.000    6.462 
#    0.000    1.154    0.000    2.308    0.000    0.538 
#    0.000    4.308    0.000    0.000    0.000    0.000 
#
# Total GULP energy -290366.497811 kJ/mol
# GULP energy per Si atom -5583.971112 kJ/mol
# Density = 1.708181 g / cm^3
# Si number density = 17.120776 Si / 1000 Ang^3
#
#
#
# Elastic Constant Matrix: (Units=GPa)
#
#
# Indices 1 2 3 4 5 6 
#
# 1 85.9741 49.8799 35.5786 0.0000 0.0000 0.0000
# 2 49.8799 96.5417 50.6384 0.0000 0.0000 0.0000
# 3 35.5786 50.6384 70.0054 0.0000 0.0000 0.0000
# 4 0.0000 0.0000 0.0000 -3.2931 0.0000 0.0000
# 5 0.0000 0.0000 0.0000 0.0000 10.8781 0.0000
# 6 0.0000 0.0000 0.0000 0.0000 0.0000 35.6014
#
#
#
# Elastic Compliance Matrix: (Units=1/GPa)
#
#
# Indices 1 2 3 4 5 6 
#
# 1 0.017193 -0.006929 -0.003726 0.000000 0.000000 0.000000
# 2 -0.006929 0.019483 -0.010572 0.000000 0.000000 0.000000
# 3 -0.003726 -0.010572 0.023825 0.000000 0.000000 0.000000
# 4 0.000000 0.000000 0.000000 -0.303661 0.000000 0.000000
# 5 0.000000 0.000000 0.000000 0.000000 0.091927 0.000000
# 6 0.000000 0.000000 0.000000 0.000000 0.000000 0.028089
#
#
# Mechanical properties :
#
#
# Convention : Reuss Voigt Hill
#
# Bulk Modulus (GPa) = 55.40624 58.30168 56.85396
# Shear Modulus (GPa) = -66.95865 16.39889 -25.27988
#
# Velocity S-wave (km/s) = -6.26055 3.09825 -3.84677
# Velocity P-wave (km/s) = 4.45276 6.85025 3.68096
#
# Compressibility (1/GPa) = 0.01804851
#
# Stress axis : x y z
#
# Youngs Moduli (GPa) = 58.16225 51.32615 41.97185
#
# Poissons Ratio (x) = 0.35562 0.15640
# Poissons Ratio (y) = 0.40299 0.44372
# Poissons Ratio (z) = 0.21672 0.54261
#
# Static dielectric constant tensor:
#      x y z
#    x 1.578320 0.000000 0.000000 
#    y 0.000000 1.577310 0.000000 
#    z 0.000000 0.000000 1.563580 
# 
# From -- ./inp_files/19920.got.cif
#   From: 2010.05.17/outbox.cif.g08.bks.cpg/sg47_10_cif.got.tgz:19920.got - 2010.06.03 20:15:42.
