data_PCOD9388417
_publ_section_title
;
Structure prediction by ZEFSAII (Michael W. Deem and Ramdas Pophale) SiO2 
 PCOD9388417
Probable space group: P M M M
;
_chemical_formula_sum "Si O2"
_cell_formula_units_Z 44
_cell_length_a 15.419836
_cell_length_b 7.656423
_cell_length_c 17.845458
_cell_angle_alpha 90.000000
_cell_angle_beta 90.000000
_cell_angle_gamma 90.000000
_cell_volume 2106.848816
_symmetry_space_group_name_H-M "P M M M"
_symmetry_group_IT_number 47
_symmetry_cell_setting 'orthorhombic'
loop_
_space_group_symop_operation_xyz
x,y,z
-x,-y,z
x,-y,-z
-x,y,-z
-x,-y,-z
x,y,-z
-x,y,z
x,-y,z
loop_
_atom_site_type_symbol
_atom_site_label
_atom_site_fract_x
_atom_site_fract_y
_atom_site_fract_z
Si Si1 0.094135 0.705808 0.910129
Si Si2 0.281006 0.803387 0.858954
Si Si3 0.099955 0.787008 0.584967
Si Si4 0.598611 0.295374 0.000000
Si Si5 0.403672 0.787203 0.585265
Si Si6 0.250982 0.785178 0.693991
O O1 0.101647 0.500000 0.891069
O O2 0.181059 0.798878 0.885170
O O3 0.000000 0.769540 0.881763
O O4 0.091826 0.717000 0.000000
O O5 0.343346 0.741352 0.925926
O O6 0.273847 0.718320 0.776901
O O7 0.310885 0.000000 0.845913
O O8 0.127514 0.734751 0.500000
O O9 0.162839 0.729086 0.651959
O O10 0.000000 0.733403 0.595459
O O11 0.101563 0.000000 0.584942
O O12 0.587065 0.500000 0.000000
O O13 0.500000 0.217042 0.000000
O O14 0.388624 0.730916 0.500000
O O15 0.500000 0.732193 0.608407
O O16 0.328746 0.731698 0.639980
O O17 0.402912 0.000000 0.584757
O O18 0.246758 0.000000 0.697378
#
# Coordination Sequence:
#
# PCOD9388417 Si02
#       6
#     8   8   8   4   8   8
#     4   9  18  34  56  77 100 136 176 211 249 299
#     4  11  22  34  53  83 113 137 166 214 274 325
#     4   8  13  22  37  57  88 137 185 209 227 274
#     4  11  25  45  64  75  92 133 183 224 264 319
#     4   8  13  22  37  56  82 123 169 201 231 287
#     4   9  17  26  38  63 100 134 161 199 253 305
#
# _framework density 20.884269
#
# number of rings (size 3 to 8) (size 9 to 14) (size 15 to 20)
#    0.000    2.818    0.909    3.000    0.000    4.727 
#    0.000    4.545    0.000    0.000    0.000    0.000 
#    0.000   11.636    0.000   32.000    0.000   26.182 
#
# Total GULP energy -245163.271722 kJ/mol
# GULP energy per Si atom -5571.892539 kJ/mol
# Density = 2.083674 g / cm^3
# Si number density = 20.884269 Si / 1000 Ang^3
#
#
#
# Elastic Constant Matrix: (Units=GPa)
#
#
# Indices 1 2 3 4 5 6 
#
# 1 156.0208 7.1380 103.3764 0.0000 0.0000 0.0000
# 2 7.1380 32.7359 12.5774 0.0000 0.0000 0.0000
# 3 103.3764 12.5774 140.4206 0.0000 0.0000 0.0000
# 4 0.0000 0.0000 0.0000 70.2327 0.0000 0.0000
# 5 0.0000 0.0000 0.0000 0.0000 -23.4842 0.0000
# 6 0.0000 0.0000 0.0000 0.0000 0.0000 16.6892
#
#
#
# Elastic Compliance Matrix: (Units=1/GPa)
#
#
# Indices 1 2 3 4 5 6 
#
# 1 0.012535 0.000841 -0.009304 0.000000 0.000000 0.000000
# 2 0.000841 0.031693 -0.003458 0.000000 0.000000 0.000000
# 3 -0.009304 -0.003458 0.014281 0.000000 0.000000 0.000000
# 4 0.000000 0.000000 0.000000 0.014238 0.000000 0.000000
# 5 0.000000 0.000000 0.000000 0.000000 -0.042582 0.000000
# 6 0.000000 0.000000 0.000000 0.000000 0.000000 0.059919
#
#
# Mechanical properties :
#
#
# Convention : Reuss Voigt Hill
#
# Bulk Modulus (GPa) = 28.84546 63.92897 46.38721
# Shear Modulus (GPa) = 39.84660 26.42659 33.13660
#
# Velocity S-wave (km/s) = 4.37277 3.56108 3.98763
# Velocity P-wave (km/s) = 6.27191 6.89825 6.59253
#
# Compressibility (1/GPa) = 0.03466751
#
# Stress axis : x y z
#
# Youngs Moduli (GPa) = 79.77356 31.55308 70.02495
#
# Poissons Ratio (x) = -0.02654 0.65150
# Poissons Ratio (y) = -0.06711 0.24215
# Poissons Ratio (z) = 0.74220 0.10911
#
# Static dielectric constant tensor:
#      x y z
#    x 2.656700 0.000000 0.000000 
#    y 0.000000 1.790920 0.000000 
#    z 0.000000 0.000000 1.865620 
# 
# From -- ./inp_files/20926.got.cif
#   From: 2010.05.17/outbox.cif.g08.bks.cpg/sg47_11_cif.got.tgz:20926.got - 2010.06.03 20:15:42.
