data_PCOD9388350
_publ_section_title
;
Structure prediction by ZEFSAII (Michael W. Deem and Ramdas Pophale) SiO2 
 PCOD9388350
Probable space group: P M M M
;
_chemical_formula_sum "Si O2"
_cell_formula_units_Z 48
_cell_length_a 21.046245
_cell_length_b 14.302922
_cell_length_c 8.840268
_cell_angle_alpha 90.000000
_cell_angle_beta 90.000000
_cell_angle_gamma 90.000000
_cell_volume 2661.122232
_symmetry_space_group_name_H-M "P M M M"
_symmetry_group_IT_number 47
_symmetry_cell_setting 'orthorhombic'
loop_
_space_group_symop_operation_xyz
x,y,z
-x,-y,z
x,-y,-z
-x,y,-z
-x,-y,-z
x,y,-z
-x,y,z
x,-y,z
loop_
_atom_site_type_symbol
_atom_site_label
_atom_site_fract_x
_atom_site_fract_y
_atom_site_fract_z
Si Si1 0.000000 0.107731 0.184162
Si Si2 0.328023 0.392541 0.681294
Si Si3 0.500000 0.890126 0.681508
Si Si4 0.822016 0.607119 0.318613
Si Si5 0.130032 0.208065 0.818598
Si Si6 0.376675 0.208091 0.820106
Si Si7 0.253431 0.888091 0.322678
O O1 0.063839 0.161352 0.230716
O O2 0.000000 0.000000 0.235448
O O3 0.000000 0.106359 0.000000
O O4 0.335011 0.381863 0.500000
O O5 0.343648 0.500000 0.719828
O O6 0.252987 0.378118 0.715955
O O7 0.368597 0.314882 0.765605
O O8 0.500000 0.883303 0.500000
O O9 0.562290 0.840418 0.746720
O O10 0.500000 0.000000 0.722183
O O11 0.828736 0.616672 0.500000
O O12 0.837744 0.500000 0.278206
O O13 0.862560 0.685360 0.235477
O O14 0.188945 0.152391 0.746888
O O15 0.134213 0.203210 0.000000
O O16 0.313794 0.155119 0.761624
O O17 0.380542 0.203264 0.000000
O O18 0.257036 0.862243 0.500000
O O19 0.254274 0.000000 0.310234
#
# Coordination Sequence:
#
# PCOD9388350 Si02
#       7
#     4   8   4   8   8   8   8
#     4   9  20  38  56  77 114 158 193 233 294 359
#     4   9  18  35  60  87 118 157 195 233 284 346
#     4  11  25  45  66  85 114 161 205 240 286 345
#     4   9  18  34  57  84 116 153 190 233 288 347
#     4  11  21  35  58  86 113 148 193 243 295 345
#     4  12  24  38  60  91 122 152 190 242 295 344
#     4  11  23  38  57  82 114 151 193 241 289 344
#
# _framework density 18.037503999999998
#
# number of rings (size 3 to 8) (size 9 to 14) (size 15 to 20)
#    0.000    1.667    1.667    4.750    0.000    5.333 
#    0.000    4.167    0.000    8.000    0.000    0.000 
#    0.000    0.000    0.000    0.000    0.000    0.000 
#
# Total GULP energy -268224.057498 kJ/mol
# GULP energy per Si atom -5588.001198 kJ/mol
# Density = 1.799645 g / cm^3
# Si number density = 18.037504 Si / 1000 Ang^3
#
#
#
# Elastic Constant Matrix: (Units=GPa)
#
#
# Indices 1 2 3 4 5 6 
#
# 1 149.4207 91.0926 55.7213 0.0000 0.0000 0.0000
# 2 91.0926 157.5300 69.5405 0.0000 0.0000 0.0000
# 3 55.7213 69.5405 76.0546 0.0000 0.0000 0.0000
# 4 0.0000 0.0000 0.0000 9.3895 0.0000 0.0000
# 5 0.0000 0.0000 0.0000 0.0000 155.5306 0.0000
# 6 0.0000 0.0000 0.0000 0.0000 0.0000 31.0280
#
#
#
# Elastic Compliance Matrix: (Units=1/GPa)
#
#
# Indices 1 2 3 4 5 6 
#
# 1 0.010936 -0.004673 -0.003739 0.000000 0.000000 0.000000
# 2 -0.004673 0.012641 -0.008135 0.000000 0.000000 0.000000
# 3 -0.003739 -0.008135 0.023326 0.000000 0.000000 0.000000
# 4 0.000000 0.000000 0.000000 0.106501 0.000000 0.000000
# 5 0.000000 0.000000 0.000000 0.000000 0.006430 0.000000
# 6 0.000000 0.000000 0.000000 0.000000 0.000000 0.032229
#
#
# Mechanical properties :
#
#
# Convention : Reuss Voigt Hill
#
# Bulk Modulus (GPa) = 72.41741 90.63489 81.52615
# Shear Modulus (GPa) = 21.76178 50.29970 36.03074
#
# Velocity S-wave (km/s) = 3.47720 5.28647 4.47424
# Velocity P-wave (km/s) = 7.50711 9.36052 8.48458
#
# Compressibility (1/GPa) = 0.01380883
#
# Stress axis : x y z
#
# Youngs Moduli (GPa) = 91.44270 79.10609 42.87019
#
# Poissons Ratio (x) = 0.36966 0.16031
# Poissons Ratio (y) = 0.42731 0.34874
# Poissons Ratio (z) = 0.34194 0.64352
#
# Static dielectric constant tensor:
#      x y z
#    x 1.582600 0.000000 0.000000 
#    y 0.000000 1.623690 0.000000 
#    z 0.000000 0.000000 1.603490 
# 
# From -- ./inp_files/9140.got.cif
#   From: 2010.05.17/outbox.cif.g08.bks.cpg/sg47_5_cif.got.tgz:9140.got - 2010.06.03 20:15:42.
