data_PCOD9388910
_publ_section_title
;
Structure prediction by ZEFSAII (Michael W. Deem and Ramdas Pophale) SiO2 
 PCOD9388910
Probable space group: P M M M
;
_chemical_formula_sum "Si O2"
_cell_formula_units_Z 64
_cell_length_a 29.401074
_cell_length_b 14.698945
_cell_length_c 7.401089
_cell_angle_alpha 90.000000
_cell_angle_beta 90.000000
_cell_angle_gamma 90.000000
_cell_volume 3198.489923
_symmetry_space_group_name_H-M "P M M M"
_symmetry_group_IT_number 47
_symmetry_cell_setting 'orthorhombic'
loop_
_space_group_symop_operation_xyz
x,y,z
-x,-y,z
x,-y,-z
-x,y,-z
-x,-y,-z
x,y,-z
-x,y,z
x,-y,z
loop_
_atom_site_type_symbol
_atom_site_label
_atom_site_fract_x
_atom_site_fract_y
_atom_site_fract_z
Si Si1 0.302060 0.251151 0.715861
Si Si2 0.126434 0.896330 0.720218
Si Si3 0.623175 0.397047 0.783599
Si Si4 0.448567 0.751456 0.783600
Si Si5 0.626260 0.897159 0.716099
Si Si6 0.198864 0.252338 0.279560
Si Si7 0.948124 0.752225 0.279726
Si Si8 0.875711 0.396316 0.279720
O O1 0.299219 0.239689 0.500000
O O2 0.330045 0.343523 0.748314
O O3 0.333448 0.168419 0.786080
O O4 0.250630 0.252850 0.784512
O O5 0.126411 0.897614 0.500000
O O6 0.170188 0.836763 0.774531
O O7 0.081819 0.839465 0.775159
O O8 0.127093 0.000000 0.782285
O O9 0.622426 0.500000 0.714200
O O10 0.582649 0.331815 0.714636
O O11 0.618158 0.401602 0.000000
O O12 0.500000 0.752076 0.714184
O O13 0.420670 0.843667 0.748658
O O14 0.450885 0.741578 0.000000
O O15 0.631787 0.902058 0.500000
O O16 0.626840 0.000000 0.786151
O O17 0.199479 0.253038 0.500000
O O18 0.168912 0.339513 0.224469
O O19 0.948811 0.752340 0.500000
O O20 0.919442 0.663261 0.224997
O O21 0.000000 0.753336 0.217821
O O22 0.875738 0.397483 0.500000
O O23 0.876343 0.500000 0.217846
#
# Coordination Sequence:
#
# PCOD9388910 Si02
#       8
#     8   8   8   8   8   8   8   8
#     4   9  17  29  45  64  85 110 142 177 209 245
#     4   8  13  20  29  42  62  88 118 156 201 241
#     4   9  18  32  48  66  89 114 138 168 208 250
#     4   9  18  32  49  68  88 111 141 174 205 241
#     4   9  18  31  45  63  88 115 141 171 209 250
#     4   8  14  23  34  50  70  91 120 160 201 237
#     4   8  13  19  25  35  53  80 118 159 194 233
#     4   8  13  20  28  39  58  83 112 151 197 238
#
# _framework density 20.009443000000001
#
# number of rings (size 3 to 8) (size 9 to 14) (size 15 to 20)
#    0.000    3.500    0.000    1.500    0.000    2.750 
#    0.000    8.750    0.000    0.000    0.000    3.500 
#    0.000    0.000    0.000    0.000    0.000   10.000 
#
# Total GULP energy -356890.601035 kJ/mol
# GULP energy per Si atom -5576.415641 kJ/mol
# Density = 1.996390 g / cm^3
# Si number density = 20.009443 Si / 1000 Ang^3
#
#
#
# Elastic Constant Matrix: (Units=GPa)
#
#
# Indices 1 2 3 4 5 6 
#
# 1 280.5909 155.1452 6.4023 0.0000 0.0000 0.0000
# 2 155.1452 236.2127 4.8580 0.0000 0.0000 0.0000
# 3 6.4023 4.8580 67.9807 0.0000 0.0000 0.0000
# 4 0.0000 0.0000 0.0000 2.2036 0.0000 0.0000
# 5 0.0000 0.0000 0.0000 0.0000 55.0646 0.0000
# 6 0.0000 0.0000 0.0000 0.0000 0.0000 6.7513
#
#
#
# Elastic Compliance Matrix: (Units=1/GPa)
#
#
# Indices 1 2 3 4 5 6 
#
# 1 0.005601 -0.003673 -0.000265 0.000000 0.000000 0.000000
# 2 -0.003673 0.006649 -0.000129 0.000000 0.000000 0.000000
# 3 -0.000265 -0.000129 0.014744 0.000000 0.000000 0.000000
# 4 0.000000 0.000000 0.000000 0.453796 0.000000 0.000000
# 5 0.000000 0.000000 0.000000 0.000000 0.018160 0.000000
# 6 0.000000 0.000000 0.000000 0.000000 0.000000 0.148119
#
#
# Mechanical properties :
#
#
# Convention : Reuss Voigt Hill
#
# Bulk Modulus (GPa) = 53.02495 101.95504 77.49000
# Shear Modulus (GPa) = 7.55867 40.69582 24.12725
#
# Velocity S-wave (km/s) = 1.94570 4.51469 3.47622
# Velocity P-wave (km/s) = 5.62185 8.84538 7.41100
#
# Compressibility (1/GPa) = 0.01885905
#
# Stress axis : x y z
#
# Youngs Moduli (GPa) = 178.53910 150.40369 67.82308
#
# Poissons Ratio (x) = 0.55248 0.01797
# Poissons Ratio (y) = 0.65583 0.00876
# Poissons Ratio (z) = 0.04731 0.01943
#
# Static dielectric constant tensor:
#      x y z
#    x 1.678680 0.000000 0.000000 
#    y 0.000000 1.678660 0.000000 
#    z 0.000000 0.000000 1.775390 
# 
# From -- ./inp_files/14270.got.cif
#   From: 2010.05.17/outbox.cif.g08.bks.cpg/sg47_8_cif.got.tgz:14270.got - 2010.06.03 20:15:42.
