data_PCOD9388555
_publ_section_title
;
Structure prediction by ZEFSAII (Michael W. Deem and Ramdas Pophale) SiO2 
 PCOD9388555
Probable space group: P M M M
;
_chemical_formula_sum "Si O2"
_cell_formula_units_Z 24
_cell_length_a 18.734791
_cell_length_b 9.166966
_cell_length_c 8.041667
_cell_angle_alpha 90.000000
_cell_angle_beta 90.000000
_cell_angle_gamma 90.000000
_cell_volume 1381.085477
_symmetry_space_group_name_H-M "P M M M"
_symmetry_group_IT_number 47
_symmetry_cell_setting 'orthorhombic'
loop_
_space_group_symop_operation_xyz
x,y,z
-x,-y,z
x,-y,-z
-x,y,-z
-x,-y,-z
x,y,-z
-x,y,z
x,-y,z
loop_
_atom_site_type_symbol
_atom_site_label
_atom_site_fract_x
_atom_site_fract_y
_atom_site_fract_z
Si Si1 0.918970 0.000000 0.198973
Si Si2 0.211370 0.835830 0.695405
Si Si3 0.658875 0.673374 0.186710
Si Si4 0.585015 0.827640 0.500000
O O1 0.871329 0.137949 0.258090
O O2 0.000000 0.000000 0.260352
O O3 0.919362 0.000000 0.000000
O O4 0.217060 0.804943 0.500000
O O5 0.258536 0.722177 0.794460
O O6 0.241940 0.000000 0.726284
O O7 0.652088 0.500000 0.207504
O O8 0.617980 0.754496 0.335137
O O9 0.634176 0.712095 0.000000
O O10 0.500000 0.807620 0.500000
O O11 0.600790 0.000000 0.500000
#
# Coordination Sequence:
#
# PCOD9388555 Si02
#       4
#     4   8   8   4
#     4   9  17  29  49  81 117 152 193 241 287 335
#     4   9  18  31  52  80 109 146 191 238 279 330
#     4  11  23  38  59  87 119 154 193 237 287 346
#     4  11  25  43  63  87 115 148 191 240 292 343
#
# _framework density 17.377635000000001
#
# number of rings (size 3 to 8) (size 9 to 14) (size 15 to 20)
#    1.000    1.000    1.667    2.500    0.000    5.333 
#    0.000    3.333    0.000    1.000    0.000    7.000 
#    0.000    0.000    0.000    0.000    0.000    0.000 
#
# Total GULP energy -133653.342174 kJ/mol
# GULP energy per Si atom -5568.889257 kJ/mol
# Density = 1.733808 g / cm^3
# Si number density = 17.377635 Si / 1000 Ang^3
#
#
#
# Elastic Constant Matrix: (Units=GPa)
#
#
# Indices 1 2 3 4 5 6 
#
# 1 108.3210 45.5708 48.3821 0.0000 0.0000 0.0000
# 2 45.5708 64.6887 71.3657 0.0000 0.0000 0.0000
# 3 48.3821 71.3657 134.2977 0.0000 0.0000 0.0000
# 4 0.0000 0.0000 0.0000 22.3778 0.0000 0.0000
# 5 0.0000 0.0000 0.0000 0.0000 13.2066 0.0000
# 6 0.0000 0.0000 0.0000 0.0000 0.0000 -0.3559
#
#
#
# Elastic Compliance Matrix: (Units=1/GPa)
#
#
# Indices 1 2 3 4 5 6 
#
# 1 0.013131 -0.009744 0.000447 0.000000 0.000000 0.000000
# 2 -0.009744 0.044593 -0.020186 0.000000 0.000000 0.000000
# 3 0.000447 -0.020186 0.018012 0.000000 0.000000 0.000000
# 4 0.000000 0.000000 0.000000 0.044687 0.000000 0.000000
# 5 0.000000 0.000000 0.000000 0.000000 0.075719 0.000000
# 6 0.000000 0.000000 0.000000 0.000000 0.000000 -2.809576
#
#
# Mechanical properties :
#
#
# Convention : Reuss Voigt Hill
#
# Bulk Modulus (GPa) = 59.62967 70.88276 65.25622
# Shear Modulus (GPa) = -1.96165 16.51162 7.27499
#
# Velocity S-wave (km/s) = -1.06362 3.08582 2.04829
# Velocity P-wave (km/s) = 5.73412 7.31947 6.57475
#
# Compressibility (1/GPa) = 0.01677017
#
# Stress axis : x y z
#
# Youngs Moduli (GPa) = 76.15361 22.42526 55.51876
#
# Poissons Ratio (x) = 0.21851 -0.02483
# Poissons Ratio (y) = 0.74204 1.12071
# Poissons Ratio (z) = -0.03406 0.45268
#
# Static dielectric constant tensor:
#      x y z
#    x 1.620010 0.000000 0.000000 
#    y 0.000000 1.572020 0.000000 
#    z 0.000000 0.000000 1.599410 
# 
# From -- ./inp_files/10269.got.cif
#   From: 2010.05.17/outbox.cif.g08.bks.cpg/sg47_6_cif.got.tgz:10269.got - 2010.06.03 20:15:42.
