data_PCOD9388109
_publ_section_title
;
Structure prediction by ZEFSAII (Michael W. Deem and Ramdas Pophale) SiO2 
 PCOD9388109
Probable space group: P M M M
;
_chemical_formula_sum "Si O2"
_cell_formula_units_Z 37
_cell_length_a 8.272061
_cell_length_b 11.777487
_cell_length_c 18.666740
_cell_angle_alpha 90.000000
_cell_angle_beta 90.000000
_cell_angle_gamma 90.000000
_cell_volume 1818.590174
_symmetry_space_group_name_H-M "P M M M"
_symmetry_group_IT_number 47
_symmetry_cell_setting 'orthorhombic'
loop_
_space_group_symop_operation_xyz
x,y,z
-x,-y,z
x,-y,-z
-x,y,-z
-x,-y,-z
x,y,-z
-x,y,z
x,-y,z
loop_
_atom_site_type_symbol
_atom_site_label
_atom_site_fract_x
_atom_site_fract_y
_atom_site_fract_z
Si Si1 0.815630 0.633679 0.212914
Si Si2 0.308401 0.000000 0.289242
Si Si3 0.745354 0.000000 0.130170
Si Si4 0.685769 0.752451 0.653982
Si Si5 0.000000 0.000000 0.000000
Si Si6 0.679639 0.752813 0.917655
Si Si7 0.000000 0.367566 0.585849
O O1 0.787015 0.500000 0.215551
O O2 0.697706 0.698100 0.266742
O O3 0.792964 0.680276 0.133212
O O4 0.000000 0.656648 0.236154
O O5 0.281071 0.886190 0.334618
O O6 0.500000 0.000000 0.268224
O O7 0.210230 0.000000 0.214481
O O8 0.666370 0.877879 0.116416
O O9 0.866793 0.000000 0.064097
O O10 0.500000 0.737240 0.626916
O O11 0.833501 0.693101 0.611641
O O12 0.500000 0.701713 0.917272
O O13 0.735374 0.760520 0.000000
O O14 0.000000 0.500000 0.610707
O O15 0.000000 0.367145 0.500000
#
# Coordination Sequence:
#
# PCOD9388109 Si02
#       7
#     8   4   4   8   1   8   4
#     4  11  24  40  60  88 124 166 217 276 333 393
#     4  10  22  40  67 101 131 169 221 275 338 410
#     4  12  22  37  54  83 120 155 207 270 334 391
#     4  11  23  43  71 103 138 176 221 275 332 392
#     4  12  28  32  50  88 114 164 216 272 336 418
#     4  11  23  38  58  82 117 162 213 273 335 399
#     4  11  26  48  73 106 144 181 224 265 312 385
#
# _framework density 20.345428999999999
#
# number of rings (size 3 to 8) (size 9 to 14) (size 15 to 20)
#    0.000    0.973    4.324    2.270    1.514    6.486 
#    0.000    4.324    0.000    1.946    0.000    0.000 
#    0.000    0.000    0.000    0.000    0.000    0.000 
#
# Total GULP energy -206175.702091 kJ/mol
# GULP energy per Si atom -5572.316273 kJ/mol
# Density = 2.029912 g / cm^3
# Si number density = 20.345429 Si / 1000 Ang^3
#
#
#
# Elastic Constant Matrix: (Units=GPa)
#
#
# Indices 1 2 3 4 5 6 
#
# 1 115.5444 65.9631 40.9202 0.0000 0.0000 0.0000
# 2 65.9631 111.0038 32.5914 0.0000 0.0000 0.0000
# 3 40.9202 32.5914 80.9380 0.0000 0.0000 0.0000
# 4 0.0000 0.0000 0.0000 30.1527 0.0000 0.0000
# 5 0.0000 0.0000 0.0000 0.0000 24.6074 0.0000
# 6 0.0000 0.0000 0.0000 0.0000 0.0000 48.7682
#
#
#
# Elastic Compliance Matrix: (Units=1/GPa)
#
#
# Indices 1 2 3 4 5 6 
#
# 1 0.014319 -0.007239 -0.004324 0.000000 0.000000 0.000000
# 2 -0.007239 0.013877 -0.001928 0.000000 0.000000 0.000000
# 3 -0.004324 -0.001928 0.015318 0.000000 0.000000 0.000000
# 4 0.000000 0.000000 0.000000 0.033165 0.000000 0.000000
# 5 0.000000 0.000000 0.000000 0.000000 0.040638 0.000000
# 6 0.000000 0.000000 0.000000 0.000000 0.000000 0.020505
#
#
# Mechanical properties :
#
#
# Convention : Reuss Voigt Hill
#
# Bulk Modulus (GPa) = 60.49368 65.15951 62.82659
# Shear Modulus (GPa) = 29.35760 31.90643 30.63202
#
# Velocity S-wave (km/s) = 3.80275 3.96439 3.88441
# Velocity P-wave (km/s) = 7.00564 7.28364 7.14599
#
# Compressibility (1/GPa) = 0.01653065
#
# Stress axis : x y z
#
# Youngs Moduli (GPa) = 69.83753 72.06394 65.28440
#
# Poissons Ratio (x) = 0.52169 0.28231
# Poissons Ratio (y) = 0.50557 0.12585
# Poissons Ratio (z) = 0.30200 0.13892
#
# Static dielectric constant tensor:
#      x y z
#    x 1.739390 0.000000 0.000000 
#    y 0.000000 1.714270 0.000000 
#    z 0.000000 0.000000 1.701070 
# 
# From -- ./inp_files/26195.got.cif
#   From: 2010.05.17/outbox.cif.g08.bks.cpg/sg47_14_cif.got.tgz:26195.got - 2010.06.03 20:15:42.
