data_PCOD9388590
_publ_section_title
;
Structure prediction by ZEFSAII (Michael W. Deem and Ramdas Pophale) SiO2 
 PCOD9388590
Probable space group: P M M M
;
_chemical_formula_sum "Si O2"
_cell_formula_units_Z 44
_cell_length_a 16.467526
_cell_length_b 7.471828
_cell_length_c 16.973138
_cell_angle_alpha 90.000000
_cell_angle_beta 90.000000
_cell_angle_gamma 90.000000
_cell_volume 2088.417703
_symmetry_space_group_name_H-M "P M M M"
_symmetry_group_IT_number 47
_symmetry_cell_setting 'orthorhombic'
loop_
_space_group_symop_operation_xyz
x,y,z
-x,-y,z
x,-y,-z
-x,y,-z
-x,-y,-z
x,y,-z
-x,y,z
x,-y,z
loop_
_atom_site_type_symbol
_atom_site_label
_atom_site_fract_x
_atom_site_fract_y
_atom_site_fract_z
Si Si1 0.596405 0.716413 0.587094
Si Si2 0.087965 0.717726 0.121216
Si Si3 0.865395 0.300021 0.293311
Si Si4 0.324808 0.295900 0.747727
Si Si5 0.096805 0.000000 0.413692
Si Si6 0.728355 0.719069 0.913627
O O1 0.626006 0.779074 0.500000
O O2 0.500000 0.748831 0.589370
O O3 0.609129 0.500000 0.587233
O O4 0.634148 0.784876 0.669359
O O5 0.088705 0.500000 0.114090
O O6 0.091143 0.762678 0.213779
O O7 0.176266 0.776035 0.090108
O O8 0.000000 0.777848 0.089671
O O9 0.893604 0.500000 0.310833
O O10 0.770475 0.305510 0.272536
O O11 0.877990 0.172021 0.365259
O O12 0.357308 0.500000 0.754707
O O13 0.321679 0.218133 0.836662
O O14 0.133079 0.000000 0.500000
O O15 0.000000 0.000000 0.418302
O O16 0.729506 0.500000 0.908538
O O17 0.696436 0.768293 0.000000
#
# Coordination Sequence:
#
# PCOD9388590 Si02
#       6
#     8   8   8   8   4   8
#     4   8  13  21  35  58  86 112 143 190 242 287
#     4   8  13  22  38  58  78 105 143 184 229 279
#     4   9  18  33  50  66  88 120 158 200 241 282
#     4   8  14  25  42  63  86 116 152 187 232 288
#     4  11  24  36  46  66  92 120 160 203 246 296
#     4   8  13  20  31  52  83 115 148 188 229 273
#
# _framework density 21.068581999999999
#
# number of rings (size 3 to 8) (size 9 to 14) (size 15 to 20)
#    0.000    3.545    0.000    3.273    0.000    2.545 
#    0.000    4.545    0.000    0.545    0.000   14.636 
#    0.000   19.636    0.000    0.909    0.000    7.273 
#
# Total GULP energy -245007.998096 kJ/mol
# GULP energy per Si atom -5568.363593 kJ/mol
# Density = 2.102063 g / cm^3
# Si number density = 21.068582 Si / 1000 Ang^3
#
#
#
# Elastic Constant Matrix: (Units=GPa)
#
#
# Indices 1 2 3 4 5 6 
#
# 1 33.0783 -4.1125 42.0114 0.0000 0.0000 0.0000
# 2 -4.1125 56.6874 34.8816 0.0000 0.0000 0.0000
# 3 42.0114 34.8816 239.9768 0.0000 0.0000 0.0000
# 4 0.0000 0.0000 0.0000 9.5131 0.0000 0.0000
# 5 0.0000 0.0000 0.0000 0.0000 85.6270 0.0000
# 6 0.0000 0.0000 0.0000 0.0000 0.0000 -7.2728
#
#
#
# Elastic Compliance Matrix: (Units=1/GPa)
#
#
# Indices 1 2 3 4 5 6 
#
# 1 0.042193 0.008353 -0.008601 0.000000 0.000000 0.000000
# 2 0.008353 0.021027 -0.004519 0.000000 0.000000 0.000000
# 3 -0.008601 -0.004519 0.006330 0.000000 0.000000 0.000000
# 4 0.000000 0.000000 0.000000 0.105119 0.000000 0.000000
# 5 0.000000 0.000000 0.000000 0.000000 0.011679 0.000000
# 6 0.000000 0.000000 0.000000 0.000000 0.000000 -0.137499
#
#
# Mechanical properties :
#
#
# Convention : Reuss Voigt Hill
#
# Bulk Modulus (GPa) = 16.66174 52.81151 34.73662
# Shear Modulus (GPa) = 63.78643 34.70424 49.24533
#
# Velocity S-wave (km/s) = 5.50830 4.06298 4.83989
# Velocity P-wave (km/s) = 6.95562 6.86522 6.91057
#
# Compressibility (1/GPa) = 0.06001775
#
# Stress axis : x y z
#
# Youngs Moduli (GPa) = 23.70043 47.55754 157.98835
#
# Poissons Ratio (x) = -0.39727 1.35882
# Poissons Ratio (y) = -0.19798 0.71391
# Poissons Ratio (z) = 0.20384 0.21490
#
# Static dielectric constant tensor:
#      x y z
#    x 1.736230 0.000000 0.000000 
#    y 0.000000 1.765990 0.000000 
#    z 0.000000 0.000000 1.806690 
# 
# From -- ./inp_files/24293.got.cif
#   From: 2010.05.17/outbox.cif.g08.bks.cpg/sg47_13_cif.got.tgz:24293.got - 2010.06.03 20:15:42.
