data_PCOD9388212
_publ_section_title
;
Structure prediction by ZEFSAII (Michael W. Deem and Ramdas Pophale) SiO2 
 PCOD9388212
Probable space group: P M M M
;
_chemical_formula_sum "Si O2"
_cell_formula_units_Z 48
_cell_length_a 10.171499
_cell_length_b 14.227543
_cell_length_c 18.253842
_cell_angle_alpha 90.000000
_cell_angle_beta 90.000000
_cell_angle_gamma 90.000000
_cell_volume 2641.612766
_symmetry_space_group_name_H-M "P M M M"
_symmetry_group_IT_number 47
_symmetry_cell_setting 'orthorhombic'
loop_
_space_group_symop_operation_xyz
x,y,z
-x,-y,z
x,-y,-z
-x,y,-z
-x,-y,-z
x,y,-z
-x,y,z
x,-y,z
loop_
_atom_site_type_symbol
_atom_site_label
_atom_site_fract_x
_atom_site_fract_y
_atom_site_fract_z
Si Si1 0.844042 0.108363 0.699654
Si Si2 0.654722 0.190761 0.588463
Si Si3 0.000000 0.894284 0.913362
Si Si4 0.754773 0.208131 0.156745
Si Si5 0.157655 0.390171 0.086199
Si Si6 0.658893 0.600164 0.413620
Si Si7 0.500000 0.112545 0.087896
O O1 0.756355 0.122020 0.627309
O O2 0.782818 0.177712 0.760225
O O3 0.000000 0.127349 0.689391
O O4 0.831853 0.000000 0.724662
O O5 0.661801 0.186525 0.500000
O O6 0.500000 0.175157 0.607725
O O7 0.696158 0.296698 0.613306
O O8 0.126309 0.839263 0.887321
O O9 0.000000 0.000000 0.883074
O O10 0.000000 0.899203 0.000000
O O11 0.765319 0.318256 0.137950
O O12 0.624624 0.160937 0.125358
O O13 0.188444 0.500000 0.098641
O O14 0.000000 0.378629 0.096869
O O15 0.184100 0.369163 0.000000
O O16 0.692595 0.598940 0.500000
O O17 0.500000 0.599546 0.409827
O O18 0.705987 0.500000 0.381535
O O19 0.500000 0.000000 0.100029
O O20 0.500000 0.127694 0.000000
#
# Coordination Sequence:
#
# PCOD9388212 Si02
#       7
#     8   8   4   8   8   8   4
#     4  11  24  40  57  79 110 150 193 238 295 353
#     4   9  19  36  59  86 112 142 189 239 285 347
#     4  11  20  32  57  85 108 144 195 238 271 323
#     4  12  22  38  58  82 118 154 191 239 291 345
#     4   9  17  32  58  89 116 149 197 245 286 334
#     4   7  10  21  46  79 110 136 166 211 266 323
#     4  11  24  38  55  85 122 154 187 234 293 347
#
# _framework density 18.170718000000001
#
# number of rings (size 3 to 8) (size 9 to 14) (size 15 to 20)
#    0.000    2.167    1.667    5.000    1.167    2.333 
#    0.000    2.917    0.000    3.000    0.000    2.333 
#    0.000    0.000    0.000    0.000    0.000    0.000 
#
# Total GULP energy -267494.913702 kJ/mol
# GULP energy per Si atom -5572.810702 kJ/mol
# Density = 1.812936 g / cm^3
# Si number density = 18.170718 Si / 1000 Ang^3
#
#
#
# Elastic Constant Matrix: (Units=GPa)
#
#
# Indices 1 2 3 4 5 6 
#
# 1 101.0284 38.5978 38.3173 0.0000 0.0000 0.0000
# 2 38.5978 100.8227 35.9467 0.0000 0.0000 0.0000
# 3 38.3173 35.9467 60.5504 0.0000 0.0000 0.0000
# 4 0.0000 0.0000 0.0000 33.0232 0.0000 0.0000
# 5 0.0000 0.0000 0.0000 0.0000 25.3634 0.0000
# 6 0.0000 0.0000 0.0000 0.0000 0.0000 50.4084
#
#
#
# Elastic Compliance Matrix: (Units=1/GPa)
#
#
# Indices 1 2 3 4 5 6 
#
# 1 0.013583 -0.002709 -0.006988 0.000000 0.000000 0.000000
# 2 -0.002709 0.013122 -0.006076 0.000000 0.000000 0.000000
# 3 -0.006988 -0.006076 0.024544 0.000000 0.000000 0.000000
# 4 0.000000 0.000000 0.000000 0.030282 0.000000 0.000000
# 5 0.000000 0.000000 0.000000 0.000000 0.039427 0.000000
# 6 0.000000 0.000000 0.000000 0.000000 0.000000 0.019838
#
#
# Mechanical properties :
#
#
# Convention : Reuss Voigt Hill
#
# Bulk Modulus (GPa) = 50.74929 54.23612 52.49271
# Shear Modulus (GPa) = 27.94733 31.72830 29.83781
#
# Velocity S-wave (km/s) = 3.92604 4.18320 4.05666
# Velocity P-wave (km/s) = 6.96718 7.29692 7.13395
#
# Compressibility (1/GPa) = 0.01970471
#
# Stress axis : x y z
#
# Youngs Moduli (GPa) = 73.61976 76.21040 40.74311
#
# Poissons Ratio (x) = 0.20643 0.28470
# Poissons Ratio (y) = 0.19942 0.24754
# Poissons Ratio (z) = 0.51443 0.46303
#
# Static dielectric constant tensor:
#      x y z
#    x 1.557130 0.000000 0.000000 
#    y 0.000000 1.691620 0.000000 
#    z 0.000000 0.000000 1.638450 
# 
# From -- ./inp_files/26504.got.cif
#   From: 2010.05.17/outbox.cif.g08.bks.cpg/sg47_14_cif.got.tgz:26504.got - 2010.06.03 20:15:42.
