data_PCOD9388306
_publ_section_title
;
Structure prediction by ZEFSAII (Michael W. Deem and Ramdas Pophale) SiO2 
 PCOD9388306
Probable space group: P M M M
;
_chemical_formula_sum "Si O2"
_cell_formula_units_Z 32
_cell_length_a 7.654275
_cell_length_b 20.244205
_cell_length_c 11.925657
_cell_angle_alpha 90.000000
_cell_angle_beta 90.000000
_cell_angle_gamma 90.000000
_cell_volume 1847.936749
_symmetry_space_group_name_H-M "P M M M"
_symmetry_group_IT_number 47
_symmetry_cell_setting 'orthorhombic'
loop_
_space_group_symop_operation_xyz
x,y,z
-x,-y,z
x,-y,-z
-x,y,-z
-x,-y,-z
x,y,-z
-x,y,z
x,-y,z
loop_
_atom_site_type_symbol
_atom_site_label
_atom_site_fract_x
_atom_site_fract_y
_atom_site_fract_z
Si Si1 0.000000 0.077125 0.366024
Si Si2 0.292620 0.715525 0.871773
Si Si3 0.789799 0.428918 0.130647
Si Si4 0.210781 0.077600 0.000000
Si Si5 0.702958 0.850359 0.230003
O O1 0.830038 0.112434 0.314812
O O2 0.000000 0.080688 0.500000
O O3 0.000000 0.000000 0.331478
O O4 0.500000 0.725366 0.881214
O O5 0.264111 0.642171 0.823466
O O6 0.230517 0.776033 0.796293
O O7 0.220229 0.718481 0.000000
O O8 0.730364 0.500000 0.178502
O O9 0.000000 0.429675 0.131121
O O10 0.731996 0.428054 0.000000
O O11 0.283816 0.112272 0.110743
O O12 0.000000 0.084763 0.000000
O O13 0.252026 0.000000 0.000000
O O14 0.500000 0.849381 0.266137
#
# Coordination Sequence:
#
# PCOD9388306 Si02
#       5
#     4   8   8   4   8
#     4  11  26  45  61  79 102 134 182 230 273 324
#     4   9  17  28  43  69 103 137 172 207 251 307
#     4   8  14  23  36  58  92 137 180 208 236 286
#     4  11  21  33  53  82 112 141 171 209 265 329
#     4  11  22  37  57  82 111 141 176 219 268 324
#
# _framework density 17.316610000000001
#
# number of rings (size 3 to 8) (size 9 to 14) (size 15 to 20)
#    0.000    2.250    2.500    1.875    1.750    3.500 
#    0.000    3.750    0.000    0.000    0.000    0.000 
#    0.000    2.000    0.000    5.500    0.000    0.250 
#
# Total GULP energy -178369.092570 kJ/mol
# GULP energy per Si atom -5574.034143 kJ/mol
# Density = 1.727720 g / cm^3
# Si number density = 17.316610 Si / 1000 Ang^3
#
#
#
# Elastic Constant Matrix: (Units=GPa)
#
#
# Indices 1 2 3 4 5 6 
#
# 1 68.1780 37.0248 19.7696 0.0000 0.0000 0.0000
# 2 37.0248 187.7774 37.3049 0.0000 0.0000 0.0000
# 3 19.7696 37.3049 39.6972 0.0000 0.0000 0.0000
# 4 0.0000 0.0000 0.0000 478.6071 0.0000 0.0000
# 5 0.0000 0.0000 0.0000 0.0000 -1.0674 0.0000
# 6 0.0000 0.0000 0.0000 0.0000 0.0000 28.2468
#
#
#
# Elastic Compliance Matrix: (Units=1/GPa)
#
#
# Indices 1 2 3 4 5 6 
#
# 1 0.017824 -0.002153 -0.006853 0.000000 0.000000 0.000000
# 2 -0.002153 0.006808 -0.005326 0.000000 0.000000 0.000000
# 3 -0.006853 -0.005326 0.033608 0.000000 0.000000 0.000000
# 4 0.000000 0.000000 0.000000 0.002089 0.000000 0.000000
# 5 0.000000 0.000000 0.000000 0.000000 -0.936892 0.000000
# 6 0.000000 0.000000 0.000000 0.000000 0.000000 0.035402
#
#
# Mechanical properties :
#
#
# Convention : Reuss Voigt Hill
#
# Bulk Modulus (GPa) = 33.81041 53.76122 43.78581
# Shear Modulus (GPa) = -6.22946 114.59420 54.18237
#
# Velocity S-wave (km/s) = -1.89874 8.14368 5.59975
# Velocity P-wave (km/s) = 3.84191 10.93341 8.19450
#
# Compressibility (1/GPa) = 0.02957669
#
# Stress axis : x y z
#
# Youngs Moduli (GPa) = 56.10446 146.88726 29.75454
#
# Poissons Ratio (x) = 0.31623 0.20392
# Poissons Ratio (y) = 0.12079 0.15846
# Poissons Ratio (z) = 0.38450 0.78225
#
# Static dielectric constant tensor:
#      x y z
#    x 1.618030 0.000000 0.000000 
#    y 0.000000 1.652210 0.000000 
#    z 0.000000 0.000000 1.542440 
# 
# From -- ./inp_files/8593.got.cif
#   From: 2010.05.17/outbox.cif.g08.bks.cpg/sg47_5_cif.got.tgz:8593.got - 2010.06.03 20:15:42.
