data_PCOD9388914
_publ_section_title
;
Structure prediction by ZEFSAII (Michael W. Deem and Ramdas Pophale) SiO2 
 PCOD9388914
Probable space group: P M M M
;
_chemical_formula_sum "Si O2"
_cell_formula_units_Z 36
_cell_length_a 10.073773
_cell_length_b 26.012907
_cell_length_c 7.291947
_cell_angle_alpha 90.000000
_cell_angle_beta 90.000000
_cell_angle_gamma 90.000000
_cell_volume 1910.841004
_symmetry_space_group_name_H-M "P M M M"
_symmetry_group_IT_number 47
_symmetry_cell_setting 'orthorhombic'
loop_
_space_group_symop_operation_xyz
x,y,z
-x,-y,z
x,-y,-z
-x,y,-z
-x,-y,-z
x,y,-z
-x,y,z
x,-y,z
loop_
_atom_site_type_symbol
_atom_site_label
_atom_site_fract_x
_atom_site_fract_y
_atom_site_fract_z
Si Si1 0.843958 0.644475 0.781338
Si Si2 0.347451 0.736576 0.222825
Si Si3 0.847201 0.057809 0.223266
Si Si4 0.160695 0.441889 0.500000
Si Si5 0.652550 0.147494 0.223305
O O1 0.753705 0.692311 0.720777
O O2 0.803583 0.592805 0.675330
O O3 0.000000 0.654421 0.742723
O O4 0.830303 0.638062 0.000000
O O5 0.500000 0.726785 0.278887
O O6 0.310449 0.794518 0.280153
O O7 0.346645 0.736704 0.000000
O O8 0.750538 0.102867 0.285863
O O9 0.000000 0.066265 0.278023
O O10 0.807667 0.000000 0.279152
O O11 0.845416 0.058243 0.000000
O O12 0.212830 0.500000 0.500000
O O13 0.000000 0.445379 0.500000
O O14 0.500000 0.138209 0.277464
O O15 0.654868 0.147205 0.000000
#
# Coordination Sequence:
#
# PCOD9388914 Si02
#       5
#     8   8   8   4   8
#     4   9  17  29  47  70  92 118 154 189 223 268
#     4   8  14  25  40  58  82 111 142 181 230 275
#     4   8  13  19  25  36  59  93 132 174 220 265
#     4   9  18  32  49  71  99 125 150 187 228 261
#     4   8  13  20  30  45  65  93 132 174 216 264
#
# _framework density 18.839870000000001
#
# number of rings (size 3 to 8) (size 9 to 14) (size 15 to 20)
#    0.000    3.667    0.000    2.000    0.000    1.778 
#    0.000    9.444    0.000    1.333    0.000    3.111 
#    0.000    0.000    0.000    1.000    0.000   22.000 
#
# Total GULP energy -200662.207205 kJ/mol
# GULP energy per Si atom -5573.950200 kJ/mol
# Density = 1.879699 g / cm^3
# Si number density = 18.839870 Si / 1000 Ang^3
#
#
#
# Elastic Constant Matrix: (Units=GPa)
#
#
# Indices 1 2 3 4 5 6 
#
# 1 84.1015 118.7244 23.0362 0.0000 0.0000 0.0000
# 2 118.7244 227.8384 36.5149 0.0000 0.0000 0.0000
# 3 23.0362 36.5149 80.2078 0.0000 0.0000 0.0000
# 4 0.0000 0.0000 0.0000 308.8403 0.0000 0.0000
# 5 0.0000 0.0000 0.0000 0.0000 -7.7408 0.0000
# 6 0.0000 0.0000 0.0000 0.0000 0.0000 -9.6299
#
#
#
# Elastic Compliance Matrix: (Units=1/GPa)
#
#
# Indices 1 2 3 4 5 6 
#
# 1 0.045415 -0.023273 -0.002448 0.000000 0.000000 0.000000
# 2 -0.023273 0.016661 -0.000901 0.000000 0.000000 0.000000
# 3 -0.002448 -0.000901 0.013581 0.000000 0.000000 0.000000
# 4 0.000000 0.000000 0.000000 0.003238 0.000000 0.000000
# 5 0.000000 0.000000 0.000000 0.000000 -0.129186 0.000000
# 6 0.000000 0.000000 0.000000 0.000000 0.000000 -0.103844
#
#
# Mechanical properties :
#
#
# Convention : Reuss Voigt Hill
#
# Bulk Modulus (GPa) = 44.61799 83.18876 63.90337
# Shear Modulus (GPa) = -53.52179 72.55207 9.51514
#
# Velocity S-wave (km/s) = -5.33577 6.21236 2.24978
# Velocity P-wave (km/s) = 3.77180 9.78312 6.38291
#
# Compressibility (1/GPa) = 0.02241248
#
# Stress axis : x y z
#
# Youngs Moduli (GPa) = 22.01915 60.02133 73.63302
#
# Poissons Ratio (x) = 1.39687 0.18028
# Poissons Ratio (y) = 0.51245 0.06632
# Poissons Ratio (z) = 0.05391 0.05406
#
# Static dielectric constant tensor:
#      x y z
#    x 1.619320 0.000000 0.000000 
#    y 0.000000 1.629230 0.000000 
#    z 0.000000 0.000000 1.777850 
# 
# From -- ./inp_files/3920.got.cif
#   From: 2010.05.17/outbox.cif.g08.bks.cpg/sg47_2_cif.got.tgz:3920.got - 2010.06.03 20:15:42.
