data_PCOD9388329
_publ_section_title
;
Structure prediction by ZEFSAII (Michael W. Deem and Ramdas Pophale) SiO2 
 PCOD9388329
Probable space group: P M M M
;
_chemical_formula_sum "Si O2"
_cell_formula_units_Z 36
_cell_length_a 7.905979
_cell_length_b 18.856815
_cell_length_c 11.443518
_cell_angle_alpha 90.000000
_cell_angle_beta 90.000000
_cell_angle_gamma 90.000000
_cell_volume 1706.017783
_symmetry_space_group_name_H-M "P M M M"
_symmetry_group_IT_number 47
_symmetry_cell_setting 'orthorhombic'
loop_
_space_group_symop_operation_xyz
x,y,z
-x,-y,z
x,-y,-z
-x,y,-z
-x,-y,-z
x,y,-z
-x,y,z
x,-y,z
loop_
_atom_site_type_symbol
_atom_site_label
_atom_site_fract_x
_atom_site_fract_y
_atom_site_fract_z
Si Si1 0.294557 0.423438 0.363450
Si Si2 0.804379 0.842834 0.870265
Si Si3 0.302977 0.310909 0.803268
Si Si4 0.702895 0.081464 0.370610
Si Si5 0.795600 0.417484 0.000000
O O1 0.258862 0.424719 0.500000
O O2 0.500000 0.422713 0.348894
O O3 0.233881 0.500000 0.313868
O O4 0.232298 0.349244 0.311625
O O5 0.786886 0.758364 0.851424
O O6 0.741257 0.877708 0.749600
O O7 0.000000 0.862293 0.877083
O O8 0.728040 0.859954 0.000000
O O9 0.500000 0.291181 0.788999
O O10 0.283088 0.375974 0.891812
O O11 0.761863 0.108669 0.500000
O O12 0.500000 0.080047 0.377068
O O13 0.763401 0.000000 0.360210
O O14 0.754535 0.500000 0.000000
O O15 0.000000 0.409539 0.000000
#
# Coordination Sequence:
#
# PCOD9388329 Si02
#       5
#     8   8   8   8   4
#     4   8  15  29  49  75 106 136 173 231 296 349
#     4  11  24  40  58  84 125 167 202 245 301 366
#     4  11  21  34  56  82 108 144 195 246 291 349
#     4   9  20  41  68  96 124 155 198 252 303 356
#     4  11  23  37  53  75 108 149 190 239 301 359
#
# _framework density 21.101773000000001
#
# number of rings (size 3 to 8) (size 9 to 14) (size 15 to 20)
#    0.000    2.111    1.111    3.667    0.000    5.333 
#    0.000    5.556    0.000    2.000    0.000    7.778 
#    0.000    0.000    0.000    0.000    0.000    0.000 
#
# Total GULP energy -200533.968006 kJ/mol
# GULP energy per Si atom -5570.388000 kJ/mol
# Density = 2.105374 g / cm^3
# Si number density = 21.101773 Si / 1000 Ang^3
#
#
#
# Elastic Constant Matrix: (Units=GPa)
#
#
# Indices 1 2 3 4 5 6 
#
# 1 29.2361 1.7896 11.8059 0.0000 0.0000 0.0000
# 2 1.7896 73.4795 67.6453 0.0000 0.0000 0.0000
# 3 11.8059 67.6453 164.9523 0.0000 0.0000 0.0000
# 4 0.0000 0.0000 0.0000 -387.9361 0.0000 0.0000
# 5 0.0000 0.0000 0.0000 0.0000 35.3287 0.0000
# 6 0.0000 0.0000 0.0000 0.0000 0.0000 31.5634
#
#
#
# Elastic Compliance Matrix: (Units=1/GPa)
#
#
# Indices 1 2 3 4 5 6 
#
# 1 0.035477 0.002367 -0.003510 0.000000 0.000000 0.000000
# 2 0.002367 0.022021 -0.009200 0.000000 0.000000 0.000000
# 3 -0.003510 -0.009200 0.010086 0.000000 0.000000 0.000000
# 4 0.000000 0.000000 0.000000 -0.002578 0.000000 0.000000
# 5 0.000000 0.000000 0.000000 0.000000 0.028306 0.000000
# 6 0.000000 0.000000 0.000000 0.000000 0.000000 0.031682
#
#
# Mechanical properties :
#
#
# Convention : Reuss Voigt Hill
#
# Bulk Modulus (GPa) = 21.32249 47.79437 34.55843
# Shear Modulus (GPa) = 30.99561 -51.78034 -10.39237
#
# Velocity S-wave (km/s) = 3.83673 -4.95900 -2.22161
# Velocity P-wave (km/s) = 5.45471 3.17652 3.13557
#
# Compressibility (1/GPa) = 0.04689884
#
# Stress axis : x y z
#
# Youngs Moduli (GPa) = 28.18743 45.41073 99.14298
#
# Poissons Ratio (x) = -0.10750 0.34798
# Poissons Ratio (y) = -0.06673 0.91213
# Poissons Ratio (z) = 0.09894 0.41778
#
# Static dielectric constant tensor:
#      x y z
#    x 1.778060 0.000000 0.000000 
#    y 0.000000 1.750910 0.000000 
#    z 0.000000 0.000000 1.984450 
# 
# From -- ./inp_files/14876.got.cif
#   From: 2010.05.17/outbox.cif.g08.bks.cpg/sg47_8_cif.got.tgz:14876.got - 2010.06.03 20:15:42.
