data_PCOD9388216
_publ_section_title
;
Structure prediction by ZEFSAII (Michael W. Deem and Ramdas Pophale) SiO2 
 PCOD9388216
Probable space group: P M M M
;
_chemical_formula_sum "Si O2"
_cell_formula_units_Z 36
_cell_length_a 8.023977
_cell_length_b 14.899313
_cell_length_c 14.121255
_cell_angle_alpha 90.000000
_cell_angle_beta 90.000000
_cell_angle_gamma 90.000000
_cell_volume 1688.220674
_symmetry_space_group_name_H-M "P M M M"
_symmetry_group_IT_number 47
_symmetry_cell_setting 'orthorhombic'
loop_
_space_group_symop_operation_xyz
x,y,z
-x,-y,z
x,-y,-z
-x,y,-z
-x,-y,-z
x,y,-z
-x,y,z
x,-y,z
loop_
_atom_site_type_symbol
_atom_site_label
_atom_site_fract_x
_atom_site_fract_y
_atom_site_fract_z
Si Si1 0.194864 0.653409 0.500000
Si Si2 0.796336 0.397270 0.710746
Si Si3 0.308599 0.098659 0.295774
Si Si4 0.194986 0.131598 0.500000
Si Si5 0.814616 0.763430 0.834226
Si Si6 0.303634 0.896084 0.000000
O O1 0.263200 0.621934 0.602517
O O2 0.203291 0.760627 0.500000
O O3 0.000000 0.624549 0.500000
O O4 0.758154 0.500000 0.734255
O O5 0.735287 0.327564 0.791462
O O6 0.000000 0.386672 0.708759
O O7 0.500000 0.121385 0.271841
O O8 0.285364 0.097103 0.407260
O O9 0.186077 0.173562 0.257990
O O10 0.272395 0.000000 0.255703
O O11 0.000000 0.106038 0.500000
O O12 0.000000 0.741341 0.868074
O O13 0.739746 0.831796 0.911080
O O14 0.500000 0.907348 0.000000
O O15 0.233031 0.000000 0.000000
#
# Coordination Sequence:
#
# PCOD9388216 Si02
#       6
#     4   8   8   4   8   4
#     4   9  15  28  51  83 119 154 193 237 280 326
#     4   9  17  31  55  88 123 156 192 238 289 339
#     4  11  23  37  53  77 114 159 197 233 290 358
#     4  11  20  33  53  81 113 150 201 250 287 332
#     4  11  22  38  62  91 117 145 191 246 294 343
#     4  11  25  45  66  87 114 152 193 235 296 365
#
# _framework density 21.324225999999999
#
# number of rings (size 3 to 8) (size 9 to 14) (size 15 to 20)
#    0.000    1.667    2.222    3.333    0.000    8.000 
#    0.000    0.556    0.000    6.000    0.000    1.556 
#    0.000    0.000    0.000    0.000    0.000    0.000 
#
# Total GULP energy -200700.675968 kJ/mol
# GULP energy per Si atom -5575.018777 kJ/mol
# Density = 2.127569 g / cm^3
# Si number density = 21.324226 Si / 1000 Ang^3
#
#
#
# Elastic Constant Matrix: (Units=GPa)
#
#
# Indices 1 2 3 4 5 6 
#
# 1 29.3714 25.5159 1.1470 0.0000 0.0000 0.0000
# 2 25.5159 170.1934 65.9042 0.0000 0.0000 0.0000
# 3 1.1470 65.9042 112.2953 0.0000 0.0000 0.0000
# 4 0.0000 0.0000 0.0000 -3.8790 0.0000 0.0000
# 5 0.0000 0.0000 0.0000 0.0000 25.4347 0.0000
# 6 0.0000 0.0000 0.0000 0.0000 0.0000 17.1839
#
#
#
# Elastic Compliance Matrix: (Units=1/GPa)
#
#
# Indices 1 2 3 4 5 6 
#
# 1 0.040540 -0.007658 0.004080 0.000000 0.000000 0.000000
# 2 -0.007658 0.009050 -0.005233 0.000000 0.000000 0.000000
# 3 0.004080 -0.005233 0.011935 0.000000 0.000000 0.000000
# 4 0.000000 0.000000 0.000000 -0.257802 0.000000 0.000000
# 5 0.000000 0.000000 0.000000 0.000000 0.039316 0.000000
# 6 0.000000 0.000000 0.000000 0.000000 0.000000 0.058194
#
#
# Mechanical properties :
#
#
# Convention : Reuss Voigt Hill
#
# Bulk Modulus (GPa) = 22.77737 55.22159 38.99948
# Shear Modulus (GPa) = -75.17649 22.36747 -26.40451
#
# Velocity S-wave (km/s) = -5.94395 3.24222 -3.52268
# Velocity P-wave (km/s) = 6.03347 6.32206 1.33522
#
# Compressibility (1/GPa) = 0.04390322
#
# Stress axis : x y z
#
# Youngs Moduli (GPa) = 24.66696 110.49451 83.78928
#
# Poissons Ratio (x) = 0.84615 -0.34188
# Poissons Ratio (y) = 0.18890 0.43849
# Poissons Ratio (z) = -0.10065 0.57824
#
# Static dielectric constant tensor:
#      x y z
#    x 1.801020 0.000000 0.000000 
#    y 0.000000 1.785900 0.000000 
#    z 0.000000 0.000000 1.836990 
# 
# From -- ./inp_files/20589.got.cif
#   From: 2010.05.17/outbox.cif.g08.bks.cpg/sg47_11_cif.got.tgz:20589.got - 2010.06.03 20:15:42.
