data_PCOD9388752
_publ_section_title
;
Structure prediction by ZEFSAII (Michael W. Deem and Ramdas Pophale) SiO2 
 PCOD9388752
Probable space group: P M M M
;
_chemical_formula_sum "Si O2"
_cell_formula_units_Z 32
_cell_length_a 24.579189
_cell_length_b 7.468046
_cell_length_c 7.412225
_cell_angle_alpha 90.000000
_cell_angle_beta 90.000000
_cell_angle_gamma 90.000000
_cell_volume 1360.577007
_symmetry_space_group_name_H-M "P M M M"
_symmetry_group_IT_number 47
_symmetry_cell_setting 'orthorhombic'
loop_
_space_group_symop_operation_xyz
x,y,z
-x,-y,z
x,-y,-z
-x,y,-z
-x,-y,-z
x,y,-z
-x,y,z
x,-y,z
loop_
_atom_site_type_symbol
_atom_site_label
_atom_site_fract_x
_atom_site_fract_y
_atom_site_fract_z
Si Si1 0.937926 0.718777 0.000000
Si Si2 0.617193 0.713837 0.706819
Si Si3 0.851726 0.719193 0.292492
Si Si4 0.733241 0.290632 0.279378
Si Si5 0.500000 0.788789 0.704806
O O1 0.902094 0.774823 0.171291
O O2 0.939266 0.500000 0.000000
O O3 0.000000 0.780300 0.000000
O O4 0.612959 0.782620 0.500000
O O5 0.623716 0.500000 0.698262
O O6 0.674736 0.783574 0.781882
O O7 0.558048 0.743146 0.791176
O O8 0.858334 0.772137 0.500000
O O9 0.849869 0.500000 0.288555
O O10 0.792151 0.782842 0.226350
O O11 0.732256 0.283872 0.500000
O O12 0.734295 0.500000 0.227008
O O13 0.500000 0.708116 0.500000
O O14 0.500000 0.000000 0.689395
#
# Coordination Sequence:
#
# PCOD9388752 Si02
#       5
#     4   8   8   8   4
#     4   9  16  22  28  42  64  91 121 148 180 227
#     4   8  12  18  28  40  55  81 121 161 190 223
#     4   8  13  21  31  42  59  84 116 155 191 221
#     4   7  10  17  29  42  53  71 107 154 193 218
#     4   9  15  19  23  37  65  96 119 144 189 241
#
# _framework density 23.519432999999999
#
# number of rings (size 3 to 8) (size 9 to 14) (size 15 to 20)
#    0.000    4.000    0.000    3.375    0.000    2.000 
#    0.000    2.500    0.000    0.000    0.000    0.000 
#    0.000    1.000    0.000   14.000    0.000   42.250 
#
# Total GULP energy -178284.798070 kJ/mol
# GULP energy per Si atom -5571.399940 kJ/mol
# Density = 2.346590 g / cm^3
# Si number density = 23.519433 Si / 1000 Ang^3
#
#
#
# Elastic Constant Matrix: (Units=GPa)
#
#
# Indices 1 2 3 4 5 6 
#
# 1 343.0578 11.2773 79.7454 0.0000 0.0000 0.0000
# 2 11.2773 69.5702 -0.1702 0.0000 0.0000 0.0000
# 3 79.7454 -0.1702 94.8771 0.0000 0.0000 0.0000
# 4 0.0000 0.0000 0.0000 -9.3442 0.0000 0.0000
# 5 0.0000 0.0000 0.0000 0.0000 59.8212 0.0000
# 6 0.0000 0.0000 0.0000 0.0000 0.0000 -57.3542
#
#
#
# Elastic Compliance Matrix: (Units=1/GPa)
#
#
# Indices 1 2 3 4 5 6 
#
# 1 0.003648 -0.000599 -0.003067 0.000000 0.000000 0.000000
# 2 -0.000599 0.014472 0.000529 0.000000 0.000000 0.000000
# 3 -0.003067 0.000529 0.013119 0.000000 0.000000 0.000000
# 4 0.000000 0.000000 0.000000 -0.107018 0.000000 0.000000
# 5 0.000000 0.000000 0.000000 0.000000 0.016716 0.000000
# 6 0.000000 0.000000 0.000000 0.000000 0.000000 -0.017436
#
#
# Mechanical properties :
#
#
# Convention : Reuss Voigt Hill
#
# Bulk Modulus (GPa) = 40.05498 76.57890 58.31694
# Shear Modulus (GPa) = -80.77038 26.40139 -27.18449
#
# Velocity S-wave (km/s) = -5.86656 3.35406 -3.40344
# Velocity P-wave (km/s) = 5.36853 6.90146 3.06668
#
# Compressibility (1/GPa) = 0.02496569
#
# Stress axis : x y z
#
# Youngs Moduli (GPa) = 274.15613 69.09742 76.22728
#
# Poissons Ratio (x) = 0.04137 0.23378
# Poissons Ratio (y) = 0.16416 -0.04034
# Poissons Ratio (z) = 0.84081 -0.03657
#
# Static dielectric constant tensor:
#      x y z
#    x 1.932820 0.000000 0.000000 
#    y 0.000000 1.864450 0.000000 
#    z 0.000000 0.000000 2.036670 
# 
# From -- ./inp_files/12243.got.cif
#   From: 2010.05.17/outbox.cif.g08.bks.cpg/sg47_7_cif.got.tgz:12243.got - 2010.06.03 20:15:42.
