data_PCOD9388415
_publ_section_title
;
Structure prediction by ZEFSAII (Michael W. Deem and Ramdas Pophale) SiO2 
 PCOD9388415
Probable space group: P M M M
;
_chemical_formula_sum "Si O2"
_cell_formula_units_Z 32
_cell_length_a 7.503463
_cell_length_b 9.219865
_cell_length_c 25.348238
_cell_angle_alpha 90.000000
_cell_angle_beta 90.000000
_cell_angle_gamma 90.000000
_cell_volume 1753.614321
_symmetry_space_group_name_H-M "P M M M"
_symmetry_group_IT_number 47
_symmetry_cell_setting 'orthorhombic'
loop_
_space_group_symop_operation_xyz
x,y,z
-x,-y,z
x,-y,-z
-x,y,-z
-x,-y,-z
x,y,-z
-x,y,z
x,-y,z
loop_
_atom_site_type_symbol
_atom_site_label
_atom_site_fract_x
_atom_site_fract_y
_atom_site_fract_z
Si Si1 0.711129 0.828046 0.938873
Si Si2 0.000000 0.676302 0.252794
Si Si3 0.292430 0.325724 0.664083
Si Si4 0.283160 0.168880 0.441918
Si Si5 0.000000 0.674225 0.131415
O O1 0.500000 0.804636 0.931456
O O2 0.829379 0.736372 0.899246
O O3 0.745934 0.000000 0.931879
O O4 0.754045 0.792785 0.000000
O O5 0.171820 0.721308 0.286833
O O6 0.000000 0.723837 0.192367
O O7 0.000000 0.500000 0.251694
O O8 0.500000 0.286187 0.671641
O O9 0.282378 0.500000 0.659908
O O10 0.226270 0.257781 0.609122
O O11 0.224074 0.220635 0.500000
O O12 0.500000 0.174701 0.442273
O O13 0.233097 0.000000 0.436784
O O14 0.000000 0.500000 0.129970
#
# Coordination Sequence:
#
# PCOD9388415 Si02
#       5
#     8   4   8   8   4
#     4   9  19  37  59  81 108 143 178 212 256 311
#     4   9  20  36  49  68 100 133 166 203 246 295
#     4   9  17  31  51  69  88 122 165 203 238 284
#     4   8  14  26  45  69  96 122 148 188 247 304
#     4  11  22  34  53  81 111 142 176 219 266 309
#
# _framework density 18.248025999999999
#
# number of rings (size 3 to 8) (size 9 to 14) (size 15 to 20)
#    0.000    3.000    0.000    2.250    0.000    4.000 
#    0.000   10.000    0.000    6.750    0.000    0.000 
#    0.000    0.000    0.000    0.000    0.000    0.000 
#
# Total GULP energy -178441.639324 kJ/mol
# GULP energy per Si atom -5576.301229 kJ/mol
# Density = 1.820649 g / cm^3
# Si number density = 18.248026 Si / 1000 Ang^3
#
#
#
# Elastic Constant Matrix: (Units=GPa)
#
#
# Indices 1 2 3 4 5 6 
#
# 1 86.5263 36.3965 86.2298 0.0000 0.0000 0.0000
# 2 36.3965 30.8816 63.7937 0.0000 0.0000 0.0000
# 3 86.2298 63.7937 204.2728 0.0000 0.0000 0.0000
# 4 0.0000 0.0000 0.0000 233.2218 0.0000 0.0000
# 5 0.0000 0.0000 0.0000 0.0000 -136.9118 0.0000
# 6 0.0000 0.0000 0.0000 0.0000 0.0000 11.1816
#
#
#
# Elastic Compliance Matrix: (Units=1/GPa)
#
#
# Indices 1 2 3 4 5 6 
#
# 1 0.023839 -0.020594 -0.003632 0.000000 0.000000 0.000000
# 2 -0.020594 0.109039 -0.025359 0.000000 0.000000 0.000000
# 3 -0.003632 -0.025359 0.014348 0.000000 0.000000 0.000000
# 4 0.000000 0.000000 0.000000 0.004288 0.000000 0.000000
# 5 0.000000 0.000000 0.000000 0.000000 -0.007304 0.000000
# 6 0.000000 0.000000 0.000000 0.000000 0.000000 0.089433
#
#
# Mechanical properties :
#
#
# Convention : Reuss Voigt Hill
#
# Bulk Modulus (GPa) = 20.80892 77.16896 48.98894
# Shear Modulus (GPa) = 14.33357 30.51569 22.42463
#
# Velocity S-wave (km/s) = 2.80569 4.09378 3.50934
# Velocity P-wave (km/s) = 4.68231 8.04525 6.58218
#
# Compressibility (1/GPa) = 0.04805631
#
# Stress axis : x y z
#
# Youngs Moduli (GPa) = 41.94757 9.17104 69.69571
#
# Poissons Ratio (x) = 0.18887 0.25312
# Poissons Ratio (y) = 0.86387 1.76742
# Poissons Ratio (z) = 0.15235 0.23257
#
# Static dielectric constant tensor:
#      x y z
#    x 1.659660 0.000000 0.000000 
#    y 0.000000 1.602990 0.000000 
#    z 0.000000 0.000000 1.611550 
# 
# From -- ./inp_files/31626.got.cif
#   From: 2010.05.17/outbox.cif.g08.bks.cpg/sg47_16_cif.got.tgz:31626.got - 2010.06.03 20:15:42.
