data_PCOD9388617
_publ_section_title
;
Structure prediction by ZEFSAII (Michael W. Deem and Ramdas Pophale) SiO2 
 PCOD9388617
Probable space group: P M M M
;
_chemical_formula_sum "Si O2"
_cell_formula_units_Z 44
_cell_length_a 9.491060
_cell_length_b 8.212203
_cell_length_c 31.047118
_cell_angle_alpha 90.000000
_cell_angle_beta 90.000000
_cell_angle_gamma 90.000000
_cell_volume 2419.890349
_symmetry_space_group_name_H-M "P M M M"
_symmetry_group_IT_number 47
_symmetry_cell_setting 'orthorhombic'
loop_
_space_group_symop_operation_xyz
x,y,z
-x,-y,z
x,-y,-z
-x,y,-z
-x,-y,-z
x,y,-z
-x,y,z
x,-y,z
loop_
_atom_site_type_symbol
_atom_site_label
_atom_site_fract_x
_atom_site_fract_y
_atom_site_fract_z
Si Si1 0.328058 0.500000 0.049813
Si Si2 0.337478 0.303334 0.451590
Si Si3 0.338656 0.303564 0.711346
Si Si4 0.328188 0.819344 0.897390
Si Si5 0.671410 0.310610 0.805699
Si Si6 0.840572 0.194206 0.629872
O O1 0.500000 0.500000 0.051047
O O2 0.282359 0.334991 0.074137
O O3 0.285433 0.500000 0.000000
O O4 0.296054 0.250945 0.500000
O O5 0.500000 0.252368 0.444365
O O6 0.335832 0.500000 0.451011
O O7 0.239095 0.242467 0.413730
O O8 0.500000 0.245938 0.705000
O O9 0.343563 0.500000 0.713778
O O10 0.284986 0.248591 0.758497
O O11 0.243920 0.255171 0.671399
O O12 0.500000 0.817707 0.898149
O O13 0.285300 0.788081 0.847811
O O14 0.283512 0.000000 0.911747
O O15 0.500000 0.309760 0.804535
O O16 0.713619 0.500000 0.811123
O O17 0.000000 0.258816 0.629789
O O18 0.845138 0.000000 0.632010
#
# Coordination Sequence:
#
# PCOD9388617 Si02
#       6
#     4   8   8   8   8   8
#     4   9  16  24  32  44  70 108 147 193 242 285
#     4   9  19  37  60  82 100 121 157 205 250 292
#     4   9  18  32  52  75  95 120 159 206 250 293
#     4   9  15  22  34  51  72 103 144 189 238 291
#     4   8  13  24  41  60  83 107 136 185 244 290
#     4  11  24  37  48  69 104 139 166 196 238 290
#
# _framework density 18.182641
#
# number of rings (size 3 to 8) (size 9 to 14) (size 15 to 20)
#    0.000    2.818    0.909    2.727    0.000    6.182 
#    0.000    6.364    0.000    0.000    0.000    0.000 
#    0.000    0.000    0.000    0.000    0.000    1.818 
#
# Total GULP energy -245205.463788 kJ/mol
# GULP energy per Si atom -5572.851450 kJ/mol
# Density = 1.814126 g / cm^3
# Si number density = 18.182641 Si / 1000 Ang^3
#
#
#
# Elastic Constant Matrix: (Units=GPa)
#
#
# Indices 1 2 3 4 5 6 
#
# 1 40.7882 21.9476 54.2650 0.0000 0.0000 0.0000
# 2 21.9476 77.4398 62.5794 0.0000 0.0000 0.0000
# 3 54.2650 62.5794 171.4719 0.0000 0.0000 0.0000
# 4 0.0000 0.0000 0.0000 -6.1078 0.0000 0.0000
# 5 0.0000 0.0000 0.0000 0.0000 -5.1928 0.0000
# 6 0.0000 0.0000 0.0000 0.0000 0.0000 14.6860
#
#
#
# Elastic Compliance Matrix: (Units=1/GPa)
#
#
# Indices 1 2 3 4 5 6 
#
# 1 0.042497 -0.001668 -0.012840 0.000000 0.000000 0.000000
# 2 -0.001668 0.018380 -0.006180 0.000000 0.000000 0.000000
# 3 -0.012840 -0.006180 0.012151 0.000000 0.000000 0.000000
# 4 0.000000 0.000000 0.000000 -0.163725 0.000000 0.000000
# 5 0.000000 0.000000 0.000000 0.000000 -0.192573 0.000000
# 6 0.000000 0.000000 0.000000 0.000000 0.000000 0.068092
#
#
# Mechanical properties :
#
#
# Convention : Reuss Voigt Hill
#
# Bulk Modulus (GPa) = 31.59418 63.03156 47.31287
# Shear Modulus (GPa) = -30.62763 10.73761 -9.94501
#
# Velocity S-wave (km/s) = -4.10865 2.43274 -2.34123
# Velocity P-wave (km/s) = 2.25705 6.52932 4.33231
#
# Compressibility (1/GPa) = 0.03165140
#
# Stress axis : x y z
#
# Youngs Moduli (GPa) = 23.53108 54.40669 82.29975
#
# Poissons Ratio (x) = 0.09076 1.05673
# Poissons Ratio (y) = 0.03925 0.50861
# Poissons Ratio (z) = 0.30214 0.33623
#
# Static dielectric constant tensor:
#      x y z
#    x 1.597900 0.000000 0.000000 
#    y 0.000000 1.643260 0.000000 
#    z 0.000000 0.000000 1.631370 
# 
# From -- ./inp_files/2035.got.cif
#   From: 2010.05.17/outbox.cif.g08.bks.cpg/sg47_2_cif.got.tgz:2035.got - 2010.06.03 20:15:42.
