data_PCOD9388162
_publ_section_title
;
Structure prediction by ZEFSAII (Michael W. Deem and Ramdas Pophale) SiO2 
 PCOD9388162
Probable space group: P M M M
;
_chemical_formula_sum "Si O2"
_cell_formula_units_Z 48
_cell_length_a 9.663998
_cell_length_b 15.300893
_cell_length_c 17.731482
_cell_angle_alpha 90.000000
_cell_angle_beta 90.000000
_cell_angle_gamma 90.000000
_cell_volume 2621.915223
_symmetry_space_group_name_H-M "P M M M"
_symmetry_group_IT_number 47
_symmetry_cell_setting 'orthorhombic'
loop_
_space_group_symop_operation_xyz
x,y,z
-x,-y,z
x,-y,-z
-x,y,-z
-x,-y,-z
x,y,-z
-x,y,z
x,-y,z
loop_
_atom_site_type_symbol
_atom_site_label
_atom_site_fract_x
_atom_site_fract_y
_atom_site_fract_z
Si Si1 0.168060 0.902946 0.668787
Si Si2 0.849567 0.671929 0.500000
Si Si3 0.157431 0.877944 0.500000
Si Si4 0.351450 0.600899 0.618257
Si Si5 0.167185 0.774920 0.803445
Si Si6 0.658771 0.896594 0.089972
Si Si7 0.339357 0.600347 0.798932
O O1 0.220121 0.899958 0.581991
O O2 0.208217 0.822664 0.723616
O O3 0.000000 0.898301 0.664927
O O4 0.203594 0.000000 0.699785
O O5 0.855762 0.774823 0.500000
O O6 0.770209 0.645708 0.425191
O O7 0.000000 0.631041 0.500000
O O8 0.000000 0.912439 0.500000
O O9 0.500000 0.640469 0.597411
O O10 0.351696 0.500000 0.594298
O O11 0.339273 0.601092 0.707839
O O12 0.229751 0.840001 0.865770
O O13 0.238000 0.680486 0.817796
O O14 0.000000 0.768818 0.805683
O O15 0.500000 0.873517 0.112309
O O16 0.677217 0.000000 0.104138
O O17 0.669846 0.883318 0.000000
O O18 0.500000 0.615708 0.822810
O O19 0.301916 0.500000 0.822088
#
# Coordination Sequence:
#
# PCOD9388162 Si02
#       7
#     8   4   4   8   8   8   8
#     4   9  17  29  45  67  98 137 178 216 257 310
#     4  11  20  27  39  63  92 119 156 211 273 332
#     4   9  17  28  41  59  90 133 175 213 251 295
#     4   9  18  32  47  62  84 119 165 216 268 321
#     4  11  21  32  52  84 117 143 172 219 278 334
#     4   9  19  37  60  85 114 149 187 223 260 310
#     4   9  19  36  55  73  97 135 182 225 264 315
#
# _framework density 18.307227999999999
#
# number of rings (size 3 to 8) (size 9 to 14) (size 15 to 20)
#    0.000    2.500    0.000    4.250    0.000    6.000 
#    0.000    2.500    0.000    0.500    0.000    3.500 
#    0.000   12.000    0.000    0.000    0.000    0.000 
#
# Total GULP energy -267280.096902 kJ/mol
# GULP energy per Si atom -5568.335352 kJ/mol
# Density = 1.826556 g / cm^3
# Si number density = 18.307228 Si / 1000 Ang^3
#
#
#
# Elastic Constant Matrix: (Units=GPa)
#
#
# Indices 1 2 3 4 5 6 
#
# 1 86.1028 54.3098 27.2881 0.0000 0.0000 0.0000
# 2 54.3098 111.1507 28.4577 0.0000 0.0000 0.0000
# 3 27.2881 28.4577 45.9356 0.0000 0.0000 0.0000
# 4 0.0000 0.0000 0.0000 9.5563 0.0000 0.0000
# 5 0.0000 0.0000 0.0000 0.0000 25.6080 0.0000
# 6 0.0000 0.0000 0.0000 0.0000 0.0000 22.2667
#
#
#
# Elastic Compliance Matrix: (Units=1/GPa)
#
#
# Indices 1 2 3 4 5 6 
#
# 1 0.018204 -0.007281 -0.006304 0.000000 0.000000 0.000000
# 2 -0.007281 0.013605 -0.004103 0.000000 0.000000 0.000000
# 3 -0.006304 -0.004103 0.028056 0.000000 0.000000 0.000000
# 4 0.000000 0.000000 0.000000 0.104644 0.000000 0.000000
# 5 0.000000 0.000000 0.000000 0.000000 0.039050 0.000000
# 6 0.000000 0.000000 0.000000 0.000000 0.000000 0.044910
#
#
# Mechanical properties :
#
#
# Convention : Reuss Voigt Hill
#
# Bulk Modulus (GPa) = 40.83310 51.47782 46.15546
# Shear Modulus (GPa) = 17.12280 20.36175 18.74227
#
# Velocity S-wave (km/s) = 3.06159 3.33862 3.20310
# Velocity P-wave (km/s) = 5.90344 6.56062 6.24069
#
# Compressibility (1/GPa) = 0.02448994
#
# Stress axis : x y z
#
# Youngs Moduli (GPa) = 54.93199 73.50290 35.64275
#
# Poissons Ratio (x) = 0.53517 0.22468
# Poissons Ratio (y) = 0.39996 0.14625
# Poissons Ratio (z) = 0.34627 0.30159
#
# Static dielectric constant tensor:
#      x y z
#    x 1.641960 0.000000 0.000000 
#    y 0.000000 1.651240 0.000000 
#    z 0.000000 0.000000 1.635670 
# 
# From -- ./inp_files/26510.got.cif
#   From: 2010.05.17/outbox.cif.g08.bks.cpg/sg47_14_cif.got.tgz:26510.got - 2010.06.03 20:15:42.
