data_PCOD9388247
_publ_section_title
;
Structure prediction by ZEFSAII (Michael W. Deem and Ramdas Pophale) SiO2 
 PCOD9388247
Probable space group: P M M M
;
_chemical_formula_sum "Si O2"
_cell_formula_units_Z 56
_cell_length_a 7.731773
_cell_length_b 15.312656
_cell_length_c 24.032258
_cell_angle_alpha 90.000000
_cell_angle_beta 90.000000
_cell_angle_gamma 90.000000
_cell_volume 2845.274678
_symmetry_space_group_name_H-M "P M M M"
_symmetry_group_IT_number 47
_symmetry_cell_setting 'orthorhombic'
loop_
_space_group_symop_operation_xyz
x,y,z
-x,-y,z
x,-y,-z
-x,y,-z
-x,-y,-z
x,y,-z
-x,y,z
x,-y,z
loop_
_atom_site_type_symbol
_atom_site_label
_atom_site_fract_x
_atom_site_fract_y
_atom_site_fract_z
Si Si1 0.788198 0.724596 0.061780
Si Si2 0.208989 0.599727 0.839098
Si Si3 0.209171 0.900563 0.242630
Si Si4 0.210974 0.902336 0.885465
Si Si5 0.298909 0.229265 0.340769
Si Si6 0.206657 0.902780 0.562744
Si Si7 0.292751 0.401036 0.712572
O O1 0.729460 0.662388 0.111779
O O2 0.733692 0.823405 0.075639
O O3 0.000000 0.723189 0.062349
O O4 0.733247 0.697895 0.000000
O O5 0.267526 0.500000 0.847808
O O6 0.261139 0.625582 0.776765
O O7 0.000000 0.600524 0.840372
O O8 0.261333 0.884315 0.178694
O O9 0.275396 0.830885 0.286323
O O10 0.000000 0.897666 0.244418
O O11 0.261273 0.000000 0.257090
O O12 0.000000 0.903514 0.886056
O O13 0.268699 0.000000 0.900642
O O14 0.500000 0.243863 0.349971
O O15 0.239156 0.172700 0.393068
O O16 0.221059 0.324491 0.326859
O O17 0.271961 0.885177 0.500000
O O18 0.000000 0.909227 0.559277
O O19 0.270503 0.000000 0.580119
O O20 0.500000 0.405525 0.705376
O O21 0.224168 0.500000 0.704873
#
# Coordination Sequence:
#
# PCOD9388247 Si02
#       7
#     8   8   8   8   8   8   8
#     4   9  16  24  36  57  84 112 142 181 230 277
#     4   9  17  29  46  67  88 112 146 187 231 281
#     4   9  17  29  45  65  92 126 157 186 229 285
#     4   8  14  24  37  54  78 111 150 185 217 263
#     4  11  21  30  47  75 100 123 155 197 240 275
#     4   9  19  36  55  74 100 136 170 192 217 262
#     4   9  19  35  51  68  94 126 157 191 235 286
#
# _framework density 19.681754999999999
#
# number of rings (size 3 to 8) (size 9 to 14) (size 15 to 20)
#    0.000    2.857    0.000    3.000    0.000    5.429 
#    0.000    3.571    0.000    0.857    0.000    5.000 
#    0.000    0.000    0.000   12.286    0.000   10.000 
#
# Total GULP energy -312319.104058 kJ/mol
# GULP energy per Si atom -5577.126858 kJ/mol
# Density = 1.963696 g / cm^3
# Si number density = 19.681755 Si / 1000 Ang^3
#
#
#
# Elastic Constant Matrix: (Units=GPa)
#
#
# Indices 1 2 3 4 5 6 
#
# 1 26.4687 8.8226 8.1154 0.0000 0.0000 0.0000
# 2 8.8226 135.9052 96.7653 0.0000 0.0000 0.0000
# 3 8.1154 96.7653 97.8745 0.0000 0.0000 0.0000
# 4 0.0000 0.0000 0.0000 21.6613 0.0000 0.0000
# 5 0.0000 0.0000 0.0000 0.0000 60.5743 0.0000
# 6 0.0000 0.0000 0.0000 0.0000 0.0000 13.2221
#
#
#
# Elastic Compliance Matrix: (Units=1/GPa)
#
#
# Indices 1 2 3 4 5 6 
#
# 1 0.038790 -0.000770 -0.002455 0.000000 0.000000 0.000000
# 2 -0.000770 0.024868 -0.024523 0.000000 0.000000 0.000000
# 3 -0.002455 -0.024523 0.034665 0.000000 0.000000 0.000000
# 4 0.000000 0.000000 0.000000 0.046165 0.000000 0.000000
# 5 0.000000 0.000000 0.000000 0.000000 0.016509 0.000000
# 6 0.000000 0.000000 0.000000 0.000000 0.000000 0.075631
#
#
# Mechanical properties :
#
#
# Convention : Reuss Voigt Hill
#
# Bulk Modulus (GPa) = 23.34905 54.18388 38.76647
# Shear Modulus (GPa) = 16.31853 28.86120 22.58987
#
# Velocity S-wave (km/s) = 2.88257 3.83351 3.39153
# Velocity P-wave (km/s) = 4.79249 6.86907 5.92250
#
# Compressibility (1/GPa) = 0.04282829
#
# Stress axis : x y z
#
# Youngs Moduli (GPa) = 25.77991 40.21169 28.84714
#
# Poissons Ratio (x) = 0.03098 0.07081
# Poissons Ratio (y) = 0.01986 0.70741
# Poissons Ratio (z) = 0.06328 0.98610
#
# Static dielectric constant tensor:
#      x y z
#    x 1.736840 0.000000 0.000000 
#    y 0.000000 1.726930 0.000000 
#    z 0.000000 0.000000 1.674870 
# 
# From -- ./inp_files/21581.got.cif
#   From: 2010.05.17/outbox.cif.g08.bks.cpg/sg47_11_cif.got.tgz:21581.got - 2010.06.03 20:15:42.
