data_PCOD9388378
_publ_section_title
;
Structure prediction by ZEFSAII (Michael W. Deem and Ramdas Pophale) SiO2 
 PCOD9388378
Probable space group: P M M M
;
_chemical_formula_sum "Si O2"
_cell_formula_units_Z 37
_cell_length_a 10.171913
_cell_length_b 7.856790
_cell_length_c 23.393733
_cell_angle_alpha 90.000000
_cell_angle_beta 90.000000
_cell_angle_gamma 90.000000
_cell_volume 1869.594024
_symmetry_space_group_name_H-M "P M M M"
_symmetry_group_IT_number 47
_symmetry_cell_setting 'orthorhombic'
loop_
_space_group_symop_operation_xyz
x,y,z
-x,-y,z
x,-y,-z
-x,y,-z
-x,-y,-z
x,y,-z
-x,y,z
x,-y,z
loop_
_atom_site_type_symbol
_atom_site_label
_atom_site_fract_x
_atom_site_fract_y
_atom_site_fract_z
Si Si1 0.500000 0.000000 0.500000
Si Si2 0.157904 0.802496 0.226708
Si Si3 0.500000 0.688095 0.409782
Si Si4 0.848988 0.794440 0.101233
Si Si5 0.348853 0.297421 0.000000
Si Si6 0.240068 0.795730 0.350703
Si Si7 0.000000 0.704333 0.566414
O O1 0.500000 0.848814 0.451493
O O2 0.190371 0.728002 0.164458
O O3 0.204612 0.731090 0.287174
O O4 0.000000 0.802910 0.228917
O O5 0.202198 0.000000 0.225806
O O6 0.500000 0.500000 0.436435
O O7 0.370632 0.707437 0.372014
O O8 0.000000 0.737309 0.087547
O O9 0.856368 0.000000 0.104892
O O10 0.739812 0.752717 0.054532
O O11 0.358566 0.500000 0.000000
O O12 0.500000 0.229504 0.000000
O O13 0.125846 0.762794 0.397145
O O14 0.257539 0.000000 0.348252
O O15 0.000000 0.500000 0.564759
O O16 0.000000 0.764891 0.500000
#
# Coordination Sequence:
#
# PCOD9388378 Si02
#       7
#     1   8   4   8   4   8   4
#     4  12  26  52  68  92 120 172 218 260 324 390
#     4   8  15  32  61  92 120 153 196 250 305 362
#     4  12  27  45  67  94 127 166 213 266 319 383
#     4   9  18  35  62  91 114 147 201 255 301 357
#     4  11  24  39  52  76 122 167 198 243 304 362
#     4  11  21  41  65  92 124 166 210 256 315 382
#     4  11  25  39  57  89 127 164 209 262 314 366
#
# _framework density 19.790393000000002
#
# number of rings (size 3 to 8) (size 9 to 14) (size 15 to 20)
#    0.000    1.946    2.162    3.081    1.514    3.459 
#    1.946    2.162    0.000    0.000    0.000    0.000 
#    0.000    0.000    0.000    0.000    0.000    0.000 
#
# Total GULP energy -206076.772868 kJ/mol
# GULP energy per Si atom -5569.642510 kJ/mol
# Density = 1.974535 g / cm^3
# Si number density = 19.790393 Si / 1000 Ang^3
#
#
#
# Elastic Constant Matrix: (Units=GPa)
#
#
# Indices 1 2 3 4 5 6 
#
# 1 137.0205 17.5715 101.6119 0.0000 0.0000 0.0000
# 2 17.5715 81.3588 30.9384 0.0000 0.0000 0.0000
# 3 101.6119 30.9384 216.6774 0.0000 0.0000 0.0000
# 4 0.0000 0.0000 0.0000 8.4720 0.0000 0.0000
# 5 0.0000 0.0000 0.0000 0.0000 -113.9727 0.0000
# 6 0.0000 0.0000 0.0000 0.0000 0.0000 26.8596
#
#
#
# Elastic Compliance Matrix: (Units=1/GPa)
#
#
# Indices 1 2 3 4 5 6 
#
# 1 0.011205 -0.000446 -0.005191 0.000000 0.000000 0.000000
# 2 -0.000446 0.013015 -0.001649 0.000000 0.000000 0.000000
# 3 -0.005191 -0.001649 0.007285 0.000000 0.000000 0.000000
# 4 0.000000 0.000000 0.000000 0.118036 0.000000 0.000000
# 5 0.000000 0.000000 0.000000 0.000000 -0.008774 0.000000
# 6 0.000000 0.000000 0.000000 0.000000 0.000000 0.037231
#
#
# Mechanical properties :
#
#
# Convention : Reuss Voigt Hill
#
# Bulk Modulus (GPa) = 59.05854 81.70002 70.37928
# Shear Modulus (GPa) = 25.22541 3.26745 14.24643
#
# Velocity S-wave (km/s) = 3.57407 1.28632 2.68594
# Velocity P-wave (km/s) = 6.85119 6.60140 6.72745
#
# Compressibility (1/GPa) = 0.01693235
#
# Stress axis : x y z
#
# Youngs Moduli (GPa) = 89.24717 76.83625 137.27001
#
# Poissons Ratio (x) = 0.03427 0.71255
# Poissons Ratio (y) = 0.03981 0.22638
# Poissons Ratio (z) = 0.46327 0.12671
#
# Static dielectric constant tensor:
#      x y z
#    x 1.663380 0.000000 0.000000 
#    y 0.000000 1.717310 0.000000 
#    z 0.000000 0.000000 1.741060 
# 
# From -- ./inp_files/31734.got.cif
#   From: 2010.05.17/outbox.cif.g08.bks.cpg/sg47_16_cif.got.tgz:31734.got - 2010.06.03 20:15:42.
