data_PCOD9388453
_publ_section_title
;
Structure prediction by ZEFSAII (Michael W. Deem and Ramdas Pophale) SiO2 
 PCOD9388453
Probable space group: P M M M
;
_chemical_formula_sum "Si O2"
_cell_formula_units_Z 45
_cell_length_a 8.508809
_cell_length_b 26.640197
_cell_length_c 11.974555
_cell_angle_alpha 90.000000
_cell_angle_beta 90.000000
_cell_angle_gamma 90.000000
_cell_volume 2714.348396
_symmetry_space_group_name_H-M "P M M M"
_symmetry_group_IT_number 47
_symmetry_cell_setting 'orthorhombic'
loop_
_space_group_symop_operation_xyz
x,y,z
-x,-y,z
x,-y,-z
-x,y,-z
-x,-y,-z
x,y,-z
-x,y,z
x,-y,z
loop_
_atom_site_type_symbol
_atom_site_label
_atom_site_fract_x
_atom_site_fract_y
_atom_site_fract_z
Si Si1 0.179639 0.845433 0.635347
Si Si2 0.815328 0.259255 0.761688
Si Si3 0.311589 0.605607 0.000000
Si Si4 0.687572 0.646381 0.373123
Si Si5 0.188103 0.442814 0.227723
Si Si6 0.500000 0.000000 0.500000
Si Si7 0.311930 0.722646 0.000000
Si Si8 0.500000 0.896011 0.623744
O O1 0.177548 0.843711 0.500000
O O2 0.205749 0.790458 0.687335
O O3 0.330912 0.878812 0.672152
O O4 0.000000 0.861795 0.667992
O O5 0.734762 0.306811 0.703688
O O6 0.000000 0.269890 0.768717
O O7 0.749922 0.252886 0.886376
O O8 0.250793 0.578094 0.110188
O O9 0.260597 0.663965 0.000000
O O10 0.500000 0.604974 0.000000
O O11 0.742523 0.654695 0.500000
O O12 0.500000 0.642530 0.372635
O O13 0.756046 0.595497 0.322205
O O14 0.242276 0.500000 0.245602
O O15 0.000000 0.442625 0.223956
O O16 0.500000 0.954985 0.595676
O O17 0.500000 0.723642 0.000000
O O18 0.500000 0.870680 0.500000
#
# Coordination Sequence:
#
# PCOD9388453 Si02
#       8
#     8   8   4   8   8   1   4   4
#     4   9  18  32  51  79 112 152 193 230 276 326
#     4  11  22  36  56  79 108 143 183 226 274 331
#     4  11  22  38  59  80 103 130 166 217 267 337
#     4  11  24  39  56  79 104 134 175 216 270 334
#     4  11  24  40  59  80 101 129 168 218 274 331
#     4   8  16  32  50  88 116 168 212 228 284 316
#     4  11  23  36  54  81 109 138 178 220 277 334
#     4   8  16  30  50  75 117 155 194 233 268 314
#
# _framework density 16.578562999999999
#
# number of rings (size 3 to 8) (size 9 to 14) (size 15 to 20)
#    0.267    1.422    1.778    2.933    2.489    5.689 
#    0.000    2.667    0.000    0.000    0.000    0.000 
#    0.000    1.422    0.000    4.000    0.000    0.000 
#
# Total GULP energy -250662.445922 kJ/mol
# GULP energy per Si atom -5570.276576 kJ/mol
# Density = 1.654083 g / cm^3
# Si number density = 16.578563 Si / 1000 Ang^3
#
#
#
# Elastic Constant Matrix: (Units=GPa)
#
#
# Indices 1 2 3 4 5 6 
#
# 1 84.3530 45.0607 16.0342 0.0000 0.0000 0.0000
# 2 45.0607 69.2849 8.1827 0.0000 0.0000 0.0000
# 3 16.0342 8.1827 65.2712 0.0000 0.0000 0.0000
# 4 0.0000 0.0000 0.0000 -7.4197 0.0000 0.0000
# 5 0.0000 0.0000 0.0000 0.0000 28.7575 0.0000
# 6 0.0000 0.0000 0.0000 0.0000 0.0000 5.7636
#
#
#
# Elastic Compliance Matrix: (Units=1/GPa)
#
#
# Indices 1 2 3 4 5 6 
#
# 1 0.018775 -0.011841 -0.003128 0.000000 0.000000 0.000000
# 2 -0.011841 0.022118 0.000136 0.000000 0.000000 0.000000
# 3 -0.003128 0.000136 0.016072 0.000000 0.000000 0.000000
# 4 0.000000 0.000000 0.000000 -0.134777 0.000000 0.000000
# 5 0.000000 0.000000 0.000000 0.000000 0.034774 0.000000
# 6 0.000000 0.000000 0.000000 0.000000 0.000000 0.173501
#
#
# Mechanical properties :
#
#
# Convention : Reuss Voigt Hill
#
# Bulk Modulus (GPa) = 36.63091 39.71825 38.17458
# Shear Modulus (GPa) = 29.54585 15.39572 22.47079
#
# Velocity S-wave (km/s) = 4.22616 3.05069 3.68559
# Velocity P-wave (km/s) = 6.77917 6.03478 6.41778
#
# Compressibility (1/GPa) = 0.02729935
#
# Stress axis : x y z
#
# Youngs Moduli (GPa) = 53.26247 45.21156 62.22007
#
# Poissons Ratio (x) = 0.53536 0.19460
# Poissons Ratio (y) = 0.63069 -0.00846
# Poissons Ratio (z) = 0.16659 -0.00615
#
# Static dielectric constant tensor:
#      x y z
#    x 1.588160 0.000000 0.000000 
#    y 0.000000 1.524920 0.000000 
#    z 0.000000 0.000000 1.553760 
# 
# From -- ./inp_files/15361.got.cif
#   From: 2010.05.17/outbox.cif.g08.bks.cpg/sg47_8_cif.got.tgz:15361.got - 2010.06.03 20:15:42.
