data_PCOD9388273
_publ_section_title
;
Structure prediction by ZEFSAII (Michael W. Deem and Ramdas Pophale) SiO2 
 PCOD9388273
Probable space group: P M M M
;
_chemical_formula_sum "Si O2"
_cell_formula_units_Z 40
_cell_length_a 13.110381
_cell_length_b 24.430435
_cell_length_c 8.194796
_cell_angle_alpha 90.000000
_cell_angle_beta 90.000000
_cell_angle_gamma 90.000000
_cell_volume 2624.730148
_symmetry_space_group_name_H-M "P M M M"
_symmetry_group_IT_number 47
_symmetry_cell_setting 'orthorhombic'
loop_
_space_group_symop_operation_xyz
x,y,z
-x,-y,z
x,-y,-z
-x,y,-z
-x,-y,-z
x,y,-z
-x,y,z
x,-y,z
loop_
_atom_site_type_symbol
_atom_site_label
_atom_site_fract_x
_atom_site_fract_y
_atom_site_fract_z
Si Si1 0.124380 0.563396 0.500000
Si Si2 0.121203 0.249090 0.304041
Si Si3 0.124052 0.631581 0.817592
Si Si4 0.805948 0.867676 0.305660
Si Si5 0.616165 0.937561 0.197014
Si Si6 0.000000 0.062226 0.194716
O O1 0.154848 0.500000 0.500000
O O2 0.157838 0.594332 0.665311
O O3 0.000000 0.565075 0.500000
O O4 0.134211 0.256136 0.500000
O O5 0.152090 0.305376 0.218005
O O6 0.178467 0.194584 0.246278
O O7 0.000000 0.240407 0.276538
O O8 0.000000 0.629941 0.816158
O O9 0.157009 0.614867 0.000000
O O10 0.812805 0.865139 0.500000
O O11 0.700217 0.895447 0.256811
O O12 0.899451 0.905083 0.246743
O O13 0.500000 0.925353 0.249384
O O14 0.640803 0.000000 0.249633
O O15 0.617414 0.937454 0.000000
O O16 0.000000 0.000000 0.259964
O O17 0.000000 0.059306 0.000000
#
# Coordination Sequence:
#
# PCOD9388273 Si02
#       6
#     4   8   8   8   8   4
#     4   9  16  26  38  54  80 112 145 190 229 255
#     4   9  16  29  43  57  86 116 142 180 229 274
#     4   9  16  25  39  57  77 110 149 185 225 266
#     4  11  21  32  48  70  90 113 146 190 235 278
#     4   9  19  36  53  66  85 115 149 186 230 283
#     4  11  23  35  45  61  91 123 147 180 229 284
#
# _framework density 15.239661999999999
#
# number of rings (size 3 to 8) (size 9 to 14) (size 15 to 20)
#    0.000    2.400    2.000    2.100    0.000    6.000 
#    0.000    3.000    0.000    0.000    0.000    0.000 
#    0.000    0.000    0.000    0.000    0.000    2.000 
#
# Total GULP energy -222967.088409 kJ/mol
# GULP energy per Si atom -5574.177210 kJ/mol
# Density = 1.520498 g / cm^3
# Si number density = 15.239662 Si / 1000 Ang^3
#
#
#
# Elastic Constant Matrix: (Units=GPa)
#
#
# Indices 1 2 3 4 5 6 
#
# 1 43.8662 37.6459 21.7372 0.0000 0.0000 0.0000
# 2 37.6459 128.3152 59.4587 0.0000 0.0000 0.0000
# 3 21.7372 59.4587 76.8297 0.0000 0.0000 0.0000
# 4 0.0000 0.0000 0.0000 -28.0826 0.0000 0.0000
# 5 0.0000 0.0000 0.0000 0.0000 23.2686 0.0000
# 6 0.0000 0.0000 0.0000 0.0000 0.0000 11.5286
#
#
#
# Elastic Compliance Matrix: (Units=1/GPa)
#
#
# Indices 1 2 3 4 5 6 
#
# 1 0.030819 -0.007798 -0.002685 0.000000 0.000000 0.000000
# 2 -0.007798 0.014124 -0.008724 0.000000 0.000000 0.000000
# 3 -0.002685 -0.008724 0.020527 0.000000 0.000000 0.000000
# 4 0.000000 0.000000 0.000000 -0.035609 0.000000 0.000000
# 5 0.000000 0.000000 0.000000 0.000000 0.042976 0.000000
# 6 0.000000 0.000000 0.000000 0.000000 0.000000 0.086741
#
#
# Mechanical properties :
#
#
# Convention : Reuss Voigt Hill
#
# Bulk Modulus (GPa) = 36.95995 54.07718 45.51856
# Shear Modulus (GPa) = 24.15342 10.02088 17.08715
#
# Velocity S-wave (km/s) = 3.98541 2.56706 3.35211
# Velocity P-wave (km/s) = 6.74411 6.65942 6.70190
#
# Compressibility (1/GPa) = 0.02705632
#
# Stress axis : x y z
#
# Youngs Moduli (GPa) = 32.44740 70.80311 48.71626
#
# Poissons Ratio (x) = 0.55211 0.13079
# Poissons Ratio (y) = 0.25302 0.42501
# Poissons Ratio (z) = 0.08711 0.61770
#
# Static dielectric constant tensor:
#      x y z
#    x 1.416450 0.000000 0.000000 
#    y 0.000000 1.518550 0.000000 
#    z 0.000000 0.000000 1.540340 
# 
# From -- ./inp_files/4117.got.cif
#   From: 2010.05.17/outbox.cif.g08.bks.cpg/sg47_3_cif.got.tgz:4117.got - 2010.06.03 20:15:42.
