data_PCOD9388043
_publ_section_title
;
Structure prediction by ZEFSAII (Michael W. Deem and Ramdas Pophale) SiO2 
 PCOD9388043
Probable space group: P M M M
;
_chemical_formula_sum "Si O2"
_cell_formula_units_Z 40
_cell_length_a 23.754491
_cell_length_b 10.801125
_cell_length_c 7.680691
_cell_angle_alpha 90.000000
_cell_angle_beta 90.000000
_cell_angle_gamma 90.000000
_cell_volume 1970.675034
_symmetry_space_group_name_H-M "P M M M"
_symmetry_group_IT_number 47
_symmetry_cell_setting 'orthorhombic'
loop_
_space_group_symop_operation_xyz
x,y,z
-x,-y,z
x,-y,-z
-x,y,-z
-x,-y,-z
x,y,-z
-x,y,z
x,-y,z
loop_
_atom_site_type_symbol
_atom_site_label
_atom_site_fract_x
_atom_site_fract_y
_atom_site_fract_z
Si Si1 0.500000 0.144687 0.697395
Si Si2 0.615140 0.762108 0.704060
Si Si3 0.567022 0.500000 0.790101
Si Si4 0.814704 0.357705 0.795006
Si Si5 0.060571 0.646370 0.709386
Si Si6 0.736191 0.859821 0.204096
O O1 0.500000 0.201587 0.500000
O O2 0.441880 0.181753 0.783521
O O3 0.500000 0.000000 0.679088
O O4 0.618299 0.796041 0.500000
O O5 0.601995 0.617676 0.724453
O O6 0.671938 0.813762 0.784302
O O7 0.500000 0.500000 0.735789
O O8 0.566672 0.500000 0.000000
O O9 0.810281 0.500000 0.723462
O O10 0.879211 0.311552 0.777953
O O11 0.774168 0.251634 0.719175
O O12 0.801681 0.368518 0.000000
O O13 0.062008 0.657221 0.500000
O O14 0.059301 0.500000 0.752065
O O15 0.000000 0.698988 0.769438
O O16 0.741910 0.000000 0.276682
O O17 0.751303 0.868333 0.000000
#
# Coordination Sequence:
#
# PCOD9388043 Si02
#       6
#     4   8   4   8   8   8
#     4   9  18  33  53  76 104 135 168 217 274 321
#     4  11  22  37  58  82 109 139 180 226 272 325
#     4  11  23  39  59  83 113 143 172 213 274 335
#     4   9  18  32  51  76 105 139 179 224 269 316
#     4   8  14  26  46  74 107 138 169 213 268 321
#     4  10  22  39  56  77 109 148 186 226 276 330
#
# _framework density 20.297612999999998
#
# number of rings (size 3 to 8) (size 9 to 14) (size 15 to 20)
#    0.000    2.400    1.000    2.100    1.400    2.800 
#    0.000    2.000    0.000    3.000    0.000    4.200 
#    0.000    0.000    0.000    0.000    0.000    0.000 
#
# Total GULP energy -222803.554365 kJ/mol
# GULP energy per Si atom -5570.088859 kJ/mol
# Density = 2.025142 g / cm^3
# Si number density = 20.297613 Si / 1000 Ang^3
#
#
#
# Elastic Constant Matrix: (Units=GPa)
#
#
# Indices 1 2 3 4 5 6 
#
# 1 152.3061 80.2775 -1.9803 0.0000 0.0000 0.0000
# 2 80.2775 125.8635 -1.8829 0.0000 0.0000 0.0000
# 3 -1.9803 -1.8829 37.6123 0.0000 0.0000 0.0000
# 4 0.0000 0.0000 0.0000 -5.1934 0.0000 0.0000
# 5 0.0000 0.0000 0.0000 0.0000 51.2995 0.0000
# 6 0.0000 0.0000 0.0000 0.0000 0.0000 -18.4956
#
#
#
# Elastic Compliance Matrix: (Units=1/GPa)
#
#
# Indices 1 2 3 4 5 6 
#
# 1 0.009892 -0.006306 0.000205 0.000000 0.000000 0.000000
# 2 -0.006306 0.011971 0.000267 0.000000 0.000000 0.000000
# 3 0.000205 0.000267 0.026611 0.000000 0.000000 0.000000
# 4 0.000000 0.000000 0.000000 -0.192553 0.000000 0.000000
# 5 0.000000 0.000000 0.000000 0.000000 0.019493 0.000000
# 6 0.000000 0.000000 0.000000 0.000000 0.000000 -0.054067
#
#
# Mechanical properties :
#
#
# Convention : Reuss Voigt Hill
#
# Bulk Modulus (GPa) = 27.16877 52.06784 39.61830
# Shear Modulus (GPa) = -32.31756 21.47994 -5.41881
#
# Velocity S-wave (km/s) = -3.99455 3.25660 -1.63569
# Velocity P-wave (km/s) = 2.80374 6.31257 3.99922
#
# Compressibility (1/GPa) = 0.03680697
#
# Stress axis : x y z
#
# Youngs Moduli (GPa) = 101.08793 83.53221 37.57812
#
# Poissons Ratio (x) = 0.52679 -0.00771
# Poissons Ratio (y) = 0.63750 -0.01004
# Poissons Ratio (z) = -0.02074 -0.02232
#
# Static dielectric constant tensor:
#      x y z
#    x 1.743420 0.000000 0.000000 
#    y 0.000000 1.861840 0.000000 
#    z 0.000000 0.000000 1.760570 
# 
# From -- ./inp_files/10678.got.cif
#   From: 2010.05.17/outbox.cif.g08.bks.cpg/sg47_6_cif.got.tgz:10678.got - 2010.06.03 20:15:42.
