data_PCOD9388489
_publ_section_title
;
Structure prediction by ZEFSAII (Michael W. Deem and Ramdas Pophale) SiO2 
 PCOD9388489
Probable space group: P M M M
;
_chemical_formula_sum "Si O2"
_cell_formula_units_Z 48
_cell_length_a 8.765537
_cell_length_b 29.518257
_cell_length_c 10.298977
_cell_angle_alpha 90.000000
_cell_angle_beta 90.000000
_cell_angle_gamma 90.000000
_cell_volume 2664.792057
_symmetry_space_group_name_H-M "P M M M"
_symmetry_group_IT_number 47
_symmetry_cell_setting 'orthorhombic'
loop_
_space_group_symop_operation_xyz
x,y,z
-x,-y,z
x,-y,-z
-x,y,-z
-x,-y,-z
x,y,-z
-x,y,z
x,-y,z
loop_
_atom_site_type_symbol
_atom_site_label
_atom_site_fract_x
_atom_site_fract_y
_atom_site_fract_z
Si Si1 0.817014 0.700273 0.347858
Si Si2 0.317020 0.395212 0.259487
Si Si3 0.816082 0.948261 0.649235
Si Si4 0.823964 0.446049 0.500000
Si Si5 0.316275 0.877938 0.147276
Si Si6 0.314176 0.552459 0.000000
Si Si7 0.684169 0.227336 0.850470
O O1 0.769077 0.703738 0.500000
O O2 0.753243 0.653877 0.286850
O O3 0.757018 0.740907 0.257965
O O4 0.000000 0.699451 0.345536
O O5 0.500000 0.391255 0.258677
O O6 0.261732 0.427065 0.375392
O O7 0.267297 0.419396 0.126571
O O8 0.769851 0.938972 0.500000
O O9 0.750810 0.911986 0.748259
O O10 0.000000 0.946884 0.653450
O O11 0.769232 0.000000 0.680858
O O12 0.823496 0.500000 0.500000
O O13 0.000000 0.429876 0.500000
O O14 0.500000 0.880045 0.151679
O O15 0.273994 0.825384 0.170424
O O16 0.268291 0.889724 0.000000
O O17 0.261831 0.500000 0.000000
O O18 0.500000 0.550911 0.000000
O O19 0.500000 0.230839 0.842996
O O20 0.726992 0.239449 0.000000
#
# Coordination Sequence:
#
# PCOD9388489 Si02
#       7
#     8   8   8   4   8   4   8
#     4  11  24  40  57  82 117 149 182 229 283 335
#     4  11  22  38  62  87 112 148 190 230 276 332
#     4   9  19  35  53  76 110 151 192 233 278 332
#     4  11  23  39  59  85 119 153 185 229 280 327
#     4   9  19  36  56  81 112 144 182 233 286 334
#     4   9  20  38  59  87 117 141 179 233 276 319
#     4   9  20  39  61  83 110 145 187 232 279 335
#
# _framework density 18.012661999999999
#
# number of rings (size 3 to 8) (size 9 to 14) (size 15 to 20)
#    0.000    2.167    0.833    3.250    1.167    5.333 
#    0.000    8.750    0.000    3.000    0.000    0.000 
#    0.000    0.000    0.000    0.000    0.000    0.000 
#
# Total GULP energy -267927.268722 kJ/mol
# GULP energy per Si atom -5581.818098 kJ/mol
# Density = 1.797166 g / cm^3
# Si number density = 18.012662 Si / 1000 Ang^3
#
#
#
# Elastic Constant Matrix: (Units=GPa)
#
#
# Indices 1 2 3 4 5 6 
#
# 1 34.1165 43.0773 46.7237 0.0000 0.0000 0.0000
# 2 43.0773 145.1743 124.9080 0.0000 0.0000 0.0000
# 3 46.7237 124.9080 193.1662 0.0000 0.0000 0.0000
# 4 0.0000 0.0000 0.0000 79.1472 0.0000 0.0000
# 5 0.0000 0.0000 0.0000 0.0000 90.5786 0.0000
# 6 0.0000 0.0000 0.0000 0.0000 0.0000 37.3548
#
#
#
# Elastic Compliance Matrix: (Units=1/GPa)
#
#
# Indices 1 2 3 4 5 6 
#
# 1 0.049394 -0.009866 -0.005568 0.000000 0.000000 0.000000
# 2 -0.009866 0.017498 -0.008928 0.000000 0.000000 0.000000
# 3 -0.005568 -0.008928 0.012297 0.000000 0.000000 0.000000
# 4 0.000000 0.000000 0.000000 0.012635 0.000000 0.000000
# 5 0.000000 0.000000 0.000000 0.000000 0.011040 0.000000
# 6 0.000000 0.000000 0.000000 0.000000 0.000000 0.026770
#
#
# Mechanical properties :
#
#
# Convention : Reuss Voigt Hill
#
# Bulk Modulus (GPa) = 32.82504 89.09724 60.96114
# Shear Modulus (GPa) = 26.52342 51.93264 39.22803
#
# Velocity S-wave (km/s) = 3.84146 5.37529 4.67176
# Velocity P-wave (km/s) = 6.15944 9.38595 7.93835
#
# Compressibility (1/GPa) = 0.03046455
#
# Stress axis : x y z
#
# Youngs Moduli (GPa) = 20.24530 57.15092 81.32135
#
# Poissons Ratio (x) = 0.56385 0.45279
# Poissons Ratio (y) = 0.19974 0.72604
# Poissons Ratio (z) = 0.11272 0.51025
#
# Static dielectric constant tensor:
#      x y z
#    x 1.611380 0.000000 0.000000 
#    y 0.000000 1.598200 0.000000 
#    z 0.000000 0.000000 1.595820 
# 
# From -- ./inp_files/2537.got.cif
#   From: 2010.05.17/outbox.cif.g08.bks.cpg/sg47_2_cif.got.tgz:2537.got - 2010.06.03 20:15:42.
