data_PCOD9388299
_publ_section_title
;
Structure prediction by ZEFSAII (Michael W. Deem and Ramdas Pophale) SiO2 
 PCOD9388299
Probable space group: P M M M
;
_chemical_formula_sum "Si O2"
_cell_formula_units_Z 52
_cell_length_a 22.255596
_cell_length_b 7.742388
_cell_length_c 14.032801
_cell_angle_alpha 90.000000
_cell_angle_beta 90.000000
_cell_angle_gamma 90.000000
_cell_volume 2418.012420
_symmetry_space_group_name_H-M "P M M M"
_symmetry_group_IT_number 47
_symmetry_cell_setting 'orthorhombic'
loop_
_space_group_symop_operation_xyz
x,y,z
-x,-y,z
x,-y,-z
-x,y,-z
-x,-y,-z
x,y,-z
-x,y,z
x,-y,z
loop_
_atom_site_type_symbol
_atom_site_label
_atom_site_fract_x
_atom_site_fract_y
_atom_site_fract_z
Si Si1 0.874273 0.699918 0.300198
Si Si2 0.000000 0.808759 0.386596
Si Si3 0.433795 0.710823 0.194298
Si Si4 0.744784 0.288293 0.694463
Si Si5 0.068899 0.791899 0.893280
Si Si6 0.691011 0.289457 0.894827
Si Si7 0.619995 0.289140 0.394557
O O1 0.864983 0.500000 0.313960
O O2 0.936473 0.738052 0.352558
O O3 0.810858 0.779669 0.332123
O O4 0.886952 0.734121 0.189096
O O5 0.000000 0.807580 0.500000
O O6 0.000000 0.000000 0.345244
O O7 0.500000 0.768908 0.164925
O O8 0.433718 0.500000 0.193027
O O9 0.377496 0.763557 0.129565
O O10 0.419382 0.763590 0.303411
O O11 0.743443 0.500000 0.692304
O O12 0.730329 0.236720 0.803742
O O13 0.688557 0.235625 0.629541
O O14 0.000000 0.734987 0.872143
O O15 0.068190 0.000000 0.893882
O O16 0.084199 0.732503 0.000000
O O17 0.692129 0.500000 0.895738
O O18 0.709442 0.229806 0.000000
O O19 0.601768 0.230854 0.500000
O O20 0.618579 0.500000 0.395210
#
# Coordination Sequence:
#
# PCOD9388299 Si02
#       7
#     8   4   8   8   8   8   8
#     4  11  21  33  53  79 101 121 154 205 252 286
#     4  11  25  43  58  71  94 129 161 190 236 301
#     4   8  13  19  27  44  68  95 139 193 229 258
#     4   8  16  27  38  58  85 109 138 181 233 282
#     4   9  18  33  52  72  98 132 160 183 224 287
#     4   8  13  22  34  47  72 111 145 175 218 269
#     4   8  13  22  34  46  67 103 140 176 227 283
#
# _framework density 21.505265000000001
#
# number of rings (size 3 to 8) (size 9 to 14) (size 15 to 20)
#    0.000    3.154    0.769    3.000    0.000    2.769 
#    0.000    6.923    0.000    0.000    0.000    0.000 
#    0.000    0.000    0.000    0.000    0.000   49.231 
#
# Total GULP energy -289838.944958 kJ/mol
# GULP energy per Si atom -5573.825865 kJ/mol
# Density = 2.145632 g / cm^3
# Si number density = 21.505265 Si / 1000 Ang^3
#
#
#
# Elastic Constant Matrix: (Units=GPa)
#
#
# Indices 1 2 3 4 5 6 
#
# 1 65.9346 5.7092 -23.5369 0.0000 0.0000 0.0000
# 2 5.7092 24.1616 -4.0911 0.0000 0.0000 0.0000
# 3 -23.5369 -4.0911 36.9142 0.0000 0.0000 0.0000
# 4 0.0000 0.0000 0.0000 7.6231 0.0000 0.0000
# 5 0.0000 0.0000 0.0000 0.0000 5.2812 0.0000
# 6 0.0000 0.0000 0.0000 0.0000 0.0000 -53.1048
#
#
#
# Elastic Compliance Matrix: (Units=1/GPa)
#
#
# Indices 1 2 3 4 5 6 
#
# 1 0.019793 -0.002589 0.012334 0.000000 0.000000 0.000000
# 2 -0.002589 0.042518 0.003062 0.000000 0.000000 0.000000
# 3 0.012334 0.003062 0.035293 0.000000 0.000000 0.000000
# 4 0.000000 0.000000 0.000000 0.131180 0.000000 0.000000
# 5 0.000000 0.000000 0.000000 0.000000 0.189350 0.000000
# 6 0.000000 0.000000 0.000000 0.000000 0.000000 -0.018831
#
#
# Mechanical properties :
#
#
# Convention : Reuss Voigt Hill
#
# Bulk Modulus (GPa) = 8.11572 9.24143 8.67857
# Shear Modulus (GPa) = 12.05505 1.88851 6.97178
#
# Velocity S-wave (km/s) = 2.37019 0.93812 1.80248
# Velocity P-wave (km/s) = 3.35744 2.34095 2.89417
#
# Compressibility (1/GPa) = 0.12321773
#
# Stress axis : x y z
#
# Youngs Moduli (GPa) = 50.52167 23.51945 28.33403
#
# Poissons Ratio (x) = 0.06088 -0.34946
# Poissons Ratio (y) = 0.13078 -0.08675
# Poissons Ratio (z) = -0.62312 -0.07201
#
# Static dielectric constant tensor:
#      x y z
#    x 1.815340 0.000000 0.000000 
#    y 0.000000 1.810180 0.000000 
#    z 0.000000 0.000000 1.753320 
# 
# From -- ./inp_files/25004.got.cif
#   From: 2010.05.17/outbox.cif.g08.bks.cpg/sg47_13_cif.got.tgz:25004.got - 2010.06.03 20:15:42.
