data_PCOD9388765
_publ_section_title
;
Structure prediction by ZEFSAII (Michael W. Deem and Ramdas Pophale) SiO2 
 PCOD9388765
Probable space group: P M M M
;
_chemical_formula_sum "Si O2"
_cell_formula_units_Z 48
_cell_length_a 14.273452
_cell_length_b 7.383437
_cell_length_c 25.274601
_cell_angle_alpha 90.000000
_cell_angle_beta 90.000000
_cell_angle_gamma 90.000000
_cell_volume 2663.617753
_symmetry_space_group_name_H-M "P M M M"
_symmetry_group_IT_number 47
_symmetry_cell_setting 'orthorhombic'
loop_
_space_group_symop_operation_xyz
x,y,z
-x,-y,z
x,-y,-z
-x,y,-z
-x,-y,-z
x,y,-z
-x,y,z
x,-y,z
loop_
_atom_site_type_symbol
_atom_site_label
_atom_site_fract_x
_atom_site_fract_y
_atom_site_fract_z
Si Si1 0.708255 0.215919 0.780368
Si Si2 0.606664 0.283584 0.328457
Si Si3 0.104859 0.221098 0.165460
Si Si4 0.793906 0.779493 0.058863
Si Si5 0.386965 0.716056 0.443013
Si Si6 0.395163 0.220870 0.885281
O O1 0.670671 0.251397 0.722123
O O2 0.812433 0.281304 0.795116
O O3 0.637385 0.279376 0.826469
O O4 0.711233 0.000000 0.786378
O O5 0.500000 0.215995 0.319247
O O6 0.599620 0.500000 0.334106
O O7 0.643766 0.214581 0.385405
O O8 0.137798 0.275356 0.106479
O O9 0.000000 0.282322 0.177518
O O10 0.103729 0.000000 0.166194
O O11 0.688434 0.725106 0.075476
O O12 0.795105 0.000000 0.058575
O O13 0.818241 0.718277 0.000000
O O14 0.353470 0.788877 0.500000
O O15 0.500000 0.738176 0.442250
O O16 0.368782 0.500000 0.444201
O O17 0.500000 0.282256 0.897742
O O18 0.396775 0.000000 0.885843
#
# Coordination Sequence:
#
# PCOD9388765 Si02
#       6
#     8   8   8   8   8   8
#     4   9  16  25  37  52  71  97 127 154 181 218
#     4   9  16  24  36  56  79 101 125 152 178 204
#     4   8  14  24  36  49  66  90 120 153 189 228
#     4   8  13  19  27  43  66  90 117 147 179 216
#     4   7  10  18  32  49  70  97 126 150 171 200
#     4   8  13  20  29  42  63  92 121 145 172 211
#
# _framework density 18.020603000000001
#
# number of rings (size 3 to 8) (size 9 to 14) (size 15 to 20)
#    0.000    3.833    0.000    4.000    0.000    1.667 
#    0.000    3.333    0.000    1.000    0.000    2.333 
#    0.000   11.333    0.000   51.000    0.000   37.667 
#
# Total GULP energy -267233.150967 kJ/mol
# GULP energy per Si atom -5567.357312 kJ/mol
# Density = 1.797959 g / cm^3
# Si number density = 18.020603 Si / 1000 Ang^3
#
#
#
# Elastic Constant Matrix: (Units=GPa)
#
#
# Indices 1 2 3 4 5 6 
#
# 1 86.1852 2.1951 40.5583 0.0000 0.0000 0.0000
# 2 2.1951 58.6961 -0.9891 0.0000 0.0000 0.0000
# 3 40.5583 -0.9891 143.6839 0.0000 0.0000 0.0000
# 4 0.0000 0.0000 0.0000 10.0591 0.0000 0.0000
# 5 0.0000 0.0000 0.0000 0.0000 13.2429 0.0000
# 6 0.0000 0.0000 0.0000 0.0000 0.0000 -2.7290
#
#
#
# Elastic Compliance Matrix: (Units=1/GPa)
#
#
# Indices 1 2 3 4 5 6 
#
# 1 0.013399 -0.000565 -0.003786 0.000000 0.000000 0.000000
# 2 -0.000565 0.017063 0.000277 0.000000 0.000000 0.000000
# 3 -0.003786 0.000277 0.008030 0.000000 0.000000 0.000000
# 4 0.000000 0.000000 0.000000 0.099412 0.000000 0.000000
# 5 0.000000 0.000000 0.000000 0.000000 0.075512 0.000000
# 6 0.000000 0.000000 0.000000 0.000000 0.000000 -0.366432
#
#
# Mechanical properties :
#
#
# Convention : Reuss Voigt Hill
#
# Bulk Modulus (GPa) = 32.95552 41.34375 37.14964
# Shear Modulus (GPa) = -37.10491 20.56799 -8.26846
#
# Velocity S-wave (km/s) = -4.54257 3.38207 -2.14436
# Velocity P-wave (km/s) = 3.03083 6.18413 3.81166
#
# Compressibility (1/GPa) = 0.03034393
#
# Stress axis : x y z
#
# Youngs Moduli (GPa) = 74.63226 58.60734 124.52765
#
# Poissons Ratio (x) = 0.03311 0.47147
# Poissons Ratio (y) = 0.04216 -0.03448
# Poissons Ratio (z) = 0.28256 -0.01623
#
# Static dielectric constant tensor:
#      x y z
#    x 1.593920 0.000000 0.000000 
#    y 0.000000 1.728350 0.000000 
#    z 0.000000 0.000000 1.657300 
# 
# From -- ./inp_files/12419.got.cif
#   From: 2010.05.17/outbox.cif.g08.bks.cpg/sg47_7_cif.got.tgz:12419.got - 2010.06.03 20:15:42.
