data_PCOD9388840
_publ_section_title
;
Structure prediction by ZEFSAII (Michael W. Deem and Ramdas Pophale) SiO2 
 PCOD9388840
Probable space group: P M M M
;
_chemical_formula_sum "Si O2"
_cell_formula_units_Z 40
_cell_length_a 9.431317
_cell_length_b 27.728651
_cell_length_c 7.396118
_cell_angle_alpha 90.000000
_cell_angle_beta 90.000000
_cell_angle_gamma 90.000000
_cell_volume 1934.215750
_symmetry_space_group_name_H-M "P M M M"
_symmetry_group_IT_number 47
_symmetry_cell_setting 'orthorhombic'
loop_
_space_group_symop_operation_xyz
x,y,z
-x,-y,z
x,-y,-z
-x,y,-z
-x,-y,-z
x,y,-z
-x,y,z
x,-y,z
loop_
_atom_site_type_symbol
_atom_site_label
_atom_site_fract_x
_atom_site_fract_y
_atom_site_fract_z
Si Si1 0.830054 0.948145 0.282383
Si Si2 0.164950 0.157008 0.279275
Si Si3 0.835171 0.551793 0.783024
Si Si4 0.662679 0.250919 0.721367
Si Si5 0.838756 0.657454 0.713779
O O1 0.811457 0.948656 0.500000
O O2 0.779637 0.895695 0.218769
O O3 0.000000 0.947838 0.250225
O O4 0.774988 0.000000 0.214407
O O5 0.165922 0.156468 0.500000
O O6 0.256227 0.202562 0.221103
O O7 0.000000 0.162411 0.226137
O O8 0.774375 0.500000 0.721164
O O9 0.774222 0.603873 0.734752
O O10 0.000000 0.552902 0.721019
O O11 0.836719 0.550510 0.000000
O O12 0.663599 0.251032 0.500000
O O13 0.500000 0.251055 0.778369
O O14 0.744838 0.298760 0.783898
O O15 0.851155 0.665400 0.500000
O O16 0.000000 0.657661 0.788403
#
# Coordination Sequence:
#
# PCOD9388840 Si02
#       5
#     8   8   8   8   8
#     4   7   9  13  22  37  55  75 104 144 185 220
#     4   8  12  18  29  43  59  82 114 151 187 223
#     4   8  14  25  41  61  83 103 122 148 185 225
#     4   9  16  24  33  46  67  94 121 151 189 228
#     4   9  16  25  39  59  79  98 124 157 186 215
#
# _framework density 20.680218
#
# number of rings (size 3 to 8) (size 9 to 14) (size 15 to 20)
#    0.000    3.800    0.000    3.000    0.000    2.800 
#    0.000    2.000    0.000    1.800    0.000    8.400 
#    0.000    0.000    0.000    0.000    0.000    1.000 
#
# Total GULP energy -222669.725291 kJ/mol
# GULP energy per Si atom -5566.743132 kJ/mol
# Density = 2.063315 g / cm^3
# Si number density = 20.680218 Si / 1000 Ang^3
#
#
#
# Elastic Constant Matrix: (Units=GPa)
#
#
# Indices 1 2 3 4 5 6 
#
# 1 63.0140 89.6308 3.7009 0.0000 0.0000 0.0000
# 2 89.6308 287.7790 5.1167 0.0000 0.0000 0.0000
# 3 3.7009 5.1167 66.0914 0.0000 0.0000 0.0000
# 4 0.0000 0.0000 0.0000 78.3527 0.0000 0.0000
# 5 0.0000 0.0000 0.0000 0.0000 -11.5692 0.0000
# 6 0.0000 0.0000 0.0000 0.0000 0.0000 -5.6720
#
#
#
# Elastic Compliance Matrix: (Units=1/GPa)
#
#
# Indices 1 2 3 4 5 6 
#
# 1 0.028546 -0.008875 -0.000911 0.000000 0.000000 0.000000
# 2 -0.008875 0.006239 0.000014 0.000000 0.000000 0.000000
# 3 -0.000911 0.000014 0.015181 0.000000 0.000000 0.000000
# 4 0.000000 0.000000 0.000000 0.012763 0.000000 0.000000
# 5 0.000000 0.000000 0.000000 0.000000 -0.086436 0.000000
# 6 0.000000 0.000000 0.000000 0.000000 0.000000 -0.176305
#
#
# Mechanical properties :
#
#
# Convention : Reuss Voigt Hill
#
# Bulk Modulus (GPa) = 32.87181 68.19792 50.53486
# Shear Modulus (GPa) = -29.35512 33.45135 2.04812
#
# Velocity S-wave (km/s) = -3.77168 4.02624 0.99626
# Velocity P-wave (km/s) = 1.74289 7.39345 5.08062
#
# Compressibility (1/GPa) = 0.03042121
#
# Stress axis : x y z
#
# Youngs Moduli (GPa) = 35.03060 160.28830 65.87388
#
# Poissons Ratio (x) = 1.42253 0.06004
# Poissons Ratio (y) = 0.31089 -0.00092
# Poissons Ratio (z) = 0.03193 -0.00224
#
# Static dielectric constant tensor:
#      x y z
#    x 1.673940 0.000000 0.000000 
#    y 0.000000 1.799480 0.000000 
#    z 0.000000 0.000000 1.801170 
# 
# From -- ./inp_files/1673.got.cif
#   From: 2010.05.17/outbox.cif.g08.bks.cpg/sg47_1_cif.got.tgz:1673.got - 2010.06.03 20:15:42.
