data_PCOD9388487
_publ_section_title
;
Structure prediction by ZEFSAII (Michael W. Deem and Ramdas Pophale) SiO2 
 PCOD9388487
Probable space group: P M M M
;
_chemical_formula_sum "Si O2"
_cell_formula_units_Z 37
_cell_length_a 7.641305
_cell_length_b 17.025220
_cell_length_c 13.454218
_cell_angle_alpha 90.000000
_cell_angle_beta 90.000000
_cell_angle_gamma 90.000000
_cell_volume 1750.325128
_symmetry_space_group_name_H-M "P M M M"
_symmetry_group_IT_number 47
_symmetry_cell_setting 'orthorhombic'
loop_
_space_group_symop_operation_xyz
x,y,z
-x,-y,z
x,-y,-z
-x,y,-z
-x,-y,-z
x,y,-z
-x,y,z
x,-y,z
loop_
_atom_site_type_symbol
_atom_site_label
_atom_site_fract_x
_atom_site_fract_y
_atom_site_fract_z
Si Si1 0.000000 0.000000 0.500000
Si Si2 0.785883 0.316572 0.299972
Si Si3 0.207524 0.851522 0.782471
Si Si4 0.214018 0.592356 0.500000
Si Si5 0.290895 0.907713 0.000000
Si Si6 0.213125 0.591218 0.106898
Si Si7 0.311518 0.000000 0.660654
O O1 0.152489 0.000000 0.585515
O O2 0.732633 0.227974 0.272810
O O3 0.730482 0.358980 0.401885
O O4 0.725872 0.366244 0.205021
O O5 0.000000 0.317012 0.302324
O O6 0.000000 0.856801 0.765507
O O7 0.296792 0.924772 0.730910
O O8 0.235434 0.861059 0.900631
O O9 0.268369 0.500000 0.500000
O O10 0.000000 0.590921 0.500000
O O11 0.500000 0.911743 0.000000
O O12 0.226964 0.000000 0.000000
O O13 0.261566 0.500000 0.110350
O O14 0.000000 0.594534 0.107946
O O15 0.270187 0.624405 0.000000
O O16 0.500000 0.000000 0.611169
#
# Coordination Sequence:
#
# PCOD9388487 Si02
#       7
#     1   8   8   4   4   8   4
#     4  12  26  48  72  96 124 164 224 272 336 376
#     4   9  18  28  45  76 114 159 208 260 313 380
#     4  11  22  38  60  93 129 171 215 266 331 398
#     4   9  16  29  48  73 114 165 208 250 312 383
#     4  11  23  39  63  89 121 166 217 273 332 404
#     4   8  13  22  37  60  98 148 196 248 315 382
#     4  12  25  46  70  97 131 174 225 273 326 395
#
# _framework density 21.138929000000001
#
# number of rings (size 3 to 8) (size 9 to 14) (size 15 to 20)
#    0.000    2.162    2.162    2.432    1.514    3.892 
#    1.946    0.000    0.000    0.000    0.000    0.000 
#    0.000   20.757    0.000    0.000    0.000    0.000 
#
# Total GULP energy -206257.439863 kJ/mol
# GULP energy per Si atom -5574.525402 kJ/mol
# Density = 2.109082 g / cm^3
# Si number density = 21.138929 Si / 1000 Ang^3
#
#
#
# Elastic Constant Matrix: (Units=GPa)
#
#
# Indices 1 2 3 4 5 6 
#
# 1 82.2355 14.3297 22.8755 0.0000 0.0000 0.0000
# 2 14.3297 168.2807 117.9302 0.0000 0.0000 0.0000
# 3 22.8755 117.9302 221.5574 0.0000 0.0000 0.0000
# 4 0.0000 0.0000 0.0000 48.0280 0.0000 0.0000
# 5 0.0000 0.0000 0.0000 0.0000 43.2879 0.0000
# 6 0.0000 0.0000 0.0000 0.0000 0.0000 -15.5132
#
#
#
# Elastic Compliance Matrix: (Units=1/GPa)
#
#
# Indices 1 2 3 4 5 6 
#
# 1 0.012527 -0.000256 -0.001157 0.000000 0.000000 0.000000
# 2 -0.000256 0.009483 -0.005021 0.000000 0.000000 0.000000
# 3 -0.001157 -0.005021 0.007306 0.000000 0.000000 0.000000
# 4 0.000000 0.000000 0.000000 0.020821 0.000000 0.000000
# 5 0.000000 0.000000 0.000000 0.000000 0.023101 0.000000
# 6 0.000000 0.000000 0.000000 0.000000 0.000000 -0.064461
#
#
# Mechanical properties :
#
#
# Convention : Reuss Voigt Hill
#
# Bulk Modulus (GPa) = 60.80117 86.92717 73.86417
# Shear Modulus (GPa) = 184.31783 36.28977 110.30380
#
# Velocity S-wave (km/s) = 9.34788 4.14784 7.23144
# Velocity P-wave (km/s) = 12.05552 8.00940 10.23440
#
# Compressibility (1/GPa) = 0.01644705
#
# Stress axis : x y z
#
# Youngs Moduli (GPa) = 79.82971 105.45093 136.87969
#
# Poissons Ratio (x) = 0.02696 0.15841
# Poissons Ratio (y) = 0.02041 0.68731
# Poissons Ratio (z) = 0.09238 0.52949
#
# Static dielectric constant tensor:
#      x y z
#    x 1.761430 0.000000 0.000000 
#    y 0.000000 1.724370 0.000000 
#    z 0.000000 0.000000 1.736530 
# 
# From -- ./inp_files/14942.got.cif
#   From: 2010.05.17/outbox.cif.g08.bks.cpg/sg47_8_cif.got.tgz:14942.got - 2010.06.03 20:15:42.
