data_PCOD9388791
_publ_section_title
;
Structure prediction by ZEFSAII (Michael W. Deem and Ramdas Pophale) SiO2 
 PCOD9388791
Probable space group: P M M M
;
_chemical_formula_sum "Si O2"
_cell_formula_units_Z 52
_cell_length_a 7.410456
_cell_length_b 8.280167
_cell_length_c 37.434287
_cell_angle_alpha 90.000000
_cell_angle_beta 90.000000
_cell_angle_gamma 90.000000
_cell_volume 2296.960859
_symmetry_space_group_name_H-M "P M M M"
_symmetry_group_IT_number 47
_symmetry_cell_setting 'orthorhombic'
loop_
_space_group_symop_operation_xyz
x,y,z
-x,-y,z
x,-y,-z
-x,y,-z
-x,-y,-z
x,y,-z
-x,y,z
x,-y,z
loop_
_atom_site_type_symbol
_atom_site_label
_atom_site_fract_x
_atom_site_fract_y
_atom_site_fract_z
Si Si1 0.279672 0.000000 0.458686
Si Si2 0.295699 0.306321 0.808628
Si Si3 0.280494 0.182312 0.343575
Si Si4 0.786003 0.196772 0.038510
Si Si5 0.720788 0.688558 0.267787
Si Si6 0.720252 0.322552 0.582776
Si Si7 0.787212 0.181042 0.885604
O O1 0.221001 0.165212 0.439285
O O2 0.500000 0.000000 0.457186
O O3 0.226752 0.000000 0.500000
O O4 0.500000 0.245217 0.809341
O O5 0.296311 0.500000 0.805170
O O6 0.214392 0.247858 0.770906
O O7 0.225408 0.267510 0.847752
O O8 0.500000 0.188821 0.342485
O O9 0.218872 0.225058 0.303785
O O10 0.225052 0.297111 0.375907
O O11 0.229334 0.000000 0.352866
O O12 0.714713 0.254667 0.077116
O O13 0.000000 0.234083 0.036974
O O14 0.230509 0.000000 0.039727
O O15 0.710063 0.249670 0.000000
O O16 0.500000 0.696220 0.266577
O O17 0.768535 0.500000 0.271158
O O18 0.500000 0.321059 0.581938
O O19 0.777540 0.500000 0.569920
O O20 0.000000 0.166723 0.892250
O O21 0.712886 0.000000 0.881145
#
# Coordination Sequence:
#
# PCOD9388791 Si02
#       7
#     4   8   8   8   8   8   8
#     4   9  16  24  30  38  54  74 104 146 187 237
#     4   9  18  31  44  59  83 114 145 174 207 253
#     4   9  14  20  31  47  65  82 106 143 186 234
#     4   7  10  19  37  60  83 104 128 164 209 250
#     4   8  14  24  36  50  68  92 122 154 190 233
#     4   9  15  22  31  41  55  77 104 139 187 237
#     4   9  17  28  44  67  89 108 136 174 213 255
#
# _framework density 22.63861
#
# number of rings (size 3 to 8) (size 9 to 14) (size 15 to 20)
#    0.000    3.462    0.769    2.769    0.000    3.385 
#    0.000    3.077    0.000    0.923    0.000    5.385 
#    0.000    0.000    0.000    0.000    0.000    0.000 
#
# Total GULP energy -289642.471213 kJ/mol
# GULP energy per Si atom -5570.047523 kJ/mol
# Density = 2.258708 g / cm^3
# Si number density = 22.638610 Si / 1000 Ang^3
#
#
#
# Elastic Constant Matrix: (Units=GPa)
#
#
# Indices 1 2 3 4 5 6 
#
# 1 67.4967 1.7153 7.8029 0.0000 0.0000 0.0000
# 2 1.7153 85.6578 68.3025 0.0000 0.0000 0.0000
# 3 7.8029 68.3025 204.2979 0.0000 0.0000 0.0000
# 4 0.0000 0.0000 0.0000 -25.0166 0.0000 0.0000
# 5 0.0000 0.0000 0.0000 0.0000 -1.1884 0.0000
# 6 0.0000 0.0000 0.0000 0.0000 0.0000 -4.5854
#
#
#
# Elastic Compliance Matrix: (Units=1/GPa)
#
#
# Indices 1 2 3 4 5 6 
#
# 1 0.014884 0.000212 -0.000639 0.000000 0.000000 0.000000
# 2 0.000212 0.015921 -0.005331 0.000000 0.000000 0.000000
# 3 -0.000639 -0.005331 0.006701 0.000000 0.000000 0.000000
# 4 0.000000 0.000000 0.000000 -0.039973 0.000000 0.000000
# 5 0.000000 0.000000 0.000000 0.000000 -0.841484 0.000000
# 6 0.000000 0.000000 0.000000 0.000000 0.000000 -0.218081
#
#
# Mechanical properties :
#
#
# Convention : Reuss Voigt Hill
#
# Bulk Modulus (GPa) = 38.47704 57.01043 47.74374
# Shear Modulus (GPa) = -4.79915 12.48402 3.84244
#
# Velocity S-wave (km/s) = -1.45757 2.35084 1.30422
# Velocity P-wave (km/s) = 3.76835 5.71018 4.83769
#
# Compressibility (1/GPa) = 0.02598952
#
# Stress axis : x y z
#
# Youngs Moduli (GPa) = 67.18597 62.81053 149.22052
#
# Poissons Ratio (x) = -0.01329 0.09539
# Poissons Ratio (y) = -0.01422 0.79548
# Poissons Ratio (z) = 0.04295 0.33484
#
# Static dielectric constant tensor:
#      x y z
#    x 1.812890 0.000000 0.000000 
#    y 0.000000 1.812810 0.000000 
#    z 0.000000 0.000000 1.882540 
# 
# From -- ./inp_files/34533.got.cif
#   From: 2010.05.17/outbox.cif.g08.bks.cpg/sg47_18_cif.got.tgz:34533.got - 2010.06.03 20:15:42.
