data_PCOD9388833
_publ_section_title
;
Structure prediction by ZEFSAII (Michael W. Deem and Ramdas Pophale) SiO2 
 PCOD9388833
Probable space group: P M M M
;
_chemical_formula_sum "Si O2"
_cell_formula_units_Z 64
_cell_length_a 7.331146
_cell_length_b 29.103091
_cell_length_c 15.463921
_cell_angle_alpha 90.000000
_cell_angle_beta 90.000000
_cell_angle_gamma 90.000000
_cell_volume 3299.366862
_symmetry_space_group_name_H-M "P M M M"
_symmetry_group_IT_number 47
_symmetry_cell_setting 'orthorhombic'
loop_
_space_group_symop_operation_xyz
x,y,z
-x,-y,z
x,-y,-z
-x,y,-z
-x,-y,-z
x,y,-z
-x,y,z
x,-y,z
loop_
_atom_site_type_symbol
_atom_site_label
_atom_site_fract_x
_atom_site_fract_y
_atom_site_fract_z
Si Si1 0.789054 0.924330 0.594872
Si Si2 0.777005 0.050053 0.780602
Si Si3 0.276554 0.264987 0.719425
Si Si4 0.722640 0.349731 0.600515
Si Si5 0.220107 0.867606 0.901775
Si Si6 0.712216 0.238856 0.096768
Si Si7 0.720003 0.817033 0.402941
Si Si8 0.719588 0.450623 0.603189
O O1 0.708580 0.934018 0.500000
O O2 0.712099 0.945667 0.681842
O O3 0.784925 0.869150 0.607774
O O4 0.000000 0.938843 0.591015
O O5 0.715474 0.093554 0.836080
O O6 0.000000 0.052008 0.779356
O O7 0.726805 0.000000 0.816154
O O8 0.500000 0.264575 0.720379
O O9 0.219976 0.308742 0.662953
O O10 0.212778 0.264030 0.818596
O O11 0.218917 0.218806 0.669087
O O12 0.777574 0.343060 0.500000
O O13 0.500000 0.349776 0.599616
O O14 0.782641 0.400370 0.632456
O O15 0.279774 0.815676 0.883175
O O16 0.000000 0.867161 0.899343
O O17 0.275990 0.878494 0.000000
O O18 0.500000 0.251694 0.091167
O O19 0.790875 0.245440 0.000000
O O20 0.772017 0.801542 0.500000
O O21 0.500000 0.818629 0.400275
O O22 0.754430 0.450716 0.500000
O O23 0.500000 0.450952 0.613640
O O24 0.786889 0.500000 0.637681
#
# Coordination Sequence:
#
# PCOD9388833 Si02
#       8
#     8   8   8   8   8   8   8   8
#     4   9  17  28  41  56  73  94 120 145 167 197
#     4   9  17  28  42  60  78  93 112 141 174 205
#     4   9  15  22  33  49  69  92 118 147 177 209
#     4   8  12  17  26  42  65  91 119 152 185 213
#     4   9  17  29  45  62  76  91 114 143 174 210
#     4   9  17  28  41  56  74  96 120 145 173 206
#     4   9  16  25  38  55  73  93 117 144 173 205
#     4   7   9  13  21  34  55  85 118 149 181 214
#
# _framework density 19.397660999999999
#
# number of rings (size 3 to 8) (size 9 to 14) (size 15 to 20)
#    0.000    3.375    0.000    2.250    0.000    2.000 
#    0.000    2.500    0.000    1.500    0.000    3.500 
#    0.000    0.500    0.000    7.000    0.000    2.750 
#
# Total GULP energy -356823.101956 kJ/mol
# GULP energy per Si atom -5575.360968 kJ/mol
# Density = 1.935351 g / cm^3
# Si number density = 19.397661 Si / 1000 Ang^3
#
#
#
# Elastic Constant Matrix: (Units=GPa)
#
#
# Indices 1 2 3 4 5 6 
#
# 1 74.2378 -3.0236 4.7892 0.0000 0.0000 0.0000
# 2 -3.0236 83.2808 64.0386 0.0000 0.0000 0.0000
# 3 4.7892 64.0386 111.6136 0.0000 0.0000 0.0000
# 4 0.0000 0.0000 0.0000 14.2250 0.0000 0.0000
# 5 0.0000 0.0000 0.0000 0.0000 -8.2185 0.0000
# 6 0.0000 0.0000 0.0000 0.0000 0.0000 -5.1704
#
#
#
# Elastic Compliance Matrix: (Units=1/GPa)
#
#
# Indices 1 2 3 4 5 6 
#
# 1 0.013639 0.001692 -0.001556 0.000000 0.000000 0.000000
# 2 0.001692 0.021697 -0.012522 0.000000 0.000000 0.000000
# 3 -0.001556 -0.012522 0.016210 0.000000 0.000000 0.000000
# 4 0.000000 0.000000 0.000000 0.070299 0.000000 0.000000
# 5 0.000000 0.000000 0.000000 0.000000 -0.121677 0.000000
# 6 0.000000 0.000000 0.000000 0.000000 0.000000 -0.193409
#
#
# Mechanical properties :
#
#
# Convention : Reuss Voigt Hill
#
# Bulk Modulus (GPa) = 37.34714 44.52673 40.93694
# Shear Modulus (GPa) = -31.33951 13.72243 -8.80854
#
# Velocity S-wave (km/s) = -4.02386 2.66264 -2.13328
# Velocity P-wave (km/s) = 1.51437 5.69714 3.88356
#
# Compressibility (1/GPa) = 0.02677581
#
# Stress axis : x y z
#
# Youngs Moduli (GPa) = 73.31656 46.08849 61.68842
#
# Poissons Ratio (x) = -0.07796 0.09597
# Poissons Ratio (y) = -0.12402 0.77243
# Poissons Ratio (z) = 0.11406 0.57710
#
# Static dielectric constant tensor:
#      x y z
#    x 1.884560 0.000000 0.000000 
#    y 0.000000 1.678920 0.000000 
#    z 0.000000 0.000000 1.679220 
# 
# From -- ./inp_files/22209.got.cif
#   From: 2010.05.17/outbox.cif.g08.bks.cpg/sg47_12_cif.got.tgz:22209.got - 2010.06.03 20:15:42.
