data_PCOD9388318
_publ_section_title
;
Structure prediction by ZEFSAII (Michael W. Deem and Ramdas Pophale) SiO2 
 PCOD9388318
Probable space group: P M M M
;
_chemical_formula_sum "Si O2"
_cell_formula_units_Z 40
_cell_length_a 24.295177
_cell_length_b 11.932861
_cell_length_c 8.964061
_cell_angle_alpha 90.000000
_cell_angle_beta 90.000000
_cell_angle_gamma 90.000000
_cell_volume 2598.779621
_symmetry_space_group_name_H-M "P M M M"
_symmetry_group_IT_number 47
_symmetry_cell_setting 'orthorhombic'
loop_
_space_group_symop_operation_xyz
x,y,z
-x,-y,z
x,-y,-z
-x,y,-z
-x,-y,-z
x,y,-z
-x,y,z
x,-y,z
loop_
_atom_site_type_symbol
_atom_site_label
_atom_site_fract_x
_atom_site_fract_y
_atom_site_fract_z
Si Si1 0.328859 0.363896 0.327322
Si Si2 0.000000 0.373532 0.180789
Si Si3 0.794075 0.632277 0.319058
Si Si4 0.440245 0.635319 0.176439
Si Si5 0.065660 0.000000 0.679396
Si Si6 0.106618 0.770198 0.180038
O O1 0.332246 0.331743 0.500000
O O2 0.329527 0.500000 0.321091
O O3 0.267964 0.333592 0.270980
O O4 0.383700 0.321842 0.246778
O O5 0.054619 0.307324 0.223954
O O6 0.000000 0.500000 0.238247
O O7 0.000000 0.377882 0.000000
O O8 0.796623 0.640643 0.500000
O O9 0.802579 0.500000 0.282308
O O10 0.839294 0.709998 0.243272
O O11 0.500000 0.675365 0.234986
O O12 0.440166 0.500000 0.196524
O O13 0.438885 0.655935 0.000000
O O14 0.094161 0.890628 0.748898
O O15 0.070524 0.000000 0.500000
O O16 0.000000 0.000000 0.716368
O O17 0.108862 0.778021 0.000000
#
# Coordination Sequence:
#
# PCOD9388318 Si02
#       6
#     8   4   8   8   4   8
#     4   8  14  24  37  53  77 112 150 186 222 263
#     4   9  18  31  47  70  98 121 142 177 224 267
#     4   9  18  32  47  66  95 126 156 191 232 278
#     4   8  13  20  30  47  73 105 143 187 228 263
#     4  11  23  39  57  73  93 119 150 185 230 283
#     4  11  21  34  53  73  95 120 152 191 230 273
#
# _framework density 15.391840999999999
#
# number of rings (size 3 to 8) (size 9 to 14) (size 15 to 20)
#    0.000    2.800    1.000    3.300    0.000    2.800 
#    0.000    4.000    0.000    2.400    0.000    0.000 
#    0.000    0.000    0.000    0.900    0.000   17.200 
#
# Total GULP energy -222675.855136 kJ/mol
# GULP energy per Si atom -5566.896378 kJ/mol
# Density = 1.535681 g / cm^3
# Si number density = 15.391841 Si / 1000 Ang^3
#
#
#
# Elastic Constant Matrix: (Units=GPa)
#
#
# Indices 1 2 3 4 5 6 
#
# 1 189.6124 62.1760 59.7705 0.0000 0.0000 0.0000
# 2 62.1760 80.6856 30.5064 0.0000 0.0000 0.0000
# 3 59.7705 30.5064 38.8305 0.0000 0.0000 0.0000
# 4 0.0000 0.0000 0.0000 14.3044 0.0000 0.0000
# 5 0.0000 0.0000 0.0000 0.0000 29.1376 0.0000
# 6 0.0000 0.0000 0.0000 0.0000 0.0000 -0.8386
#
#
#
# Elastic Compliance Matrix: (Units=1/GPa)
#
#
# Indices 1 2 3 4 5 6 
#
# 1 0.010692 -0.002869 -0.014204 0.000000 0.000000 0.000000
# 2 -0.002869 0.018401 -0.010040 0.000000 0.000000 0.000000
# 3 -0.014204 -0.010040 0.055505 0.000000 0.000000 0.000000
# 4 0.000000 0.000000 0.000000 0.069908 0.000000 0.000000
# 5 0.000000 0.000000 0.000000 0.000000 0.034320 0.000000
# 6 0.000000 0.000000 0.000000 0.000000 0.000000 -1.192510
#
#
# Mechanical properties :
#
#
# Convention : Reuss Voigt Hill
#
# Bulk Modulus (GPa) = 32.92596 68.22606 50.57601
# Shear Modulus (GPa) = -5.32292 18.96573 6.82140
#
# Velocity S-wave (km/s) = -1.86166 3.51407 2.10747
# Velocity P-wave (km/s) = 4.10088 7.80303 6.23316
#
# Compressibility (1/GPa) = 0.03037117
#
# Stress axis : x y z
#
# Youngs Moduli (GPa) = 93.52635 54.34606 18.01645
#
# Poissons Ratio (x) = 0.15591 0.25591
# Poissons Ratio (y) = 0.26831 0.18089
# Poissons Ratio (z) = 1.32847 0.54564
#
# Static dielectric constant tensor:
#      x y z
#    x 1.543160 0.000000 0.000000 
#    y 0.000000 1.481570 0.000000 
#    z 0.000000 0.000000 1.515340 
# 
# From -- ./inp_files/10723.got.cif
#   From: 2010.05.17/outbox.cif.g08.bks.cpg/sg47_6_cif.got.tgz:10723.got - 2010.06.03 20:15:42.
