data_PCOD9388002
_publ_section_title
;
Structure prediction by ZEFSAII (Michael W. Deem and Ramdas Pophale) SiO2 
 PCOD9388002
Probable space group: P M M M
;
_chemical_formula_sum "Si O2"
_cell_formula_units_Z 64
_cell_length_a 9.289998
_cell_length_b 14.311325
_cell_length_c 26.481982
_cell_angle_alpha 90.000000
_cell_angle_beta 90.000000
_cell_angle_gamma 90.000000
_cell_volume 3520.837254
_symmetry_space_group_name_H-M "P M M M"
_symmetry_group_IT_number 47
_symmetry_cell_setting 'orthorhombic'
loop_
_space_group_symop_operation_xyz
x,y,z
-x,-y,z
x,-y,-z
-x,y,-z
-x,-y,-z
x,y,-z
-x,y,z
x,-y,z
loop_
_atom_site_type_symbol
_atom_site_label
_atom_site_fract_x
_atom_site_fract_y
_atom_site_fract_z
Si Si1 0.673179 0.704119 0.944612
Si Si2 0.170322 0.612769 0.263381
Si Si3 0.671423 0.282200 0.354195
Si Si4 0.172721 0.109964 0.683983
Si Si5 0.831868 0.387644 0.850872
Si Si6 0.837337 0.886672 0.798453
Si Si7 0.672336 0.894100 0.898824
Si Si8 0.167250 0.611329 0.559369
O O1 0.500000 0.695108 0.941961
O O2 0.742289 0.653117 0.896987
O O3 0.709088 0.814116 0.938592
O O4 0.720257 0.670112 0.000000
O O5 0.184544 0.500000 0.266728
O O6 0.262294 0.661325 0.306632
O O7 0.211130 0.641994 0.206097
O O8 0.000000 0.634260 0.270274
O O9 0.500000 0.280086 0.351588
O O10 0.739285 0.178795 0.351269
O O11 0.727797 0.333191 0.404291
O O12 0.208621 0.138411 0.741965
O O13 0.000000 0.121467 0.678383
O O14 0.204487 0.000000 0.677343
O O15 0.820984 0.500000 0.851632
O O16 0.000000 0.363476 0.857294
O O17 0.736712 0.862633 0.845035
O O18 0.000000 0.852389 0.807051
O O19 0.843108 0.000000 0.797687
O O20 0.500000 0.897181 0.894833
O O21 0.722511 0.000000 0.910178
O O22 0.189596 0.630632 0.500000
O O23 0.185008 0.500000 0.566803
O O24 0.000000 0.633531 0.571674
#
# Coordination Sequence:
#
# PCOD9388002 Si02
#       8
#     8   8   8   8   8   8   8   8
#     4  10  22  37  52  74 103 134 171 214 263 325
#     4   9  19  37  58  79 107 143 182 223 268 325
#     4  12  24  33  51  86 123 155 184 224 279 333
#     4   9  19  36  55  75 105 149 196 235 272 319
#     4   9  20  39  60  79  99 129 172 222 272 319
#     4   8  15  29  49  72  96 126 168 216 263 309
#     4   9  18  32  50  72 100 134 169 207 254 312
#     4   9  19  38  63  87 113 151 198 241 277 320
#
# _framework density 18.177493999999999
#
# number of rings (size 3 to 8) (size 9 to 14) (size 15 to 20)
#    0.000    2.625    0.000    3.375    1.750    5.000 
#    0.000    5.625    0.000    0.375    0.000    5.250 
#    0.000    0.000    0.000    0.000    0.000    0.000 
#
# Total GULP energy -357103.782837 kJ/mol
# GULP energy per Si atom -5579.746607 kJ/mol
# Density = 1.813612 g / cm^3
# Si number density = 18.177494 Si / 1000 Ang^3
#
#
#
# Elastic Constant Matrix: (Units=GPa)
#
#
# Indices 1 2 3 4 5 6 
#
# 1 56.8677 42.6344 55.7251 0.0000 0.0000 0.0000
# 2 42.6344 65.7232 47.2754 0.0000 0.0000 0.0000
# 3 55.7251 47.2754 89.0908 0.0000 0.0000 0.0000
# 4 0.0000 0.0000 0.0000 28.7201 0.0000 0.0000
# 5 0.0000 0.0000 0.0000 0.0000 35.1339 0.0000
# 6 0.0000 0.0000 0.0000 0.0000 0.0000 20.5260
#
#
#
# Elastic Compliance Matrix: (Units=1/GPa)
#
#
# Indices 1 2 3 4 5 6 
#
# 1 0.056141 -0.018049 -0.025538 0.000000 0.000000 0.000000
# 2 -0.018049 0.030411 -0.004848 0.000000 0.000000 0.000000
# 3 -0.025538 -0.004848 0.029771 0.000000 0.000000 0.000000
# 4 0.000000 0.000000 0.000000 0.034819 0.000000 0.000000
# 5 0.000000 0.000000 0.000000 0.000000 0.028463 0.000000
# 6 0.000000 0.000000 0.000000 0.000000 0.000000 0.048719
#
#
# Mechanical properties :
#
#
# Convention : Reuss Voigt Hill
#
# Bulk Modulus (GPa) = 51.40602 55.88351 53.64477
# Shear Modulus (GPa) = 15.07496 21.27913 18.17704
#
# Velocity S-wave (km/s) = 2.88292 3.42516 3.16567
# Velocity P-wave (km/s) = 6.27878 6.81559 6.55268
#
# Compressibility (1/GPa) = 0.01945297
#
# Stress axis : x y z
#
# Youngs Moduli (GPa) = 17.81234 32.88320 33.58998
#
# Poissons Ratio (x) = 0.59350 0.85782
# Poissons Ratio (y) = 0.32149 0.16285
# Poissons Ratio (z) = 0.45489 0.15942
#
# Static dielectric constant tensor:
#      x y z
#    x 1.597380 0.000000 0.000000 
#    y 0.000000 1.665040 0.000000 
#    z 0.000000 0.000000 1.614580 
# 
# From -- ./inp_files/32123.got.cif
#   From: 2010.05.17/outbox.cif.g08.bks.cpg/sg47_17_cif.got.tgz:32123.got - 2010.06.03 20:15:42.
