data_PCOD9388288
_publ_section_title
;
Structure prediction by ZEFSAII (Michael W. Deem and Ramdas Pophale) SiO2 
 PCOD9388288
Probable space group: P M M M
;
_chemical_formula_sum "Si O2"
_cell_formula_units_Z 36
_cell_length_a 11.215921
_cell_length_b 19.420834
_cell_length_c 8.754056
_cell_angle_alpha 90.000000
_cell_angle_beta 90.000000
_cell_angle_gamma 90.000000
_cell_volume 1906.830712
_symmetry_space_group_name_H-M "P M M M"
_symmetry_group_IT_number 47
_symmetry_cell_setting 'orthorhombic'
loop_
_space_group_symop_operation_xyz
x,y,z
-x,-y,z
x,-y,-z
-x,y,-z
-x,-y,-z
x,y,-z
-x,y,z
x,-y,z
loop_
_atom_site_type_symbol
_atom_site_label
_atom_site_fract_x
_atom_site_fract_y
_atom_site_fract_z
Si Si1 0.802906 0.675409 0.319178
Si Si2 0.358023 0.423838 0.824114
Si Si3 0.366197 0.080642 0.685796
Si Si4 0.136697 0.168868 0.313526
Si Si5 0.000000 0.577763 0.818104
O O1 0.819798 0.674542 0.500000
O O2 0.677635 0.642532 0.273070
O O3 0.832688 0.752638 0.267787
O O4 0.889136 0.620663 0.241652
O O5 0.500000 0.427204 0.827673
O O6 0.315527 0.500000 0.768883
O O7 0.316102 0.416385 0.000000
O O8 0.366297 0.084627 0.500000
O O9 0.500000 0.104543 0.734871
O O10 0.248136 0.121618 0.737924
O O11 0.355777 0.000000 0.726213
O O12 0.135847 0.166267 0.500000
O O13 0.000000 0.151440 0.265402
O O14 0.000000 0.500000 0.759905
O O15 0.000000 0.576113 0.000000
#
# Coordination Sequence:
#
# PCOD9388288 Si02
#       5
#     8   8   8   8   4
#     4  11  21  33  50  74 103 132 166 212 263 313
#     4   9  19  36  54  71  96 131 170 213 259 309
#     4   8  14  25  42  65  94 131 174 212 246 296
#     4   9  17  29  43  63  99 138 167 204 258 312
#     4  11  23  37  53  71  94 131 176 216 259 311
#
# _framework density 18.879491999999999
#
# number of rings (size 3 to 8) (size 9 to 14) (size 15 to 20)
#    0.000    2.556    1.111    3.000    0.000    5.778 
#    0.000    5.556    0.000    0.000    0.000    0.000 
#    0.000    4.444    0.000   12.222    0.000   10.667 
#
# Total GULP energy -200457.270119 kJ/mol
# GULP energy per Si atom -5568.257503 kJ/mol
# Density = 1.883652 g / cm^3
# Si number density = 18.879492 Si / 1000 Ang^3
#
#
#
# Elastic Constant Matrix: (Units=GPa)
#
#
# Indices 1 2 3 4 5 6 
#
# 1 145.1281 85.3157 13.4110 0.0000 0.0000 0.0000
# 2 85.3157 113.1928 16.0280 0.0000 0.0000 0.0000
# 3 13.4110 16.0280 10.6772 0.0000 0.0000 0.0000
# 4 0.0000 0.0000 0.0000 -48.2713 0.0000 0.0000
# 5 0.0000 0.0000 0.0000 0.0000 20.2210 0.0000
# 6 0.0000 0.0000 0.0000 0.0000 0.0000 32.4100
#
#
#
# Elastic Compliance Matrix: (Units=1/GPa)
#
#
# Indices 1 2 3 4 5 6 
#
# 1 0.012405 -0.009072 -0.001963 0.000000 0.000000 0.000000
# 2 -0.009072 0.017854 -0.015406 0.000000 0.000000 0.000000
# 3 -0.001963 -0.015406 0.119250 0.000000 0.000000 0.000000
# 4 0.000000 0.000000 0.000000 -0.020716 0.000000 0.000000
# 5 0.000000 0.000000 0.000000 0.000000 0.049453 0.000000
# 6 0.000000 0.000000 0.000000 0.000000 0.000000 0.030855
#
#
# Mechanical properties :
#
#
# Convention : Reuss Voigt Hill
#
# Bulk Modulus (GPa) = 10.34913 55.38971 32.86942
# Shear Modulus (GPa) = 16.99576 11.15485 14.07531
#
# Velocity S-wave (km/s) = 3.00363 2.43337 2.73341
# Velocity P-wave (km/s) = 4.18600 6.10715 5.23545
#
# Compressibility (1/GPa) = 0.09662647
#
# Stress axis : x y z
#
# Youngs Moduli (GPa) = 80.61343 56.01107 8.38575
#
# Poissons Ratio (x) = 0.50812 0.01646
# Poissons Ratio (y) = 0.73131 0.12919
# Poissons Ratio (z) = 0.15824 0.86292
#
# Static dielectric constant tensor:
#      x y z
#    x 1.965530 0.000000 0.000000 
#    y 0.000000 1.642350 0.000000 
#    z 0.000000 0.000000 1.633150 
# 
# From -- ./inp_files/3710.got.cif
#   From: 2010.05.17/outbox.cif.g08.bks.cpg/sg47_2_cif.got.tgz:3710.got - 2010.06.03 20:15:42.
