data_PCOD9388644
_publ_section_title
;
Structure prediction by ZEFSAII (Michael W. Deem and Ramdas Pophale) SiO2 
 PCOD9388644
Probable space group: P M M M
;
_chemical_formula_sum "Si O2"
_cell_formula_units_Z 40
_cell_length_a 29.089394
_cell_length_b 9.232542
_cell_length_c 7.964000
_cell_angle_alpha 90.000000
_cell_angle_beta 90.000000
_cell_angle_gamma 90.000000
_cell_volume 2138.883929
_symmetry_space_group_name_H-M "P M M M"
_symmetry_group_IT_number 47
_symmetry_cell_setting 'orthorhombic'
loop_
_space_group_symop_operation_xyz
x,y,z
-x,-y,z
x,-y,-z
-x,y,-z
-x,-y,-z
x,y,-z
-x,y,z
x,-y,z
loop_
_atom_site_type_symbol
_atom_site_label
_atom_site_fract_x
_atom_site_fract_y
_atom_site_fract_z
Si Si1 0.447167 0.176696 0.000000
Si Si2 0.181501 0.832579 0.702584
Si Si3 0.000000 0.162356 0.300473
Si Si4 0.617830 0.177180 0.304870
Si Si5 0.281225 0.169799 0.296372
Si Si6 0.090402 0.662538 0.199698
O O1 0.419926 0.221410 0.831536
O O2 0.500000 0.224591 0.000000
O O3 0.447166 0.000000 0.000000
O O4 0.182894 0.836438 0.500000
O O5 0.231492 0.772483 0.759801
O O6 0.137711 0.740502 0.752858
O O7 0.176526 0.000000 0.759795
O O8 0.954028 0.246837 0.252115
O O9 0.000000 0.151130 0.500000
O O10 0.000000 0.000000 0.227726
O O11 0.609510 0.220092 0.500000
O O12 0.668807 0.228088 0.246742
O O13 0.619262 0.000000 0.305944
O O14 0.282101 0.175467 0.500000
O O15 0.280279 0.000000 0.249241
O O16 0.088529 0.500000 0.271217
O O17 0.089084 0.653018 0.000000
#
# Coordination Sequence:
#
# PCOD9388644 Si02
#       6
#     4   8   4   8   8   8
#     4   9  16  22  28  44  70 102 147 196 235 282
#     4   9  17  31  52  76  99 123 159 207 250 291
#     4  11  24  41  62  84 100 121 162 211 250 286
#     4   8  13  22  34  47  69 103 141 186 240 288
#     4   7  11  22  40  60  82 108 140 185 239 286
#     4  11  24  39  53  74 106 138 165 195 237 292
#
# _framework density 18.701343000000001
#
# number of rings (size 3 to 8) (size 9 to 14) (size 15 to 20)
#    0.000    3.000    0.000    4.200    0.000    6.800 
#    1.800    2.000    0.000    0.000    0.000    0.000 
#    0.000    0.000    0.000    0.000    0.000    2.000 
#
# Total GULP energy -222739.133941 kJ/mol
# GULP energy per Si atom -5568.478349 kJ/mol
# Density = 1.865878 g / cm^3
# Si number density = 18.701343 Si / 1000 Ang^3
#
#
#
# Elastic Constant Matrix: (Units=GPa)
#
#
# Indices 1 2 3 4 5 6 
#
# 1 232.3339 59.4072 64.4865 0.0000 0.0000 0.0000
# 2 59.4072 56.4283 19.5614 0.0000 0.0000 0.0000
# 3 64.4865 19.5614 57.6810 0.0000 0.0000 0.0000
# 4 0.0000 0.0000 0.0000 12.7535 0.0000 0.0000
# 5 0.0000 0.0000 0.0000 0.0000 55.7924 0.0000
# 6 0.0000 0.0000 0.0000 0.0000 0.0000 -7.7556
#
#
#
# Elastic Compliance Matrix: (Units=1/GPa)
#
#
# Indices 1 2 3 4 5 6 
#
# 1 0.007579 -0.005714 -0.006536 0.000000 0.000000 0.000000
# 2 -0.005714 0.024390 -0.001884 0.000000 0.000000 0.000000
# 3 -0.006536 -0.001884 0.025282 0.000000 0.000000 0.000000
# 4 0.000000 0.000000 0.000000 0.078410 0.000000 0.000000
# 5 0.000000 0.000000 0.000000 0.000000 0.017924 0.000000
# 6 0.000000 0.000000 0.000000 0.000000 0.000000 -0.128939
#
#
# Mechanical properties :
#
#
# Convention : Reuss Voigt Hill
#
# Bulk Modulus (GPa) = 34.50004 70.37260 52.43632
# Shear Modulus (GPa) = 79.90619 25.69059 52.79839
#
# Velocity S-wave (km/s) = 6.54372 3.71041 5.31918
# Velocity P-wave (km/s) = 8.69377 7.48783 8.11324
#
# Compressibility (1/GPa) = 0.02898547
#
# Stress axis : x y z
#
# Youngs Moduli (GPa) = 131.94067 41.00070 39.55324
#
# Poissons Ratio (x) = 0.23426 0.25851
# Poissons Ratio (y) = 0.75386 0.07450
# Poissons Ratio (z) = 0.86233 0.07723
#
# Static dielectric constant tensor:
#      x y z
#    x 1.509940 0.000000 0.000000 
#    y 0.000000 1.637910 0.000000 
#    z 0.000000 0.000000 1.659560 
# 
# From -- ./inp_files/12994.got.cif
#   From: 2010.05.17/outbox.cif.g08.bks.cpg/sg47_7_cif.got.tgz:12994.got - 2010.06.03 20:15:42.
