data_PCOD9388239
_publ_section_title
;
Structure prediction by ZEFSAII (Michael W. Deem and Ramdas Pophale) SiO2 
 PCOD9388239
Probable space group: P M M M
;
_chemical_formula_sum "Si O2"
_cell_formula_units_Z 48
_cell_length_a 14.329253
_cell_length_b 24.596806
_cell_length_c 7.927316
_cell_angle_alpha 90.000000
_cell_angle_beta 90.000000
_cell_angle_gamma 90.000000
_cell_volume 2794.013093
_symmetry_space_group_name_H-M "P M M M"
_symmetry_group_IT_number 47
_symmetry_cell_setting 'orthorhombic'
loop_
_space_group_symop_operation_xyz
x,y,z
-x,-y,z
x,-y,-z
-x,y,-z
-x,-y,-z
x,y,-z
-x,y,z
x,-y,z
loop_
_atom_site_type_symbol
_atom_site_label
_atom_site_fract_x
_atom_site_fract_y
_atom_site_fract_z
Si Si1 0.604872 0.776446 0.203590
Si Si2 0.892917 0.061384 0.796270
Si Si3 0.209043 0.168941 0.303866
Si Si4 0.712261 0.667975 0.206725
Si Si5 0.392073 0.438922 0.205861
Si Si6 0.896048 0.274886 0.801218
O O1 0.500000 0.786519 0.265235
O O2 0.683904 0.819060 0.256914
O O3 0.642695 0.716953 0.256106
O O4 0.602803 0.776359 0.000000
O O5 0.825367 0.108673 0.736186
O O6 0.000000 0.072446 0.742046
O O7 0.868527 0.000000 0.741291
O O8 0.892555 0.061717 0.000000
O O9 0.197135 0.179672 0.500000
O O10 0.144771 0.213911 0.212936
O O11 0.673694 0.609962 0.263603
O O12 0.815101 0.685533 0.267151
O O13 0.713668 0.667578 0.000000
O O14 0.500000 0.429143 0.254624
O O15 0.365792 0.500000 0.259914
O O16 0.390526 0.438655 0.000000
O O17 0.000000 0.278917 0.727717
O O18 0.902878 0.286900 0.000000
#
# Coordination Sequence:
#
# PCOD9388239 Si02
#       6
#     8   8   8   8   8   8
#     4   9  17  30  48  66  85 115 153 186 215 254
#     4   9  18  33  52  71  91 118 151 183 213 250
#     4  11  21  30  44  68  96 120 141 174 222 267
#     4   8  13  22  37  57  80 108 144 181 215 255
#     4   8  12  17  28  50  80 110 137 170 217 269
#     4   9  17  29  44  60  81 113 151 186 218 257
#
# _framework density 17.179590000000001
#
# number of rings (size 3 to 8) (size 9 to 14) (size 15 to 20)
#    0.000    3.000    0.000    4.500    0.000    5.333 
#    0.000    0.833    0.000    1.000    0.000    7.000 
#    0.000   10.667    0.000   42.667    0.000   40.000 
#
# Total GULP energy -267466.408274 kJ/mol
# GULP energy per Si atom -5572.216839 kJ/mol
# Density = 1.714049 g / cm^3
# Si number density = 17.179590 Si / 1000 Ang^3
#
#
#
# Elastic Constant Matrix: (Units=GPa)
#
#
# Indices 1 2 3 4 5 6 
#
# 1 148.9903 94.7528 4.8068 0.0000 0.0000 0.0000
# 2 94.7528 138.0555 1.1466 0.0000 0.0000 0.0000
# 3 4.8068 1.1466 15.6216 0.0000 0.0000 0.0000
# 4 0.0000 0.0000 0.0000 -17.9112 0.0000 0.0000
# 5 0.0000 0.0000 0.0000 0.0000 -8.1519 0.0000
# 6 0.0000 0.0000 0.0000 0.0000 0.0000 21.1053
#
#
#
# Elastic Compliance Matrix: (Units=1/GPa)
#
#
# Indices 1 2 3 4 5 6 
#
# 1 0.012059 -0.008251 -0.003105 0.000000 0.000000 0.000000
# 2 -0.008251 0.012893 0.001593 0.000000 0.000000 0.000000
# 3 -0.003105 0.001593 0.064852 0.000000 0.000000 0.000000
# 4 0.000000 0.000000 0.000000 -0.055831 0.000000 0.000000
# 5 0.000000 0.000000 0.000000 0.000000 -0.122670 0.000000
# 6 0.000000 0.000000 0.000000 0.000000 0.000000 0.047381
#
#
# Mechanical properties :
#
#
# Convention : Reuss Voigt Hill
#
# Bulk Modulus (GPa) = 14.22925 56.00888 35.11906
# Shear Modulus (GPa) = 3051.79700 12.47252 1532.13476
#
# Velocity S-wave (km/s) = 42.19319 2.69738 29.89599
# Velocity P-wave (km/s) = 48.80561 6.50952 34.81638
#
# Compressibility (1/GPa) = 0.07027777
#
# Stress axis : x y z
#
# Youngs Moduli (GPa) = 82.92282 77.55999 15.41964
#
# Poissons Ratio (x) = 0.63995 0.04788
# Poissons Ratio (y) = 0.68420 -0.02456
# Poissons Ratio (z) = 0.25748 -0.12352
#
# Static dielectric constant tensor:
#      x y z
#    x 1.592370 0.000000 0.000000 
#    y 0.000000 1.569030 0.000000 
#    z 0.000000 0.000000 1.610440 
# 
# From -- ./inp_files/7474.got.cif
#   From: 2010.05.17/outbox.cif.g08.bks.cpg/sg47_4_cif.got.tgz:7474.got - 2010.06.03 20:15:42.
