data_PCOD9388638
_publ_section_title
;
Structure prediction by ZEFSAII (Michael W. Deem and Ramdas Pophale) SiO2 
 PCOD9388638
Probable space group: P M M M
;
_chemical_formula_sum "Si O2"
_cell_formula_units_Z 44
_cell_length_a 19.154243
_cell_length_b 14.969426
_cell_length_c 7.741024
_cell_angle_alpha 90.000000
_cell_angle_beta 90.000000
_cell_angle_gamma 90.000000
_cell_volume 2219.568509
_symmetry_space_group_name_H-M "P M M M"
_symmetry_group_IT_number 47
_symmetry_cell_setting 'orthorhombic'
loop_
_space_group_symop_operation_xyz
x,y,z
-x,-y,z
x,-y,-z
-x,y,-z
-x,-y,-z
x,y,-z
-x,y,z
x,-y,z
loop_
_atom_site_type_symbol
_atom_site_label
_atom_site_fract_x
_atom_site_fract_y
_atom_site_fract_z
Si Si1 0.687452 0.250696 0.697741
Si Si2 0.577322 0.399229 0.206473
Si Si3 0.578227 0.103909 0.208790
Si Si4 0.083583 0.893546 0.000000
Si Si5 0.842405 0.780596 0.701998
Si Si6 0.917706 0.399942 0.208773
O O1 0.702694 0.270437 0.500000
O O2 0.640351 0.332548 0.760327
O O3 0.638024 0.164981 0.716028
O O4 0.763358 0.230408 0.773483
O O5 0.500000 0.369142 0.269567
O O6 0.589426 0.500000 0.272124
O O7 0.572233 0.404262 0.000000
O O8 0.500000 0.131835 0.262412
O O9 0.586848 0.000000 0.253418
O O10 0.580850 0.111302 0.000000
O O11 0.116005 0.846136 0.169631
O O12 0.000000 0.879674 0.000000
O O13 0.097481 0.000000 0.000000
O O14 0.842692 0.810602 0.500000
O O15 0.876856 0.682478 0.711575
O O16 0.894338 0.500000 0.260332
O O17 0.000000 0.392532 0.249493
O O18 0.911278 0.394062 0.000000
#
# Coordination Sequence:
#
# PCOD9388638 Si02
#       6
#     8   8   8   4   8   8
#     4  11  24  37  53  84 122 158 196 241 300 362
#     4   9  19  36  58  84 115 159 215 263 300 347
#     4   9  19  36  58  83 109 144 194 246 294 347
#     4  11  26  48  73  97 120 157 209 257 313 384
#     4  11  25  42  62  95 134 166 205 258 313 373
#     4   9  18  35  62  94 125 159 201 247 297 361
#
# _framework density 19.823672999999999
#
# number of rings (size 3 to 8) (size 9 to 14) (size 15 to 20)
#    0.000    2.091    0.909    3.273    2.545    7.273 
#    0.000    9.091    0.000    0.000    0.000    0.000 
#    0.000    0.000    0.000    0.000    0.000    0.000 
#
# Total GULP energy -245567.227675 kJ/mol
# GULP energy per Si atom -5581.073356 kJ/mol
# Density = 1.977855 g / cm^3
# Si number density = 19.823673 Si / 1000 Ang^3
#
#
#
# Elastic Constant Matrix: (Units=GPa)
#
#
# Indices 1 2 3 4 5 6 
#
# 1 141.6286 81.8484 35.4579 0.0000 0.0000 0.0000
# 2 81.8484 113.1507 33.0856 0.0000 0.0000 0.0000
# 3 35.4579 33.0856 64.4297 0.0000 0.0000 0.0000
# 4 0.0000 0.0000 0.0000 32.7103 0.0000 0.0000
# 5 0.0000 0.0000 0.0000 0.0000 30.7044 0.0000
# 6 0.0000 0.0000 0.0000 0.0000 0.0000 17.0635
#
#
#
# Elastic Compliance Matrix: (Units=1/GPa)
#
#
# Indices 1 2 3 4 5 6 
#
# 1 0.012500 -0.008273 -0.002631 0.000000 0.000000 0.000000
# 2 -0.008273 0.015874 -0.003599 0.000000 0.000000 0.000000
# 3 -0.002631 -0.003599 0.018817 0.000000 0.000000 0.000000
# 4 0.000000 0.000000 0.000000 0.030571 0.000000 0.000000
# 5 0.000000 0.000000 0.000000 0.000000 0.032569 0.000000
# 6 0.000000 0.000000 0.000000 0.000000 0.000000 0.058605
#
#
# Mechanical properties :
#
#
# Convention : Reuss Voigt Hill
#
# Bulk Modulus (GPa) = 54.98788 68.88808 61.93798
# Shear Modulus (GPa) = 24.50931 27.35012 25.92971
#
# Velocity S-wave (km/s) = 3.52001 3.71842 3.62058
# Velocity P-wave (km/s) = 6.65728 7.29804 6.98501
#
# Compressibility (1/GPa) = 0.01818583
#
# Stress axis : x y z
#
# Youngs Moduli (GPa) = 79.99715 62.99465 53.14377
#
# Poissons Ratio (x) = 0.52115 0.13983
# Poissons Ratio (y) = 0.66181 0.19126
# Poissons Ratio (z) = 0.21048 0.22671
#
# Static dielectric constant tensor:
#      x y z
#    x 1.717390 0.000000 0.000000 
#    y 0.000000 1.684180 0.000000 
#    z 0.000000 0.000000 1.725410 
# 
# From -- ./inp_files/8952.got.cif
#   From: 2010.05.17/outbox.cif.g08.bks.cpg/sg47_5_cif.got.tgz:8952.got - 2010.06.03 20:15:42.
