data_PCOD9388053
_publ_section_title
;
Structure prediction by ZEFSAII (Michael W. Deem and Ramdas Pophale) SiO2 
 PCOD9388053
Probable space group: P M M M
;
_chemical_formula_sum "Si O2"
_cell_formula_units_Z 52
_cell_length_a 15.506579
_cell_length_b 7.986541
_cell_length_c 20.420883
_cell_angle_alpha 90.000000
_cell_angle_beta 90.000000
_cell_angle_gamma 90.000000
_cell_volume 2529.002383
_symmetry_space_group_name_H-M "P M M M"
_symmetry_group_IT_number 47
_symmetry_cell_setting 'orthorhombic'
loop_
_space_group_symop_operation_xyz
x,y,z
-x,-y,z
x,-y,-z
-x,y,-z
-x,-y,-z
x,y,-z
-x,y,z
x,-y,z
loop_
_atom_site_type_symbol
_atom_site_label
_atom_site_fract_x
_atom_site_fract_y
_atom_site_fract_z
Si Si1 0.825655 0.302358 0.126587
Si Si2 0.100511 0.802786 0.262643
Si Si3 0.000000 0.310967 0.923849
Si Si4 0.592389 0.698618 0.785016
Si Si5 0.644254 0.194745 0.925575
Si Si6 0.596890 0.797681 0.576301
Si Si7 0.733169 0.697934 0.683934
O O1 0.814580 0.500000 0.110693
O O2 0.849548 0.286634 0.202781
O O3 0.912039 0.227852 0.095746
O O4 0.743987 0.212679 0.095765
O O5 0.171125 0.775831 0.319717
O O6 0.000000 0.746251 0.270528
O O7 0.096735 0.000000 0.248324
O O8 0.000000 0.500000 0.893102
O O9 0.000000 0.331436 0.000000
O O10 0.500000 0.769812 0.763239
O O11 0.592334 0.500000 0.772145
O O12 0.599438 0.721177 0.863125
O O13 0.674292 0.766696 0.744882
O O14 0.619503 0.000000 0.925990
O O15 0.630937 0.259968 0.000000
O O16 0.608205 0.752282 0.500000
O O17 0.500000 0.742098 0.596415
O O18 0.672069 0.728580 0.621787
O O19 0.598519 0.000000 0.580365
O O20 0.745325 0.500000 0.692537
#
# Coordination Sequence:
#
# PCOD9388053 Si02
#       7
#     8   8   4   8   8   8   8
#     4  11  20  34  55  77 104 139 183 234 292 354
#     4  11  23  38  58  84 116 152 193 240 291 347
#     4   9  18  30  47  73 101 131 172 225 286 351
#     4  10  22  39  58  82 111 146 191 240 292 351
#     4  11  24  39  54  75 105 143 189 240 296 355
#     4   9  19  37  62  94 132 171 205 235 277 338
#     4  11  22  37  61  91 122 157 197 242 291 342
#
# _framework density 20.561468000000001
#
# number of rings (size 3 to 8) (size 9 to 14) (size 15 to 20)
#    0.000    1.615    2.308    3.231    0.000    5.231 
#    0.000    2.308    0.000    2.308    0.000    3.231 
#    0.000    0.000    0.000    0.000    0.000    0.000 
#
# Total GULP energy -289982.992379 kJ/mol
# GULP energy per Si atom -5576.596007 kJ/mol
# Density = 2.051467 g / cm^3
# Si number density = 20.561468 Si / 1000 Ang^3
#
#
#
# Elastic Constant Matrix: (Units=GPa)
#
#
# Indices 1 2 3 4 5 6 
#
# 1 130.7000 -0.1777 38.8938 0.0000 0.0000 0.0000
# 2 -0.1777 33.3797 -1.0495 0.0000 0.0000 0.0000
# 3 38.8938 -1.0495 81.0061 0.0000 0.0000 0.0000
# 4 0.0000 0.0000 0.0000 20.8225 0.0000 0.0000
# 5 0.0000 0.0000 0.0000 0.0000 31.6453 0.0000
# 6 0.0000 0.0000 0.0000 0.0000 0.0000 22.9412
#
#
#
# Elastic Compliance Matrix: (Units=1/GPa)
#
#
# Indices 1 2 3 4 5 6 
#
# 1 0.008927 -0.000087 -0.004287 0.000000 0.000000 0.000000
# 2 -0.000087 0.029971 0.000430 0.000000 0.000000 0.000000
# 3 -0.004287 0.000430 0.014409 0.000000 0.000000 0.000000
# 4 0.000000 0.000000 0.000000 0.048025 0.000000 0.000000
# 5 0.000000 0.000000 0.000000 0.000000 0.031600 0.000000
# 6 0.000000 0.000000 0.000000 0.000000 0.000000 0.043590
#
#
# Mechanical properties :
#
#
# Convention : Reuss Voigt Hill
#
# Bulk Modulus (GPa) = 22.01752 35.60213 28.80983
# Shear Modulus (GPa) = 25.05640 28.90974 26.98307
#
# Velocity S-wave (km/s) = 3.49465 3.75375 3.62652
# Velocity P-wave (km/s) = 5.19758 6.01167 5.61938
#
# Compressibility (1/GPa) = 0.04541837
#
# Stress axis : x y z
#
# Youngs Moduli (GPa) = 112.02248 33.36520 69.40229
#
# Poissons Ratio (x) = 0.00291 0.29754
# Poissons Ratio (y) = 0.00978 -0.02986
# Poissons Ratio (z) = 0.48026 -0.01435
#
# Static dielectric constant tensor:
#      x y z
#    x 1.804090 0.000000 0.000000 
#    y 0.000000 1.743550 0.000000 
#    z 0.000000 0.000000 1.772260 
# 
# From -- ./inp_files/30860.got.cif
#   From: 2010.05.17/outbox.cif.g08.bks.cpg/sg47_16_cif.got.tgz:30860.got - 2010.06.03 20:15:42.
