data_PCOD9388781
_publ_section_title
;
Structure prediction by ZEFSAII (Michael W. Deem and Ramdas Pophale) SiO2 
 PCOD9388781
Probable space group: P M M M
;
_chemical_formula_sum "Si O2"
_cell_formula_units_Z 52
_cell_length_a 7.333563
_cell_length_b 34.443574
_cell_length_c 10.267114
_cell_angle_alpha 90.000000
_cell_angle_beta 90.000000
_cell_angle_gamma 90.000000
_cell_volume 2593.412624
_symmetry_space_group_name_H-M "P M M M"
_symmetry_group_IT_number 47
_symmetry_cell_setting 'orthorhombic'
loop_
_space_group_symop_operation_xyz
x,y,z
-x,-y,z
x,-y,-z
-x,y,-z
-x,-y,-z
x,y,-z
-x,y,z
x,-y,z
loop_
_atom_site_type_symbol
_atom_site_label
_atom_site_fract_x
_atom_site_fract_y
_atom_site_fract_z
Si Si1 0.289694 0.000000 0.341824
Si Si2 0.222075 0.609003 0.350911
Si Si3 0.777683 0.302860 0.648980
Si Si4 0.222133 0.455977 0.149177
Si Si5 0.276501 0.914844 0.650572
Si Si6 0.717469 0.149996 0.147943
Si Si7 0.217712 0.760999 0.852391
O O1 0.213750 0.042116 0.305623
O O2 0.500000 0.000000 0.297790
O O3 0.289428 0.000000 0.500000
O O4 0.277256 0.601071 0.500000
O O5 0.276982 0.653060 0.317209
O O6 0.284377 0.576548 0.249918
O O7 0.000000 0.608591 0.349550
O O8 0.721995 0.294897 0.500000
O O9 0.713337 0.270673 0.750500
O O10 0.000000 0.302382 0.649544
O O11 0.277524 0.500000 0.183103
O O12 0.000000 0.455626 0.150595
O O13 0.277080 0.448100 0.000000
O O14 0.222676 0.908314 0.500000
O O15 0.500000 0.915688 0.650273
O O16 0.215186 0.881261 0.748009
O O17 0.500000 0.144794 0.141596
O O18 0.749780 0.194524 0.188184
O O19 0.788279 0.145162 0.000000
O O20 0.000000 0.755950 0.858604
O O21 0.288540 0.756287 0.000000
#
# Coordination Sequence:
#
# PCOD9388781 Si02
#       7
#     4   8   8   8   8   8   8
#     4   7  10  18  33  53  76  99 122 150 182 213
#     4   8  13  20  29  41  57  78 105 138 177 217
#     4   8  14  24  36  50  68  88 113 150 191 223
#     4   8  13  19  25  35  53  77 106 140 175 210
#     4   8  13  22  37  56  77 101 127 152 180 218
#     4   9  17  28  40  56  80 104 123 150 189 224
#     4   9  17  28  41  56  73  96 127 157 184 220
#
# _framework density 20.050802000000001
#
# number of rings (size 3 to 8) (size 9 to 14) (size 15 to 20)
#    0.000    3.769    0.000    2.308    0.000    1.538 
#    0.000    5.000    0.000    2.308    0.000    0.538 
#    0.000    4.308    0.000    0.000    0.000    0.769 
#
# Total GULP energy -289843.245636 kJ/mol
# GULP energy per Si atom -5573.908570 kJ/mol
# Density = 2.000517 g / cm^3
# Si number density = 20.050802 Si / 1000 Ang^3
#
#
#
# Elastic Constant Matrix: (Units=GPa)
#
#
# Indices 1 2 3 4 5 6 
#
# 1 77.4546 5.2101 6.0492 0.0000 0.0000 0.0000
# 2 5.2101 230.9433 157.7370 0.0000 0.0000 0.0000
# 3 6.0492 157.7370 132.0795 0.0000 0.0000 0.0000
# 4 0.0000 0.0000 0.0000 153.8108 0.0000 0.0000
# 5 0.0000 0.0000 0.0000 0.0000 -9.4850 0.0000
# 6 0.0000 0.0000 0.0000 0.0000 0.0000 4.4750
#
#
#
# Elastic Compliance Matrix: (Units=1/GPa)
#
#
# Indices 1 2 3 4 5 6 
#
# 1 0.012973 0.000614 -0.001327 0.000000 0.000000 0.000000
# 2 0.000614 0.023523 -0.028120 0.000000 0.000000 0.000000
# 3 -0.001327 -0.028120 0.041215 0.000000 0.000000 0.000000
# 4 0.000000 0.000000 0.000000 0.006501 0.000000 0.000000
# 5 0.000000 0.000000 0.000000 0.000000 -0.105429 0.000000
# 6 0.000000 0.000000 0.000000 0.000000 0.000000 0.223464
#
#
# Mechanical properties :
#
#
# Convention : Reuss Voigt Hill
#
# Bulk Modulus (GPa) = 49.89196 86.49665 68.19430
# Shear Modulus (GPa) = 18.75499 47.85889 33.30694
#
# Velocity S-wave (km/s) = 3.06171 4.89087 4.08012
# Velocity P-wave (km/s) = 6.11846 8.66756 7.50207
#
# Compressibility (1/GPa) = 0.02004331
#
# Stress axis : x y z
#
# Youngs Moduli (GPa) = 77.08225 42.51203 24.26303
#
# Poissons Ratio (x) = -0.02610 0.03221
# Poissons Ratio (y) = -0.04732 0.68229
# Poissons Ratio (z) = 0.10231 1.19545
#
# Static dielectric constant tensor:
#      x y z
#    x 1.891250 0.000000 0.000000 
#    y 0.000000 1.688030 0.000000 
#    z 0.000000 0.000000 1.675180 
# 
# From -- ./inp_files/15456.got.cif
#   From: 2010.05.17/outbox.cif.g08.bks.cpg/sg47_8_cif.got.tgz:15456.got - 2010.06.03 20:15:42.
