data_PCOD9388788
_publ_section_title
;
Structure prediction by ZEFSAII (Michael W. Deem and Ramdas Pophale) SiO2 
 PCOD9388788
Probable space group: P M M M
;
_chemical_formula_sum "Si O2"
_cell_formula_units_Z 44
_cell_length_a 7.408027
_cell_length_b 16.116823
_cell_length_c 17.745079
_cell_angle_alpha 90.000000
_cell_angle_beta 90.000000
_cell_angle_gamma 90.000000
_cell_volume 2118.653477
_symmetry_space_group_name_H-M "P M M M"
_symmetry_group_IT_number 47
_symmetry_cell_setting 'orthorhombic'
loop_
_space_group_symop_operation_xyz
x,y,z
-x,-y,z
x,-y,-z
-x,y,-z
-x,-y,-z
x,y,-z
-x,y,z
x,-y,z
loop_
_atom_site_type_symbol
_atom_site_label
_atom_site_fract_x
_atom_site_fract_y
_atom_site_fract_z
Si Si1 0.285957 0.411432 0.701553
Si Si2 0.721142 0.227428 0.122795
Si Si3 0.713753 0.409973 0.115842
Si Si4 0.285730 0.233716 0.705614
Si Si5 0.216644 0.093435 0.415519
Si Si6 0.720248 0.095321 0.000000
O O1 0.500000 0.413786 0.684287
O O2 0.209555 0.500000 0.675713
O O3 0.270540 0.409493 0.792853
O O4 0.213145 0.322427 0.676195
O O5 0.500000 0.229549 0.121270
O O6 0.781148 0.318655 0.093333
O O7 0.780791 0.217184 0.209504
O O8 0.776396 0.150372 0.071712
O O9 0.500000 0.411161 0.097857
O O10 0.786969 0.500000 0.090376
O O11 0.500000 0.245558 0.714562
O O12 0.260947 0.159767 0.647748
O O13 0.280344 0.115719 0.500000
O O14 0.000000 0.090007 0.418655
O O15 0.280958 0.000000 0.398129
O O16 0.500000 0.093144 0.000000
O O17 0.781307 0.000000 0.000000
#
# Coordination Sequence:
#
# PCOD9388788 Si02
#       6
#     8   8   8   8   8   4
#     4   7  10  18  34  58  87 114 136 162 204 254
#     4   8  14  23  34  53  80 106 136 172 206 243
#     4   7   9  15  28  45  68  99 131 163 201 242
#     4   9  16  26  45  71  90 107 141 186 217 240
#     4   9  19  35  50  63  84 114 141 167 212 272
#     4   9  16  24  31  41  70 116 147 164 204 260
#
# _framework density 20.767906
#
# number of rings (size 3 to 8) (size 9 to 14) (size 15 to 20)
#    0.000    3.909    0.000    3.818    0.000    1.455 
#    0.000    3.182    0.000    3.818    0.000    4.455 
#    0.000    2.182    0.000    0.000    0.000   15.455 
#
# Total GULP energy -244968.328234 kJ/mol
# GULP energy per Si atom -5567.462005 kJ/mol
# Density = 2.072064 g / cm^3
# Si number density = 20.767906 Si / 1000 Ang^3
#
#
#
# Elastic Constant Matrix: (Units=GPa)
#
#
# Indices 1 2 3 4 5 6 
#
# 1 63.8635 7.5861 1.1247 0.0000 0.0000 0.0000
# 2 7.5861 258.8108 106.5964 0.0000 0.0000 0.0000
# 3 1.1247 106.5964 93.0833 0.0000 0.0000 0.0000
# 4 0.0000 0.0000 0.0000 855.5557 0.0000 0.0000
# 5 0.0000 0.0000 0.0000 0.0000 -4.8549 0.0000
# 6 0.0000 0.0000 0.0000 0.0000 0.0000 39.0339
#
#
#
# Elastic Compliance Matrix: (Units=1/GPa)
#
#
# Indices 1 2 3 4 5 6 
#
# 1 0.015733 -0.000725 0.000640 0.000000 0.000000 0.000000
# 2 -0.000725 0.007347 -0.008404 0.000000 0.000000 0.000000
# 3 0.000640 -0.008404 0.020360 0.000000 0.000000 0.000000
# 4 0.000000 0.000000 0.000000 0.001169 0.000000 0.000000
# 5 0.000000 0.000000 0.000000 0.000000 -0.205979 0.000000
# 6 0.000000 0.000000 0.000000 0.000000 0.000000 0.025619
#
#
# Mechanical properties :
#
#
# Convention : Reuss Voigt Hill
#
# Bulk Modulus (GPa) = 37.79134 71.81908 54.80521
# Shear Modulus (GPa) = -45.47401 197.97697 76.25148
#
# Velocity S-wave (km/s) = -4.68442 9.77421 6.06595
# Velocity P-wave (km/s) = 3.31993 12.72938 8.68951
#
# Compressibility (1/GPa) = 0.02646109
#
# Stress axis : x y z
#
# Youngs Moduli (GPa) = 63.55979 136.11829 49.11656
#
# Poissons Ratio (x) = 0.09864 -0.03142
# Poissons Ratio (y) = 0.04606 0.41279
# Poissons Ratio (z) = -0.04066 1.14398
#
# Static dielectric constant tensor:
#      x y z
#    x 1.807070 0.000000 0.000000 
#    y 0.000000 1.791070 0.000000 
#    z 0.000000 0.000000 1.715200 
# 
# From -- ./inp_files/17404.got.cif
#   From: 2010.05.17/outbox.cif.g08.bks.cpg/sg47_9_cif.got.tgz:17404.got - 2010.06.03 20:15:42.
