data_PCOD9388677
_publ_section_title
;
Structure prediction by ZEFSAII (Michael W. Deem and Ramdas Pophale) SiO2 
 PCOD9388677
Probable space group: P M M M
;
_chemical_formula_sum "Si O2"
_cell_formula_units_Z 17
_cell_length_a 7.855039
_cell_length_b 9.879525
_cell_length_c 10.278932
_cell_angle_alpha 90.000000
_cell_angle_beta 90.000000
_cell_angle_gamma 90.000000
_cell_volume 797.686796
_symmetry_space_group_name_H-M "P M M M"
_symmetry_group_IT_number 47
_symmetry_cell_setting 'orthorhombic'
loop_
_space_group_symop_operation_xyz
x,y,z
-x,-y,z
x,-y,-z
-x,y,-z
-x,-y,-z
x,y,-z
-x,y,z
x,-y,z
loop_
_atom_site_type_symbol
_atom_site_label
_atom_site_fract_x
_atom_site_fract_y
_atom_site_fract_z
Si Si1 0.000000 0.000000 0.500000
Si Si2 0.690011 0.220055 0.500000
Si Si3 0.296197 0.845235 0.000000
Si Si4 0.202347 0.348600 0.236146
O O1 0.152196 0.883511 0.500000
O O2 0.500000 0.158716 0.500000
O O3 0.708814 0.308919 0.629876
O O4 0.239499 0.762409 0.873476
O O5 0.500000 0.850144 0.000000
O O6 0.231537 0.000000 0.000000
O O7 0.252605 0.500000 0.192909
O O8 0.000000 0.348936 0.258888
#
# Coordination Sequence:
#
# PCOD9388677 Si02
#       4
#     1   4   4   8
#     4  12  26  48  66 104 152 184 216 298 344 418
#     4  12  26  44  74 105 138 185 235 282 347 415
#     4  11  26  43  64  98 138 181 236 291 348 416
#     4  11  24  45  70 100 138 183 232 289 351 413
#
# _framework density 21.311620999999999
#
# number of rings (size 3 to 8) (size 9 to 14) (size 15 to 20)
#    0.000    0.706    2.353    3.882    3.294   11.294 
#    0.000    0.000    0.000    0.000    0.000    0.000 
#    0.000    0.000    0.000    0.000    0.000    0.000 
#
# Total GULP energy -94841.508862 kJ/mol
# GULP energy per Si atom -5578.912286 kJ/mol
# Density = 2.126311 g / cm^3
# Si number density = 21.311621 Si / 1000 Ang^3
#
#
#
# Elastic Constant Matrix: (Units=GPa)
#
#
# Indices 1 2 3 4 5 6 
#
# 1 151.0746 49.0512 18.6290 0.0000 0.0000 0.0000
# 2 49.0512 201.4387 80.2671 0.0000 0.0000 0.0000
# 3 18.6290 80.2671 158.4671 0.0000 0.0000 0.0000
# 4 0.0000 0.0000 0.0000 -47.0502 0.0000 0.0000
# 5 0.0000 0.0000 0.0000 0.0000 35.6804 0.0000
# 6 0.0000 0.0000 0.0000 0.0000 0.0000 -6.8734
#
#
#
# Elastic Compliance Matrix: (Units=1/GPa)
#
#
# Indices 1 2 3 4 5 6 
#
# 1 0.007188 -0.001771 0.000052 0.000000 0.000000 0.000000
# 2 -0.001771 0.006656 -0.003163 0.000000 0.000000 0.000000
# 3 0.000052 -0.003163 0.007907 0.000000 0.000000 0.000000
# 4 0.000000 0.000000 0.000000 -0.021254 0.000000 0.000000
# 5 0.000000 0.000000 0.000000 0.000000 0.028027 0.000000
# 6 0.000000 0.000000 0.000000 0.000000 0.000000 -0.145487
#
#
# Mechanical properties :
#
#
# Convention : Reuss Voigt Hill
#
# Bulk Modulus (GPa) = 83.43000 89.65276 86.54138
# Shear Modulus (GPa) = -48.44743 20.55355 -13.94694
#
# Velocity S-wave (km/s) = -4.77307 3.10890 -2.56096
# Velocity P-wave (km/s) = 2.97596 7.41929 5.65253
#
# Compressibility (1/GPa) = 0.01198610
#
# Stress axis : x y z
#
# Youngs Moduli (GPa) = 139.12377 150.24078 126.47707
#
# Poissons Ratio (x) = 0.26608 -0.00659
# Poissons Ratio (y) = 0.24639 0.40007
# Poissons Ratio (z) = -0.00725 0.47524
#
# Static dielectric constant tensor:
#      x y z
#    x 1.766170 0.000000 0.000000 
#    y 0.000000 1.762670 0.000000 
#    z 0.000000 0.000000 1.727810 
# 
# From -- ./inp_files/137.got.cif
#   From: 2010.05.17/outbox.cif.g08.bks.cpg/sg47_1_cif.got.tgz:137.got - 2010.06.03 20:15:42.
