data_PCOD9388014
_publ_section_title
;
Structure prediction by ZEFSAII (Michael W. Deem and Ramdas Pophale) SiO2 
 PCOD9388014
Probable space group: P M M M
;
_chemical_formula_sum "Si O2"
_cell_formula_units_Z 48
_cell_length_a 8.037592
_cell_length_b 14.523409
_cell_length_c 19.232783
_cell_angle_alpha 90.000000
_cell_angle_beta 90.000000
_cell_angle_gamma 90.000000
_cell_volume 2245.104997
_symmetry_space_group_name_H-M "P M M M"
_symmetry_group_IT_number 47
_symmetry_cell_setting 'orthorhombic'
loop_
_space_group_symop_operation_xyz
x,y,z
-x,-y,z
x,-y,-z
-x,y,-z
-x,-y,-z
x,y,-z
-x,y,z
x,-y,z
loop_
_atom_site_type_symbol
_atom_site_label
_atom_site_fract_x
_atom_site_fract_y
_atom_site_fract_z
Si Si1 0.300251 0.892477 0.647089
Si Si2 0.000000 0.612895 0.579735
Si Si3 0.802880 0.894260 0.500000
Si Si4 0.316194 0.612302 0.670232
Si Si5 0.199028 0.764421 0.922467
Si Si6 0.299938 0.107929 0.202531
Si Si7 0.201276 0.393440 0.823440
O O1 0.500000 0.892760 0.649016
O O2 0.248904 0.850854 0.573353
O O3 0.241093 0.854847 0.721797
O O4 0.244121 0.000000 0.645866
O O5 0.165008 0.641699 0.621291
O O6 0.000000 0.500000 0.579104
O O7 0.000000 0.644347 0.500000
O O8 0.000000 0.900168 0.500000
O O9 0.731934 0.000000 0.500000
O O10 0.500000 0.645578 0.649532
O O11 0.317475 0.500000 0.667825
O O12 0.280499 0.636249 0.750346
O O13 0.235202 0.841270 0.865098
O O14 0.257995 0.670044 0.886647
O O15 0.000000 0.757539 0.928128
O O16 0.266203 0.780850 0.000000
O O17 0.500000 0.115110 0.201703
O O18 0.257006 0.000000 0.199725
O O19 0.242008 0.500000 0.835162
O O20 0.000000 0.386756 0.815968
#
# Coordination Sequence:
#
# PCOD9388014 Si02
#       7
#     8   4   4   8   8   8   8
#     4   8  14  26  44  66  94 131 175 216 256 307
#     4   9  16  26  42  70 109 147 184 231 283 333
#     4   9  15  21  35  67 105 133 162 207 260 311
#     4   9  16  27  46  73 104 141 187 231 276 336
#     4  10  22  37  54  82 113 140 177 223 275 336
#     4   9  19  36  56  77 104 144 190 229 269 321
#     4   9  17  33  56  78 106 144 182 225 280 340
#
# _framework density 21.379845
#
# number of rings (size 3 to 8) (size 9 to 14) (size 15 to 20)
#    0.000    3.000    0.833    1.250    0.000    4.000 
#    0.000    6.667    0.000    0.000    2.167    3.500 
#    0.000    0.000    0.000    0.000    0.000    0.000 
#
# Total GULP energy -267849.886640 kJ/mol
# GULP energy per Si atom -5580.205972 kJ/mol
# Density = 2.133118 g / cm^3
# Si number density = 21.379845 Si / 1000 Ang^3
#
#
#
# Elastic Constant Matrix: (Units=GPa)
#
#
# Indices 1 2 3 4 5 6 
#
# 1 60.2250 9.3075 61.7296 0.0000 0.0000 0.0000
# 2 9.3075 54.6468 51.2135 0.0000 0.0000 0.0000
# 3 61.7296 51.2135 247.8893 0.0000 0.0000 0.0000
# 4 0.0000 0.0000 0.0000 31.9237 0.0000 0.0000
# 5 0.0000 0.0000 0.0000 0.0000 21.8516 0.0000
# 6 0.0000 0.0000 0.0000 0.0000 0.0000 -10.5863
#
#
#
# Elastic Compliance Matrix: (Units=1/GPa)
#
#
# Indices 1 2 3 4 5 6 
#
# 1 0.022430 0.001754 -0.005948 0.000000 0.000000 0.000000
# 2 0.001754 0.022830 -0.005153 0.000000 0.000000 0.000000
# 3 -0.005948 -0.005153 0.006580 0.000000 0.000000 0.000000
# 4 0.000000 0.000000 0.000000 0.031325 0.000000 0.000000
# 5 0.000000 0.000000 0.000000 0.000000 0.045763 0.000000
# 6 0.000000 0.000000 0.000000 0.000000 0.000000 -0.094461
#
#
# Mechanical properties :
#
#
# Convention : Reuss Voigt Hill
#
# Bulk Modulus (GPa) = 30.17034 67.47358 48.82196
# Shear Modulus (GPa) = 77.87007 24.67184 51.27096
#
# Velocity S-wave (km/s) = 6.04163 3.40071 4.90235
# Velocity P-wave (km/s) = 7.92531 6.85913 7.41142
#
# Compressibility (1/GPa) = 0.03314514
#
# Stress axis : x y z
#
# Youngs Moduli (GPa) = 44.58364 43.80151 151.97835
#
# Poissons Ratio (x) = -0.07682 0.90394
# Poissons Ratio (y) = -0.07820 0.78321
# Poissons Ratio (z) = 0.26518 0.22573
#
# Static dielectric constant tensor:
#      x y z
#    x 1.770910 0.000000 0.000000 
#    y 0.000000 1.835200 0.000000 
#    z 0.000000 0.000000 1.738020 
# 
# From -- ./inp_files/26539.got.cif
#   From: 2010.05.17/outbox.cif.g08.bks.cpg/sg47_14_cif.got.tgz:26539.got - 2010.06.03 20:15:42.
