data_PCOD9388268
_publ_section_title
;
Structure prediction by ZEFSAII (Michael W. Deem and Ramdas Pophale) SiO2 
 PCOD9388268
Probable space group: P M M M
;
_chemical_formula_sum "Si O2"
_cell_formula_units_Z 48
_cell_length_a 19.937879
_cell_length_b 21.166614
_cell_length_c 9.387726
_cell_angle_alpha 90.000000
_cell_angle_beta 90.000000
_cell_angle_gamma 90.000000
_cell_volume 3961.783613
_symmetry_space_group_name_H-M "P M M M"
_symmetry_group_IT_number 47
_symmetry_cell_setting 'orthorhombic'
loop_
_space_group_symop_operation_xyz
x,y,z
-x,-y,z
x,-y,-z
-x,y,-z
-x,-y,-z
x,y,-z
-x,y,z
x,-y,z
loop_
_atom_site_type_symbol
_atom_site_label
_atom_site_fract_x
_atom_site_fract_y
_atom_site_fract_z
Si Si1 0.081863 0.500000 0.663424
Si Si2 0.573875 0.076594 0.832828
Si Si3 0.081486 0.622402 0.836302
Si Si4 0.853512 0.881419 0.328784
Si Si5 0.080603 0.000000 0.168113
Si Si6 0.919617 0.234463 0.830078
Si Si7 0.294615 0.925759 0.669162
O O1 0.102255 0.500000 0.500000
O O2 0.104340 0.564004 0.741187
O O3 0.000000 0.500000 0.668212
O O4 0.500000 0.098141 0.782296
O O5 0.639275 0.098452 0.748767
O O6 0.573687 0.000000 0.821215
O O7 0.579707 0.091643 0.000000
O O8 0.100550 0.693497 0.792825
O O9 0.000000 0.622083 0.834680
O O10 0.101920 0.612459 0.000000
O O11 0.863491 0.885522 0.500000
O O12 0.882004 0.816963 0.263805
O O13 0.774227 0.889668 0.299732
O O14 0.890789 0.938792 0.248764
O O15 0.000000 0.000000 0.175561
O O16 0.099387 0.000000 0.000000
O O17 0.000000 0.228253 0.809236
O O18 0.907563 0.225337 0.000000
O O19 0.306241 0.923432 0.500000
O O20 0.284009 0.000000 0.707122
#
# Coordination Sequence:
#
# PCOD9388268 Si02
#       7
#     4   8   8   8   4   8   8
#     4   9  15  21  33  55  77  91 109 139 172 211
#     4   8  14  24  38  57  76  90 108 135 167 206
#     4   8  14  25  39  52  69  93 116 140 174 216
#     4  11  21  32  43  56  73  92 117 153 193 229
#     4  11  23  35  45  55  66  85 118 157 195 236
#     4   9  18  31  43  55  71  92 122 156 188 227
#     4   9  17  29  40  52  72  93 115 142 175 220
#
# _framework density 12.115755
#
# number of rings (size 3 to 8) (size 9 to 14) (size 15 to 20)
#    0.000    2.833    0.833    3.000    0.000    6.333 
#    0.000    3.333    0.000    0.000    0.000    0.000 
#    0.000    0.000    0.000    0.000    0.000    0.000 
#
# Total GULP energy -267226.347080 kJ/mol
# GULP energy per Si atom -5567.215564 kJ/mol
# Density = 1.208818 g / cm^3
# Si number density = 12.115755 Si / 1000 Ang^3
#
#
#
# Elastic Constant Matrix: (Units=GPa)
#
#
# Indices 1 2 3 4 5 6 
#
# 1 70.0638 36.6277 46.5294 0.0000 0.0000 0.0000
# 2 36.6277 93.0760 59.0811 0.0000 0.0000 0.0000
# 3 46.5294 59.0811 66.6092 0.0000 0.0000 0.0000
# 4 0.0000 0.0000 0.0000 12.9276 0.0000 0.0000
# 5 0.0000 0.0000 0.0000 0.0000 19.4655 0.0000
# 6 0.0000 0.0000 0.0000 0.0000 0.0000 -0.0581
#
#
#
# Elastic Compliance Matrix: (Units=1/GPa)
#
#
# Indices 1 2 3 4 5 6 
#
# 1 0.027004 0.003083 -0.021598 0.000000 0.000000 0.000000
# 2 0.003083 0.024939 -0.024274 0.000000 0.000000 0.000000
# 3 -0.021598 -0.024274 0.051630 0.000000 0.000000 0.000000
# 4 0.000000 0.000000 0.000000 0.077354 0.000000 0.000000
# 5 0.000000 0.000000 0.000000 0.000000 0.051373 0.000000
# 6 0.000000 0.000000 0.000000 0.000000 0.000000-17.211842
#
#
# Mechanical properties :
#
#
# Convention : Reuss Voigt Hill
#
# Bulk Modulus (GPa) = 55.56911 57.13616 56.35263
# Shear Modulus (GPa) = -0.29607 12.30106 6.00249
#
# Velocity S-wave (km/s) = -0.49487 3.18982 2.22824
# Velocity P-wave (km/s) = 6.75561 7.79920 7.29609
#
# Compressibility (1/GPa) = 0.01799561
#
# Stress axis : x y z
#
# Youngs Moduli (GPa) = 37.03098 40.09834 19.36851
#
# Poissons Ratio (x) = -0.12361 0.41832
# Poissons Ratio (y) = -0.11415 0.47014
# Poissons Ratio (z) = 0.79980 0.97333
#
# Static dielectric constant tensor:
#      x y z
#    x 1.382220 0.000000 0.000000 
#    y 0.000000 1.385420 0.000000 
#    z 0.000000 0.000000 1.403370 
# 
# From -- ./inp_files/11435.got.cif
#   From: 2010.05.17/outbox.cif.g08.bks.cpg/sg47_6_cif.got.tgz:11435.got - 2010.06.03 20:15:42.
