data_PCOD9388960
_publ_section_title
;
Structure prediction by ZEFSAII (Michael W. Deem and Ramdas Pophale) SiO2 
 PCOD9388960
Probable space group: P M M M
;
_chemical_formula_sum "Si O2"
_cell_formula_units_Z 36
_cell_length_a 24.633549
_cell_length_b 7.405913
_cell_length_c 9.667584
_cell_angle_alpha 90.000000
_cell_angle_beta 90.000000
_cell_angle_gamma 90.000000
_cell_volume 1763.695254
_symmetry_space_group_name_H-M "P M M M"
_symmetry_group_IT_number 47
_symmetry_cell_setting 'orthorhombic'
loop_
_space_group_symop_operation_xyz
x,y,z
-x,-y,z
x,-y,-z
-x,y,-z
-x,-y,-z
x,y,-z
-x,y,z
x,-y,z
loop_
_atom_site_type_symbol
_atom_site_label
_atom_site_fract_x
_atom_site_fract_y
_atom_site_fract_z
Si Si1 0.060348 0.279914 0.160264
Si Si2 0.399513 0.213129 0.657969
Si Si3 0.837970 0.279762 0.661291
Si Si4 0.500000 0.221483 0.159182
Si Si5 0.280168 0.283324 0.339997
O O1 0.060797 0.500000 0.163472
O O2 0.110559 0.216772 0.251861
O O3 0.000000 0.223930 0.207334
O O4 0.066719 0.227501 0.000000
O O5 0.401043 0.287551 0.500000
O O6 0.446762 0.282539 0.756812
O O7 0.338802 0.233969 0.718600
O O8 0.409080 0.000000 0.645390
O O9 0.842195 0.228424 0.500000
O O10 0.838719 0.500000 0.664453
O O11 0.778365 0.222844 0.716304
O O12 0.500000 0.000000 0.157489
O O13 0.500000 0.279273 0.000000
O O14 0.281521 0.220479 0.500000
O O15 0.278641 0.500000 0.341265
#
# Coordination Sequence:
#
# PCOD9388960 Si02
#       5
#     8   8   8   4   8
#     4   8  13  20  29  43  66  95 124 154 188 223
#     4   9  16  27  45  65  80  98 130 165 190 221
#     4   8  13  21  33  48  67  94 125 152 181 222
#     4   9  17  29  44  61  82 106 128 155 196 236
#     4   8  14  25  40  58  81 106 129 156 193 233
#
# _framework density 20.411688000000002
#
# number of rings (size 3 to 8) (size 9 to 14) (size 15 to 20)
#    0.000    3.667    0.000    2.333    0.000    1.778 
#    0.000    3.889    0.000    5.333    0.000    0.000 
#    0.000    0.889    0.000   11.111    0.000   12.889 
#
# Total GULP energy -200504.765248 kJ/mol
# GULP energy per Si atom -5569.576812 kJ/mol
# Density = 2.036523 g / cm^3
# Si number density = 20.411688 Si / 1000 Ang^3
#
#
#
# Elastic Constant Matrix: (Units=GPa)
#
#
# Indices 1 2 3 4 5 6 
#
# 1 266.0497 3.7253 105.5249 0.0000 0.0000 0.0000
# 2 3.7253 64.7909 4.2151 0.0000 0.0000 0.0000
# 3 105.5249 4.2151 75.5744 0.0000 0.0000 0.0000
# 4 0.0000 0.0000 0.0000 -5.1375 0.0000 0.0000
# 5 0.0000 0.0000 0.0000 0.0000 -15.2190 0.0000
# 6 0.0000 0.0000 0.0000 0.0000 0.0000 17.7415
#
#
#
# Elastic Compliance Matrix: (Units=1/GPa)
#
#
# Indices 1 2 3 4 5 6 
#
# 1 0.008429 0.000282 -0.011786 0.000000 0.000000 0.000000
# 2 0.000282 0.015500 -0.001258 0.000000 0.000000 0.000000
# 3 -0.011786 -0.001258 0.029759 0.000000 0.000000 0.000000
# 4 0.000000 0.000000 0.000000 -0.194646 0.000000 0.000000
# 5 0.000000 0.000000 0.000000 0.000000 -0.065707 0.000000
# 6 0.000000 0.000000 0.000000 0.000000 0.000000 0.056365
#
#
# Mechanical properties :
#
#
# Convention : Reuss Voigt Hill
#
# Bulk Modulus (GPa) = 35.50639 70.37172 52.93906
# Shear Modulus (GPa) = -43.33191 19.00698 -12.16246
#
# Velocity S-wave (km/s) = -4.61249 3.05484 -2.44367
# Velocity P-wave (km/s) = 3.30664 6.85520 4.24617
#
# Compressibility (1/GPa) = 0.02816395
#
# Stress axis : x y z
#
# Youngs Moduli (GPa) = 118.63240 64.51644 33.60364
#
# Poissons Ratio (x) = -0.01820 0.39604
# Poissons Ratio (y) = -0.03346 0.04229
# Poissons Ratio (z) = 1.39817 0.08119
#
# Static dielectric constant tensor:
#      x y z
#    x 1.757020 0.000000 0.000000 
#    y 0.000000 1.797220 0.000000 
#    z 0.000000 0.000000 1.679150 
# 
# From -- ./inp_files/3877.got.cif
#   From: 2010.05.17/outbox.cif.g08.bks.cpg/sg47_2_cif.got.tgz:3877.got - 2010.06.03 20:15:42.
