data_PCOD9388228
_publ_section_title
;
Structure prediction by ZEFSAII (Michael W. Deem and Ramdas Pophale) SiO2 
 PCOD9388228
Probable space group: P M M M
;
_chemical_formula_sum "Si O2"
_cell_formula_units_Z 48
_cell_length_a 22.922122
_cell_length_b 20.602142
_cell_length_c 8.065947
_cell_angle_alpha 90.000000
_cell_angle_beta 90.000000
_cell_angle_gamma 90.000000
_cell_volume 3809.101628
_symmetry_space_group_name_H-M "P M M M"
_symmetry_group_IT_number 47
_symmetry_cell_setting 'orthorhombic'
loop_
_space_group_symop_operation_xyz
x,y,z
-x,-y,z
x,-y,-z
-x,y,-z
-x,-y,-z
x,y,-z
-x,y,z
x,-y,z
loop_
_atom_site_type_symbol
_atom_site_label
_atom_site_fract_x
_atom_site_fract_y
_atom_site_fract_z
Si Si1 0.772513 0.924172 0.799026
Si Si2 0.932622 0.710870 0.299827
Si Si3 0.567426 0.079213 0.000000
Si Si4 0.643333 0.078874 0.685209
Si Si5 0.070599 0.430169 0.302742
Si Si6 0.000000 0.073722 0.301988
Si Si7 0.114306 0.153235 0.802532
O O1 0.710401 0.904031 0.724267
O O2 0.826599 0.880800 0.740683
O O3 0.783145 0.000000 0.757349
O O4 0.767806 0.920699 0.000000
O O5 0.934618 0.707520 0.500000
O O6 0.910682 0.640393 0.237563
O O7 0.895093 0.772843 0.252034
O O8 0.000000 0.720780 0.243220
O O9 0.601574 0.100604 0.834513
O O10 0.500000 0.099135 0.000000
O O11 0.568500 0.000000 0.000000
O O12 0.626592 0.100280 0.500000
O O13 0.641501 0.000000 0.686644
O O14 0.083590 0.431264 0.500000
O O15 0.090586 0.500000 0.232703
O O16 0.000000 0.429152 0.289065
O O17 0.057730 0.112144 0.249585
O O18 0.000000 0.071086 0.500000
O O19 0.000000 0.000000 0.235856
O O20 0.116956 0.151823 0.000000
#
# Coordination Sequence:
#
# PCOD9388228 Si02
#       7
#     8   8   4   8   8   4   8
#     4   9  17  30  43  52  66  90 122 158 190 223
#     4   9  16  26  39  53  72  92 110 141 182 223
#     4   9  16  26  40  58  82 103 117 141 176 218
#     4   9  16  26  41  58  75  96 121 149 182 219
#     4   7  10  18  34  54  70  86 110 135 163 208
#     4  11  23  35  43  51  66  85 112 155 197 234
#     4  11  21  30  42  56  70  92 118 147 189 237
#
# _framework density 12.601397
#
# number of rings (size 3 to 8) (size 9 to 14) (size 15 to 20)
#    0.000    2.833    1.667    2.750    0.000    3.000 
#    0.000    3.333    0.000    0.500    0.000    2.333 
#    0.000    0.000    0.000    0.000    0.000    0.000 
#
# Total GULP energy -267206.109051 kJ/mol
# GULP energy per Si atom -5566.793939 kJ/mol
# Density = 1.257272 g / cm^3
# Si number density = 12.601397 Si / 1000 Ang^3
#
#
#
# Elastic Constant Matrix: (Units=GPa)
#
#
# Indices 1 2 3 4 5 6 
#
# 1 80.7441 35.3223 34.9572 0.0000 0.0000 0.0000
# 2 35.3223 85.3521 20.0120 0.0000 0.0000 0.0000
# 3 34.9572 20.0120 46.2992 0.0000 0.0000 0.0000
# 4 0.0000 0.0000 0.0000 -2.5494 0.0000 0.0000
# 5 0.0000 0.0000 0.0000 0.0000 -2.1231 0.0000
# 6 0.0000 0.0000 0.0000 0.0000 0.0000 2.1802
#
#
#
# Elastic Compliance Matrix: (Units=1/GPa)
#
#
# Indices 1 2 3 4 5 6 
#
# 1 0.020398 -0.005375 -0.013078 0.000000 0.000000 0.000000
# 2 -0.005375 0.014454 -0.002189 0.000000 0.000000 0.000000
# 3 -0.013078 -0.002189 0.032419 0.000000 0.000000 0.000000
# 4 0.000000 0.000000 0.000000 -0.392244 0.000000 0.000000
# 5 0.000000 0.000000 0.000000 0.000000 -0.471009 0.000000
# 6 0.000000 0.000000 0.000000 0.000000 0.000000 0.458665
#
#
# Mechanical properties :
#
#
# Convention : Reuss Voigt Hill
#
# Bulk Modulus (GPa) = 38.48099 43.66427 41.07263
# Shear Modulus (GPa) = -17.39915 7.64180 -4.87868
#
# Velocity S-wave (km/s) = -3.71985 2.46524 -1.96976
# Velocity P-wave (km/s) = 3.48621 6.54437 5.24321
#
# Compressibility (1/GPa) = 0.02598686
#
# Stress axis : x y z
#
# Youngs Moduli (GPa) = 49.02392 69.18526 30.84621
#
# Poissons Ratio (x) = 0.37190 0.40340
# Poissons Ratio (y) = 0.26352 0.06752
# Poissons Ratio (z) = 0.64113 0.15144
#
# Static dielectric constant tensor:
#      x y z
#    x 1.387590 0.000000 0.000000 
#    y 0.000000 1.428490 0.000000 
#    z 0.000000 0.000000 1.450080 
# 
# From -- ./inp_files/11693.got.cif
#   From: 2010.05.17/outbox.cif.g08.bks.cpg/sg47_6_cif.got.tgz:11693.got - 2010.06.03 20:15:42.
