data_PCOD9388823
_publ_section_title
;
Structure prediction by ZEFSAII (Michael W. Deem and Ramdas Pophale) SiO2 
 PCOD9388823
Probable space group: P M M M
;
_chemical_formula_sum "Si O2"
_cell_formula_units_Z 52
_cell_length_a 9.947682
_cell_length_b 7.323928
_cell_length_c 35.083261
_cell_angle_alpha 90.000000
_cell_angle_beta 90.000000
_cell_angle_gamma 90.000000
_cell_volume 2556.029808
_symmetry_space_group_name_H-M "P M M M"
_symmetry_group_IT_number 47
_symmetry_cell_setting 'orthorhombic'
loop_
_space_group_symop_operation_xyz
x,y,z
-x,-y,z
x,-y,-z
-x,y,-z
-x,-y,-z
x,y,-z
-x,y,z
x,-y,z
loop_
_atom_site_type_symbol
_atom_site_label
_atom_site_fract_x
_atom_site_fract_y
_atom_site_fract_z
Si Si1 0.155105 0.222281 0.307038
Si Si2 0.347548 0.218657 0.845423
Si Si3 0.346921 0.283359 0.067589
Si Si4 0.343719 0.222991 0.375674
Si Si5 0.660582 0.219947 0.459020
Si Si6 0.154889 0.723494 0.000000
Si Si7 0.845313 0.222526 0.221497
O O1 0.252508 0.283949 0.340647
O O2 0.196315 0.277919 0.264256
O O3 0.000000 0.276846 0.313015
O O4 0.156793 0.000000 0.307439
O O5 0.500000 0.288103 0.841421
O O6 0.303591 0.255542 0.888722
O O7 0.249891 0.286730 0.812400
O O8 0.352659 0.000000 0.841554
O O9 0.500000 0.210737 0.063157
O O10 0.356204 0.500000 0.061399
O O11 0.239672 0.215994 0.036953
O O12 0.500000 0.276602 0.371404
O O13 0.291465 0.282680 0.417504
O O14 0.342700 0.000000 0.375865
O O15 0.713967 0.287055 0.500000
O O16 0.500000 0.255507 0.458904
O O17 0.676079 0.000000 0.459380
O O18 0.152060 0.500000 0.000000
O O19 0.000000 0.782714 0.000000
O O20 0.000000 0.277466 0.215728
O O21 0.843837 0.000000 0.221161
#
# Coordination Sequence:
#
# PCOD9388823 Si02
#       7
#     8   8   8   8   8   4   8
#     4   8  13  20  28  38  54  76 100 126 160 204
#     4   9  17  28  42  61  82 102 127 159 190 219
#     4   9  17  30  47  64  83 108 133 155 186 228
#     4   8  12  16  23  35  47  61  87 123 160 198
#     4   7   9  13  20  29  41  57  79 111 153 199
#     4   9  17  29  46  67  86 104 132 167 192 212
#     4   8  14  24  36  49  67  93 120 143 175 221
#
# _framework density 20.344052000000001
#
# number of rings (size 3 to 8) (size 9 to 14) (size 15 to 20)
#    0.000    3.769    0.000    2.538    0.000    2.154 
#    0.000    3.462    0.000    2.769    0.000    3.231 
#    0.000    0.000    0.000    0.000    0.000    0.000 
#
# Total GULP energy -289764.540943 kJ/mol
# GULP energy per Si atom -5572.395018 kJ/mol
# Density = 2.029775 g / cm^3
# Si number density = 20.344052 Si / 1000 Ang^3
#
#
#
# Elastic Constant Matrix: (Units=GPa)
#
#
# Indices 1 2 3 4 5 6 
#
# 1 96.0681 4.8959 135.2262 0.0000 0.0000 0.0000
# 2 4.8959 78.7473 3.7919 0.0000 0.0000 0.0000
# 3 135.2262 3.7919 259.4816 0.0000 0.0000 0.0000
# 4 0.0000 0.0000 0.0000 11.8490 0.0000 0.0000
# 5 0.0000 0.0000 0.0000 0.0000 55.7281 0.0000
# 6 0.0000 0.0000 0.0000 0.0000 0.0000 -13.6156
#
#
#
# Elastic Compliance Matrix: (Units=1/GPa)
#
#
# Indices 1 2 3 4 5 6 
#
# 1 0.039234 -0.001456 -0.020425 0.000000 0.000000 0.000000
# 2 -0.001456 0.012762 0.000572 0.000000 0.000000 0.000000
# 3 -0.020425 0.000572 0.014490 0.000000 0.000000 0.000000
# 4 0.000000 0.000000 0.000000 0.084395 0.000000 0.000000
# 5 0.000000 0.000000 0.000000 0.000000 0.017944 0.000000
# 6 0.000000 0.000000 0.000000 0.000000 0.000000 -0.073445
#
#
# Mechanical properties :
#
#
# Convention : Reuss Voigt Hill
#
# Bulk Modulus (GPa) = 41.89671 80.23613 61.06642
# Shear Modulus (GPa) = 34.25734 30.15116 32.20425
#
# Velocity S-wave (km/s) = 4.10799 3.85393 3.98299
# Velocity P-wave (km/s) = 6.56807 7.70253 7.15781
#
# Compressibility (1/GPa) = 0.02386822
#
# Stress axis : x y z
#
# Youngs Moduli (GPa) = 25.48795 78.35883 69.01364
#
# Poissons Ratio (x) = 0.11407 1.40962
# Poissons Ratio (y) = 0.03710 -0.03949
# Poissons Ratio (z) = 0.52060 -0.04483
#
# Static dielectric constant tensor:
#      x y z
#    x 1.676510 0.000000 0.000000 
#    y 0.000000 1.827170 0.000000 
#    z 0.000000 0.000000 1.729560 
# 
# From -- ./inp_files/34305.got.cif
#   From: 2010.05.17/outbox.cif.g08.bks.cpg/sg47_18_cif.got.tgz:34305.got - 2010.06.03 20:15:42.
