data_PCOD9388816
_publ_section_title
;
Structure prediction by ZEFSAII (Michael W. Deem and Ramdas Pophale) SiO2 
 PCOD9388816
Probable space group: P M M M
;
_chemical_formula_sum "Si O2"
_cell_formula_units_Z 44
_cell_length_a 7.359251
_cell_length_b 31.599090
_cell_length_c 7.382435
_cell_angle_alpha 90.000000
_cell_angle_beta 90.000000
_cell_angle_gamma 90.000000
_cell_volume 1716.753033
_symmetry_space_group_name_H-M "P M M M"
_symmetry_group_IT_number 47
_symmetry_cell_setting 'orthorhombic'
loop_
_space_group_symop_operation_xyz
x,y,z
-x,-y,z
x,-y,-z
-x,y,-z
-x,-y,-z
x,y,-z
-x,y,z
x,-y,z
loop_
_atom_site_type_symbol
_atom_site_label
_atom_site_fract_x
_atom_site_fract_y
_atom_site_fract_z
Si Si1 0.783938 0.863258 0.720298
Si Si2 0.707632 0.408623 0.284260
Si Si3 0.781091 0.045582 0.282025
Si Si4 0.706039 0.500000 0.786439
Si Si5 0.717281 0.680808 0.707396
Si Si6 0.217611 0.772655 0.708396
O O1 0.765794 0.862385 0.500000
O O2 0.711536 0.908800 0.783374
O O3 0.714934 0.817536 0.785374
O O4 0.000000 0.864348 0.759221
O O5 0.698925 0.402573 0.500000
O O6 0.500000 0.412685 0.213429
O O7 0.792743 0.454769 0.258884
O O8 0.785350 0.363978 0.214398
O O9 0.753160 0.045509 0.500000
O O10 0.000000 0.045612 0.253987
O O11 0.713731 0.000000 0.214027
O O12 0.500000 0.500000 0.705011
O O13 0.690957 0.500000 0.000000
O O14 0.787772 0.684270 0.500000
O O15 0.500000 0.675640 0.700221
O O16 0.747382 0.726774 0.793012
O O17 0.285921 0.770438 0.500000
O O18 0.000000 0.776505 0.701882
#
# Coordination Sequence:
#
# PCOD9388816 Si02
#       6
#     8   8   8   4   8   8
#     4   7   9  12  17  26  41  60  80 104 139 179
#     4   8  13  21  32  45  63  87 109 127 153 191
#     4   7   8   9  13  21  34  53  76 101 131 170
#     4   9  15  21  31  49  70  87 104 130 162 191
#     4   8  13  20  29  41  57  77  99 119 141 177
#     4   8  12  17  25  37  53  71  90 116 151 184
#
# _framework density 25.629778000000002
#
# number of rings (size 3 to 8) (size 9 to 14) (size 15 to 20)
#    0.000    4.273    0.000    4.091    0.000    1.091 
#    0.000    0.000    0.000    0.000    0.000    0.636 
#    0.000    6.545    0.000   10.182    0.000    9.091 
#
# Total GULP energy -244955.570960 kJ/mol
# GULP energy per Si atom -5567.172067 kJ/mol
# Density = 2.557144 g / cm^3
# Si number density = 25.629778 Si / 1000 Ang^3
#
#
#
# Elastic Constant Matrix: (Units=GPa)
#
#
# Indices 1 2 3 4 5 6 
#
# 1 92.4684 19.1468 -1.8128 0.0000 0.0000 0.0000
# 2 19.1468 422.7028 19.0572 0.0000 0.0000 0.0000
# 3 -1.8128 19.0572 88.9264 0.0000 0.0000 0.0000
# 4 0.0000 0.0000 0.0000 -75.4439 0.0000 0.0000
# 5 0.0000 0.0000 0.0000 0.0000 1.0034 0.0000
# 6 0.0000 0.0000 0.0000 0.0000 0.0000 4.8505
#
#
#
# Elastic Compliance Matrix: (Units=1/GPa)
#
#
# Indices 1 2 3 4 5 6 
#
# 1 0.010927 -0.000510 0.000332 0.000000 0.000000 0.000000
# 2 -0.000510 0.002413 -0.000527 0.000000 0.000000 0.000000
# 3 0.000332 -0.000527 0.011365 0.000000 0.000000 0.000000
# 4 0.000000 0.000000 0.000000 -0.013255 0.000000 0.000000
# 5 0.000000 0.000000 0.000000 0.000000 0.996587 0.000000
# 6 0.000000 0.000000 0.000000 0.000000 0.000000 0.206165
#
#
# Mechanical properties :
#
#
# Convention : Reuss Voigt Hill
#
# Bulk Modulus (GPa) = 42.93018 75.20888 59.06953
# Shear Modulus (GPa) = 4.08705 23.92909 14.00807
#
# Velocity S-wave (km/s) = 1.26416 3.05887 2.34039
# Velocity P-wave (km/s) = 4.34940 6.47176 5.51366
#
# Compressibility (1/GPa) = 0.02329363
#
# Stress axis : x y z
#
# Youngs Moduli (GPa) = 91.51982 414.48999 87.98901
#
# Poissons Ratio (x) = 0.21135 -0.02921
# Poissons Ratio (y) = 0.04667 0.04641
# Poissons Ratio (z) = -0.03039 0.21861
#
# Static dielectric constant tensor:
#      x y z
#    x 2.173370 0.000000 0.000000 
#    y 0.000000 2.151980 0.000000 
#    z 0.000000 0.000000 1.978070 
# 
# From -- ./inp_files/4429.got.cif
#   From: 2010.05.17/outbox.cif.g08.bks.cpg/sg47_3_cif.got.tgz:4429.got - 2010.06.03 20:15:42.
