data_PCOD9388562
_publ_section_title
;
Structure prediction by ZEFSAII (Michael W. Deem and Ramdas Pophale) SiO2 
 PCOD9388562
Probable space group: P M M M
;
_chemical_formula_sum "Si O2"
_cell_formula_units_Z 48
_cell_length_a 8.622332
_cell_length_b 15.946241
_cell_length_c 19.264658
_cell_angle_alpha 90.000000
_cell_angle_beta 90.000000
_cell_angle_gamma 90.000000
_cell_volume 2648.770727
_symmetry_space_group_name_H-M "P M M M"
_symmetry_group_IT_number 47
_symmetry_cell_setting 'orthorhombic'
loop_
_space_group_symop_operation_xyz
x,y,z
-x,-y,z
x,-y,-z
-x,y,-z
-x,-y,-z
x,y,-z
-x,y,z
x,-y,z
loop_
_atom_site_type_symbol
_atom_site_label
_atom_site_fract_x
_atom_site_fract_y
_atom_site_fract_z
Si Si1 0.314176 0.902606 0.808283
Si Si2 0.187752 0.225675 0.918495
Si Si3 0.678975 0.500000 0.584303
Si Si4 0.311692 0.683218 0.581033
Si Si5 0.814850 0.409674 0.916152
Si Si6 0.815558 0.158815 0.337596
Si Si7 0.318180 0.000000 0.582814
O O1 0.500000 0.901610 0.805697
O O2 0.256327 0.848589 0.873186
O O3 0.248843 0.860478 0.738691
O O4 0.263262 0.000000 0.811505
O O5 0.243124 0.318322 0.892881
O O6 0.000000 0.224572 0.913652
O O7 0.227193 0.217297 0.000000
O O8 0.500000 0.500000 0.608180
O O9 0.675267 0.500000 0.500000
O O10 0.746347 0.409522 0.603408
O O11 0.268207 0.697458 0.500000
O O12 0.500000 0.682382 0.582865
O O13 0.249627 0.756088 0.629472
O O14 0.751119 0.500000 0.891089
O O15 0.000000 0.410573 0.902549
O O16 0.798298 0.409112 0.000000
O O17 0.000000 0.161963 0.335439
O O18 0.760018 0.082121 0.385667
O O19 0.500000 0.000000 0.602407
O O20 0.306750 0.000000 0.500000
#
# Coordination Sequence:
#
# PCOD9388562 Si02
#       7
#     8   8   4   8   8   8   4
#     4  11  24  41  59  75 100 142 188 231 278 333
#     4   9  18  33  56  86 115 141 175 222 272 322
#     4   7  12  26  51  81 109 143 186 223 260 313
#     4   9  17  32  56  84 114 148 185 224 267 321
#     4   7  10  20  43  76 110 140 168 201 249 310
#     4  12  24  37  56  81 110 144 183 230 281 330
#     4  11  23  39  59  83 112 145 182 223 269 327
#
# _framework density 18.121613
#
# number of rings (size 3 to 8) (size 9 to 14) (size 15 to 20)
#    0.000    2.500    0.833    5.250    0.000    4.667 
#    0.000    2.083    1.833    2.000    0.000    2.333 
#    0.000    0.000    0.000    0.000    0.000    0.000 
#
# Total GULP energy -267538.145612 kJ/mol
# GULP energy per Si atom -5573.711367 kJ/mol
# Density = 1.808037 g / cm^3
# Si number density = 18.121613 Si / 1000 Ang^3
#
#
#
# Elastic Constant Matrix: (Units=GPa)
#
#
# Indices 1 2 3 4 5 6 
#
# 1 38.3715 44.8297 34.0410 0.0000 0.0000 0.0000
# 2 44.8297 213.0980 81.5181 0.0000 0.0000 0.0000
# 3 34.0410 81.5181 70.6580 0.0000 0.0000 0.0000
# 4 0.0000 0.0000 0.0000 297.2423 0.0000 0.0000
# 5 0.0000 0.0000 0.0000 0.0000 25.1554 0.0000
# 6 0.0000 0.0000 0.0000 0.0000 0.0000 3.4700
#
#
#
# Elastic Compliance Matrix: (Units=1/GPa)
#
#
# Indices 1 2 3 4 5 6 
#
# 1 0.046057 -0.002150 -0.019709 0.000000 0.000000 0.000000
# 2 -0.002150 0.008500 -0.008771 0.000000 0.000000 0.000000
# 3 -0.019709 -0.008771 0.033767 0.000000 0.000000 0.000000
# 4 0.000000 0.000000 0.000000 0.003364 0.000000 0.000000
# 5 0.000000 0.000000 0.000000 0.000000 0.039753 0.000000
# 6 0.000000 0.000000 0.000000 0.000000 0.000000 0.288182
#
#
# Mechanical properties :
#
#
# Convention : Reuss Voigt Hill
#
# Bulk Modulus (GPa) = 36.94796 71.43388 54.19092
# Shear Modulus (GPa) = 10.20609 75.95614 43.08112
#
# Velocity S-wave (km/s) = 2.37576 6.48118 4.88108
# Velocity P-wave (km/s) = 5.28761 9.77304 7.85720
#
# Compressibility (1/GPa) = 0.02706509
#
# Stress axis : x y z
#
# Youngs Moduli (GPa) = 21.71220 117.64528 29.61481
#
# Poissons Ratio (x) = 0.25290 0.58367
# Poissons Ratio (y) = 0.04667 0.25975
# Poissons Ratio (z) = 0.42792 1.03186
#
# Static dielectric constant tensor:
#      x y z
#    x 1.618170 0.000000 0.000000 
#    y 0.000000 1.660210 0.000000 
#    z 0.000000 0.000000 1.597920 
# 
# From -- ./inp_files/26552.got.cif
#   From: 2010.05.17/outbox.cif.g08.bks.cpg/sg47_14_cif.got.tgz:26552.got - 2010.06.03 20:15:42.
