data_PCOD9388047
_publ_section_title
;
Structure prediction by ZEFSAII (Michael W. Deem and Ramdas Pophale) SiO2 
 PCOD9388047
Probable space group: P M M M
;
_chemical_formula_sum "Si O2"
_cell_formula_units_Z 52
_cell_length_a 12.065750
_cell_length_b 8.394689
_cell_length_c 29.144463
_cell_angle_alpha 90.000000
_cell_angle_beta 90.000000
_cell_angle_gamma 90.000000
_cell_volume 2951.990745
_symmetry_space_group_name_H-M "P M M M"
_symmetry_group_IT_number 47
_symmetry_cell_setting 'orthorhombic'
loop_
_space_group_symop_operation_xyz
x,y,z
-x,-y,z
x,-y,-z
-x,y,-z
-x,-y,-z
x,y,-z
-x,y,z
x,-y,z
loop_
_atom_site_type_symbol
_atom_site_label
_atom_site_fract_x
_atom_site_fract_y
_atom_site_fract_z
Si Si1 0.000000 0.693794 0.706867
Si Si2 0.000000 0.309543 0.398413
Si Si3 0.372842 0.690957 0.500000
Si Si4 0.372704 0.807744 0.322155
Si Si5 0.134123 0.811363 0.049299
Si Si6 0.870653 0.807097 0.149961
Si Si7 0.239938 0.809658 0.587795
Si Si8 0.223260 0.690826 0.242395
O O1 0.000000 0.746931 0.654501
O O2 0.889349 0.747585 0.732249
O O3 0.000000 0.500000 0.707247
O O4 0.885182 0.249565 0.418995
O O5 0.000000 0.500000 0.399244
O O6 0.369104 0.500000 0.500000
O O7 0.500000 0.744165 0.500000
O O8 0.313372 0.753176 0.545474
O O9 0.500000 0.755234 0.328812
O O10 0.294008 0.750743 0.364065
O O11 0.323468 0.752447 0.273573
O O12 0.371699 0.000000 0.323018
O O13 0.166893 0.748561 0.099379
O O14 0.000000 0.801791 0.049535
O O15 0.161368 0.000000 0.048818
O O16 0.172145 0.743137 0.000000
O O17 0.791723 0.749609 0.190543
O O18 0.000000 0.756347 0.157845
O O19 0.871844 0.000000 0.149196
O O20 0.239274 0.000000 0.589452
O O21 0.225327 0.500000 0.242652
#
# Coordination Sequence:
#
# PCOD9388047 Si02
#       8
#     4   4   4   8   8   8   8   8
#     4   9  18  31  48  72 104 138 169 205 248 294
#     4  11  21  38  60  85 117 146 177 214 258 308
#     4  11  25  44  65  88 113 145 183 219 260 311
#     4  10  22  39  57  78 104 134 170 212 257 303
#     4   7  10  18  33  54  83 120 162 206 248 292
#     4   9  16  25  40  65  94 127 168 210 253 299
#     4  11  23  40  63  89 114 141 175 216 263 310
#     4  11  20  32  49  72 102 136 172 209 252 303
#
# _framework density 17.615231000000001
#
# number of rings (size 3 to 8) (size 9 to 14) (size 15 to 20)
#    0.000    2.231    2.308    3.231    0.000    2.462 
#    0.000    1.538    0.000    0.462    0.000    2.154 
#    0.000    0.615    0.000    7.077    0.000    2.308 
#
# Total GULP energy -289919.995528 kJ/mol
# GULP energy per Si atom -5575.384529 kJ/mol
# Density = 1.757514 g / cm^3
# Si number density = 17.615231 Si / 1000 Ang^3
#
#
#
# Elastic Constant Matrix: (Units=GPa)
#
#
# Indices 1 2 3 4 5 6 
#
# 1 108.3339 22.2930 57.0979 0.0000 0.0000 0.0000
# 2 22.2930 23.8494 20.4603 0.0000 0.0000 0.0000
# 3 57.0979 20.4603 142.3419 0.0000 0.0000 0.0000
# 4 0.0000 0.0000 0.0000 8.6670 0.0000 0.0000
# 5 0.0000 0.0000 0.0000 0.0000 10.6839 0.0000
# 6 0.0000 0.0000 0.0000 0.0000 0.0000 15.8038
#
#
#
# Elastic Compliance Matrix: (Units=1/GPa)
#
#
# Indices 1 2 3 4 5 6 
#
# 1 0.013168 -0.008871 -0.004007 0.000000 0.000000 0.000000
# 2 -0.008871 0.053804 -0.004175 0.000000 0.000000 0.000000
# 3 -0.004007 -0.004175 0.009233 0.000000 0.000000 0.000000
# 4 0.000000 0.000000 0.000000 0.115380 0.000000 0.000000
# 5 0.000000 0.000000 0.000000 0.000000 0.093599 0.000000
# 6 0.000000 0.000000 0.000000 0.000000 0.000000 0.063276
#
#
# Mechanical properties :
#
#
# Convention : Reuss Voigt Hill
#
# Bulk Modulus (GPa) = 23.75413 52.69193 38.22303
# Shear Modulus (GPa) = 12.60716 18.67586 15.64151
#
# Velocity S-wave (km/s) = 2.67815 3.25962 2.98309
# Velocity P-wave (km/s) = 4.80392 6.64413 5.79750
#
# Compressibility (1/GPa) = 0.04209795
#
# Stress axis : x y z
#
# Youngs Moduli (GPa) = 75.94079 18.58600 108.30907
#
# Poissons Ratio (x) = 0.16488 0.43400
# Poissons Ratio (y) = 0.67369 0.45222
# Poissons Ratio (z) = 0.30430 0.07760
#
# Static dielectric constant tensor:
#      x y z
#    x 1.583250 0.000000 0.000000 
#    y 0.000000 1.599920 0.000000 
#    z 0.000000 0.000000 1.634880 
# 
# From -- ./inp_files/33609.got.cif
#   From: 2010.05.17/outbox.cif.g08.bks.cpg/sg47_17_cif.got.tgz:33609.got - 2010.06.03 20:15:42.
