data_PCOD9388688
_publ_section_title
;
Structure prediction by ZEFSAII (Michael W. Deem and Ramdas Pophale) SiO2 
 PCOD9388688
Probable space group: P M M M
;
_chemical_formula_sum "Si O2"
_cell_formula_units_Z 36
_cell_length_a 7.266593
_cell_length_b 25.428107
_cell_length_c 9.759555
_cell_angle_alpha 90.000000
_cell_angle_beta 90.000000
_cell_angle_gamma 90.000000
_cell_volume 1803.328649
_symmetry_space_group_name_H-M "P M M M"
_symmetry_group_IT_number 47
_symmetry_cell_setting 'orthorhombic'
loop_
_space_group_symop_operation_xyz
x,y,z
-x,-y,z
x,-y,-z
-x,y,-z
-x,-y,-z
x,y,-z
-x,y,z
x,-y,z
loop_
_atom_site_type_symbol
_atom_site_label
_atom_site_fract_x
_atom_site_fract_y
_atom_site_fract_z
Si Si1 0.776484 0.252617 0.344355
Si Si2 0.779971 0.373370 0.339517
Si Si3 0.775311 0.156423 0.157212
Si Si4 0.223796 0.940544 0.657171
Si Si5 0.500000 0.437198 0.161544
O O1 0.718718 0.240156 0.500000
O O2 0.724681 0.312640 0.312274
O O3 0.716141 0.208627 0.237965
O O4 0.000000 0.252091 0.345062
O O5 0.737649 0.384028 0.500000
O O6 0.673817 0.411786 0.238851
O O7 0.000000 0.377424 0.323538
O O8 0.716121 0.104700 0.239975
O O9 0.000000 0.156425 0.157960
O O10 0.716969 0.156005 0.000000
O O11 0.278841 0.929719 0.500000
O O12 0.000000 0.940303 0.658081
O O13 0.280771 0.000000 0.693043
O O14 0.500000 0.500000 0.176253
O O15 0.500000 0.424560 0.000000
#
# Coordination Sequence:
#
# PCOD9388688 Si02
#       5
#     8   8   8   8   4
#     4   8  14  26  44  65  89 118 156 204 257 310
#     4   9  19  37  61  86 110 142 187 235 278 320
#     4   9  15  20  29  49  76 107 146 193 246 305
#     4   8  13  20  28  38  58  96 146 196 246 299
#     4  11  25  41  57  83 119 155 186 219 268 329
#
# _framework density 19.963085
#
# number of rings (size 3 to 8) (size 9 to 14) (size 15 to 20)
#    0.000    3.222    0.000    3.000    0.000    5.778 
#    0.000    6.667    0.000    0.000    0.000    0.000 
#    0.000    0.000    0.000    1.000    0.000   21.778 
#
# Total GULP energy -200995.852661 kJ/mol
# GULP energy per Si atom -5583.218129 kJ/mol
# Density = 1.991765 g / cm^3
# Si number density = 19.963085 Si / 1000 Ang^3
#
#
#
# Elastic Constant Matrix: (Units=GPa)
#
#
# Indices 1 2 3 4 5 6 
#
# 1 94.5265 35.2287 39.8624 0.0000 0.0000 0.0000
# 2 35.2287 160.1574 145.9582 0.0000 0.0000 0.0000
# 3 39.8624 145.9582 179.7783 0.0000 0.0000 0.0000
# 4 0.0000 0.0000 0.0000 -39.6211 0.0000 0.0000
# 5 0.0000 0.0000 0.0000 0.0000 -0.4367 0.0000
# 6 0.0000 0.0000 0.0000 0.0000 0.0000 74.7440
#
#
#
# Elastic Compliance Matrix: (Units=1/GPa)
#
#
# Indices 1 2 3 4 5 6 
#
# 1 0.011697 -0.000805 -0.001940 0.000000 0.000000 0.000000
# 2 -0.000805 0.024061 -0.019356 0.000000 0.000000 0.000000
# 3 -0.001940 -0.019356 0.021707 0.000000 0.000000 0.000000
# 4 0.000000 0.000000 0.000000 -0.025239 0.000000 0.000000
# 5 0.000000 0.000000 0.000000 0.000000 -2.289980 0.000000
# 6 0.000000 0.000000 0.000000 0.000000 0.000000 0.013379
#
#
# Mechanical properties :
#
#
# Convention : Reuss Voigt Hill
#
# Bulk Modulus (GPa) = 75.39581 97.39563 86.39572
# Shear Modulus (GPa) = -2.27712 21.16478 9.44383
#
# Velocity S-wave (km/s) = -1.06918 3.25960 2.17736
# Velocity P-wave (km/s) = 6.02706 7.94106 7.04932
#
# Compressibility (1/GPa) = 0.01326334
#
# Stress axis : x y z
#
# Youngs Moduli (GPa) = 85.49072 41.56133 46.06717
#
# Poissons Ratio (x) = 0.03344 0.08939
# Poissons Ratio (y) = 0.06878 0.89168
# Poissons Ratio (z) = 0.16589 0.80446
#
# Static dielectric constant tensor:
#      x y z
#    x 2.354120 0.000000 0.000000 
#    y 0.000000 1.667290 0.000000 
#    z 0.000000 0.000000 1.653430 
# 
# From -- ./inp_files/1382.got.cif
#   From: 2010.05.17/outbox.cif.g08.bks.cpg/sg47_1_cif.got.tgz:1382.got - 2010.06.03 20:15:42.
