data_PCOD9388556
_publ_section_title
;
Structure prediction by ZEFSAII (Michael W. Deem and Ramdas Pophale) SiO2 
 PCOD9388556
Probable space group: P M M M
;
_chemical_formula_sum "Si O2"
_cell_formula_units_Z 30
_cell_length_a 7.553632
_cell_length_b 19.620588
_cell_length_c 9.973147
_cell_angle_alpha 90.000000
_cell_angle_beta 90.000000
_cell_angle_gamma 90.000000
_cell_volume 1478.087219
_symmetry_space_group_name_H-M "P M M M"
_symmetry_group_IT_number 47
_symmetry_cell_setting 'orthorhombic'
loop_
_space_group_symop_operation_xyz
x,y,z
-x,-y,z
x,-y,-z
-x,y,-z
-x,-y,-z
x,y,-z
-x,y,z
x,-y,z
loop_
_atom_site_type_symbol
_atom_site_label
_atom_site_fract_x
_atom_site_fract_y
_atom_site_fract_z
Si Si1 0.207734 0.299611 0.653271
Si Si2 0.296784 0.157353 0.768453
Si Si3 0.713741 0.577864 0.848403
Si Si4 0.000000 0.857161 0.000000
Si Si5 0.285464 0.922494 0.500000
O O1 0.272375 0.306203 0.500000
O O2 0.297642 0.237271 0.729938
O O3 0.228182 0.368665 0.737492
O O4 0.000000 0.283068 0.648506
O O5 0.500000 0.137117 0.801925
O O6 0.156193 0.144541 0.883854
O O7 0.237292 0.117635 0.634235
O O8 0.500000 0.577711 0.849151
O O9 0.771680 0.500000 0.822545
O O10 0.771749 0.596905 0.000000
O O11 0.500000 0.924019 0.500000
O O12 0.220939 0.000000 0.500000
#
# Coordination Sequence:
#
# PCOD9388556 Si02
#       5
#     8   8   8   2   4
#     4  11  23  38  59  87 126 162 208 277 329 384
#     4  11  23  42  68  98 132 174 219 271 330 385
#     4   9  20  38  58  83 117 160 212 264 321 393
#     4  12  26  42  63  96 145 170 218 266 324 396
#     4   9  20  43  75 103 131 175 226 270 321 386
#
# _framework density 20.296503000000001
#
# number of rings (size 3 to 8) (size 9 to 14) (size 15 to 20)
#    0.000    1.733    2.667    2.000    1.867    3.733 
#    0.000    6.667    0.000    3.200    0.000    0.000 
#    0.000    0.000    0.000    0.000    0.000    0.000 
#
# Total GULP energy -167073.832142 kJ/mol
# GULP energy per Si atom -5569.127738 kJ/mol
# Density = 2.025031 g / cm^3
# Si number density = 20.296503 Si / 1000 Ang^3
#
#
#
# Elastic Constant Matrix: (Units=GPa)
#
#
# Indices 1 2 3 4 5 6 
#
# 1 120.0919 16.1332 69.2317 0.0000 0.0000 0.0000
# 2 16.1332 74.7771 53.7952 0.0000 0.0000 0.0000
# 3 69.2317 53.7952 183.2891 0.0000 0.0000 0.0000
# 4 0.0000 0.0000 0.0000 -30.5364 0.0000 0.0000
# 5 0.0000 0.0000 0.0000 0.0000 40.6611 0.0000
# 6 0.0000 0.0000 0.0000 0.0000 0.0000 -49.6288
#
#
#
# Elastic Compliance Matrix: (Units=1/GPa)
#
#
# Indices 1 2 3 4 5 6 
#
# 1 0.010679 0.000758 -0.004256 0.000000 0.000000 0.000000
# 2 0.000758 0.017006 -0.005278 0.000000 0.000000 0.000000
# 3 -0.004256 -0.005278 0.008612 0.000000 0.000000 0.000000
# 4 0.000000 0.000000 0.000000 -0.032748 0.000000 0.000000
# 5 0.000000 0.000000 0.000000 0.000000 0.024594 0.000000
# 6 0.000000 0.000000 0.000000 0.000000 0.000000 -0.020150
#
#
# Mechanical properties :
#
#
# Convention : Reuss Voigt Hill
#
# Bulk Modulus (GPa) = 53.34485 72.94201 63.14343
# Shear Modulus (GPa) = 157.26478 8.03239 82.64858
#
# Velocity S-wave (km/s) = 8.81203 1.99151 6.38819
# Velocity P-wave (km/s) = 11.39630 6.42685 9.25149
#
# Compressibility (1/GPa) = 0.01874595
#
# Stress axis : x y z
#
# Youngs Moduli (GPa) = 93.64473 58.80171 116.11201
#
# Poissons Ratio (x) = -0.04456 0.49417
# Poissons Ratio (y) = -0.07097 0.61279
# Poissons Ratio (z) = 0.39855 0.31033
#
# Static dielectric constant tensor:
#      x y z
#    x 1.758790 0.000000 0.000000 
#    y 0.000000 1.710250 0.000000 
#    z 0.000000 0.000000 1.683070 
# 
# From -- ./inp_files/988.got.cif
#   From: 2010.05.17/outbox.cif.g08.bks.cpg/sg47_1_cif.got.tgz:988.got - 2010.06.03 20:15:42.
