data_PCOD9388381
_publ_section_title
;
Structure prediction by ZEFSAII (Michael W. Deem and Ramdas Pophale) SiO2 
 PCOD9388381
Probable space group: P M M M
;
_chemical_formula_sum "Si O2"
_cell_formula_units_Z 44
_cell_length_a 7.738621
_cell_length_b 13.976949
_cell_length_c 19.279751
_cell_angle_alpha 90.000000
_cell_angle_beta 90.000000
_cell_angle_gamma 90.000000
_cell_volume 2085.342425
_symmetry_space_group_name_H-M "P M M M"
_symmetry_group_IT_number 47
_symmetry_cell_setting 'orthorhombic'
loop_
_space_group_symop_operation_xyz
x,y,z
-x,-y,z
x,-y,-z
-x,y,-z
-x,-y,-z
x,y,-z
-x,y,z
x,-y,z
loop_
_atom_site_type_symbol
_atom_site_label
_atom_site_fract_x
_atom_site_fract_y
_atom_site_fract_z
Si Si1 0.693340 0.256262 0.807327
Si Si2 0.711212 0.500000 0.418916
Si Si3 0.289954 0.894692 0.418999
Si Si4 0.712189 0.301645 0.344743
Si Si5 0.200626 0.386166 0.923765
Si Si6 0.793864 0.892641 0.923258
O O1 0.500000 0.226949 0.789121
O O2 0.773879 0.288276 0.734630
O O3 0.698158 0.345153 0.859589
O O4 0.760791 0.172802 0.857068
O O5 0.500000 0.500000 0.417972
O O6 0.763149 0.500000 0.500000
O O7 0.767334 0.401516 0.380619
O O8 0.242797 0.890727 0.500000
O O9 0.500000 0.894740 0.415326
O O10 0.233294 0.796475 0.383006
O O11 0.233238 0.000000 0.391622
O O12 0.500000 0.305352 0.346371
O O13 0.200107 0.500000 0.921837
O O14 0.000000 0.353482 0.918550
O O15 0.265448 0.357584 0.000000
O O16 0.000000 0.897739 0.928598
O O17 0.726196 0.000000 0.912680
O O18 0.731073 0.859642 0.000000
#
# Coordination Sequence:
#
# PCOD9388381 Si02
#       6
#     8   4   8   8   8   8
#     4  11  22  31  46  75 110 139 159 198 262 322
#     4   9  16  28  46  62  86 133 184 216 239 291
#     4   8  13  23  40  59  82 118 163 204 240 288
#     4   9  18  28  39  63  98 134 166 201 252 307
#     4   9  19  36  55  71  90 125 174 219 252 290
#     4   9  19  37  58  75  95 132 181 224 255 291
#
# _framework density 21.099651000000001
#
# number of rings (size 3 to 8) (size 9 to 14) (size 15 to 20)
#    0.000    2.818    0.000    3.273    1.273    6.545 
#    0.000    3.636    0.000    0.000    0.000    0.000 
#    0.000   14.545    0.000   16.000    0.000   13.091 
#
# Total GULP energy -245143.751763 kJ/mol
# GULP energy per Si atom -5571.448904 kJ/mol
# Density = 2.105163 g / cm^3
# Si number density = 21.099651 Si / 1000 Ang^3
#
#
#
# Elastic Constant Matrix: (Units=GPa)
#
#
# Indices 1 2 3 4 5 6 
#
# 1 25.3515 7.4789 9.3679 0.0000 0.0000 0.0000
# 2 7.4789 194.7109 111.7608 0.0000 0.0000 0.0000
# 3 9.3679 111.7608 180.5056 0.0000 0.0000 0.0000
# 4 0.0000 0.0000 0.0000 31.5182 0.0000 0.0000
# 5 0.0000 0.0000 0.0000 0.0000 44.9839 0.0000
# 6 0.0000 0.0000 0.0000 0.0000 0.0000 13.7616
#
#
#
# Elastic Compliance Matrix: (Units=1/GPa)
#
#
# Indices 1 2 3 4 5 6 
#
# 1 0.040253 -0.000538 -0.001756 0.000000 0.000000 0.000000
# 2 -0.000538 0.007974 -0.004909 0.000000 0.000000 0.000000
# 3 -0.001756 -0.004909 0.008671 0.000000 0.000000 0.000000
# 4 0.000000 0.000000 0.000000 0.031728 0.000000 0.000000
# 5 0.000000 0.000000 0.000000 0.000000 0.022230 0.000000
# 6 0.000000 0.000000 0.000000 0.000000 0.000000 0.072666
#
#
# Mechanical properties :
#
#
# Convention : Reuss Voigt Hill
#
# Bulk Modulus (GPa) = 23.53435 73.08704 48.31069
# Shear Modulus (GPa) = 23.57457 36.18344 29.87900
#
# Velocity S-wave (km/s) = 3.34623 4.14561 3.76718
# Velocity P-wave (km/s) = 5.10957 7.59137 6.47057
#
# Compressibility (1/GPa) = 0.04249109
#
# Stress axis : x y z
#
# Youngs Moduli (GPa) = 24.84291 125.40038 115.32917
#
# Poissons Ratio (x) = 0.06751 0.20248
# Poissons Ratio (y) = 0.01338 0.56621
# Poissons Ratio (z) = 0.04362 0.61565
#
# Static dielectric constant tensor:
#      x y z
#    x 1.825930 0.000000 0.000000 
#    y 0.000000 1.781470 0.000000 
#    z 0.000000 0.000000 1.744090 
# 
# From -- ./inp_files/26393.got.cif
#   From: 2010.05.17/outbox.cif.g08.bks.cpg/sg47_14_cif.got.tgz:26393.got - 2010.06.03 20:15:42.
