data_PCOD9388898
_publ_section_title
;
Structure prediction by ZEFSAII (Michael W. Deem and Ramdas Pophale) SiO2 
 PCOD9388898
Probable space group: P M M M
;
_chemical_formula_sum "Si O2"
_cell_formula_units_Z 52
_cell_length_a 7.345776
_cell_length_b 34.356236
_cell_length_c 10.287811
_cell_angle_alpha 90.000000
_cell_angle_beta 90.000000
_cell_angle_gamma 90.000000
_cell_volume 2596.367926
_symmetry_space_group_name_H-M "P M M M"
_symmetry_group_IT_number 47
_symmetry_cell_setting 'orthorhombic'
loop_
_space_group_symop_operation_xyz
x,y,z
-x,-y,z
x,-y,-z
-x,y,-z
-x,-y,-z
x,y,-z
-x,y,z
x,-y,z
loop_
_atom_site_type_symbol
_atom_site_label
_atom_site_fract_x
_atom_site_fract_y
_atom_site_fract_z
Si Si1 0.283879 0.000000 0.352195
Si Si2 0.221796 0.609050 0.351171
Si Si3 0.778201 0.302628 0.351218
Si Si4 0.221795 0.455823 0.148788
Si Si5 0.214240 0.914305 0.648300
Si Si6 0.777857 0.149268 0.148599
Si Si7 0.221694 0.762072 0.851607
O O1 0.231639 0.041843 0.296274
O O2 0.500000 0.000000 0.358546
O O3 0.208624 0.000000 0.500000
O O4 0.276706 0.601036 0.500000
O O5 0.277088 0.653214 0.317699
O O6 0.283919 0.576594 0.250049
O O7 0.000000 0.608690 0.349793
O O8 0.723278 0.294629 0.500000
O O9 0.715952 0.270108 0.250406
O O10 0.000000 0.302278 0.349786
O O11 0.277107 0.500000 0.182036
O O12 0.000000 0.455469 0.150197
O O13 0.276686 0.447746 0.000000
O O14 0.289120 0.913539 0.500000
O O15 0.287541 0.882031 0.746617
O O16 0.000000 0.906571 0.636825
O O17 0.723821 0.193635 0.180210
O O18 0.000000 0.148549 0.148745
O O19 0.722209 0.140703 0.000000
O O20 0.000000 0.761664 0.850152
O O21 0.276946 0.753613 0.000000
#
# Coordination Sequence:
#
# PCOD9388898 Si02
#       7
#     4   8   8   8   8   8   8
#     4   9  17  29  44  61  82 106 128 153 188 224
#     4   8  13  19  24  30  40  54  73  97 128 169
#     4   8  13  19  25  34  49  67  86 110 140 175
#     4   8  13  19  24  29  36  46  64  94 131 169
#     4   9  16  26  42  62  79  97 126 159 184 211
#     4   8  14  24  36  51  72  94 114 139 172 207
#     4   8  13  20  29  41  57  77  99 120 145 182
#
# _framework density 20.027978000000001
#
# number of rings (size 3 to 8) (size 9 to 14) (size 15 to 20)
#    0.000    3.769    0.000    2.538    0.000    2.462 
#    0.000    8.077    0.000    2.769    0.000    0.000 
#    0.000    0.000    0.000    0.000    0.000    0.000 
#
# Total GULP energy -289834.509344 kJ/mol
# GULP energy per Si atom -5573.740564 kJ/mol
# Density = 1.998239 g / cm^3
# Si number density = 20.027978 Si / 1000 Ang^3
#
#
#
# Elastic Constant Matrix: (Units=GPa)
#
#
# Indices 1 2 3 4 5 6 
#
# 1 75.0297 3.8469 5.6354 0.0000 0.0000 0.0000
# 2 3.8469 214.7796 155.9812 0.0000 0.0000 0.0000
# 3 5.6354 155.9812 140.4519 0.0000 0.0000 0.0000
# 4 0.0000 0.0000 0.0000 26.1645 0.0000 0.0000
# 5 0.0000 0.0000 0.0000 0.0000 -13.9331 0.0000
# 6 0.0000 0.0000 0.0000 0.0000 0.0000 -37.1263
#
#
#
# Elastic Compliance Matrix: (Units=1/GPa)
#
#
# Indices 1 2 3 4 5 6 
#
# 1 0.013393 0.000777 -0.001401 0.000000 0.000000 0.000000
# 2 0.000777 0.024111 -0.026808 0.000000 0.000000 0.000000
# 3 -0.001401 -0.026808 0.036949 0.000000 0.000000 0.000000
# 4 0.000000 0.000000 0.000000 0.038220 0.000000 0.000000
# 5 0.000000 0.000000 0.000000 0.000000 -0.071772 0.000000
# 6 0.000000 0.000000 0.000000 0.000000 0.000000 -0.026935
#
#
# Mechanical properties :
#
#
# Convention : Reuss Voigt Hill
#
# Bulk Modulus (GPa) = 51.04689 84.57648 67.81169
# Shear Modulus (GPa) = 66.34841 12.67421 39.51131
#
# Velocity S-wave (km/s) = 5.76193 2.51833 4.44645
# Velocity P-wave (km/s) = 8.35521 7.12579 7.76487
#
# Compressibility (1/GPa) = 0.01958983
#
# Stress axis : x y z
#
# Youngs Moduli (GPa) = 74.66360 41.47431 27.06462
#
# Poissons Ratio (x) = -0.03224 0.03791
# Poissons Ratio (y) = -0.05804 0.72556
# Poissons Ratio (z) = 0.10458 1.11186
#
# Static dielectric constant tensor:
#      x y z
#    x 1.770680 0.000000 0.000000 
#    y 0.000000 1.687870 0.000000 
#    z 0.000000 0.000000 1.677330 
# 
# From -- ./inp_files/15455.got.cif
#   From: 2010.05.17/outbox.cif.g08.bks.cpg/sg47_8_cif.got.tgz:15455.got - 2010.06.03 20:15:42.
