data_PCOD9388587
_publ_section_title
;
Structure prediction by ZEFSAII (Michael W. Deem and Ramdas Pophale) SiO2 
 PCOD9388587
Probable space group: P M M M
;
_chemical_formula_sum "Si O2"
_cell_formula_units_Z 48
_cell_length_a 17.606420
_cell_length_b 16.430806
_cell_length_c 9.624228
_cell_angle_alpha 90.000000
_cell_angle_beta 90.000000
_cell_angle_gamma 90.000000
_cell_volume 2784.170507
_symmetry_space_group_name_H-M "P M M M"
_symmetry_group_IT_number 47
_symmetry_cell_setting 'orthorhombic'
loop_
_space_group_symop_operation_xyz
x,y,z
-x,-y,z
x,-y,-z
-x,y,-z
-x,-y,-z
x,y,-z
-x,y,z
x,-y,z
loop_
_atom_site_type_symbol
_atom_site_label
_atom_site_fract_x
_atom_site_fract_y
_atom_site_fract_z
Si Si1 0.654151 0.357664 0.343648
Si Si2 0.814056 0.843606 0.330496
Si Si3 0.911901 0.000000 0.330547
Si Si4 0.590724 0.500000 0.158542
Si Si5 0.500000 0.097119 0.840698
Si Si6 0.362237 0.166954 0.663963
Si Si7 0.090038 0.500000 0.665639
Si Si8 0.835147 0.336871 0.337854
O O1 0.632634 0.383023 0.500000
O O2 0.620761 0.420292 0.235727
O O3 0.629129 0.264544 0.323834
O O4 0.745546 0.355987 0.336112
O O5 0.814841 0.840389 0.500000
O O6 0.866161 0.919024 0.286825
O O7 0.724863 0.853655 0.294724
O O8 0.843040 0.754873 0.280263
O O9 0.911724 0.000000 0.500000
O O10 0.000000 0.000000 0.286557
O O11 0.500000 0.500000 0.162349
O O12 0.616718 0.500000 0.000000
O O13 0.425487 0.125914 0.758012
O O14 0.500000 0.000000 0.843998
O O15 0.500000 0.127631 0.000000
O O16 0.371496 0.146030 0.500000
O O17 0.110653 0.500000 0.500000
O O18 0.122888 0.415286 0.724277
O O19 0.000000 0.500000 0.676665
O O20 0.859654 0.331320 0.500000
#
# Coordination Sequence:
#
# PCOD9388587 Si02
#       8
#     8   8   4   4   4   8   4   8
#     4   9  18  34  54  72  92 127 173 214 248 288
#     4   8  15  27  43  65  93 126 166 210 249 292
#     4   9  16  24  38  65 101 138 166 193 245 307
#     4  11  24  35  45  69 102 133 162 198 254 307
#     4  11  25  39  51  74 107 136 163 203 266 325
#     4   9  19  35  56  78  97 129 178 220 254 297
#     4   9  15  20  32  58  90 125 158 190 238 293
#     4   8  14  26  42  61  87 119 161 206 243 282
#
# _framework density 17.240323
#
# number of rings (size 3 to 8) (size 9 to 14) (size 15 to 20)
#    0.000    3.000    0.000    3.000    2.333    4.000 
#    0.000    3.333    0.000    0.000    0.000    0.000 
#    0.000    6.667    0.000   14.667    0.000   14.667 
#
# Total GULP energy -267343.377694 kJ/mol
# GULP energy per Si atom -5569.653702 kJ/mol
# Density = 1.720108 g / cm^3
# Si number density = 17.240323 Si / 1000 Ang^3
#
#
#
# Elastic Constant Matrix: (Units=GPa)
#
#
# Indices 1 2 3 4 5 6 
#
# 1 74.9281 83.3859 33.7775 0.0000 0.0000 0.0000
# 2 83.3859 129.5699 46.6628 0.0000 0.0000 0.0000
# 3 33.7775 46.6628 52.8823 0.0000 0.0000 0.0000
# 4 0.0000 0.0000 0.0000 7.9238 0.0000 0.0000
# 5 0.0000 0.0000 0.0000 0.0000 -8.0844 0.0000
# 6 0.0000 0.0000 0.0000 0.0000 0.0000 13.6378
#
#
#
# Elastic Compliance Matrix: (Units=1/GPa)
#
#
# Indices 1 2 3 4 5 6 
#
# 1 0.047904 -0.029037 -0.004976 0.000000 0.000000 0.000000
# 2 -0.029037 0.028914 -0.006966 0.000000 0.000000 0.000000
# 3 -0.004976 -0.006966 0.028235 0.000000 0.000000 0.000000
# 4 0.000000 0.000000 0.000000 0.126201 0.000000 0.000000
# 5 0.000000 0.000000 0.000000 0.000000 -0.123696 0.000000
# 6 0.000000 0.000000 0.000000 0.000000 0.000000 0.073326
#
#
# Mechanical properties :
#
#
# Convention : Reuss Voigt Hill
#
# Bulk Modulus (GPa) = 43.30017 65.00364 54.15191
# Shear Modulus (GPa) = 18.48151 8.93239 13.70695
#
# Velocity S-wave (km/s) = 3.27768 2.27867 2.82273
# Velocity P-wave (km/s) = 6.28446 6.68651 6.48860
#
# Compressibility (1/GPa) = 0.02309460
#
# Stress axis : x y z
#
# Youngs Moduli (GPa) = 20.87510 34.58554 35.41701
#
# Poissons Ratio (x) = 1.00427 0.17622
# Poissons Ratio (y) = 0.60615 0.24673
# Poissons Ratio (z) = 0.10387 0.24094
#
# Static dielectric constant tensor:
#      x y z
#    x 1.570030 0.000000 0.000000 
#    y 0.000000 1.606270 0.000000 
#    z 0.000000 0.000000 1.556460 
# 
# From -- ./inp_files/9304.got.cif
#   From: 2010.05.17/outbox.cif.g08.bks.cpg/sg47_5_cif.got.tgz:9304.got - 2010.06.03 20:15:42.
