data_PCOD9388317
_publ_section_title
;
Structure prediction by ZEFSAII (Michael W. Deem and Ramdas Pophale) SiO2 
 PCOD9388317
Probable space group: P M M M
;
_chemical_formula_sum "Si O2"
_cell_formula_units_Z 36
_cell_length_a 11.833918
_cell_length_b 9.151874
_cell_length_c 21.340660
_cell_angle_alpha 90.000000
_cell_angle_beta 90.000000
_cell_angle_gamma 90.000000
_cell_volume 2311.247394
_symmetry_space_group_name_H-M "P M M M"
_symmetry_group_IT_number 47
_symmetry_cell_setting 'orthorhombic'
loop_
_space_group_symop_operation_xyz
x,y,z
-x,-y,z
x,-y,-z
-x,y,-z
-x,-y,-z
x,y,-z
-x,y,z
x,-y,z
loop_
_atom_site_type_symbol
_atom_site_label
_atom_site_fract_x
_atom_site_fract_y
_atom_site_fract_z
Si Si1 0.365651 0.323789 0.734685
Si Si2 0.637791 0.832071 0.000000
Si Si3 0.000000 0.823089 0.572207
Si Si4 0.364628 0.327851 0.500000
Si Si5 0.246456 0.176327 0.381936
Si Si6 0.637331 0.331469 0.875206
O O1 0.500000 0.294219 0.726991
O O2 0.352143 0.500000 0.729334
O O3 0.295878 0.240557 0.682100
O O4 0.330801 0.280168 0.805502
O O5 0.676422 0.756603 0.064237
O O6 0.500000 0.823733 0.000000
O O7 0.670060 0.000000 0.000000
O O8 0.884518 0.781897 0.606701
O O9 0.000000 0.770039 0.500000
O O10 0.000000 0.000000 0.569123
O O11 0.333762 0.500000 0.500000
O O12 0.500000 0.318595 0.500000
O O13 0.315477 0.247503 0.439141
O O14 0.256091 0.000000 0.383612
O O15 0.500000 0.328871 0.875428
O O16 0.671457 0.500000 0.881901
#
# Coordination Sequence:
#
# PCOD9388317 Si02
#       6
#     8   4   4   4   8   8
#     4   9  18  32  47  66  96 128 154 187 232 276
#     4   9  15  21  33  57  87 116 151 196 229 249
#     4   9  18  36  54  68  90 117 146 189 240 278
#     4  11  23  36  49  68  96 123 146 181 228 275
#     4  11  21  34  53  71  89 117 154 192 230 276
#     4   8  14  25  40  56  81 122 160 182 213 268
#
# _framework density 15.576006
#
# number of rings (size 3 to 8) (size 9 to 14) (size 15 to 20)
#    0.000    2.556    1.111    3.333    0.000    6.222 
#    0.000    5.000    0.000    0.000    0.000    0.000 
#    0.000    0.889    0.000   10.000    0.000    7.556 
#
# Total GULP energy -200591.342992 kJ/mol
# GULP energy per Si atom -5571.981750 kJ/mol
# Density = 1.554055 g / cm^3
# Si number density = 15.576006 Si / 1000 Ang^3
#
#
#
# Elastic Constant Matrix: (Units=GPa)
#
#
# Indices 1 2 3 4 5 6 
#
# 1 67.5760 39.4396 59.9895 0.0000 0.0000 0.0000
# 2 39.4396 69.8415 82.7734 0.0000 0.0000 0.0000
# 3 59.9895 82.7734 190.7441 0.0000 0.0000 0.0000
# 4 0.0000 0.0000 0.0000 4.4213 0.0000 0.0000
# 5 0.0000 0.0000 0.0000 0.0000 -2.2226 0.0000
# 6 0.0000 0.0000 0.0000 0.0000 0.0000 7.0002
#
#
#
# Elastic Compliance Matrix: (Units=1/GPa)
#
#
# Indices 1 2 3 4 5 6 
#
# 1 0.023036 -0.009105 -0.003294 0.000000 0.000000 0.000000
# 2 -0.009105 0.033078 -0.011491 0.000000 0.000000 0.000000
# 3 -0.003294 -0.011491 0.011265 0.000000 0.000000 0.000000
# 4 0.000000 0.000000 0.000000 0.226177 0.000000 0.000000
# 5 0.000000 0.000000 0.000000 0.000000 -0.449918 0.000000
# 6 0.000000 0.000000 0.000000 0.000000 0.000000 0.142853
#
#
# Mechanical properties :
#
#
# Convention : Reuss Voigt Hill
#
# Bulk Modulus (GPa) = 51.01956 76.95185 63.98570
# Shear Modulus (GPa) = 122.54231 11.57039 67.05635
#
# Velocity S-wave (km/s) = 8.87945 2.72845 6.56845
# Velocity P-wave (km/s) = 11.74532 7.70956 9.93453
#
# Compressibility (1/GPa) = 0.01960033
#
# Stress axis : x y z
#
# Youngs Moduli (GPa) = 43.41019 30.23171 88.77069
#
# Poissons Ratio (x) = 0.27525 0.29241
# Poissons Ratio (y) = 0.39523 1.02004
# Poissons Ratio (z) = 0.14299 0.34738
#
# Static dielectric constant tensor:
#      x y z
#    x 1.493930 0.000000 0.000000 
#    y 0.000000 1.520410 0.000000 
#    z 0.000000 0.000000 1.525900 
# 
# From -- ./inp_files/30301.got.cif
#   From: 2010.05.17/outbox.cif.g08.bks.cpg/sg47_16_cif.got.tgz:30301.got - 2010.06.03 20:15:42.
