data_PCOD9388437
_publ_section_title
;
Structure prediction by ZEFSAII (Michael W. Deem and Ramdas Pophale) SiO2 
 PCOD9388437
Probable space group: P M M M
;
_chemical_formula_sum "Si O2"
_cell_formula_units_Z 48
_cell_length_a 15.474383
_cell_length_b 19.428352
_cell_length_c 8.813326
_cell_angle_alpha 90.000000
_cell_angle_beta 90.000000
_cell_angle_gamma 90.000000
_cell_volume 2649.653839
_symmetry_space_group_name_H-M "P M M M"
_symmetry_group_IT_number 47
_symmetry_cell_setting 'orthorhombic'
loop_
_space_group_symop_operation_xyz
x,y,z
-x,-y,z
x,-y,-z
-x,y,-z
-x,-y,-z
x,y,-z
-x,y,z
x,-y,z
loop_
_atom_site_type_symbol
_atom_site_label
_atom_site_fract_x
_atom_site_fract_y
_atom_site_fract_z
Si Si1 0.600685 0.420163 0.317593
Si Si2 0.249933 0.672492 0.819861
Si Si3 0.401849 0.078495 0.684654
Si Si4 0.101213 0.079097 0.182338
Si Si5 0.754058 0.175624 0.682146
Si Si6 0.100512 0.419792 0.682025
O O1 0.610061 0.414058 0.500000
O O2 0.500000 0.406790 0.281016
O O3 0.619606 0.500000 0.278183
O O4 0.666270 0.368901 0.238250
O O5 0.247249 0.748249 0.748936
O O6 0.166578 0.629711 0.764994
O O7 0.250961 0.677177 0.000000
O O8 0.401458 0.078530 0.500000
O O9 0.500000 0.094936 0.732355
O O10 0.330133 0.132457 0.734474
O O11 0.381720 0.000000 0.732314
O O12 0.162874 0.132895 0.263484
O O13 0.000000 0.090116 0.217713
O O14 0.123044 0.000000 0.224617
O O15 0.110667 0.084902 0.000000
O O16 0.753135 0.179328 0.500000
O O17 0.111004 0.412559 0.500000
O O18 0.117742 0.500000 0.719016
O O19 0.000000 0.405494 0.717857
#
# Coordination Sequence:
#
# PCOD9388437 Si02
#       6
#     8   8   8   8   8   8
#     4   9  19  38  63  86 108 140 184 231 276 324
#     4  12  25  37  52  79 116 153 184 221 274 331
#     4   8  15  30  53  80 106 131 166 216 269 316
#     4   9  19  37  59  81 108 143 179 219 275 338
#     4  11  22  35  54  80 109 144 186 228 269 317
#     4   9  19  38  63  86 107 136 178 227 275 325
#
# _framework density 18.115575
#
# number of rings (size 3 to 8) (size 9 to 14) (size 15 to 20)
#    0.000    2.333    0.000    5.000    0.000    6.000 
#    0.000    4.167    0.000    1.500    0.000    5.833 
#    0.000    0.000    0.000    0.000    0.000    0.000 
#
# Total GULP energy -268007.519334 kJ/mol
# GULP energy per Si atom -5583.489986 kJ/mol
# Density = 1.807434 g / cm^3
# Si number density = 18.115575 Si / 1000 Ang^3
#
#
#
# Elastic Constant Matrix: (Units=GPa)
#
#
# Indices 1 2 3 4 5 6 
#
# 1 132.1586 128.2522 65.3983 0.0000 0.0000 0.0000
# 2 128.2522 175.6407 75.0593 0.0000 0.0000 0.0000
# 3 65.3983 75.0593 57.0224 0.0000 0.0000 0.0000
# 4 0.0000 0.0000 0.0000 28.6107 0.0000 0.0000
# 5 0.0000 0.0000 0.0000 0.0000 -30.1084 0.0000
# 6 0.0000 0.0000 0.0000 0.0000 0.0000 -0.3502
#
#
#
# Elastic Compliance Matrix: (Units=1/GPa)
#
#
# Indices 1 2 3 4 5 6 
#
# 1 0.029400 -0.016134 -0.012481 0.000000 0.000000 0.000000
# 2 -0.016134 0.021868 -0.010281 0.000000 0.000000 0.000000
# 3 -0.012481 -0.010281 0.045385 0.000000 0.000000 0.000000
# 4 0.000000 0.000000 0.000000 0.034952 0.000000 0.000000
# 5 0.000000 0.000000 0.000000 0.000000 -0.033213 0.000000
# 6 0.000000 0.000000 0.000000 0.000000 0.000000 -2.855424
#
#
# Mechanical properties :
#
#
# Convention : Reuss Voigt Hill
#
# Bulk Modulus (GPa) = 53.02224 100.24903 76.63563
# Shear Modulus (GPa) = -1.87059 6.03787 2.08364
#
# Velocity S-wave (km/s) = -1.01727 1.82762 1.07363
# Velocity P-wave (km/s) = 5.28703 7.74031 6.62816
#
# Compressibility (1/GPa) = 0.01886001
#
# Stress axis : x y z
#
# Youngs Moduli (GPa) = 34.01341 45.72846 22.03380
#
# Poissons Ratio (x) = 0.73779 0.27501
# Poissons Ratio (y) = 0.54878 0.22654
# Poissons Ratio (z) = 0.42453 0.47015
#
# Static dielectric constant tensor:
#      x y z
#    x 1.613940 0.000000 0.000000 
#    y 0.000000 1.592020 0.000000 
#    z 0.000000 0.000000 1.603390 
# 
# From -- ./inp_files/6324.got.cif
#   From: 2010.05.17/outbox.cif.g08.bks.cpg/sg47_4_cif.got.tgz:6324.got - 2010.06.03 20:15:42.
