data_PCOD9388236
_publ_section_title
;
Structure prediction by ZEFSAII (Michael W. Deem and Ramdas Pophale) SiO2 
 PCOD9388236
Probable space group: P M M M
;
_chemical_formula_sum "Si O2"
_cell_formula_units_Z 44
_cell_length_a 22.329347
_cell_length_b 14.301889
_cell_length_c 9.237010
_cell_angle_alpha 90.000000
_cell_angle_beta 90.000000
_cell_angle_gamma 90.000000
_cell_volume 2949.856160
_symmetry_space_group_name_H-M "P M M M"
_symmetry_group_IT_number 47
_symmetry_cell_setting 'orthorhombic'
loop_
_space_group_symop_operation_xyz
x,y,z
-x,-y,z
x,-y,-z
-x,y,-z
-x,-y,-z
x,y,-z
-x,y,z
x,-y,z
loop_
_atom_site_type_symbol
_atom_site_label
_atom_site_fract_x
_atom_site_fract_y
_atom_site_fract_z
Si Si1 0.571462 0.892455 0.341073
Si Si2 0.000000 0.114134 0.832576
Si Si3 0.568149 0.389674 0.673591
Si Si4 0.756657 0.890728 0.174698
Si Si5 0.119296 0.113184 0.665708
Si Si6 0.353332 0.241237 0.169808
O O1 0.591416 0.855371 0.500000
O O2 0.500000 0.889740 0.340998
O O3 0.596677 0.835340 0.208800
O O4 0.590280 0.000000 0.332292
O O5 0.059987 0.145228 0.750043
O O6 0.000000 0.000000 0.831617
O O7 0.000000 0.143057 0.000000
O O8 0.571282 0.378943 0.500000
O O9 0.500000 0.358980 0.716784
O O10 0.572760 0.500000 0.706247
O O11 0.621197 0.331526 0.747354
O O12 0.819654 0.866627 0.248995
O O13 0.707103 0.813479 0.216739
O O14 0.741307 0.000000 0.212974
O O15 0.762214 0.888784 0.000000
O O16 0.120783 0.146652 0.500000
O O17 0.115593 0.000000 0.660937
O O18 0.349001 0.260541 0.000000
#
# Coordination Sequence:
#
# PCOD9388236 Si02
#       6
#     8   4   8   8   8   8
#     4   9  18  31  44  58  79 109 143 175 206 245
#     4   9  15  23  37  55  77 109 144 177 218 259
#     4   9  19  36  54  68  83 106 137 174 218 269
#     4   9  18  31  42  55  83 120 150 174 207 254
#     4   9  16  25  38  57  79 105 144 189 219 240
#     4  11  21  30  44  66  88 110 137 173 217 262
#
# _framework density 14.915982
#
# number of rings (size 3 to 8) (size 9 to 14) (size 15 to 20)
#    0.000    2.636    0.000    3.545    0.000    9.091 
#    0.000    3.636    0.000    0.000    0.000    0.000 
#    0.000    0.000    0.000    0.818    0.000   15.364 
#
# Total GULP energy -244974.841908 kJ/mol
# GULP energy per Si atom -5567.610043 kJ/mol
# Density = 1.488203 g / cm^3
# Si number density = 14.915982 Si / 1000 Ang^3
#
#
#
# Elastic Constant Matrix: (Units=GPa)
#
#
# Indices 1 2 3 4 5 6 
#
# 1 112.8586 44.1303 51.1803 0.0000 0.0000 0.0000
# 2 44.1303 55.2000 24.6915 0.0000 0.0000 0.0000
# 3 51.1803 24.6915 47.1958 0.0000 0.0000 0.0000
# 4 0.0000 0.0000 0.0000 -4.7801 0.0000 0.0000
# 5 0.0000 0.0000 0.0000 0.0000 -112.8988 0.0000
# 6 0.0000 0.0000 0.0000 0.0000 0.0000 57.2151
#
#
#
# Elastic Compliance Matrix: (Units=1/GPa)
#
#
# Indices 1 2 3 4 5 6 
#
# 1 0.019907 -0.008171 -0.017313 0.000000 0.000000 0.000000
# 2 -0.008171 0.027004 -0.005267 0.000000 0.000000 0.000000
# 3 -0.017313 -0.005267 0.042718 0.000000 0.000000 0.000000
# 4 0.000000 0.000000 0.000000 -0.209200 0.000000 0.000000
# 5 0.000000 0.000000 0.000000 0.000000 -0.008857 0.000000
# 6 0.000000 0.000000 0.000000 0.000000 0.000000 0.017478
#
#
# Mechanical properties :
#
#
# Convention : Reuss Voigt Hill
#
# Bulk Modulus (GPa) = 35.55193 50.58430 43.06811
# Shear Modulus (GPa) = -124.77137 -5.74262 -65.25699
#
# Velocity S-wave (km/s) = -9.15593 -1.96426 -6.62153
# Velocity P-wave (km/s) = 9.37487 5.37047 5.43352
#
# Compressibility (1/GPa) = 0.02812787
#
# Stress axis : x y z
#
# Youngs Moduli (GPa) = 50.23441 37.03137 23.40909
#
# Poissons Ratio (x) = 0.30256 0.40528
# Poissons Ratio (y) = 0.41044 0.12331
# Poissons Ratio (z) = 0.86969 0.19506
#
# Static dielectric constant tensor:
#      x y z
#    x 1.497160 0.000000 0.000000 
#    y 0.000000 1.493600 0.000000 
#    z 0.000000 0.000000 1.515490 
# 
# From -- ./inp_files/6808.got.cif
#   From: 2010.05.17/outbox.cif.g08.bks.cpg/sg47_4_cif.got.tgz:6808.got - 2010.06.03 20:15:42.
