data_PCOD9388976
_publ_section_title
;
Structure prediction by ZEFSAII (Michael W. Deem and Ramdas Pophale) SiO2 
 PCOD9388976
Probable space group: P M M M
;
_chemical_formula_sum "Si O2"
_cell_formula_units_Z 44
_cell_length_a 29.956043
_cell_length_b 7.376267
_cell_length_c 9.533685
_cell_angle_alpha 90.000000
_cell_angle_beta 90.000000
_cell_angle_gamma 90.000000
_cell_volume 2106.598993
_symmetry_space_group_name_H-M "P M M M"
_symmetry_group_IT_number 47
_symmetry_cell_setting 'orthorhombic'
loop_
_space_group_symop_operation_xyz
x,y,z
-x,-y,z
x,-y,-z
-x,y,-z
-x,-y,-z
x,y,-z
-x,y,z
x,-y,z
loop_
_atom_site_type_symbol
_atom_site_label
_atom_site_fract_x
_atom_site_fract_y
_atom_site_fract_z
Si Si1 0.145397 0.285227 0.658764
Si Si2 0.771645 0.278889 0.161771
Si Si3 0.671919 0.279243 0.162486
Si Si4 0.047953 0.217375 0.662875
Si Si5 0.500000 0.721220 0.838066
Si Si6 0.586575 0.721430 0.661601
O O1 0.144430 0.210599 0.500000
O O2 0.152271 0.500000 0.647745
O O3 0.187019 0.213327 0.746299
O O4 0.096104 0.263759 0.725061
O O5 0.771963 0.500000 0.164468
O O6 0.721814 0.223318 0.207125
O O7 0.777220 0.225503 0.000000
O O8 0.671449 0.500000 0.162756
O O9 0.632171 0.219630 0.263010
O O10 0.664845 0.224857 0.000000
O O11 0.049133 0.280779 0.500000
O O12 0.000000 0.279479 0.722891
O O13 0.046581 0.000000 0.660318
O O14 0.500000 0.500000 0.839734
O O15 0.544085 0.777742 0.753751
O O16 0.500000 0.779784 0.000000
O O17 0.583484 0.779051 0.500000
O O18 0.586593 0.500000 0.661093
#
# Coordination Sequence:
#
# PCOD9388976 Si02
#       6
#     8   8   8   8   4   8
#     4   9  16  24  37  59  80  95 119 159 197 223
#     4   8  14  24  36  49  68  94 118 141 177 227
#     4   8  13  21  31  41  54  76 106 134 164 211
#     4   8  14  25  40  57  78 104 130 154 185 228
#     4   9  15  21  27  33  45  69 101 137 176 219
#     4   9  15  20  26  37  52  70  96 135 181 220
#
# _framework density 20.886748000000001
#
# number of rings (size 3 to 8) (size 9 to 14) (size 15 to 20)
#    0.000    3.545    0.000    2.455    0.000    4.364 
#    0.000    5.455    0.000    1.091    0.000    3.818 
#    0.000    0.000    0.000    0.000    0.000    0.000 
#
# Total GULP energy -245247.889305 kJ/mol
# GULP energy per Si atom -5573.815666 kJ/mol
# Density = 2.083921 g / cm^3
# Si number density = 20.886748 Si / 1000 Ang^3
#
#
#
# Elastic Constant Matrix: (Units=GPa)
#
#
# Indices 1 2 3 4 5 6 
#
# 1 262.9412 4.7561 123.5154 0.0000 0.0000 0.0000
# 2 4.7561 72.4871 3.5754 0.0000 0.0000 0.0000
# 3 123.5154 3.5754 109.1194 0.0000 0.0000 0.0000
# 4 0.0000 0.0000 0.0000 -10.2185 0.0000 0.0000
# 5 0.0000 0.0000 0.0000 0.0000 88.8658 0.0000
# 6 0.0000 0.0000 0.0000 0.0000 0.0000 72.3391
#
#
#
# Elastic Compliance Matrix: (Units=1/GPa)
#
#
# Indices 1 2 3 4 5 6 
#
# 1 0.008122 -0.000080 -0.009191 0.000000 0.000000 0.000000
# 2 -0.000080 0.013819 -0.000363 0.000000 0.000000 0.000000
# 3 -0.009191 -0.000363 0.019579 0.000000 0.000000 0.000000
# 4 0.000000 0.000000 0.000000 -0.097861 0.000000 0.000000
# 5 0.000000 0.000000 0.000000 0.000000 0.011253 0.000000
# 6 0.000000 0.000000 0.000000 0.000000 0.000000 0.013824
#
#
# Mechanical properties :
#
#
# Convention : Reuss Voigt Hill
#
# Bulk Modulus (GPa) = 44.93596 78.69350 61.81473
# Shear Modulus (GPa) = -1091.57754 51.04400 -520.26677
#
# Velocity S-wave (km/s) = -22.88563 4.94889 -15.79969
# Velocity P-wave (km/s) = 26.01490 8.39127 17.41209
#
# Compressibility (1/GPa) = 0.02225389
#
# Stress axis : x y z
#
# Youngs Moduli (GPa) = 123.12367 72.36585 51.07383
#
# Poissons Ratio (x) = 0.00576 0.46941
# Poissons Ratio (y) = 0.00980 0.01852
# Poissons Ratio (z) = 1.13161 0.02625
#
# Static dielectric constant tensor:
#      x y z
#    x 1.764070 0.000000 0.000000 
#    y 0.000000 1.812710 0.000000 
#    z 0.000000 0.000000 1.705800 
# 
# From -- ./inp_files/13177.got.cif
#   From: 2010.05.17/outbox.cif.g08.bks.cpg/sg47_7_cif.got.tgz:13177.got - 2010.06.03 20:15:42.
