data_PCOD9388603
_publ_section_title
;
Structure prediction by ZEFSAII (Michael W. Deem and Ramdas Pophale) SiO2 
 PCOD9388603
Probable space group: P M M M
;
_chemical_formula_sum "Si O2"
_cell_formula_units_Z 64
_cell_length_a 7.480799
_cell_length_b 29.979893
_cell_length_c 15.139060
_cell_angle_alpha 90.000000
_cell_angle_beta 90.000000
_cell_angle_gamma 90.000000
_cell_volume 3395.290784
_symmetry_space_group_name_H-M "P M M M"
_symmetry_group_IT_number 47
_symmetry_cell_setting 'orthorhombic'
loop_
_space_group_symop_operation_xyz
x,y,z
-x,-y,z
x,-y,-z
-x,y,-z
-x,-y,-z
x,y,-z
-x,y,z
x,-y,z
loop_
_atom_site_type_symbol
_atom_site_label
_atom_site_fract_x
_atom_site_fract_y
_atom_site_fract_z
Si Si1 0.716106 0.913265 0.599500
Si Si2 0.793182 0.047950 0.783405
Si Si3 0.281320 0.270832 0.719987
Si Si4 0.718729 0.354156 0.602848
Si Si5 0.288617 0.867962 0.901798
Si Si6 0.718227 0.232414 0.100557
Si Si7 0.717487 0.811519 0.399322
Si Si8 0.714772 0.452078 0.605834
O O1 0.774312 0.925039 0.500000
O O2 0.500000 0.913366 0.599258
O O3 0.774786 0.944392 0.678792
O O4 0.774852 0.862259 0.618871
O O5 0.731034 0.092140 0.833323
O O6 0.000000 0.045437 0.805732
O O7 0.709733 0.000000 0.807593
O O8 0.500000 0.271314 0.718552
O O9 0.222709 0.314338 0.666344
O O10 0.224372 0.265213 0.821389
O O11 0.223870 0.226378 0.667612
O O12 0.771573 0.347399 0.500000
O O13 0.500000 0.354361 0.602350
O O14 0.778733 0.403315 0.634898
O O15 0.500000 0.861867 0.909706
O O16 0.222295 0.818452 0.877313
O O17 0.218884 0.879583 0.000000
O O18 0.500000 0.233123 0.100804
O O19 0.774231 0.242252 0.000000
O O20 0.768534 0.800438 0.500000
O O21 0.500000 0.812166 0.396645
O O22 0.743874 0.452090 0.500000
O O23 0.500000 0.452443 0.618922
O O24 0.783425 0.500000 0.639991
#
# Coordination Sequence:
#
# PCOD9388603 Si02
#       8
#     8   8   8   8   8   8   8   8
#     4   9  18  33  52  70  86 109 144 178 201 229
#     4  11  24  37  48  66  92 117 136 160 201 247
#     4   9  13  16  26  44  68  92 107 130 177 231
#     4   8  12  15  19  32  55  81 109 139 175 223
#     4   9  18  34  55  73  86 104 133 166 198 238
#     4   8  14  24  38  56  74  91 114 144 178 219
#     4   8  13  21  35  56  77  94 115 146 185 226
#     4   7   9  13  19  25  38  67 107 147 181 211
#
# _framework density 18.849637000000001
#
# number of rings (size 3 to 8) (size 9 to 14) (size 15 to 20)
#    0.000    3.375    0.000    4.125    0.000    5.500 
#    0.000    2.500    0.000    0.000    0.000    0.000 
#    0.000    0.500    0.000    7.000    0.000    0.250 
#
# Total GULP energy -356570.833387 kJ/mol
# GULP energy per Si atom -5571.419272 kJ/mol
# Density = 1.880673 g / cm^3
# Si number density = 18.849637 Si / 1000 Ang^3
#
#
#
# Elastic Constant Matrix: (Units=GPa)
#
#
# Indices 1 2 3 4 5 6 
#
# 1 47.0350 1.5667 -1.8623 0.0000 0.0000 0.0000
# 2 1.5667 106.6107 75.1959 0.0000 0.0000 0.0000
# 3 -1.8623 75.1959 93.4522 0.0000 0.0000 0.0000
# 4 0.0000 0.0000 0.0000 18.0322 0.0000 0.0000
# 5 0.0000 0.0000 0.0000 0.0000 -629.8740 0.0000
# 6 0.0000 0.0000 0.0000 0.0000 0.0000 4.0419
#
#
#
# Elastic Compliance Matrix: (Units=1/GPa)
#
#
# Indices 1 2 3 4 5 6 
#
# 1 0.021370 -0.001421 0.001569 0.000000 0.000000 0.000000
# 2 -0.001421 0.021784 -0.017557 0.000000 0.000000 0.000000
# 3 0.001569 -0.017557 0.024859 0.000000 0.000000 0.000000
# 4 0.000000 0.000000 0.000000 0.055456 0.000000 0.000000
# 5 0.000000 0.000000 0.000000 0.000000 -0.001588 0.000000
# 6 0.000000 0.000000 0.000000 0.000000 0.000000 0.247409
#
#
# Mechanical properties :
#
#
# Convention : Reuss Voigt Hill
#
# Bulk Modulus (GPa) = 30.12384 44.09981 37.11183
# Shear Modulus (GPa) = 12.04316 -110.08013 -49.01849
#
# Velocity S-wave (km/s) = 2.53040 -7.65022 -5.10504
# Velocity P-wave (km/s) = 4.95511 7.38838 3.87524
#
# Compressibility (1/GPa) = 0.03319630
#
# Stress axis : x y z
#
# Youngs Moduli (GPa) = 46.79410 45.90477 40.22685
#
# Poissons Ratio (x) = 0.06522 -0.06312
# Poissons Ratio (y) = 0.06648 0.70626
# Poissons Ratio (z) = -0.07342 0.80595
#
# Static dielectric constant tensor:
#      x y z
#    x 1.751610 0.000000 0.000000 
#    y 0.000000 1.701010 0.000000 
#    z 0.000000 0.000000 1.641690 
# 
# From -- ./inp_files/22208.got.cif
#   From: 2010.05.17/outbox.cif.g08.bks.cpg/sg47_12_cif.got.tgz:22208.got - 2010.06.03 20:15:42.
