data_PCOD9388589
_publ_section_title
;
Structure prediction by ZEFSAII (Michael W. Deem and Ramdas Pophale) SiO2 
 PCOD9388589
Probable space group: P M M M
;
_chemical_formula_sum "Si O2"
_cell_formula_units_Z 44
_cell_length_a 9.451839
_cell_length_b 7.896862
_cell_length_c 31.803441
_cell_angle_alpha 90.000000
_cell_angle_beta 90.000000
_cell_angle_gamma 90.000000
_cell_volume 2373.804645
_symmetry_space_group_name_H-M "P M M M"
_symmetry_group_IT_number 47
_symmetry_cell_setting 'orthorhombic'
loop_
_space_group_symop_operation_xyz
x,y,z
-x,-y,z
x,-y,-z
-x,y,-z
-x,-y,-z
x,y,-z
-x,y,z
x,-y,z
loop_
_atom_site_type_symbol
_atom_site_label
_atom_site_fract_x
_atom_site_fract_y
_atom_site_fract_z
Si Si1 0.658860 0.798447 0.282520
Si Si2 0.160466 0.296475 0.798383
Si Si3 0.161875 0.295945 0.363768
Si Si4 0.172724 0.000000 0.048374
Si Si5 0.172469 0.695133 0.891856
Si Si6 0.828397 0.298972 0.454771
O O1 0.500000 0.727140 0.282498
O O2 0.741907 0.749525 0.240429
O O3 0.743372 0.745283 0.324016
O O4 0.650585 0.000000 0.283217
O O5 0.152079 0.500000 0.800258
O O6 0.213110 0.245515 0.844782
O O7 0.000000 0.231351 0.791962
O O8 0.155265 0.500000 0.367144
O O9 0.217475 0.231347 0.409209
O O10 0.000000 0.235516 0.357397
O O11 0.217365 0.831377 0.073544
O O12 0.000000 0.000000 0.048492
O O13 0.218748 0.000000 0.000000
O O14 0.218312 0.500000 0.899115
O O15 0.000000 0.691978 0.891489
O O16 0.780722 0.226835 0.500000
O O17 0.794977 0.500000 0.455672
O O18 0.000000 0.286596 0.453978
#
# Coordination Sequence:
#
# PCOD9388589 Si02
#       6
#     8   8   8   4   8   8
#     4  11  24  36  45  64  95 128 161 197 239 289
#     4   9  18  33  53  74  93 119 160 204 245 291
#     4   9  17  30  50  74  96 120 154 193 234 286
#     4   9  16  24  38  64  97 135 171 197 236 293
#     4   8  15  27  42  64  94 125 161 205 245 288
#     4   7  10  19  39  68  96 116 139 181 234 279
#
# _framework density 18.535644999999999
#
# number of rings (size 3 to 8) (size 9 to 14) (size 15 to 20)
#    0.000    3.182    0.000    3.818    1.273    4.727 
#    0.000    1.818    0.000    1.091    0.000    6.364 
#    0.000    1.455    0.000    4.000    0.000    4.000 
#
# Total GULP energy -244988.987387 kJ/mol
# GULP energy per Si atom -5567.931532 kJ/mol
# Density = 1.849346 g / cm^3
# Si number density = 18.535645 Si / 1000 Ang^3
#
#
#
# Elastic Constant Matrix: (Units=GPa)
#
#
# Indices 1 2 3 4 5 6 
#
# 1 48.9739 15.1671 64.9235 0.0000 0.0000 0.0000
# 2 15.1671 46.4335 55.6056 0.0000 0.0000 0.0000
# 3 64.9235 55.6056 230.9711 0.0000 0.0000 0.0000
# 4 0.0000 0.0000 0.0000 74.4253 0.0000 0.0000
# 5 0.0000 0.0000 0.0000 0.0000 -5.0527 0.0000
# 6 0.0000 0.0000 0.0000 0.0000 0.0000 13.1551
#
#
#
# Elastic Compliance Matrix: (Units=1/GPa)
#
#
# Indices 1 2 3 4 5 6 
#
# 1 0.032554 0.000456 -0.009260 0.000000 0.000000 0.000000
# 2 0.000456 0.030267 -0.007415 0.000000 0.000000 0.000000
# 3 -0.009260 -0.007415 0.008718 0.000000 0.000000 0.000000
# 4 0.000000 0.000000 0.000000 0.013436 0.000000 0.000000
# 5 0.000000 0.000000 0.000000 0.000000 -0.197915 0.000000
# 6 0.000000 0.000000 0.000000 0.000000 0.000000 0.076016
#
#
# Mechanical properties :
#
#
# Convention : Reuss Voigt Hill
#
# Bulk Modulus (GPa) = 25.57535 66.41898 45.99717
# Shear Modulus (GPa) = 585.01588 29.21772 307.11680
#
# Velocity S-wave (km/s) = 17.78488 3.97457 12.88602
# Velocity P-wave (km/s) = 20.87016 7.54810 15.69295
#
# Compressibility (1/GPa) = 0.03910014
#
# Stress axis : x y z
#
# Youngs Moduli (GPa) = 30.71818 33.03966 114.71004
#
# Poissons Ratio (x) = -0.01507 1.06226
# Poissons Ratio (y) = -0.01401 0.85055
# Poissons Ratio (z) = 0.28446 0.24498
#
# Static dielectric constant tensor:
#      x y z
#    x 1.617230 0.000000 0.000000 
#    y 0.000000 1.666960 0.000000 
#    z 0.000000 0.000000 1.682100 
# 
# From -- ./inp_files/1974.got.cif
#   From: 2010.05.17/outbox.cif.g08.bks.cpg/sg47_1_cif.got.tgz:1974.got - 2010.06.03 20:15:42.
