data_PCOD9388143
_publ_section_title
;
Structure prediction by ZEFSAII (Michael W. Deem and Ramdas Pophale) SiO2 
 PCOD9388143
Probable space group: P M M M
;
_chemical_formula_sum "Si O2"
_cell_formula_units_Z 29
_cell_length_a 9.176672
_cell_length_b 11.939164
_cell_length_c 14.805461
_cell_angle_alpha 90.000000
_cell_angle_beta 90.000000
_cell_angle_gamma 90.000000
_cell_volume 1622.112838
_symmetry_space_group_name_H-M "P M M M"
_symmetry_group_IT_number 47
_symmetry_cell_setting 'orthorhombic'
loop_
_space_group_symop_operation_xyz
x,y,z
-x,-y,z
x,-y,-z
-x,y,-z
-x,-y,-z
x,y,-z
-x,y,z
x,-y,z
loop_
_atom_site_type_symbol
_atom_site_label
_atom_site_fract_x
_atom_site_fract_y
_atom_site_fract_z
Si Si1 0.335746 0.865754 0.894648
Si Si2 0.673029 0.128740 0.607486
Si Si3 0.500000 0.500000 0.000000
Si Si4 0.661358 0.500000 0.189671
Si Si5 0.171970 0.723974 0.246360
O O1 0.500000 0.829606 0.866237
O O2 0.215964 0.808751 0.833862
O O3 0.330319 0.000000 0.887630
O O4 0.320635 0.835921 0.000000
O O5 0.695227 0.139820 0.500000
O O6 0.500000 0.141685 0.625154
O O7 0.762633 0.217966 0.664369
O O8 0.711496 0.000000 0.633012
O O9 0.625157 0.500000 0.917982
O O10 0.500000 0.500000 0.232953
O O11 0.748317 0.390998 0.220897
O O12 0.000000 0.709077 0.253622
#
# Coordination Sequence:
#
# PCOD9388143 Si02
#       5
#     8   8   1   4   8
#     4   9  19  35  55  78 107 148 195 237 279 337
#     4   9  19  38  64  91 118 155 203 246 284 337
#     4   8  24  44  70  84  96 152 218 260 280 330
#     4  10  23  43  64  82 106 148 205 249 284 338
#     4  12  24  36  55  86 122 152 185 237 302 360
#
# _framework density 17.877917
#
# number of rings (size 3 to 8) (size 9 to 14) (size 15 to 20)
#    0.414    1.655    0.000    5.379    1.931    5.517 
#    0.000    4.138    0.000    4.138    0.000    0.000 
#    0.000    0.000    0.000    0.000    0.000    0.000 
#
# Total GULP energy -161604.644230 kJ/mol
# GULP energy per Si atom -5572.573939 kJ/mol
# Density = 1.783723 g / cm^3
# Si number density = 17.877917 Si / 1000 Ang^3
#
#
#
# Elastic Constant Matrix: (Units=GPa)
#
#
# Indices 1 2 3 4 5 6 
#
# 1 136.0662 72.6619 65.5047 0.0000 0.0000 0.0000
# 2 72.6619 87.4356 61.9963 0.0000 0.0000 0.0000
# 3 65.5047 61.9963 88.1765 0.0000 0.0000 0.0000
# 4 0.0000 0.0000 0.0000 25.5687 0.0000 0.0000
# 5 0.0000 0.0000 0.0000 0.0000 -38.3366 0.0000
# 6 0.0000 0.0000 0.0000 0.0000 0.0000 -28.4084
#
#
#
# Elastic Compliance Matrix: (Units=1/GPa)
#
#
# Indices 1 2 3 4 5 6 
#
# 1 0.014033 -0.008515 -0.004438 0.000000 0.000000 0.000000
# 2 -0.008515 0.027974 -0.013342 0.000000 0.000000 0.000000
# 3 -0.004438 -0.013342 0.024019 0.000000 0.000000 0.000000
# 4 0.000000 0.000000 0.000000 0.039110 0.000000 0.000000
# 5 0.000000 0.000000 0.000000 0.000000 -0.026085 0.000000
# 6 0.000000 0.000000 0.000000 0.000000 0.000000 -0.035201
#
#
# Mechanical properties :
#
#
# Convention : Reuss Voigt Hill
#
# Bulk Modulus (GPa) = 74.43518 79.11156 76.77337
# Shear Modulus (GPa) = 49.54407 -0.80090 24.37158
#
# Velocity S-wave (km/s) = 5.26997 -0.67004 3.69619
# Velocity P-wave (km/s) = 8.87445 6.61426 7.82637
#
# Compressibility (1/GPa) = 0.01343451
#
# Stress axis : x y z
#
# Youngs Moduli (GPa) = 71.25940 35.74748 41.63420
#
# Poissons Ratio (x) = 0.30440 0.18477
# Poissons Ratio (y) = 0.60680 0.55550
# Poissons Ratio (z) = 0.31624 0.47696
#
# Static dielectric constant tensor:
#      x y z
#    x 1.595150 0.000000 0.000000 
#    y 0.000000 1.567950 0.000000 
#    z 0.000000 0.000000 1.610020 
# 
# From -- ./inp_files/3275.got.cif
#   From: 2010.05.17/outbox.cif.g08.bks.cpg/sg47_2_cif.got.tgz:3275.got - 2010.06.03 20:15:42.
