data_PCOD9388622
_publ_section_title
;
Structure prediction by ZEFSAII (Michael W. Deem and Ramdas Pophale) SiO2 
 PCOD9388622
Probable space group: P M M M
;
_chemical_formula_sum "Si O2"
_cell_formula_units_Z 44
_cell_length_a 9.753119
_cell_length_b 7.856157
_cell_length_c 30.982339
_cell_angle_alpha 90.000000
_cell_angle_beta 90.000000
_cell_angle_gamma 90.000000
_cell_volume 2373.929835
_symmetry_space_group_name_H-M "P M M M"
_symmetry_group_IT_number 47
_symmetry_cell_setting 'orthorhombic'
loop_
_space_group_symop_operation_xyz
x,y,z
-x,-y,z
x,-y,-z
-x,y,-z
-x,-y,-z
x,y,-z
-x,y,z
x,-y,z
loop_
_atom_site_type_symbol
_atom_site_label
_atom_site_fract_x
_atom_site_fract_y
_atom_site_fract_z
Si Si1 0.655293 0.795084 0.048578
Si Si2 0.166508 0.500000 0.549202
Si Si3 0.846352 0.701814 0.872038
Si Si4 0.344364 0.204784 0.207585
Si Si5 0.342542 0.793027 0.695690
Si Si6 0.164436 0.200346 0.386397
O O1 0.500000 0.735520 0.058782
O O2 0.762026 0.748283 0.085225
O O3 0.650363 0.000000 0.047304
O O4 0.690374 0.735682 0.000000
O O5 0.216712 0.500000 0.500000
O O6 0.205282 0.669922 0.575643
O O7 0.000000 0.500000 0.547722
O O8 0.857596 0.500000 0.871605
O O9 0.760315 0.750727 0.829837
O O10 0.000000 0.776070 0.871949
O O11 0.500000 0.265326 0.198227
O O12 0.305205 0.264635 0.255839
O O13 0.350499 0.000000 0.209274
O O14 0.500000 0.740609 0.687319
O O15 0.241207 0.744398 0.657372
O O16 0.341280 0.000000 0.696425
O O17 0.000000 0.211926 0.380622
O O18 0.196046 0.000000 0.395194
#
# Coordination Sequence:
#
# PCOD9388622 Si02
#       6
#     8   4   8   8   8   8
#     4   9  19  37  60  82 100 123 163 212 257 304
#     4   9  18  32  49  73 105 137 173 219 264 305
#     4  11  24  37  48  71 108 142 170 204 250 302
#     4   9  18  34  56  78  99 129 171 214 255 304
#     4   8  15  30  52  76 101 129 163 206 256 306
#     4   9  17  30  50  75 101 133 173 214 260 313
#
# _framework density 18.534666999999999
#
# number of rings (size 3 to 8) (size 9 to 14) (size 15 to 20)
#    0.000    2.818    0.000    2.727    0.000    6.182 
#    1.636    6.818    0.000    1.091    0.000    2.545 
#    0.000    0.000    0.000    0.000    0.000    0.000 
#
# Total GULP energy -245272.088372 kJ/mol
# GULP energy per Si atom -5574.365645 kJ/mol
# Density = 1.849248 g / cm^3
# Si number density = 18.534667 Si / 1000 Ang^3
#
#
#
# Elastic Constant Matrix: (Units=GPa)
#
#
# Indices 1 2 3 4 5 6 
#
# 1 97.1238 31.3411 109.0900 0.0000 0.0000 0.0000
# 2 31.3411 49.8175 48.0846 0.0000 0.0000 0.0000
# 3 109.0900 48.0846 193.1804 0.0000 0.0000 0.0000
# 4 0.0000 0.0000 0.0000 63.4649 0.0000 0.0000
# 5 0.0000 0.0000 0.0000 0.0000 30.7517 0.0000
# 6 0.0000 0.0000 0.0000 0.0000 0.0000 19.7903
#
#
#
# Elastic Compliance Matrix: (Units=1/GPa)
#
#
# Indices 1 2 3 4 5 6 
#
# 1 0.028525 -0.003156 -0.015323 0.000000 0.000000 0.000000
# 2 -0.003156 0.026770 -0.004881 0.000000 0.000000 0.000000
# 3 -0.015323 -0.004881 0.015044 0.000000 0.000000 0.000000
# 4 0.000000 0.000000 0.000000 0.015757 0.000000 0.000000
# 5 0.000000 0.000000 0.000000 0.000000 0.032519 0.000000
# 6 0.000000 0.000000 0.000000 0.000000 0.000000 0.050530
#
#
# Mechanical properties :
#
#
# Convention : Reuss Voigt Hill
#
# Bulk Modulus (GPa) = 42.33727 79.68364 61.01046
# Shear Modulus (GPa) = 22.34762 32.90847 27.62804
#
# Velocity S-wave (km/s) = 3.47611 4.21825 3.86504
# Velocity P-wave (km/s) = 6.24524 8.17373 7.27368
#
# Compressibility (1/GPa) = 0.02361985
#
# Stress axis : x y z
#
# Youngs Moduli (GPa) = 35.05681 37.35509 66.47027
#
# Poissons Ratio (x) = 0.11789 1.01851
# Poissons Ratio (y) = 0.11064 0.32445
# Poissons Ratio (z) = 0.53717 0.18234
#
# Static dielectric constant tensor:
#      x y z
#    x 1.639880 0.000000 0.000000 
#    y 0.000000 1.666800 0.000000 
#    z 0.000000 0.000000 1.636490 
# 
# From -- ./inp_files/33898.got.cif
#   From: 2010.05.17/outbox.cif.g08.bks.cpg/sg47_17_cif.got.tgz:33898.got - 2010.06.03 20:15:42.
