data_PCOD9388320
_publ_section_title
;
Structure prediction by ZEFSAII (Michael W. Deem and Ramdas Pophale) SiO2 
 PCOD9388320
Probable space group: P M M M
;
_chemical_formula_sum "Si O2"
_cell_formula_units_Z 40
_cell_length_a 11.355600
_cell_length_b 23.148511
_cell_length_c 8.260724
_cell_angle_alpha 90.000000
_cell_angle_beta 90.000000
_cell_angle_gamma 90.000000
_cell_volume 2171.457127
_symmetry_space_group_name_H-M "P M M M"
_symmetry_group_IT_number 47
_symmetry_cell_setting 'orthorhombic'
loop_
_space_group_symop_operation_xyz
x,y,z
-x,-y,z
x,-y,-z
-x,y,-z
-x,-y,-z
x,y,-z
-x,y,z
x,-y,z
loop_
_atom_site_type_symbol
_atom_site_label
_atom_site_fract_x
_atom_site_fract_y
_atom_site_fract_z
Si Si1 0.636287 0.861120 0.802165
Si Si2 0.132521 0.932331 0.802978
Si Si3 0.000000 0.565697 0.307892
Si Si4 0.639469 0.500000 0.681219
Si Si5 0.757574 0.614759 0.192233
Si Si6 0.635022 0.729076 0.803182
O O1 0.500000 0.876335 0.753173
O O2 0.748661 0.899255 0.748322
O O3 0.659865 0.794680 0.751427
O O4 0.634860 0.863072 0.000000
O O5 0.000000 0.912128 0.751333
O O6 0.141720 0.000000 0.759854
O O7 0.132493 0.928894 0.000000
O O8 0.886015 0.599268 0.251806
O O9 0.000000 0.500000 0.241469
O O10 0.000000 0.561863 0.500000
O O11 0.500000 0.500000 0.673711
O O12 0.691594 0.500000 0.500000
O O13 0.679703 0.440836 0.763146
O O14 0.712032 0.675941 0.258895
O O15 0.757710 0.619574 0.000000
O O16 0.500000 0.716212 0.761651
O O17 0.642860 0.730084 0.000000
#
# Coordination Sequence:
#
# PCOD9388320 Si02
#       6
#     8   8   4   4   8   8
#     4   8  13  22  35  51  75 108 143 183 233 281
#     4   8  13  20  29  44  69 104 148 193 231 267
#     4  11  23  39  55  69  96 130 153 186 243 297
#     4  11  23  36  51  74 101 127 157 193 240 297
#     4  11  21  34  54  75  94 119 159 202 239 284
#     4   8  15  28  44  64  90 115 142 186 241 284
#
# _framework density 18.420809999999999
#
# number of rings (size 3 to 8) (size 9 to 14) (size 15 to 20)
#    0.000    2.800    1.000    3.600    0.000    2.400 
#    1.800    2.000    0.000    0.000    0.000    0.000 
#    0.000    0.000    0.000    0.000    0.000    5.000 
#
# Total GULP energy -222745.518994 kJ/mol
# GULP energy per Si atom -5568.637975 kJ/mol
# Density = 1.837888 g / cm^3
# Si number density = 18.420810 Si / 1000 Ang^3
#
#
#
# Elastic Constant Matrix: (Units=GPa)
#
#
# Indices 1 2 3 4 5 6 
#
# 1 174.0604 109.7966 9.9060 0.0000 0.0000 0.0000
# 2 109.7966 121.1076 7.6395 0.0000 0.0000 0.0000
# 3 9.9060 7.6395 14.0207 0.0000 0.0000 0.0000
# 4 0.0000 0.0000 0.0000 -9.3805 0.0000 0.0000
# 5 0.0000 0.0000 0.0000 0.0000 3.8636 0.0000
# 6 0.0000 0.0000 0.0000 0.0000 0.0000 -13.4938
#
#
#
# Elastic Compliance Matrix: (Units=1/GPa)
#
#
# Indices 1 2 3 4 5 6 
#
# 1 0.013539 -0.012086 -0.002980 0.000000 0.000000 0.000000
# 2 -0.012086 0.019341 -0.001999 0.000000 0.000000 0.000000
# 3 -0.002980 -0.001999 0.074518 0.000000 0.000000 0.000000
# 4 0.000000 0.000000 0.000000 -0.106605 0.000000 0.000000
# 5 0.000000 0.000000 0.000000 0.000000 0.258826 0.000000
# 6 0.000000 0.000000 0.000000 0.000000 0.000000 -0.074108
#
#
# Mechanical properties :
#
#
# Convention : Reuss Voigt Hill
#
# Bulk Modulus (GPa) = 13.64872 62.65254 38.15063
# Shear Modulus (GPa) = 20.48652 8.32097 14.40375
#
# Velocity S-wave (km/s) = 3.33849 2.12767 2.79933
# Velocity P-wave (km/s) = 4.72083 6.33416 5.58605
#
# Compressibility (1/GPa) = 0.07326695
#
# Stress axis : x y z
#
# Youngs Moduli (GPa) = 73.86257 51.70466 13.41958
#
# Poissons Ratio (x) = 0.62491 0.03999
# Poissons Ratio (y) = 0.89272 0.02683
# Poissons Ratio (z) = 0.22011 0.10336
#
# Static dielectric constant tensor:
#      x y z
#    x 1.630380 0.000000 0.000000 
#    y 0.000000 1.639890 0.000000 
#    z 0.000000 0.000000 1.638930 
# 
# From -- ./inp_files/4082.got.cif
#   From: 2010.05.17/outbox.cif.g08.bks.cpg/sg47_3_cif.got.tgz:4082.got - 2010.06.03 20:15:42.
