data_PCOD9388238
_publ_section_title
;
Structure prediction by ZEFSAII (Michael W. Deem and Ramdas Pophale) SiO2 
 PCOD9388238
Probable space group: P M M M
;
_chemical_formula_sum "Si O2"
_cell_formula_units_Z 52
_cell_length_a 14.306489
_cell_length_b 27.510016
_cell_length_c 7.845768
_cell_angle_alpha 90.000000
_cell_angle_beta 90.000000
_cell_angle_gamma 90.000000
_cell_volume 3087.872574
_symmetry_space_group_name_H-M "P M M M"
_symmetry_group_IT_number 47
_symmetry_cell_setting 'orthorhombic'
loop_
_space_group_symop_operation_xyz
x,y,z
-x,-y,z
x,-y,-z
-x,y,-z
-x,-y,-z
x,y,-z
-x,y,z
x,-y,z
loop_
_atom_site_type_symbol
_atom_site_label
_atom_site_fract_x
_atom_site_fract_y
_atom_site_fract_z
Si Si1 0.289397 0.703087 0.291184
Si Si2 0.792671 0.151855 0.802675
Si Si3 0.107294 0.054651 0.294215
Si Si4 0.395285 0.199702 0.705672
Si Si5 0.895980 0.752989 0.300169
Si Si6 0.613580 0.500000 0.698130
Si Si7 0.391365 0.606066 0.290986
O O1 0.288215 0.702910 0.500000
O O2 0.358663 0.746954 0.240516
O O3 0.186259 0.718539 0.229830
O O4 0.328267 0.651136 0.235692
O O5 0.826412 0.097748 0.764278
O O6 0.684949 0.162086 0.758093
O O7 0.856098 0.192140 0.709325
O O8 0.806195 0.162134 0.000000
O O9 0.107217 0.054661 0.500000
O O10 0.000000 0.063936 0.238780
O O11 0.133181 0.000000 0.237975
O O12 0.397562 0.199985 0.500000
O O13 0.500000 0.190006 0.768173
O O14 0.903063 0.740990 0.500000
O O15 0.000000 0.749555 0.225174
O O16 0.500000 0.500000 0.698691
O O17 0.643446 0.500000 0.500000
O O18 0.640397 0.552598 0.770769
O O19 0.390308 0.604783 0.500000
O O20 0.500000 0.613731 0.242707
#
# Coordination Sequence:
#
# PCOD9388238 Si02
#       7
#     8   8   8   8   8   4   8
#     4   8  13  21  35  55  74  97 135 177 210 239
#     4  11  21  30  44  67  93 117 138 166 208 254
#     4   9  18  33  52  71  90 114 144 176 208 243
#     4   9  17  30  47  64  83 111 147 180 207 241
#     4   9  17  29  43  58  79 108 142 177 209 246
#     4   7  10  14  20  36  65  99 128 155 197 251
#     4   8  11  15  25  43  69  98 128 164 204 247
#
# _framework density 16.840074000000001
#
# number of rings (size 3 to 8) (size 9 to 14) (size 15 to 20)
#    0.000    3.154    0.000    4.615    0.000    4.923 
#    0.000    0.769    0.000    0.462    0.000    3.769 
#    0.000    4.308    0.000   11.077    0.000  110.154 
#
# Total GULP energy -289604.891452 kJ/mol
# GULP energy per Si atom -5569.324836 kJ/mol
# Density = 1.680175 g / cm^3
# Si number density = 16.840074 Si / 1000 Ang^3
#
#
#
# Elastic Constant Matrix: (Units=GPa)
#
#
# Indices 1 2 3 4 5 6 
#
# 1 126.3135 85.8576 3.9523 0.0000 0.0000 0.0000
# 2 85.8576 150.3497 1.1355 0.0000 0.0000 0.0000
# 3 3.9523 1.1355 19.6485 0.0000 0.0000 0.0000
# 4 0.0000 0.0000 0.0000 -17.9613 0.0000 0.0000
# 5 0.0000 0.0000 0.0000 0.0000 -10.3781 0.0000
# 6 0.0000 0.0000 0.0000 0.0000 0.0000 20.9360
#
#
#
# Elastic Compliance Matrix: (Units=1/GPa)
#
#
# Indices 1 2 3 4 5 6 
#
# 1 0.013033 -0.007426 -0.002192 0.000000 0.000000 0.000000
# 2 -0.007426 0.010885 0.000865 0.000000 0.000000 0.000000
# 3 -0.002192 0.000865 0.051286 0.000000 0.000000 0.000000
# 4 0.000000 0.000000 0.000000 -0.055675 0.000000 0.000000
# 5 0.000000 0.000000 0.000000 0.000000 -0.096357 0.000000
# 6 0.000000 0.000000 0.000000 0.000000 0.000000 0.047765
#
#
# Mechanical properties :
#
#
# Convention : Reuss Voigt Hill
#
# Bulk Modulus (GPa) = 17.33211 53.13359 35.23285
# Shear Modulus (GPa) = 651.37975 12.21041 331.79508
#
# Velocity S-wave (km/s) = 19.68865 2.69565 14.05186
# Velocity P-wave (km/s) = 22.96023 6.42722 16.85943
#
# Compressibility (1/GPa) = 0.05769639
#
# Stress axis : x y z
#
# Youngs Moduli (GPa) = 76.72851 91.86753 19.49865
#
# Poissons Ratio (x) = 0.68220 0.04275
# Poissons Ratio (y) = 0.56978 -0.01686
# Poissons Ratio (z) = 0.16822 -0.07944
#
# Static dielectric constant tensor:
#      x y z
#    x 1.571720 0.000000 0.000000 
#    y 0.000000 1.573090 0.000000 
#    z 0.000000 0.000000 1.605790 
# 
# From -- ./inp_files/8032.got.cif
#   From: 2010.05.17/outbox.cif.g08.bks.cpg/sg47_5_cif.got.tgz:8032.got - 2010.06.03 20:15:42.
