data_PCOD9388030
_publ_section_title
;
Structure prediction by ZEFSAII (Michael W. Deem and Ramdas Pophale) SiO2 
 PCOD9388030
Probable space group: P M M M
;
_chemical_formula_sum "Si O2"
_cell_formula_units_Z 56
_cell_length_a 14.534910
_cell_length_b 9.872417
_cell_length_c 20.399639
_cell_angle_alpha 90.000000
_cell_angle_beta 90.000000
_cell_angle_gamma 90.000000
_cell_volume 2927.239927
_symmetry_space_group_name_H-M "P M M M"
_symmetry_group_IT_number 47
_symmetry_cell_setting 'orthorhombic'
loop_
_space_group_symop_operation_xyz
x,y,z
-x,-y,z
x,-y,-z
-x,y,-z
-x,-y,-z
x,y,-z
-x,y,z
x,-y,z
loop_
_atom_site_type_symbol
_atom_site_label
_atom_site_fract_x
_atom_site_fract_y
_atom_site_fract_z
Si Si1 0.109099 0.843285 0.313643
Si Si2 0.609711 0.660667 0.339704
Si Si3 0.257034 0.159558 0.423761
Si Si4 0.112036 0.655156 0.807561
Si Si5 0.388022 0.843434 0.073015
Si Si6 0.611922 0.344357 0.808669
Si Si7 0.888079 0.154130 0.074795
O O1 0.166523 0.819927 0.379450
O O2 0.138070 0.740791 0.256482
O O3 0.000000 0.826780 0.324905
O O4 0.123816 0.000000 0.292655
O O5 0.500000 0.680741 0.345716
O O6 0.627414 0.500000 0.347446
O O7 0.664411 0.748868 0.391667
O O8 0.637781 0.698034 0.265041
O O9 0.242254 0.191541 0.500000
O O10 0.281267 0.000000 0.418972
O O11 0.143295 0.500000 0.805415
O O12 0.141825 0.736064 0.872309
O O13 0.000000 0.653362 0.808525
O O14 0.500000 0.841394 0.073922
O O15 0.356222 0.752123 0.133111
O O16 0.360508 0.000000 0.080652
O O17 0.360474 0.797035 0.000000
O O18 0.500000 0.343158 0.809196
O O19 0.639532 0.500000 0.819364
O O20 0.000000 0.155102 0.074960
O O21 0.860818 0.000000 0.092024
O O22 0.859279 0.181786 0.000000
#
# Coordination Sequence:
#
# PCOD9388030 Si02
#       7
#     8   8   8   8   8   8   8
#     4   9  18  34  55  76 102 138 174 209 255 312
#     4   9  19  36  56  78 106 141 178 213 254 308
#     4  10  22  38  56  82 110 133 166 212 258 307
#     4   9  16  25  40  65  96 129 168 214 258 301
#     4   8  13  20  31  53  88 126 162 202 248 295
#     4   8  14  25  41  62  89 123 166 210 245 285
#     4   8  13  21  34  55  87 128 171 212 254 302
#
# _framework density 19.130648999999998
#
# number of rings (size 3 to 8) (size 9 to 14) (size 15 to 20)
#    0.000    3.286    0.000    2.143    0.000    4.571 
#    0.000    7.143    0.000    0.000    0.000    4.000 
#    0.000    5.714    0.000    0.571    0.000    0.000 
#
# Total GULP energy -312449.164734 kJ/mol
# GULP energy per Si atom -5579.449370 kJ/mol
# Density = 1.908711 g / cm^3
# Si number density = 19.130649 Si / 1000 Ang^3
#
#
#
# Elastic Constant Matrix: (Units=GPa)
#
#
# Indices 1 2 3 4 5 6 
#
# 1 75.2003 38.9068 38.6583 0.0000 0.0000 0.0000
# 2 38.9068 119.5892 124.4261 0.0000 0.0000 0.0000
# 3 38.6583 124.4261 189.2912 0.0000 0.0000 0.0000
# 4 0.0000 0.0000 0.0000 4278.5872 0.0000 0.0000
# 5 0.0000 0.0000 0.0000 0.0000 64.5484 0.0000
# 6 0.0000 0.0000 0.0000 0.0000 0.0000 3.6156
#
#
#
# Elastic Compliance Matrix: (Units=1/GPa)
#
#
# Indices 1 2 3 4 5 6 
#
# 1 0.016003 -0.005714 0.000487 0.000000 0.000000 0.000000
# 2 -0.005714 0.028494 -0.017563 0.000000 0.000000 0.000000
# 3 0.000487 -0.017563 0.016728 0.000000 0.000000 0.000000
# 4 0.000000 0.000000 0.000000 0.000234 0.000000 0.000000
# 5 0.000000 0.000000 0.000000 0.000000 0.015492 0.000000
# 6 0.000000 0.000000 0.000000 0.000000 0.000000 0.276582
#
#
# Mechanical properties :
#
#
# Convention : Reuss Voigt Hill
#
# Bulk Modulus (GPa) = 63.91013 87.56257 75.73635
# Shear Modulus (GPa) = 12.36618 881.48952 446.92785
#
# Velocity S-wave (km/s) = 2.54521 21.48892 15.30117
# Velocity P-wave (km/s) = 6.48978 25.72097 18.75747
#
# Compressibility (1/GPa) = 0.01564697
#
# Stress axis : x y z
#
# Youngs Moduli (GPa) = 62.48699 35.09461 59.77953
#
# Poissons Ratio (x) = 0.20051 -0.02913
# Poissons Ratio (y) = 0.35702 1.04992
# Poissons Ratio (z) = -0.03045 0.61638
#
# Static dielectric constant tensor:
#      x y z
#    x 1.726340 0.000000 0.000000 
#    y 0.000000 1.636950 0.000000 
#    z 0.000000 0.000000 1.636000 
# 
# From -- ./inp_files/30967.got.cif
#   From: 2010.05.17/outbox.cif.g08.bks.cpg/sg47_16_cif.got.tgz:30967.got - 2010.06.03 20:15:42.
