data_PCOD9388023
_publ_section_title
;
Structure prediction by ZEFSAII (Michael W. Deem and Ramdas Pophale) SiO2 
 PCOD9388023
Probable space group: P M M M
;
_chemical_formula_sum "Si O2"
_cell_formula_units_Z 64
_cell_length_a 26.694229
_cell_length_b 9.211480
_cell_length_c 14.335752
_cell_angle_alpha 90.000000
_cell_angle_beta 90.000000
_cell_angle_gamma 90.000000
_cell_volume 3525.066178
_symmetry_space_group_name_H-M "P M M M"
_symmetry_group_IT_number 47
_symmetry_cell_setting 'orthorhombic'
loop_
_space_group_symop_operation_xyz
x,y,z
-x,-y,z
x,-y,-z
-x,y,-z
-x,-y,-z
x,y,-z
-x,y,z
x,-y,z
loop_
_atom_site_type_symbol
_atom_site_label
_atom_site_fract_x
_atom_site_fract_y
_atom_site_fract_z
Si Si1 0.849820 0.330849 0.612431
Si Si2 0.557679 0.327876 0.389021
Si Si3 0.800104 0.664952 0.113122
Si Si4 0.312047 0.675135 0.890901
Si Si5 0.055317 0.825218 0.297526
Si Si6 0.251798 0.172090 0.611455
Si Si7 0.646013 0.173629 0.280487
Si Si8 0.099019 0.173774 0.894306
O O1 0.850693 0.319284 0.500000
O O2 0.851135 0.500000 0.637668
O O3 0.898417 0.249850 0.651602
O O4 0.797346 0.259131 0.643796
O O5 0.563530 0.304341 0.500000
O O6 0.500000 0.292609 0.364753
O O7 0.565124 0.500000 0.371904
O O8 0.598135 0.236095 0.333621
O O9 0.806879 0.500000 0.146935
O O10 0.744781 0.718928 0.137731
O O11 0.847377 0.762574 0.136658
O O12 0.799234 0.658654 0.000000
O O13 0.314710 0.500000 0.882143
O O14 0.348914 0.754502 0.820950
O O15 0.319609 0.710234 0.000000
O O16 0.060503 0.789920 0.187330
O O17 0.000000 0.781866 0.331405
O O18 0.059648 0.000000 0.307216
O O19 0.257797 0.195636 0.500000
O O20 0.303300 0.213154 0.662392
O O21 0.243146 0.000000 0.625942
O O22 0.643835 0.000000 0.274606
O O23 0.102691 0.000000 0.898046
O O24 0.087442 0.224978 0.000000
#
# Coordination Sequence:
#
# PCOD9388023 Si02
#       8
#     8   8   8   8   8   8   8   8
#     4  10  22  39  58  79 102 131 170 219 271 318
#     4   9  19  37  60  85 115 153 195 235 274 323
#     4   8  15  29  48  70  97 131 171 213 258 309
#     4   9  19  35  52  73 107 151 194 232 272 322
#     4  10  22  38  55  76 102 134 172 212 260 323
#     4   9  19  36  55  78 112 147 175 208 259 327
#     4  11  22  33  53  86 119 151 186 229 279 328
#     4   9  18  32  51  75 102 132 167 209 256 309
#
# _framework density 18.155687
#
# number of rings (size 3 to 8) (size 9 to 14) (size 15 to 20)
#    0.000    2.625    0.000    2.250    1.750    4.750 
#    0.000    5.625    0.000    0.375    0.000    5.250 
#    0.000    0.000    0.000    0.000    0.000    0.000 
#
# Total GULP energy -357089.231541 kJ/mol
# GULP energy per Si atom -5579.519243 kJ/mol
# Density = 1.811436 g / cm^3
# Si number density = 18.155687 Si / 1000 Ang^3
#
#
#
# Elastic Constant Matrix: (Units=GPa)
#
#
# Indices 1 2 3 4 5 6 
#
# 1 134.4955 59.0880 60.0566 0.0000 0.0000 0.0000
# 2 59.0880 39.6224 39.6952 0.0000 0.0000 0.0000
# 3 60.0566 39.6952 63.9348 0.0000 0.0000 0.0000
# 4 0.0000 0.0000 0.0000 19.4043 0.0000 0.0000
# 5 0.0000 0.0000 0.0000 0.0000 30.8546 0.0000
# 6 0.0000 0.0000 0.0000 0.0000 0.0000 46.8857
#
#
#
# Elastic Compliance Matrix: (Units=1/GPa)
#
#
# Indices 1 2 3 4 5 6 
#
# 1 0.021576 -0.031406 -0.000768 0.000000 0.000000 0.000000
# 2 -0.031406 0.112486 -0.040338 0.000000 0.000000 0.000000
# 3 -0.000768 -0.040338 0.041407 0.000000 0.000000 0.000000
# 4 0.000000 0.000000 0.000000 0.051535 0.000000 0.000000
# 5 0.000000 0.000000 0.000000 0.000000 0.032410 0.000000
# 6 0.000000 0.000000 0.000000 0.000000 0.000000 0.021328
#
#
# Mechanical properties :
#
#
# Convention : Reuss Voigt Hill
#
# Bulk Modulus (GPa) = 32.84674 61.74805 47.29740
# Shear Modulus (GPa) = 11.47016 24.70979 18.08997
#
# Velocity S-wave (km/s) = 2.51622 3.69317 3.15997
# Velocity P-wave (km/s) = 5.15488 7.22981 6.27865
#
# Compressibility (1/GPa) = 0.03044442
#
# Stress axis : x y z
#
# Youngs Moduli (GPa) = 46.34820 8.89000 24.15071
#
# Poissons Ratio (x) = 0.27920 0.01854
# Poissons Ratio (y) = 1.45563 0.97419
# Poissons Ratio (z) = 0.03558 0.35860
#
# Static dielectric constant tensor:
#      x y z
#    x 1.602630 0.000000 0.000000 
#    y 0.000000 1.603590 0.000000 
#    z 0.000000 0.000000 1.652230 
# 
# From -- ./inp_files/21930.got.cif
#   From: 2010.05.17/outbox.cif.g08.bks.cpg/sg47_11_cif.got.tgz:21930.got - 2010.06.03 20:15:42.
