data_PCOD9388888
_publ_section_title
;
Structure prediction by ZEFSAII (Michael W. Deem and Ramdas Pophale) SiO2 
 PCOD9388888
Probable space group: P M M M
;
_chemical_formula_sum "Si O2"
_cell_formula_units_Z 52
_cell_length_a 23.891110
_cell_length_b 7.467305
_cell_length_c 15.305689
_cell_angle_alpha 90.000000
_cell_angle_beta 90.000000
_cell_angle_gamma 90.000000
_cell_volume 2730.568669
_symmetry_space_group_name_H-M "P M M M"
_symmetry_group_IT_number 47
_symmetry_cell_setting 'orthorhombic'
loop_
_space_group_symop_operation_xyz
x,y,z
-x,-y,z
x,-y,-z
-x,y,-z
-x,-y,-z
x,y,-z
-x,y,z
x,-y,z
loop_
_atom_site_type_symbol
_atom_site_label
_atom_site_fract_x
_atom_site_fract_y
_atom_site_fract_z
Si Si1 0.565668 0.284461 0.092817
Si Si2 0.000000 0.281831 0.398869
Si Si3 0.107568 0.280904 0.715656
Si Si4 0.789507 0.712849 0.600053
Si Si5 0.663948 0.215825 0.400525
Si Si6 0.563609 0.209099 0.715282
Si Si7 0.934473 0.717933 0.902476
O O1 0.500000 0.233067 0.091705
O O2 0.568004 0.500000 0.094210
O O3 0.586292 0.219569 0.185701
O O4 0.590409 0.223675 0.000000
O O5 0.054843 0.227909 0.344554
O O6 0.000000 0.500000 0.400794
O O7 0.000000 0.222529 0.500000
O O8 0.107884 0.500000 0.717749
O O9 0.163726 0.219318 0.666821
O O10 0.098420 0.222199 0.815940
O O11 0.794158 0.784196 0.500000
O O12 0.798442 0.500000 0.593633
O O13 0.726134 0.740743 0.632211
O O14 0.661057 0.280457 0.500000
O O15 0.611170 0.286759 0.346763
O O16 0.660399 0.000000 0.401197
O O17 0.500000 0.285225 0.711325
O O18 0.558102 0.000000 0.693213
O O19 0.932735 0.500000 0.902766
O O20 0.000000 0.767066 0.892348
O O21 0.916048 0.776113 0.000000
#
# Coordination Sequence:
#
# PCOD9388888 Si02
#       7
#     8   4   8   8   8   8   8
#     4   8  14  25  41  62  89 118 142 164 199 252
#     4   9  14  18  27  47  76 104 127 158 204 250
#     4   9  14  21  33  52  78 106 133 166 208 245
#     4   9  17  28  42  60  81 107 141 177 209 246
#     4   9  18  32  47  62  83 113 146 176 211 260
#     4   9  17  28  44  67  89 108 137 180 224 260
#     4   8  12  18  29  47  74 107 137 162 196 247
#
# _framework density 19.043652000000002
#
# number of rings (size 3 to 8) (size 9 to 14) (size 15 to 20)
#    0.000    3.308    0.769    1.385    0.000    3.077 
#    0.000    3.077    0.000    0.923    0.000    7.000 
#    0.000    3.077    0.000    1.692    0.000    1.538 
#
# Total GULP energy -289588.348106 kJ/mol
# GULP energy per Si atom -5569.006694 kJ/mol
# Density = 1.900031 g / cm^3
# Si number density = 19.043652 Si / 1000 Ang^3
#
#
#
# Elastic Constant Matrix: (Units=GPa)
#
#
# Indices 1 2 3 4 5 6 
#
# 1 132.7007 3.2030 101.9415 0.0000 0.0000 0.0000
# 2 3.2030 51.9954 3.6373 0.0000 0.0000 0.0000
# 3 101.9415 3.6373 154.9273 0.0000 0.0000 0.0000
# 4 0.0000 0.0000 0.0000 5.0635 0.0000 0.0000
# 5 0.0000 0.0000 0.0000 0.0000 5.0772 0.0000
# 6 0.0000 0.0000 0.0000 0.0000 0.0000 13.0643
#
#
#
# Elastic Compliance Matrix: (Units=1/GPa)
#
#
# Indices 1 2 3 4 5 6 
#
# 1 0.015241 -0.000238 -0.010023 0.000000 0.000000 0.000000
# 2 -0.000238 0.019268 -0.000296 0.000000 0.000000 0.000000
# 3 -0.010023 -0.000296 0.013057 0.000000 0.000000 0.000000
# 4 0.000000 0.000000 0.000000 0.197490 0.000000 0.000000
# 5 0.000000 0.000000 0.000000 0.000000 0.196960 0.000000
# 6 0.000000 0.000000 0.000000 0.000000 0.000000 0.076545
#
#
# Mechanical properties :
#
#
# Convention : Reuss Voigt Hill
#
# Bulk Modulus (GPa) = 37.80388 61.90966 49.85677
# Shear Modulus (GPa) = 9.11590 20.03043 14.57317
#
# Velocity S-wave (km/s) = 2.19026 3.24669 2.76932
# Velocity P-wave (km/s) = 5.12743 6.82895 6.03843
#
# Compressibility (1/GPa) = 0.02645231
#
# Stress axis : x y z
#
# Youngs Moduli (GPa) = 65.61098 51.90000 76.58849
#
# Poissons Ratio (x) = 0.01234 0.76766
# Poissons Ratio (y) = 0.01560 0.02267
# Poissons Ratio (z) = 0.65763 0.01536
#
# Static dielectric constant tensor:
#      x y z
#    x 1.634090 0.000000 0.000000 
#    y 0.000000 1.740690 0.000000 
#    z 0.000000 0.000000 1.552710 
# 
# From -- ./inp_files/25419.got.cif
#   From: 2010.05.17/outbox.cif.g08.bks.cpg/sg47_13_cif.got.tgz:25419.got - 2010.06.03 20:15:42.
