data_PCOD9388242
_publ_section_title
;
Structure prediction by ZEFSAII (Michael W. Deem and Ramdas Pophale) SiO2 
 PCOD9388242
Probable space group: P M M M
;
_chemical_formula_sum "Si O2"
_cell_formula_units_Z 52
_cell_length_a 7.713349
_cell_length_b 19.397410
_cell_length_c 18.736712
_cell_angle_alpha 90.000000
_cell_angle_beta 90.000000
_cell_angle_gamma 90.000000
_cell_volume 2803.367982
_symmetry_space_group_name_H-M "P M M M"
_symmetry_group_IT_number 47
_symmetry_cell_setting 'orthorhombic'
loop_
_space_group_symop_operation_xyz
x,y,z
-x,-y,z
x,-y,-z
-x,y,-z
-x,-y,-z
x,y,-z
-x,y,z
x,-y,z
loop_
_atom_site_type_symbol
_atom_site_label
_atom_site_fract_x
_atom_site_fract_y
_atom_site_fract_z
Si Si1 0.294489 0.316543 0.084974
Si Si2 0.287102 0.077736 0.278459
Si Si3 0.200973 0.285593 0.664123
Si Si4 0.291251 0.847702 0.420966
Si Si5 0.300890 0.790993 0.803411
Si Si6 0.000000 0.422341 0.086643
Si Si7 0.709281 0.421992 0.581843
O O1 0.500000 0.328270 0.099912
O O2 0.230025 0.250561 0.129476
O O3 0.172308 0.380148 0.106599
O O4 0.277387 0.306236 0.000000
O O5 0.500000 0.079356 0.278180
O O6 0.231765 0.102240 0.357493
O O7 0.224402 0.136981 0.224294
O O8 0.233165 0.000000 0.262808
O O9 0.247732 0.229971 0.603157
O O10 0.297636 0.260474 0.735306
O O11 0.235473 0.361775 0.635010
O O12 0.000000 0.278493 0.681289
O O13 0.224345 0.862807 0.500000
O O14 0.500000 0.852832 0.422861
O O15 0.500000 0.806193 0.821796
O O16 0.000000 0.500000 0.114329
O O17 0.000000 0.425383 0.000000
O O18 0.766750 0.407663 0.500000
O O19 0.500000 0.422141 0.581046
O O20 0.766162 0.500000 0.600375
#
# Coordination Sequence:
#
# PCOD9388242 Si02
#       7
#     8   8   8   8   8   4   8
#     4   9  18  33  55  81 107 139 178 215 254 304
#     4   8  14  26  46  72  98 125 161 205 251 297
#     4  11  21  30  45  68  93 122 159 202 246 294
#     4   9  17  29  45  65  91 125 163 202 247 298
#     4   9  18  33  52  72  97 129 164 202 246 298
#     4   9  18  32  52  80 111 139 168 207 253 299
#     4   9  18  33  51  67  86 118 158 199 245 294
#
# _framework density 18.549116999999999
#
# number of rings (size 3 to 8) (size 9 to 14) (size 15 to 20)
#    0.000    2.846    0.000    3.231    1.077    3.385 
#    0.000    4.615    0.000    8.769    0.000    7.538 
#    0.000    1.846    0.000    0.154    0.000    0.000 
#
# Total GULP energy -289787.445726 kJ/mol
# GULP energy per Si atom -5572.835495 kJ/mol
# Density = 1.850690 g / cm^3
# Si number density = 18.549117 Si / 1000 Ang^3
#
#
#
# Elastic Constant Matrix: (Units=GPa)
#
#
# Indices 1 2 3 4 5 6 
#
# 1 49.9928 20.4620 17.9195 0.0000 0.0000 0.0000
# 2 20.4620 158.9271 59.8761 0.0000 0.0000 0.0000
# 3 17.9195 59.8761 51.2760 0.0000 0.0000 0.0000
# 4 0.0000 0.0000 0.0000 10.8996 0.0000 0.0000
# 5 0.0000 0.0000 0.0000 0.0000 -11.6262 0.0000
# 6 0.0000 0.0000 0.0000 0.0000 0.0000 -88.1054
#
#
#
# Elastic Compliance Matrix: (Units=1/GPa)
#
#
# Indices 1 2 3 4 5 6 
#
# 1 0.022869 0.000119 -0.008131 0.000000 0.000000 0.000000
# 2 0.000119 0.011235 -0.013161 0.000000 0.000000 0.000000
# 3 -0.008131 -0.013161 0.037713 0.000000 0.000000 0.000000
# 4 0.000000 0.000000 0.000000 0.091747 0.000000 0.000000
# 5 0.000000 0.000000 0.000000 0.000000 -0.086013 0.000000
# 6 0.000000 0.000000 0.000000 0.000000 0.000000 -0.011350
#
#
# Mechanical properties :
#
#
# Convention : Reuss Voigt Hill
#
# Bulk Modulus (GPa) = 33.93269 50.74567 42.33918
# Shear Modulus (GPa) = 42.24011 -6.97052 17.63479
#
# Velocity S-wave (km/s) = 4.77718 -1.94063 3.08670
# Velocity P-wave (km/s) = 6.98296 4.73239 5.96478
#
# Compressibility (1/GPa) = 0.02947010
#
# Stress axis : x y z
#
# Youngs Moduli (GPa) = 43.72804 89.00371 26.51624
#
# Poissons Ratio (x) = -0.01059 0.21560
# Poissons Ratio (y) = -0.00520 0.34899
# Poissons Ratio (z) = 0.35555 1.17142
#
# Static dielectric constant tensor:
#      x y z
#    x 1.671520 0.000000 0.000000 
#    y 0.000000 1.641870 0.000000 
#    z 0.000000 0.000000 1.651090 
# 
# From -- ./inp_files/26729.got.cif
#   From: 2010.05.17/outbox.cif.g08.bks.cpg/sg47_14_cif.got.tgz:26729.got - 2010.06.03 20:15:42.
