data_PCOD9388163
_publ_section_title
;
Structure prediction by ZEFSAII (Michael W. Deem and Ramdas Pophale) SiO2 
 PCOD9388163
Probable space group: P M M M
;
_chemical_formula_sum "Si O2"
_cell_formula_units_Z 64
_cell_length_a 29.907288
_cell_length_b 15.262835
_cell_length_c 7.469706
_cell_angle_alpha 90.000000
_cell_angle_beta 90.000000
_cell_angle_gamma 90.000000
_cell_volume 3409.696713
_symmetry_space_group_name_H-M "P M M M"
_symmetry_group_IT_number 47
_symmetry_cell_setting 'orthorhombic'
loop_
_space_group_symop_operation_xyz
x,y,z
-x,-y,z
x,-y,-z
-x,y,-z
-x,-y,-z
x,y,-z
-x,y,z
x,-y,z
loop_
_atom_site_type_symbol
_atom_site_label
_atom_site_fract_x
_atom_site_fract_y
_atom_site_fract_z
Si Si1 0.693997 0.599157 0.716125
Si Si2 0.408723 0.402008 0.281794
Si Si3 0.369699 0.898419 0.717777
Si Si4 0.146430 0.601844 0.219756
Si Si5 0.730172 0.902036 0.287776
Si Si6 0.047999 0.395217 0.215166
Si Si7 0.224761 0.725258 0.205604
Si Si8 0.549477 0.776629 0.719008
O O1 0.694252 0.600847 0.500000
O O2 0.706138 0.500000 0.772978
O O3 0.642802 0.615820 0.771799
O O4 0.729719 0.669555 0.777377
O O5 0.408923 0.402971 0.500000
O O6 0.420987 0.500000 0.223045
O O7 0.440046 0.322887 0.225554
O O8 0.369764 0.891867 0.500000
O O9 0.319454 0.875747 0.780378
O O10 0.409751 0.837236 0.780862
O O11 0.377468 0.000000 0.762970
O O12 0.153396 0.500000 0.273816
O O13 0.096964 0.633592 0.277735
O O14 0.185250 0.666108 0.286665
O O15 0.146630 0.600148 0.000000
O O16 0.724804 0.910645 0.500000
O O17 0.764947 0.823840 0.264422
O O18 0.741448 0.000000 0.219112
O O19 0.047898 0.500000 0.246174
O O20 0.000000 0.360818 0.283503
O O21 0.047587 0.382980 0.000000
O O22 0.212707 0.733267 0.000000
O O23 0.549848 0.778373 0.500000
O O24 0.500000 0.804441 0.775843
#
# Coordination Sequence:
#
# PCOD9388163 Si02
#       8
#     8   8   8   8   8   8   8   8
#     4   9  17  29  44  59  78 111 151 179 196 227
#     4   8  14  24  36  49  67  96 134 168 192 218
#     4   8  14  25  40  55  70  92 123 156 191 234
#     4   8  14  23  33  51  84 119 143 164 198 243
#     4   9  18  33  50  62  75 104 144 177 203 240
#     4   7   9  15  29  47  69 104 147 178 194 219
#     4  11  20  27  40  63  91 116 133 163 215 260
#     4   9  15  20  29  49  76 101 120 144 187 241
#
# _framework density 18.769997
#
# number of rings (size 3 to 8) (size 9 to 14) (size 15 to 20)
#    0.000    3.375    0.000    4.125    0.000    3.500 
#    0.000    2.500    0.000    0.000    0.000    0.000 
#    0.000   10.500    0.000   42.375    0.000   34.750 
#
# Total GULP energy -356594.597640 kJ/mol
# GULP energy per Si atom -5571.790588 kJ/mol
# Density = 1.872728 g / cm^3
# Si number density = 18.769997 Si / 1000 Ang^3
#
#
#
# Elastic Constant Matrix: (Units=GPa)
#
#
# Indices 1 2 3 4 5 6 
#
# 1 103.8661 75.8631 8.9650 0.0000 0.0000 0.0000
# 2 75.8631 93.7324 6.3961 0.0000 0.0000 0.0000
# 3 8.9650 6.3961 47.3430 0.0000 0.0000 0.0000
# 4 0.0000 0.0000 0.0000 -27.3057 0.0000 0.0000
# 5 0.0000 0.0000 0.0000 0.0000 2.2244 0.0000
# 6 0.0000 0.0000 0.0000 0.0000 0.0000 17.8196
#
#
#
# Elastic Compliance Matrix: (Units=1/GPa)
#
#
# Indices 1 2 3 4 5 6 
#
# 1 0.023719 -0.019067 -0.001916 0.000000 0.000000 0.000000
# 2 -0.019067 0.026095 0.000085 0.000000 0.000000 0.000000
# 3 -0.001916 0.000085 0.021474 0.000000 0.000000 0.000000
# 4 0.000000 0.000000 0.000000 -0.036622 0.000000 0.000000
# 5 0.000000 0.000000 0.000000 0.000000 0.449554 0.000000
# 6 0.000000 0.000000 0.000000 0.000000 0.000000 0.056118
#
#
# Mechanical properties :
#
#
# Convention : Reuss Voigt Hill
#
# Bulk Modulus (GPa) = 33.90610 47.48776 40.69693
# Shear Modulus (GPa) = 8.44649 8.79548 8.62098
#
# Velocity S-wave (km/s) = 2.12362 2.16705 2.14544
# Velocity P-wave (km/s) = 4.91083 5.62283 5.27885
#
# Compressibility (1/GPa) = 0.02949322
#
# Stress axis : x y z
#
# Youngs Moduli (GPa) = 42.15983 38.32209 46.56863
#
# Poissons Ratio (x) = 0.73067 0.08921
# Poissons Ratio (y) = 0.80385 -0.00396
# Poissons Ratio (z) = 0.08076 -0.00326
#
# Static dielectric constant tensor:
#      x y z
#    x 1.687240 0.000000 0.000000 
#    y 0.000000 1.647910 0.000000 
#    z 0.000000 0.000000 1.804460 
# 
# From -- ./inp_files/14363.got.cif
#   From: 2010.05.17/outbox.cif.g08.bks.cpg/sg47_8_cif.got.tgz:14363.got - 2010.06.03 20:15:42.
