data_PCOD9388016
_publ_section_title
;
Structure prediction by ZEFSAII (Michael W. Deem and Ramdas Pophale) SiO2 
 PCOD9388016
Probable space group: P M M M
;
_chemical_formula_sum "Si O2"
_cell_formula_units_Z 37
_cell_length_a 9.913344
_cell_length_b 23.757147
_cell_length_c 7.605042
_cell_angle_alpha 90.000000
_cell_angle_beta 90.000000
_cell_angle_gamma 90.000000
_cell_volume 1791.084512
_symmetry_space_group_name_H-M "P M M M"
_symmetry_group_IT_number 47
_symmetry_cell_setting 'orthorhombic'
loop_
_space_group_symop_operation_xyz
x,y,z
-x,-y,z
x,-y,-z
-x,y,-z
-x,-y,-z
x,y,-z
-x,y,z
x,-y,z
loop_
_atom_site_type_symbol
_atom_site_label
_atom_site_fract_x
_atom_site_fract_y
_atom_site_fract_z
Si Si1 0.342270 0.060532 0.711687
Si Si2 0.653770 0.815932 0.208464
Si Si3 0.647556 0.377769 0.289786
Si Si4 0.848343 0.280572 0.792199
Si Si5 0.000000 0.500000 0.000000
Si Si6 0.759095 0.500000 0.288937
O O1 0.339494 0.060334 0.500000
O O2 0.500000 0.060835 0.766871
O O3 0.288495 0.120961 0.768993
O O4 0.284446 0.000000 0.771339
O O5 0.500000 0.813504 0.281162
O O6 0.752874 0.768611 0.282905
O O7 0.642117 0.806182 0.000000
O O8 0.645180 0.371012 0.500000
O O9 0.500000 0.360378 0.220589
O O10 0.768611 0.338955 0.224684
O O11 0.675459 0.443135 0.254819
O O12 0.000000 0.282860 0.718927
O O13 0.860984 0.269245 0.000000
O O14 0.883309 0.500000 0.844082
O O15 0.794813 0.500000 0.500000
#
# Coordination Sequence:
#
# PCOD9388016 Si02
#       6
#     8   8   8   8   1   4
#     4   8  14  25  43  69  99 129 165 214 269 324
#     4   9  17  30  48  72 102 136 174 221 275 327
#     4  10  22  41  63  86 116 152 189 237 295 342
#     4  10  22  37  55  79 111 146 186 233 279 337
#     4  12  26  40  66  98 128 168 204 232 298 362
#     4  10  24  43  65  93 128 161 200 250 290 348
#
# _framework density 20.657876000000002
#
# number of rings (size 3 to 8) (size 9 to 14) (size 15 to 20)
#    0.000    2.595    0.000    1.784    3.027    4.324 
#    0.000    4.865    0.000    0.649    0.000    4.541 
#    0.000    0.000    0.000    0.000    0.000    0.000 
#
# Total GULP energy -206009.483053 kJ/mol
# GULP energy per Si atom -5567.823866 kJ/mol
# Density = 2.061086 g / cm^3
# Si number density = 20.657876 Si / 1000 Ang^3
#
#
#
# Elastic Constant Matrix: (Units=GPa)
#
#
# Indices 1 2 3 4 5 6 
#
# 1 128.0815 67.7636 19.0784 0.0000 0.0000 0.0000
# 2 67.7636 156.8046 -0.9972 0.0000 0.0000 0.0000
# 3 19.0784 -0.9972 47.9682 0.0000 0.0000 0.0000
# 4 0.0000 0.0000 0.0000 23.2237 0.0000 0.0000
# 5 0.0000 0.0000 0.0000 0.0000 13.2587 0.0000
# 6 0.0000 0.0000 0.0000 0.0000 0.0000 -30.9350
#
#
#
# Elastic Compliance Matrix: (Units=1/GPa)
#
#
# Indices 1 2 3 4 5 6 
#
# 1 0.011006 -0.004785 -0.004477 0.000000 0.000000 0.000000
# 2 -0.004785 0.008458 0.002079 0.000000 0.000000 0.000000
# 3 -0.004477 0.002079 0.022671 0.000000 0.000000 0.000000
# 4 0.000000 0.000000 0.000000 0.043059 0.000000 0.000000
# 5 0.000000 0.000000 0.000000 0.000000 0.075422 0.000000
# 6 0.000000 0.000000 0.000000 0.000000 0.000000 -0.032326
#
#
# Mechanical properties :
#
#
# Convention : Reuss Voigt Hill
#
# Bulk Modulus (GPa) = 36.01038 56.06044 46.03541
# Shear Modulus (GPa) = 32.91370 17.57678 25.24524
#
# Velocity S-wave (km/s) = 3.99592 2.92010 3.49960
# Velocity P-wave (km/s) = 6.22571 6.21014 6.21793
#
# Compressibility (1/GPa) = 0.02776977
#
# Stress axis : x y z
#
# Youngs Moduli (GPa) = 90.86135 118.22716 44.10933
#
# Poissons Ratio (x) = 0.56568 0.19747
# Poissons Ratio (y) = 0.43474 -0.09170
# Poissons Ratio (z) = 0.40677 -0.24578
#
# Static dielectric constant tensor:
#      x y z
#    x 1.741230 0.000000 0.000000 
#    y 0.000000 1.760100 0.000000 
#    z 0.000000 0.000000 1.770030 
# 
# From -- ./inp_files/1536.got.cif
#   From: 2010.05.17/outbox.cif.g08.bks.cpg/sg47_1_cif.got.tgz:1536.got - 2010.06.03 20:15:42.
