data_PCOD9388726
_publ_section_title
;
Structure prediction by ZEFSAII (Michael W. Deem and Ramdas Pophale) SiO2 
 PCOD9388726
Probable space group: P M M M
;
_chemical_formula_sum "Si O2"
_cell_formula_units_Z 44
_cell_length_a 29.656402
_cell_length_b 9.800788
_cell_length_c 7.431539
_cell_angle_alpha 90.000000
_cell_angle_beta 90.000000
_cell_angle_gamma 90.000000
_cell_volume 2160.022208
_symmetry_space_group_name_H-M "P M M M"
_symmetry_group_IT_number 47
_symmetry_cell_setting 'orthorhombic'
loop_
_space_group_symop_operation_xyz
x,y,z
-x,-y,z
x,-y,-z
-x,y,-z
-x,-y,-z
x,y,-z
-x,y,z
x,-y,z
loop_
_atom_site_type_symbol
_atom_site_label
_atom_site_fract_x
_atom_site_fract_y
_atom_site_fract_z
Si Si1 0.098709 0.342028 0.779703
Si Si2 0.633656 0.347082 0.785537
Si Si3 0.000000 0.334228 0.207614
Si Si4 0.265889 0.658086 0.219320
Si Si5 0.182657 0.842745 0.780018
Si Si6 0.549537 0.845197 0.284599
O O1 0.106796 0.500000 0.726798
O O2 0.138560 0.242082 0.724005
O O3 0.048857 0.296913 0.716043
O O4 0.097445 0.342480 0.000000
O O5 0.624618 0.500000 0.716193
O O6 0.683418 0.303251 0.721105
O O7 0.591959 0.248731 0.753967
O O8 0.638087 0.356723 0.000000
O O9 0.000000 0.500000 0.206264
O O10 0.000000 0.287417 0.000000
O O11 0.257677 0.500000 0.271447
O O12 0.227061 0.760458 0.279315
O O13 0.264922 0.660018 0.000000
O O14 0.182248 0.000000 0.722453
O O15 0.182767 0.842927 0.000000
O O16 0.547030 0.852074 0.500000
O O17 0.500000 0.796334 0.220712
O O18 0.556118 0.000000 0.217847
#
# Coordination Sequence:
#
# PCOD9388726 Si02
#       6
#     8   8   4   8   8   8
#     4   8  12  18  27  36  48  71 104 142 185 231
#     4   9  18  31  47  69  93 114 141 180 222 260
#     4   7  10  16  25  35  45  63  99 143 182 225
#     4   8  14  25  38  51  71  98 124 153 194 242
#     4   9  15  20  27  42  62  83 111 147 187 233
#     4   9  19  35  51  67  90 120 151 179 208 249
#
# _framework density 20.370162000000001
#
# number of rings (size 3 to 8) (size 9 to 14) (size 15 to 20)
#    0.000    3.545    0.000    3.273    0.000    4.364 
#    0.000    5.000    0.000    2.727    0.000    0.000 
#    0.000    0.000    0.000    0.000    0.000    0.000 
#
# Total GULP energy -245221.293761 kJ/mol
# GULP energy per Si atom -5573.211222 kJ/mol
# Density = 2.032380 g / cm^3
# Si number density = 20.370162 Si / 1000 Ang^3
#
#
#
# Elastic Constant Matrix: (Units=GPa)
#
#
# Indices 1 2 3 4 5 6 
#
# 1 260.2144 149.3329 8.2313 0.0000 0.0000 0.0000
# 2 149.3329 132.5952 4.4180 0.0000 0.0000 0.0000
# 3 8.2313 4.4180 60.8847 0.0000 0.0000 0.0000
# 4 0.0000 0.0000 0.0000 4.0573 0.0000 0.0000
# 5 0.0000 0.0000 0.0000 0.0000 76.3222 0.0000
# 6 0.0000 0.0000 0.0000 0.0000 0.0000 -22.4296
#
#
#
# Elastic Compliance Matrix: (Units=1/GPa)
#
#
# Indices 1 2 3 4 5 6 
#
# 1 0.010887 -0.012241 -0.000584 0.000000 0.000000 0.000000
# 2 -0.012241 0.021325 0.000108 0.000000 0.000000 0.000000
# 3 -0.000584 0.000108 0.016496 0.000000 0.000000 0.000000
# 4 0.000000 0.000000 0.000000 0.246470 0.000000 0.000000
# 5 0.000000 0.000000 0.000000 0.000000 0.013102 0.000000
# 6 0.000000 0.000000 0.000000 0.000000 0.000000 -0.044584
#
#
# Mechanical properties :
#
#
# Convention : Reuss Voigt Hill
#
# Bulk Modulus (GPa) = 42.96957 86.40649 64.68803
# Shear Modulus (GPa) = 16.84144 31.03746 23.93945
#
# Velocity S-wave (km/s) = 2.87848 3.90766 3.43187
# Velocity P-wave (km/s) = 5.67342 7.92906 6.89412
#
# Compressibility (1/GPa) = 0.02327229
#
# Stress axis : x y z
#
# Youngs Moduli (GPa) = 91.85657 46.89395 60.62229
#
# Poissons Ratio (x) = 0.57404 0.03537
# Poissons Ratio (y) = 1.12445 -0.00652
# Poissons Ratio (z) = 0.05360 -0.00504
#
# Static dielectric constant tensor:
#      x y z
#    x 1.738650 0.000000 0.000000 
#    y 0.000000 1.683780 0.000000 
#    z 0.000000 0.000000 1.791140 
# 
# From -- ./inp_files/13578.got.cif
#   From: 2010.05.17/outbox.cif.g08.bks.cpg/sg47_7_cif.got.tgz:13578.got - 2010.06.03 20:15:42.
