data_PCOD9388330
_publ_section_title
;
Structure prediction by ZEFSAII (Michael W. Deem and Ramdas Pophale) SiO2 
 PCOD9388330
Probable space group: P M M M
;
_chemical_formula_sum "Si O2"
_cell_formula_units_Z 40
_cell_length_a 8.491357
_cell_length_b 16.847900
_cell_length_c 14.973677
_cell_angle_alpha 90.000000
_cell_angle_beta 90.000000
_cell_angle_gamma 90.000000
_cell_volume 2142.157195
_symmetry_space_group_name_H-M "P M M M"
_symmetry_group_IT_number 47
_symmetry_cell_setting 'orthorhombic'
loop_
_space_group_symop_operation_xyz
x,y,z
-x,-y,z
x,-y,-z
-x,y,-z
-x,-y,-z
x,y,-z
-x,y,z
x,-y,z
loop_
_atom_site_type_symbol
_atom_site_label
_atom_site_fract_x
_atom_site_fract_y
_atom_site_fract_z
Si Si1 0.181140 0.000000 0.652887
Si Si2 0.808228 0.407385 0.898467
Si Si3 0.319425 0.168588 0.899478
Si Si4 0.818683 0.278589 0.240538
Si Si5 0.688029 0.173368 0.399499
Si Si6 0.183469 0.000000 0.132612
O O1 0.256499 0.916621 0.622441
O O2 0.186459 0.000000 0.760065
O O3 0.000000 0.000000 0.623117
O O4 0.769408 0.500000 0.885690
O O5 0.750401 0.353451 0.815798
O O6 0.000000 0.400630 0.898717
O O7 0.756675 0.385185 0.000000
O O8 0.500000 0.179899 0.868292
O O9 0.198629 0.210275 0.833812
O O10 0.274928 0.076948 0.899528
O O11 0.306540 0.199449 0.000000
O O12 0.743168 0.239134 0.328019
O O13 0.000000 0.295662 0.261409
O O14 0.742487 0.192756 0.500000
O O15 0.500000 0.172210 0.397675
O O16 0.000000 0.000000 0.104957
#
# Coordination Sequence:
#
# PCOD9388330 Si02
#       6
#     4   8   8   8   8   4
#     4  11  22  37  58  83 106 135 180 235 287 325
#     4   8  15  30  54  85 118 147 175 212 262 320
#     4  11  23  36  51  73 105 146 184 218 263 318
#     4  11  21  34  56  84 110 139 178 225 274 320
#     4  11  24  40  58  79 106 144 185 226 277 333
#     4  11  22  35  52  75 102 137 180 227 273 315
#
# _framework density 18.672765999999999
#
# number of rings (size 3 to 8) (size 9 to 14) (size 15 to 20)
#    0.000    1.600    2.000    4.200    0.000    7.200 
#    0.000    0.000    0.000    3.000    0.000   11.200 
#    0.000    0.000    0.000    0.000    0.000    0.000 
#
# Total GULP energy -223136.312548 kJ/mol
# GULP energy per Si atom -5578.407814 kJ/mol
# Density = 1.863027 g / cm^3
# Si number density = 18.672766 Si / 1000 Ang^3
#
#
#
# Elastic Constant Matrix: (Units=GPa)
#
#
# Indices 1 2 3 4 5 6 
#
# 1 38.8083 9.7009 29.5790 0.0000 0.0000 0.0000
# 2 9.7009 121.4250 63.8990 0.0000 0.0000 0.0000
# 3 29.5790 63.8990 142.1362 0.0000 0.0000 0.0000
# 4 0.0000 0.0000 0.0000 22.3763 0.0000 0.0000
# 5 0.0000 0.0000 0.0000 0.0000 27.0029 0.0000
# 6 0.0000 0.0000 0.0000 0.0000 0.0000 -27.2688
#
#
#
# Elastic Compliance Matrix: (Units=1/GPa)
#
#
# Indices 1 2 3 4 5 6 
#
# 1 0.030757 0.001193 -0.006937 0.000000 0.000000 0.000000
# 2 0.001193 0.010834 -0.005119 0.000000 0.000000 0.000000
# 3 -0.006937 -0.005119 0.010780 0.000000 0.000000 0.000000
# 4 0.000000 0.000000 0.000000 0.044690 0.000000 0.000000
# 5 0.000000 0.000000 0.000000 0.000000 0.037033 0.000000
# 6 0.000000 0.000000 0.000000 0.000000 0.000000 -0.036672
#
#
# Mechanical properties :
#
#
# Convention : Reuss Voigt Hill
#
# Bulk Modulus (GPa) = 32.63082 56.52527 44.57804
# Shear Modulus (GPa) = 38.65099 17.70145 28.17622
#
# Velocity S-wave (km/s) = 4.55456 3.08227 3.88873
# Velocity P-wave (km/s) = 6.72099 6.55778 6.63989
#
# Compressibility (1/GPa) = 0.03064588
#
# Stress axis : x y z
#
# Youngs Moduli (GPa) = 32.51323 92.30234 92.76109
#
# Poissons Ratio (x) = -0.11015 0.64349
# Poissons Ratio (y) = -0.03880 0.47483
# Poissons Ratio (z) = 0.22555 0.47248
#
# Static dielectric constant tensor:
#      x y z
#    x 1.658750 0.000000 0.000000 
#    y 0.000000 1.666040 0.000000 
#    z 0.000000 0.000000 1.666730 
# 
# From -- ./inp_files/20706.got.cif
#   From: 2010.05.17/outbox.cif.g08.bks.cpg/sg47_11_cif.got.tgz:20706.got - 2010.06.03 20:15:42.
