data_PCOD9388847
_publ_section_title
;
Structure prediction by ZEFSAII (Michael W. Deem and Ramdas Pophale) SiO2 
 PCOD9388847
Probable space group: P M M M
;
_chemical_formula_sum "Si O2"
_cell_formula_units_Z 36
_cell_length_a 10.604762
_cell_length_b 21.386818
_cell_length_c 7.361755
_cell_angle_alpha 90.000000
_cell_angle_beta 90.000000
_cell_angle_gamma 90.000000
_cell_volume 1669.661603
_symmetry_space_group_name_H-M "P M M M"
_symmetry_group_IT_number 47
_symmetry_cell_setting 'orthorhombic'
loop_
_space_group_symop_operation_xyz
x,y,z
-x,-y,z
x,-y,-z
-x,y,-z
-x,-y,-z
x,y,-z
-x,y,z
x,-y,z
loop_
_atom_site_type_symbol
_atom_site_label
_atom_site_fract_x
_atom_site_fract_y
_atom_site_fract_z
Si Si1 0.651095 0.432898 0.717810
Si Si2 0.645833 0.705008 0.277933
Si Si3 0.218463 0.929796 0.291932
Si Si4 0.862376 0.201270 0.722118
Si Si5 0.500000 0.924648 0.204110
O O1 0.670560 0.433343 0.500000
O O2 0.500000 0.433286 0.747015
O O3 0.700414 0.500000 0.787186
O O4 0.690819 0.364309 0.781890
O O5 0.644457 0.704788 0.500000
O O6 0.500000 0.715544 0.222508
O O7 0.744683 0.757098 0.218257
O O8 0.176452 0.935153 0.500000
O O9 0.149449 0.870180 0.211652
O O10 0.366491 0.910208 0.292815
O O11 0.206981 0.000000 0.212066
O O12 0.856680 0.199423 0.500000
O O13 0.000000 0.226712 0.771308
O O14 0.500000 0.000000 0.197443
O O15 0.500000 0.899605 0.000000
#
# Coordination Sequence:
#
# PCOD9388847 Si02
#       5
#     8   8   8   8   4
#     4   7   9  14  25  41  60  84 120 164 201 233
#     4   8  13  20  31  47  67  94 128 166 206 245
#     4   9  17  28  43  62  83 108 139 172 206 245
#     4   9  17  26  36  53  78 106 134 169 210 246
#     4   9  17  29  45  65  87 107 130 167 214 254
#
# _framework density 21.561257000000001
#
# number of rings (size 3 to 8) (size 9 to 14) (size 15 to 20)
#    0.000    3.667    0.000    2.333    1.556    1.778 
#    0.000    2.222    0.000    1.333    0.000    7.778 
#    0.000    0.000    0.000    0.000    0.000    2.222 
#
# Total GULP energy -200457.383775 kJ/mol
# GULP energy per Si atom -5568.260660 kJ/mol
# Density = 2.151218 g / cm^3
# Si number density = 21.561257 Si / 1000 Ang^3
#
#
#
# Elastic Constant Matrix: (Units=GPa)
#
#
# Indices 1 2 3 4 5 6 
#
# 1 99.7785 79.7125 -0.7653 0.0000 0.0000 0.0000
# 2 79.7125 177.3602 8.0518 0.0000 0.0000 0.0000
# 3 -0.7653 8.0518 75.4741 0.0000 0.0000 0.0000
# 4 0.0000 0.0000 0.0000 -19.5355 0.0000 0.0000
# 5 0.0000 0.0000 0.0000 0.0000 -64.6408 0.0000
# 6 0.0000 0.0000 0.0000 0.0000 0.0000 -6.3864
#
#
#
# Elastic Compliance Matrix: (Units=1/GPa)
#
#
# Indices 1 2 3 4 5 6 
#
# 1 0.015699 -0.007098 0.000916 0.000000 0.000000 0.000000
# 2 -0.007098 0.008874 -0.001019 0.000000 0.000000 0.000000
# 3 0.000916 -0.001019 0.013368 0.000000 0.000000 0.000000
# 4 0.000000 0.000000 0.000000 -0.051189 0.000000 0.000000
# 5 0.000000 0.000000 0.000000 0.000000 -0.015470 0.000000
# 6 0.000000 0.000000 0.000000 0.000000 0.000000 -0.156584
#
#
# Mechanical properties :
#
#
# Convention : Reuss Voigt Hill
#
# Bulk Modulus (GPa) = 42.47797 58.51234 50.49515
# Shear Modulus (GPa) = -30.66460 -0.40496 -15.53478
#
# Velocity S-wave (km/s) = -3.77531 -0.43385 -2.68712
# Velocity P-wave (km/s) = 0.86017 5.19092 3.72059
#
# Compressibility (1/GPa) = 0.02354161
#
# Stress axis : x y z
#
# Youngs Moduli (GPa) = 63.69672 112.68385 74.80803
#
# Poissons Ratio (x) = 0.79978 -0.06855
# Poissons Ratio (y) = 0.45209 0.07621
# Poissons Ratio (z) = -0.05837 0.11479
#
# Static dielectric constant tensor:
#      x y z
#    x 1.745600 0.000000 0.000000 
#    y 0.000000 1.821770 0.000000 
#    z 0.000000 0.000000 1.815380 
# 
# From -- ./inp_files/3893.got.cif
#   From: 2010.05.17/outbox.cif.g08.bks.cpg/sg47_2_cif.got.tgz:3893.got - 2010.06.03 20:15:42.
