data_PCOD9388529
_publ_section_title
;
Structure prediction by ZEFSAII (Michael W. Deem and Ramdas Pophale) SiO2 
 PCOD9388529
Probable space group: P M M M
;
_chemical_formula_sum "Si O2"
_cell_formula_units_Z 29
_cell_length_a 8.192217
_cell_length_b 21.388589
_cell_length_c 7.872343
_cell_angle_alpha 90.000000
_cell_angle_beta 90.000000
_cell_angle_gamma 90.000000
_cell_volume 1379.391645
_symmetry_space_group_name_H-M "P M M M"
_symmetry_group_IT_number 47
_symmetry_cell_setting 'orthorhombic'
loop_
_space_group_symop_operation_xyz
x,y,z
-x,-y,z
x,-y,-z
-x,y,-z
-x,-y,-z
x,y,-z
-x,y,z
x,-y,z
loop_
_atom_site_type_symbol
_atom_site_label
_atom_site_fract_x
_atom_site_fract_y
_atom_site_fract_z
Si Si1 0.679892 0.173617 0.197997
Si Si2 0.000000 0.000000 0.000000
Si Si3 0.000000 0.898029 0.308563
Si Si4 0.182791 0.297634 0.699927
Si Si5 0.307340 0.431663 0.795481
O O1 0.500000 0.155307 0.263770
O O2 0.698630 0.248507 0.211883
O O3 0.835457 0.143360 0.289027
O O4 0.687896 0.155718 0.000000
O O5 0.000000 0.946076 0.847857
O O6 0.000000 0.924609 0.500000
O O7 0.188042 0.284036 0.500000
O O8 0.224555 0.370026 0.724905
O O9 0.000000 0.286375 0.765157
O O10 0.500000 0.428791 0.754908
O O11 0.245518 0.500000 0.737913
O O12 0.292094 0.429929 0.000000
#
# Coordination Sequence:
#
# PCOD9388529 Si02
#       5
#     8   1   4   8   8
#     4  11  23  42  70 102 139 182 230 286 343 400
#     4  12  26  52  78 110 156 190 228 276 330 390
#     4  12  25  47  77 110 146 188 233 277 332 398
#     4  11  23  36  54  86 125 165 215 276 340 405
#     4   9  19  36  55  76 107 153 211 272 337 408
#
# _framework density 21.023762000000001
#
# number of rings (size 3 to 8) (size 9 to 14) (size 15 to 20)
#    0.000    1.379    2.759    3.517    0.000    8.828 
#    0.000    5.517    0.000    1.655    0.000    0.000 
#    0.000    0.000    0.000    0.000    0.000    0.000 
#
# Total GULP energy -161727.979483 kJ/mol
# GULP energy per Si atom -5576.826879 kJ/mol
# Density = 2.097591 g / cm^3
# Si number density = 21.023762 Si / 1000 Ang^3
#
#
#
# Elastic Constant Matrix: (Units=GPa)
#
#
# Indices 1 2 3 4 5 6 
#
# 1 127.5516 41.0952 32.1502 0.0000 0.0000 0.0000
# 2 41.0952 107.6950 27.7895 0.0000 0.0000 0.0000
# 3 32.1502 27.7895 85.4206 0.0000 0.0000 0.0000
# 4 0.0000 0.0000 0.0000 -20.9645 0.0000 0.0000
# 5 0.0000 0.0000 0.0000 0.0000 29.6214 0.0000
# 6 0.0000 0.0000 0.0000 0.0000 0.0000 -25.5822
#
#
#
# Elastic Compliance Matrix: (Units=1/GPa)
#
#
# Indices 1 2 3 4 5 6 
#
# 1 0.009440 -0.002931 -0.002599 0.000000 0.000000 0.000000
# 2 -0.002931 0.011047 -0.002490 0.000000 0.000000 0.000000
# 3 -0.002599 -0.002490 0.013495 0.000000 0.000000 0.000000
# 4 0.000000 0.000000 0.000000 -0.047700 0.000000 0.000000
# 5 0.000000 0.000000 0.000000 0.000000 0.033759 0.000000
# 6 0.000000 0.000000 0.000000 0.000000 0.000000 -0.039090
#
#
# Mechanical properties :
#
#
# Convention : Reuss Voigt Hill
#
# Bulk Modulus (GPa) = 55.74290 58.08188 56.91239
# Shear Modulus (GPa) = 1681.60464 11.25709 846.43086
#
# Velocity S-wave (km/s) = 28.31246 2.31648 20.08683
# Velocity P-wave (km/s) = 33.09631 5.90267 23.77191
#
# Compressibility (1/GPa) = 0.01793950
#
# Stress axis : x y z
#
# Youngs Moduli (GPa) = 105.93743 90.52482 74.10013
#
# Poissons Ratio (x) = 0.26536 0.19260
# Poissons Ratio (y) = 0.31054 0.18455
# Poissons Ratio (z) = 0.27535 0.22545
#
# Static dielectric constant tensor:
#      x y z
#    x 1.763150 0.000000 0.000000 
#    y 0.000000 1.745250 0.000000 
#    z 0.000000 0.000000 1.752710 
# 
# From -- ./inp_files/997.got.cif
#   From: 2010.05.17/outbox.cif.g08.bks.cpg/sg47_1_cif.got.tgz:997.got - 2010.06.03 20:15:42.
