data_PCOD9388050
_publ_section_title
;
Structure prediction by ZEFSAII (Michael W. Deem and Ramdas Pophale) SiO2 
 PCOD9388050
Probable space group: P M M M
;
_chemical_formula_sum "Si O2"
_cell_formula_units_Z 38
_cell_length_a 17.578188
_cell_length_b 12.980723
_cell_length_c 8.249683
_cell_angle_alpha 90.000000
_cell_angle_beta 90.000000
_cell_angle_gamma 90.000000
_cell_volume 1882.392779
_symmetry_space_group_name_H-M "P M M M"
_symmetry_group_IT_number 47
_symmetry_cell_setting 'orthorhombic'
loop_
_space_group_symop_operation_xyz
x,y,z
-x,-y,z
x,-y,-z
-x,y,-z
-x,-y,-z
x,y,-z
-x,y,z
x,-y,z
loop_
_atom_site_type_symbol
_atom_site_label
_atom_site_fract_x
_atom_site_fract_y
_atom_site_fract_z
Si Si1 0.290933 0.616588 0.193478
Si Si2 0.091752 0.113835 0.809896
Si Si3 0.592245 0.000000 0.313049
Si Si4 0.000000 0.500000 0.796353
Si Si5 0.413418 0.779325 0.193797
Si Si6 0.876125 0.339048 0.686649
O O1 0.318245 0.500000 0.213803
O O2 0.353973 0.695838 0.255471
O O3 0.210178 0.629837 0.278597
O O4 0.279017 0.634190 0.000000
O O5 0.117542 0.217211 0.721471
O O6 0.000000 0.113486 0.801536
O O7 0.117612 0.000000 0.750957
O O8 0.112967 0.122052 0.000000
O O9 0.615974 0.893903 0.231139
O O10 0.500000 0.000000 0.303348
O O11 0.614642 0.000000 0.500000
O O12 0.933574 0.409209 0.790124
O O13 0.500000 0.768207 0.257934
O O14 0.417806 0.767564 0.000000
O O15 0.897163 0.360485 0.500000
#
# Coordination Sequence:
#
# PCOD9388050 Si02
#       6
#     8   8   4   2   8   8
#     4  10  22  39  57  83 117 149 188 237 287 339
#     4   9  19  37  59  83 111 142 181 232 288 342
#     4   9  17  31  55  87 119 148 187 238 281 331
#     4  12  25  40  59  86 115 154 197 240 289 336
#     4   9  18  35  60  86 114 151 191 232 284 343
#     4  12  23  39  60  83 115 150 192 238 285 340
#
# _framework density 20.187072000000001
#
# number of rings (size 3 to 8) (size 9 to 14) (size 15 to 20)
#    0.000    2.000    2.105    2.526    0.000    2.947 
#    1.895    5.263    0.000    0.000    0.000    4.421 
#    0.000    0.000    0.000    0.000    0.000    0.000 
#
# Total GULP energy -211584.221404 kJ/mol
# GULP energy per Si atom -5568.005826 kJ/mol
# Density = 2.014112 g / cm^3
# Si number density = 20.187072 Si / 1000 Ang^3
#
#
#
# Elastic Constant Matrix: (Units=GPa)
#
#
# Indices 1 2 3 4 5 6 
#
# 1 85.4373 57.4740 5.3107 0.0000 0.0000 0.0000
# 2 57.4740 141.7115 12.2371 0.0000 0.0000 0.0000
# 3 5.3107 12.2371 18.8806 0.0000 0.0000 0.0000
# 4 0.0000 0.0000 0.0000 9.5677 0.0000 0.0000
# 5 0.0000 0.0000 0.0000 0.0000 38.3268 0.0000
# 6 0.0000 0.0000 0.0000 0.0000 0.0000 31.0778
#
#
#
# Elastic Compliance Matrix: (Units=1/GPa)
#
#
# Indices 1 2 3 4 5 6 
#
# 1 0.016098 -0.006502 -0.000314 0.000000 0.000000 0.000000
# 2 -0.006502 0.010101 -0.004718 0.000000 0.000000 0.000000
# 3 -0.000314 -0.004718 0.056110 0.000000 0.000000 0.000000
# 4 0.000000 0.000000 0.000000 0.104518 0.000000 0.000000
# 5 0.000000 0.000000 0.000000 0.000000 0.026091 0.000000
# 6 0.000000 0.000000 0.000000 0.000000 0.000000 0.032177
#
#
# Mechanical properties :
#
#
# Convention : Reuss Voigt Hill
#
# Bulk Modulus (GPa) = 16.87995 44.00811 30.44403
# Shear Modulus (GPa) = 17.36654 27.19496 22.28075
#
# Velocity S-wave (km/s) = 2.93624 3.67433 3.32582
# Velocity P-wave (km/s) = 4.45816 6.31256 5.46460
#
# Compressibility (1/GPa) = 0.05924190
#
# Stress axis : x y z
#
# Youngs Moduli (GPa) = 62.12073 99.00146 17.82198
#
# Poissons Ratio (x) = 0.64367 0.00560
# Poissons Ratio (y) = 0.40389 0.08408
# Poissons Ratio (z) = 0.01951 0.46708
#
# Static dielectric constant tensor:
#      x y z
#    x 1.688730 0.000000 0.000000 
#    y 0.000000 1.723210 0.000000 
#    z 0.000000 0.000000 1.749110 
# 
# From -- ./inp_files/8688.got.cif
#   From: 2010.05.17/outbox.cif.g08.bks.cpg/sg47_5_cif.got.tgz:8688.got - 2010.06.03 20:15:42.
