data_PCOD9388885
_publ_section_title
;
Structure prediction by ZEFSAII (Michael W. Deem and Ramdas Pophale) SiO2 
 PCOD9388885
Probable space group: P M M M
;
_chemical_formula_sum "Si O2"
_cell_formula_units_Z 36
_cell_length_a 14.921577
_cell_length_b 19.089577
_cell_length_c 7.414747
_cell_angle_alpha 90.000000
_cell_angle_beta 90.000000
_cell_angle_gamma 90.000000
_cell_volume 2112.065422
_symmetry_space_group_name_H-M "P M M M"
_symmetry_group_IT_number 47
_symmetry_cell_setting 'orthorhombic'
loop_
_space_group_symop_operation_xyz
x,y,z
-x,-y,z
x,-y,-z
-x,y,-z
-x,-y,-z
x,y,-z
-x,y,z
x,-y,z
loop_
_atom_site_type_symbol
_atom_site_label
_atom_site_fract_x
_atom_site_fract_y
_atom_site_fract_z
Si Si1 0.786959 0.637922 0.720689
Si Si2 0.102272 0.229454 0.713118
Si Si3 0.103108 0.500000 0.719742
Si Si4 0.400290 0.581510 0.280483
Si Si5 0.895935 0.075280 0.216598
O O1 0.786006 0.638566 0.500000
O O2 0.835203 0.708642 0.783773
O O3 0.844639 0.569983 0.774906
O O4 0.684547 0.626529 0.779409
O O5 0.094272 0.241819 0.500000
O O6 0.141323 0.151122 0.733577
O O7 0.000000 0.231230 0.787206
O O8 0.102798 0.500000 0.500000
O O9 0.000000 0.500000 0.778586
O O10 0.400482 0.582471 0.500000
O O11 0.500000 0.603189 0.221661
O O12 0.386803 0.500000 0.229188
O O13 0.000000 0.076599 0.278051
O O14 0.857458 0.000000 0.278010
O O15 0.896614 0.073711 0.000000
#
# Coordination Sequence:
#
# PCOD9388885 Si02
#       5
#     8   8   4   8   8
#     4   9  14  20  28  42  66  93 119 148 178 206
#     4   9  16  23  32  50  75  98 118 143 176 211
#     4   9  14  18  25  37  58  92 125 146 168 202
#     4   8  12  18  28  41  59  87 121 151 180 212
#     4   8  14  25  39  52  67  91 122 149 172 204
#
# _framework density 17.044926
#
# number of rings (size 3 to 8) (size 9 to 14) (size 15 to 20)
#    0.000    3.444    1.111    2.000    0.000    3.111 
#    0.000    2.222    0.000    0.000    0.000    0.778 
#    0.000    6.222    0.000   13.556    0.000    4.444 
#
# Total GULP energy -200465.949968 kJ/mol
# GULP energy per Si atom -5568.498610 kJ/mol
# Density = 1.700613 g / cm^3
# Si number density = 17.044926 Si / 1000 Ang^3
#
#
#
# Elastic Constant Matrix: (Units=GPa)
#
#
# Indices 1 2 3 4 5 6 
#
# 1 118.2626 83.4978 4.7176 0.0000 0.0000 0.0000
# 2 83.4978 170.8493 2.2056 0.0000 0.0000 0.0000
# 3 4.7176 2.2056 52.9470 0.0000 0.0000 0.0000
# 4 0.0000 0.0000 0.0000 26.8740 0.0000 0.0000
# 5 0.0000 0.0000 0.0000 0.0000 -6.1199 0.0000
# 6 0.0000 0.0000 0.0000 0.0000 0.0000 5.3515
#
#
#
# Elastic Compliance Matrix: (Units=1/GPa)
#
#
# Indices 1 2 3 4 5 6 
#
# 1 0.012953 -0.006319 -0.000891 0.000000 0.000000 0.000000
# 2 -0.006319 0.008939 0.000191 0.000000 0.000000 0.000000
# 3 -0.000891 0.000191 0.018958 0.000000 0.000000 0.000000
# 4 0.000000 0.000000 0.000000 0.037211 0.000000 0.000000
# 5 0.000000 0.000000 0.000000 0.000000 -0.163400 0.000000
# 6 0.000000 0.000000 0.000000 0.000000 0.000000 0.186864
#
#
# Mechanical properties :
#
#
# Convention : Reuss Voigt Hill
#
# Bulk Modulus (GPa) = 37.29715 58.10009 47.69862
# Shear Modulus (GPa) = 40.16085 21.99697 31.07891
#
# Velocity S-wave (km/s) = 4.85931 3.59629 4.27471
# Velocity P-wave (km/s) = 7.30842 7.16972 7.23940
#
# Compressibility (1/GPa) = 0.02681170
#
# Stress axis : x y z
#
# Youngs Moduli (GPa) = 77.20508 111.87279 52.74750
#
# Poissons Ratio (x) = 0.70689 0.04699
# Poissons Ratio (y) = 0.48783 -0.01006
# Poissons Ratio (z) = 0.06878 -0.02133
#
# Static dielectric constant tensor:
#      x y z
#    x 1.562990 0.000000 0.000000 
#    y 0.000000 1.598300 0.000000 
#    z 0.000000 0.000000 1.655080 
# 
# From -- ./inp_files/8848.got.cif
#   From: 2010.05.17/outbox.cif.g08.bks.cpg/sg47_5_cif.got.tgz:8848.got - 2010.06.03 20:15:42.
