data_PCOD9388536
_publ_section_title
;
Structure prediction by ZEFSAII (Michael W. Deem and Ramdas Pophale) SiO2 
 PCOD9388536
Probable space group: P M M M
;
_chemical_formula_sum "Si O2"
_cell_formula_units_Z 44
_cell_length_a 33.956198
_cell_length_b 7.377911
_cell_length_c 9.078601
_cell_angle_alpha 90.000000
_cell_angle_beta 90.000000
_cell_angle_gamma 90.000000
_cell_volume 2274.423840
_symmetry_space_group_name_H-M "P M M M"
_symmetry_group_IT_number 47
_symmetry_cell_setting 'orthorhombic'
loop_
_space_group_symop_operation_xyz
x,y,z
-x,-y,z
x,-y,-z
-x,y,-z
-x,-y,-z
x,y,-z
-x,y,z
x,-y,z
loop_
_atom_site_type_symbol
_atom_site_label
_atom_site_fract_x
_atom_site_fract_y
_atom_site_fract_z
Si Si1 0.079549 0.778985 0.669355
Si Si2 0.542271 0.219708 0.673927
Si Si3 0.839831 0.212242 0.176476
Si Si4 0.685479 0.500000 0.822692
Si Si5 0.000000 0.778604 0.169337
Si Si6 0.628976 0.783976 0.676933
Si Si7 0.775964 0.500000 0.821150
O O1 0.079217 0.723042 0.500000
O O2 0.119827 0.723558 0.748532
O O3 0.039873 0.719384 0.750536
O O4 0.079293 0.000000 0.673268
O O5 0.541900 0.265887 0.500000
O O6 0.500000 0.281083 0.736974
O O7 0.585135 0.276145 0.730040
O O8 0.542417 0.000000 0.681490
O O9 0.802017 0.327149 0.223730
O O10 0.834382 0.000000 0.209537
O O11 0.844332 0.231008 0.000000
O O12 0.662314 0.672688 0.759061
O O13 0.730945 0.500000 0.772040
O O14 0.684334 0.500000 0.000000
O O15 0.000000 0.000000 0.172361
O O16 0.000000 0.723006 0.000000
O O17 0.630931 0.752544 0.500000
O O18 0.632632 0.000000 0.699737
O O19 0.774664 0.500000 0.000000
#
# Coordination Sequence:
#
# PCOD9388536 Si02
#       7
#     8   8   8   4   4   8   4
#     4   9  16  26  42  68 102 134 163 199 245 295
#     4   7  10  20  43  74 102 129 168 217 262 303
#     4   9  17  32  54  75  95 123 162 207 251 296
#     4  11  23  37  54  78 108 141 178 220 268 326
#     4   9  15  23  39  66  99 136 176 207 233 276
#     4   9  18  34  56  80 107 140 177 220 269 317
#     4   9  20  37  55  75  97 127 170 214 255 304
#
# _framework density 19.345559999999999
#
# number of rings (size 3 to 8) (size 9 to 14) (size 15 to 20)
#    0.000    3.182    0.000    2.727    0.000    4.364 
#    0.000    4.545    0.000    6.000    0.000    6.364 
#    0.000    0.000    0.000    0.000    0.000    0.000 
#
# Total GULP energy -245330.628687 kJ/mol
# GULP energy per Si atom -5575.696107 kJ/mol
# Density = 1.930153 g / cm^3
# Si number density = 19.345560 Si / 1000 Ang^3
#
#
#
# Elastic Constant Matrix: (Units=GPa)
#
#
# Indices 1 2 3 4 5 6 
#
# 1 249.7865 67.6439 69.2239 0.0000 0.0000 0.0000
# 2 67.6439 83.9449 34.7229 0.0000 0.0000 0.0000
# 3 69.2239 34.7229 50.7899 0.0000 0.0000 0.0000
# 4 0.0000 0.0000 0.0000 11.1230 0.0000 0.0000
# 5 0.0000 0.0000 0.0000 0.0000 31.2172 0.0000
# 6 0.0000 0.0000 0.0000 0.0000 0.0000 46.0521
#
#
#
# Elastic Compliance Matrix: (Units=1/GPa)
#
#
# Indices 1 2 3 4 5 6 
#
# 1 0.006730 -0.002271 -0.007620 0.000000 0.000000 0.000000
# 2 -0.002271 0.017376 -0.008784 0.000000 0.000000 0.000000
# 3 -0.007620 -0.008784 0.036080 0.000000 0.000000 0.000000
# 4 0.000000 0.000000 0.000000 0.089903 0.000000 0.000000
# 5 0.000000 0.000000 0.000000 0.000000 0.032034 0.000000
# 6 0.000000 0.000000 0.000000 0.000000 0.000000 0.021715
#
#
# Mechanical properties :
#
#
# Convention : Reuss Voigt Hill
#
# Bulk Modulus (GPa) = 43.79057 80.85587 62.32322
# Shear Modulus (GPa) = 20.09644 31.87384 25.98514
#
# Velocity S-wave (km/s) = 3.22656 4.06347 3.66896
# Velocity P-wave (km/s) = 6.04699 7.99388 7.08760
#
# Compressibility (1/GPa) = 0.02283597
#
# Stress axis : x y z
#
# Youngs Moduli (GPa) = 148.58104 57.55031 27.71626
#
# Poissons Ratio (x) = 0.13072 0.21120
# Poissons Ratio (y) = 0.33748 0.24345
# Poissons Ratio (z) = 1.13222 0.50550
#
# Static dielectric constant tensor:
#      x y z
#    x 1.670640 0.000000 0.000000 
#    y 0.000000 1.728530 0.000000 
#    z 0.000000 0.000000 1.644290 
# 
# From -- ./inp_files/13740.got.cif
#   From: 2010.05.17/outbox.cif.g08.bks.cpg/sg47_7_cif.got.tgz:13740.got - 2010.06.03 20:15:42.
