data_PCOD9388723
_publ_section_title
;
Structure prediction by ZEFSAII (Michael W. Deem and Ramdas Pophale) SiO2 
 PCOD9388723
Probable space group: P M M M
;
_chemical_formula_sum "Si O2"
_cell_formula_units_Z 60
_cell_length_a 29.822872
_cell_length_b 7.360738
_cell_length_c 13.420144
_cell_angle_alpha 90.000000
_cell_angle_beta 90.000000
_cell_angle_gamma 90.000000
_cell_volume 2945.967830
_symmetry_space_group_name_H-M "P M M M"
_symmetry_group_IT_number 47
_symmetry_cell_setting 'orthorhombic'
loop_
_space_group_symop_operation_xyz
x,y,z
-x,-y,z
x,-y,-z
-x,y,-z
-x,-y,-z
x,y,-z
-x,y,z
x,-y,z
loop_
_atom_site_type_symbol
_atom_site_label
_atom_site_fract_x
_atom_site_fract_y
_atom_site_fract_z
Si Si1 0.945532 0.710717 0.000000
Si Si2 0.948202 0.722295 0.781479
Si Si3 0.778921 0.288545 0.380247
Si Si4 0.548599 0.788933 0.177543
Si Si5 0.683863 0.291137 0.680829
Si Si6 0.587118 0.279757 0.389351
Si Si7 0.355037 0.779617 0.110000
Si Si8 0.122089 0.722260 0.614831
O O1 0.932719 0.785470 0.108342
O O2 0.931298 0.500000 0.000000
O O3 0.000000 0.713827 0.000000
O O4 0.948062 0.500000 0.783978
O O5 0.915691 0.779217 0.692663
O O6 0.000000 0.776362 0.765907
O O7 0.777338 0.284489 0.500000
O O8 0.779245 0.500000 0.347582
O O9 0.732113 0.207891 0.342685
O O10 0.828022 0.215204 0.353623
O O11 0.500000 0.708969 0.153546
O O12 0.557214 0.780682 0.296496
O O13 0.593890 0.714269 0.128851
O O14 0.547155 0.000000 0.147859
O O15 0.685926 0.500000 0.644813
O O16 0.638318 0.215855 0.631496
O O17 0.674476 0.286856 0.798431
O O18 0.572766 0.224536 0.500000
O O19 0.587279 0.500000 0.385896
O O20 0.355366 0.000000 0.115620
O O21 0.340069 0.726684 0.000000
O O22 0.113727 0.776798 0.500000
O O23 0.122953 0.500000 0.614321
#
# Coordination Sequence:
#
# PCOD9388723 Si02
#       8
#     4   8   8   8   8   8   8   8
#     4   7  10  16  24  32  42  66 108 150 185 225
#     4   8  12  17  25  36  53  81 119 160 198 236
#     4   8  13  22  37  55  74  98 128 161 197 239
#     4   9  18  31  45  62  83 106 133 163 195 233
#     4   9  16  27  45  64  81 103 134 170 200 233
#     4   9  17  28  42  61  83 107 136 166 196 234
#     4   9  18  32  48  64  82 105 132 163 201 241
#     4   8  13  19  27  42  64  88 117 156 200 241
#
# _framework density 20.366821000000002
#
# number of rings (size 3 to 8) (size 9 to 14) (size 15 to 20)
#    0.000    3.533    0.000    2.000    0.000    3.200 
#    0.000    4.000    1.467    1.200    0.000    3.733 
#    0.000    0.000    0.000    0.000    0.000    0.667 
#
# Total GULP energy -334344.096436 kJ/mol
# GULP energy per Si atom -5572.401607 kJ/mol
# Density = 2.032047 g / cm^3
# Si number density = 20.366821 Si / 1000 Ang^3
#
#
#
# Elastic Constant Matrix: (Units=GPa)
#
#
# Indices 1 2 3 4 5 6 
#
# 1 106.3766 3.7149 18.3081 0.0000 0.0000 0.0000
# 2 3.7149 74.5394 -5.2648 0.0000 0.0000 0.0000
# 3 18.3081 -5.2648 43.1523 0.0000 0.0000 0.0000
# 4 0.0000 0.0000 0.0000 -0.4404 0.0000 0.0000
# 5 0.0000 0.0000 0.0000 0.0000 -1.3875 0.0000
# 6 0.0000 0.0000 0.0000 0.0000 0.0000 1.1141
#
#
#
# Elastic Compliance Matrix: (Units=1/GPa)
#
#
# Indices 1 2 3 4 5 6 
#
# 1 0.010191 -0.000820 -0.004424 0.000000 0.000000 0.000000
# 2 -0.000820 0.013598 0.002007 0.000000 0.000000 0.000000
# 3 -0.004424 0.002007 0.025295 0.000000 0.000000 0.000000
# 4 0.000000 0.000000 0.000000 -2.270452 0.000000 0.000000
# 5 0.000000 0.000000 0.000000 0.000000 -0.720742 0.000000
# 6 0.000000 0.000000 0.000000 0.000000 0.000000 0.897580
#
#
# Mechanical properties :
#
#
# Convention : Reuss Voigt Hill
#
# Bulk Modulus (GPa) = 23.46830 28.62052 26.04441
# Shear Modulus (GPa) = -2.47054 13.67792 5.60369
#
# Velocity S-wave (km/s) = -1.10257 2.59429 1.66053
# Velocity P-wave (km/s) = 3.15071 4.80175 4.06102
#
# Compressibility (1/GPa) = 0.04261067
#
# Stress axis : x y z
#
# Youngs Moduli (GPa) = 98.13027 73.53828 39.53291
#
# Poissons Ratio (x) = 0.06032 0.17488
# Poissons Ratio (y) = 0.08050 -0.07935
# Poissons Ratio (z) = 0.43409 -0.14760
#
# Static dielectric constant tensor:
#      x y z
#    x 1.718600 0.000000 0.000000 
#    y 0.000000 1.715930 0.000000 
#    z 0.000000 0.000000 1.704080 
# 
# From -- ./inp_files/19990.got.cif
#   From: 2010.05.17/outbox.cif.g08.bks.cpg/sg47_10_cif.got.tgz:19990.got - 2010.06.03 20:15:42.
