data_PCOD9388349
_publ_section_title
;
Structure prediction by ZEFSAII (Michael W. Deem and Ramdas Pophale) SiO2 
 PCOD9388349
Probable space group: P M M M
;
_chemical_formula_sum "Si O2"
_cell_formula_units_Z 44
_cell_length_a 10.442176
_cell_length_b 27.775648
_cell_length_c 8.542675
_cell_angle_alpha 90.000000
_cell_angle_beta 90.000000
_cell_angle_gamma 90.000000
_cell_volume 2477.702122
_symmetry_space_group_name_H-M "P M M M"
_symmetry_group_IT_number 47
_symmetry_cell_setting 'orthorhombic'
loop_
_space_group_symop_operation_xyz
x,y,z
-x,-y,z
x,-y,-z
-x,y,-z
-x,-y,-z
x,y,-z
-x,y,z
x,-y,z
loop_
_atom_site_type_symbol
_atom_site_label
_atom_site_fract_x
_atom_site_fract_y
_atom_site_fract_z
Si Si1 0.500000 0.055492 0.191187
Si Si2 0.753189 0.111403 0.812811
Si Si3 0.851678 0.792120 0.311458
Si Si4 0.147635 0.318056 0.689147
Si Si5 0.655243 0.500000 0.179525
Si Si6 0.000000 0.944356 0.687531
Si Si7 0.351666 0.605554 0.189844
O O1 0.374096 0.084127 0.242026
O O2 0.500000 0.000000 0.243158
O O3 0.500000 0.054866 0.000000
O O4 0.763718 0.166517 0.758427
O O5 0.875333 0.082987 0.748291
O O6 0.756324 0.110078 0.000000
O O7 0.845749 0.794474 0.500000
O O8 0.822663 0.737224 0.264201
O O9 0.000000 0.801951 0.266448
O O10 0.150471 0.319746 0.500000
O O11 0.251658 0.354758 0.754685
O O12 0.000000 0.328566 0.737114
O O13 0.500000 0.500000 0.172967
O O14 0.688582 0.447973 0.249064
O O15 0.702872 0.500000 0.000000
O O16 0.000000 0.942995 0.500000
O O17 0.000000 0.000000 0.739374
O O18 0.500000 0.614835 0.237714
O O19 0.351802 0.603757 0.000000
#
# Coordination Sequence:
#
# PCOD9388349 Si02
#       7
#     4   8   8   8   4   4   8
#     4   9  20  38  55  75 109 143 165 200 259 314
#     4  11  21  35  58  83 105 134 174 217 259 306
#     4   9  18  35  56  75 102 138 173 212 259 310
#     4   9  19  35  53  73 102 141 177 210 256 314
#     4   7  12  26  48  71 100 136 172 211 262 313
#     4  11  23  37  55  81 111 139 171 214 257 302
#     4   9  17  31  52  78 104 134 174 221 265 308
#
# _framework density 17.758389000000001
#
# number of rings (size 3 to 8) (size 9 to 14) (size 15 to 20)
#    0.000    2.636    0.909    3.545    0.000    2.909 
#    1.636    4.545    0.000    7.636    0.000    0.000 
#    0.000    0.000    0.000    0.000    0.000    0.000 
#
# Total GULP energy -245287.971609 kJ/mol
# GULP energy per Si atom -5574.726627 kJ/mol
# Density = 1.771797 g / cm^3
# Si number density = 17.758389 Si / 1000 Ang^3
#
#
#
# Elastic Constant Matrix: (Units=GPa)
#
#
# Indices 1 2 3 4 5 6 
#
# 1 134.6353 106.8295 23.2308 0.0000 0.0000 0.0000
# 2 106.8295 184.7118 29.3168 0.0000 0.0000 0.0000
# 3 23.2308 29.3168 15.1901 0.0000 0.0000 0.0000
# 4 0.0000 0.0000 0.0000 226.2009 0.0000 0.0000
# 5 0.0000 0.0000 0.0000 0.0000 -80.3827 0.0000
# 6 0.0000 0.0000 0.0000 0.0000 0.0000 36.6986
#
#
#
# Elastic Compliance Matrix: (Units=1/GPa)
#
#
# Indices 1 2 3 4 5 6 
#
# 1 0.014469 -0.007001 -0.008617 0.000000 0.000000 0.000000
# 2 -0.007001 0.011192 -0.010894 0.000000 0.000000 0.000000
# 3 -0.008617 -0.010894 0.100035 0.000000 0.000000 0.000000
# 4 0.000000 0.000000 0.000000 0.004421 0.000000 0.000000
# 5 0.000000 0.000000 0.000000 0.000000 -0.012440 0.000000
# 6 0.000000 0.000000 0.000000 0.000000 0.000000 0.027249
#
#
# Mechanical properties :
#
#
# Convention : Reuss Voigt Hill
#
# Bulk Modulus (GPa) = 13.76011 72.58791 43.17401
# Shear Modulus (GPa) = 22.50501 48.18069 35.34285
#
# Velocity S-wave (km/s) = 3.56376 5.21442 4.46601
# Velocity P-wave (km/s) = 4.96983 8.78735 7.13851
#
# Compressibility (1/GPa) = 0.07267384
#
# Stress axis : x y z
#
# Youngs Moduli (GPa) = 69.11246 89.35176 9.99646
#
# Poissons Ratio (x) = 0.62552 0.08614
# Poissons Ratio (y) = 0.48384 0.10890
# Poissons Ratio (z) = 0.59554 0.97336
#
# Static dielectric constant tensor:
#      x y z
#    x 1.580560 0.000000 0.000000 
#    y 0.000000 1.623620 0.000000 
#    z 0.000000 0.000000 1.612700 
# 
# From -- ./inp_files/2383.got.cif
#   From: 2010.05.17/outbox.cif.g08.bks.cpg/sg47_2_cif.got.tgz:2383.got - 2010.06.03 20:15:42.
