data_PCOD9388025
_publ_section_title
;
Structure prediction by ZEFSAII (Michael W. Deem and Ramdas Pophale) SiO2 
 PCOD9388025
Probable space group: P M M M
;
_chemical_formula_sum "Si O2"
_cell_formula_units_Z 40
_cell_length_a 14.185176
_cell_length_b 9.758657
_cell_length_c 13.962011
_cell_angle_alpha 90.000000
_cell_angle_beta 90.000000
_cell_angle_gamma 90.000000
_cell_volume 1932.736988
_symmetry_space_group_name_H-M "P M M M"
_symmetry_group_IT_number 47
_symmetry_cell_setting 'orthorhombic'
loop_
_space_group_symop_operation_xyz
x,y,z
-x,-y,z
x,-y,-z
-x,y,-z
-x,-y,-z
x,y,-z
-x,y,z
x,-y,z
loop_
_atom_site_type_symbol
_atom_site_label
_atom_site_fract_x
_atom_site_fract_y
_atom_site_fract_z
Si Si1 0.395272 0.652919 0.657866
Si Si2 0.384525 0.346228 0.000000
Si Si3 0.114467 0.839869 0.000000
Si Si4 0.113207 0.162978 0.215037
Si Si5 0.610751 0.848413 0.165938
Si Si6 0.815249 0.659291 0.394331
O O1 0.500000 0.663343 0.612421
O O2 0.394774 0.500000 0.705083
O O3 0.386782 0.776204 0.732272
O O4 0.298873 0.659083 0.600509
O O5 0.352065 0.259377 0.090355
O O6 0.349207 0.500000 0.000000
O O7 0.500000 0.353688 0.000000
O O8 0.141709 0.788590 0.893078
O O9 0.000000 0.834594 0.000000
O O10 0.141828 0.000000 0.000000
O O11 0.155562 0.248869 0.303486
O O12 0.000000 0.175843 0.220566
O O13 0.134627 0.000000 0.224189
O O14 0.500000 0.862387 0.141861
O O15 0.652549 0.000000 0.162500
O O16 0.851001 0.703703 0.500000
O O17 0.843940 0.500000 0.379260
#
# Coordination Sequence:
#
# PCOD9388025 Si02
#       6
#     8   4   4   8   8   8
#     4   9  18  34  54  72  94 133 187 240 286 335
#     4   9  15  23  38  61  90 125 165 209 261 325
#     4   7  12  28  56  87 115 143 179 224 272 323
#     4   9  18  35  61  90 118 150 188 229 276 335
#     4   9  16  26  42  65  92 122 161 213 272 329
#     4  10  22  38  55  80 115 152 190 235 288 341
#
# _framework density 20.696038999999999
#
# number of rings (size 3 to 8) (size 9 to 14) (size 15 to 20)
#    0.000    3.000    0.000    2.100    0.000    6.000 
#    0.000    5.500    0.000    6.600    0.000    4.200 
#    0.000    0.000    0.000    0.000    0.000    0.000 
#
# Total GULP energy -222690.549066 kJ/mol
# GULP energy per Si atom -5567.263727 kJ/mol
# Density = 2.064893 g / cm^3
# Si number density = 20.696039 Si / 1000 Ang^3
#
#
#
# Elastic Constant Matrix: (Units=GPa)
#
#
# Indices 1 2 3 4 5 6 
#
# 1 90.1626 24.4693 34.9096 0.0000 0.0000 0.0000
# 2 24.4693 135.2822 83.7990 0.0000 0.0000 0.0000
# 3 34.9096 83.7990 173.3052 0.0000 0.0000 0.0000
# 4 0.0000 0.0000 0.0000 16.7581 0.0000 0.0000
# 5 0.0000 0.0000 0.0000 0.0000 -1.2050 0.0000
# 6 0.0000 0.0000 0.0000 0.0000 0.0000 -22.4523
#
#
#
# Elastic Compliance Matrix: (Units=1/GPa)
#
#
# Indices 1 2 3 4 5 6 
#
# 1 0.012118 -0.000970 -0.001972 0.000000 0.000000 0.000000
# 2 -0.000970 0.010630 -0.004945 0.000000 0.000000 0.000000
# 3 -0.001972 -0.004945 0.008558 0.000000 0.000000 0.000000
# 4 0.000000 0.000000 0.000000 0.059673 0.000000 0.000000
# 5 0.000000 0.000000 0.000000 0.000000 -0.829906 0.000000
# 6 0.000000 0.000000 0.000000 0.000000 0.000000 -0.044539
#
#
# Mechanical properties :
#
#
# Convention : Reuss Voigt Hill
#
# Bulk Modulus (GPa) = 64.37981 76.12286 70.25134
# Shear Modulus (GPa) = -6.55725 15.65832 4.55053
#
# Velocity S-wave (km/s) = -1.78192 2.75359 1.48443
# Velocity P-wave (km/s) = 5.19049 6.85353 6.07915
#
# Compressibility (1/GPa) = 0.01553282
#
# Stress axis : x y z
#
# Youngs Moduli (GPa) = 82.52280 94.06968 116.84628
#
# Poissons Ratio (x) = 0.09129 0.23038
# Poissons Ratio (y) = 0.08009 0.57777
# Poissons Ratio (z) = 0.16271 0.46514
#
# Static dielectric constant tensor:
#      x y z
#    x 1.787380 0.000000 0.000000 
#    y 0.000000 1.715970 0.000000 
#    z 0.000000 0.000000 1.587490 
# 
# From -- ./inp_files/23380.got.cif
#   From: 2010.05.17/outbox.cif.g08.bks.cpg/sg47_12_cif.got.tgz:23380.got - 2010.06.03 20:15:42.
