data_PCOD9388061
_publ_section_title
;
Structure prediction by ZEFSAII (Michael W. Deem and Ramdas Pophale) SiO2 
 PCOD9388061
Probable space group: P M M M
;
_chemical_formula_sum "Si O2"
_cell_formula_units_Z 48
_cell_length_a 8.438452
_cell_length_b 30.627354
_cell_length_c 9.933679
_cell_angle_alpha 90.000000
_cell_angle_beta 90.000000
_cell_angle_gamma 90.000000
_cell_volume 2567.334072
_symmetry_space_group_name_H-M "P M M M"
_symmetry_group_IT_number 47
_symmetry_cell_setting 'orthorhombic'
loop_
_space_group_symop_operation_xyz
x,y,z
-x,-y,z
x,-y,-z
-x,y,-z
-x,-y,-z
x,y,-z
-x,y,z
x,-y,z
loop_
_atom_site_type_symbol
_atom_site_label
_atom_site_fract_x
_atom_site_fract_y
_atom_site_fract_z
Si Si1 0.310085 0.949109 0.500000
Si Si2 0.312648 0.547373 0.837539
Si Si3 0.808175 0.720462 0.656755
Si Si4 0.809659 0.106809 0.250295
Si Si5 0.810008 0.358910 0.844416
Si Si6 0.310258 0.799599 0.157540
Si Si7 0.807298 0.951028 0.000000
O O1 0.500000 0.950256 0.500000
O O2 0.248886 0.920609 0.376224
O O3 0.254124 0.000000 0.500000
O O4 0.500000 0.549628 0.808649
O O5 0.252617 0.500000 0.787721
O O6 0.233092 0.592444 0.795383
O O7 0.295314 0.546590 0.000000
O O8 0.754276 0.722218 0.500000
O O9 0.752896 0.677613 0.739603
O O10 0.756213 0.761348 0.747808
O O11 0.000000 0.719731 0.653238
O O12 0.740496 0.154604 0.223926
O O13 0.000000 0.110658 0.254065
O O14 0.758727 0.076557 0.127138
O O15 0.000000 0.355629 0.850887
O O16 0.750940 0.352708 0.000000
O O17 0.500000 0.796725 0.155538
O O18 0.254954 0.797184 0.000000
O O19 0.000000 0.953023 0.000000
O O20 0.746175 0.000000 0.000000
#
# Coordination Sequence:
#
# PCOD9388061 Si02
#       7
#     4   8   8   8   8   8   4
#     4  11  25  43  61  87 125 163 195 231 278 331
#     4   8  14  25  43  70 104 140 178 222 272 327
#     4  10  22  39  59  82 110 146 189 234 283 341
#     4  11  22  39  64  90 118 153 193 236 280 331
#     4   9  17  30  50  77 107 139 178 229 282 331
#     4  11  24  41  61  86 117 149 185 232 289 347
#     4   9  18  34  59  91 119 143 183 235 278 321
#
# _framework density 18.696438000000001
#
# number of rings (size 3 to 8) (size 9 to 14) (size 15 to 20)
#    0.000    2.167    0.833    2.750    1.167    4.333 
#    0.000    3.333    0.000    2.500    0.000    3.500 
#    0.000    0.000    0.000    0.000    0.000    0.000 
#
# Total GULP energy -267612.181472 kJ/mol
# GULP energy per Si atom -5575.253781 kJ/mol
# Density = 1.865388 g / cm^3
# Si number density = 18.696438 Si / 1000 Ang^3
#
#
#
# Elastic Constant Matrix: (Units=GPa)
#
#
# Indices 1 2 3 4 5 6 
#
# 1 14.3688 20.2137 21.1055 0.0000 0.0000 0.0000
# 2 20.2137 206.1618 99.0092 0.0000 0.0000 0.0000
# 3 21.1055 99.0092 152.2051 0.0000 0.0000 0.0000
# 4 0.0000 0.0000 0.0000 23.0143 0.0000 0.0000
# 5 0.0000 0.0000 0.0000 0.0000 13.7273 0.0000
# 6 0.0000 0.0000 0.0000 0.0000 0.0000 45.3876
#
#
#
# Elastic Compliance Matrix: (Units=1/GPa)
#
#
# Indices 1 2 3 4 5 6 
#
# 1 0.089722 -0.004104 -0.009771 0.000000 0.000000 0.000000
# 2 -0.004104 0.007242 -0.004142 0.000000 0.000000 0.000000
# 3 -0.009771 -0.004142 0.010619 0.000000 0.000000 0.000000
# 4 0.000000 0.000000 0.000000 0.043451 0.000000 0.000000
# 5 0.000000 0.000000 0.000000 0.000000 0.072847 0.000000
# 6 0.000000 0.000000 0.000000 0.000000 0.000000 0.022032
#
#
# Mechanical properties :
#
#
# Convention : Reuss Voigt Hill
#
# Bulk Modulus (GPa) = 13.97662 72.59917 43.28789
# Shear Modulus (GPa) = 16.35062 31.91966 24.13514
#
# Velocity S-wave (km/s) = 2.96046 4.13638 3.59680
# Velocity P-wave (km/s) = 4.37921 7.85669 6.36023
#
# Compressibility (1/GPa) = 0.07154804
#
# Stress axis : x y z
#
# Youngs Moduli (GPa) = 11.14557 138.08142 94.16811
#
# Poissons Ratio (x) = 0.56673 0.92016
# Poissons Ratio (y) = 0.04574 0.39003
# Poissons Ratio (z) = 0.10891 0.57191
#
# Static dielectric constant tensor:
#      x y z
#    x 1.647570 0.000000 0.000000 
#    y 0.000000 1.631670 0.000000 
#    z 0.000000 0.000000 1.703900 
# 
# From -- ./inp_files/2658.got.cif
#   From: 2010.05.17/outbox.cif.g08.bks.cpg/sg47_2_cif.got.tgz:2658.got - 2010.06.03 20:15:42.
