data_PCOD9388651
_publ_section_title
;
Structure prediction by ZEFSAII (Michael W. Deem and Ramdas Pophale) SiO2 
 PCOD9388651
Probable space group: P M M M
;
_chemical_formula_sum "Si O2"
_cell_formula_units_Z 48
_cell_length_a 31.841036
_cell_length_b 9.643051
_cell_length_c 8.272780
_cell_angle_alpha 90.000000
_cell_angle_beta 90.000000
_cell_angle_gamma 90.000000
_cell_volume 2540.113535
_symmetry_space_group_name_H-M "P M M M"
_symmetry_group_IT_number 47
_symmetry_cell_setting 'orthorhombic'
loop_
_space_group_symop_operation_xyz
x,y,z
-x,-y,z
x,-y,-z
-x,y,-z
-x,-y,-z
x,y,-z
-x,y,z
x,-y,z
loop_
_atom_site_type_symbol
_atom_site_label
_atom_site_fract_x
_atom_site_fract_y
_atom_site_fract_z
Si Si1 0.953559 0.838795 0.697221
Si Si2 0.548122 0.841549 0.804725
Si Si3 0.297139 0.158107 0.192872
Si Si4 0.624714 0.657988 0.307197
Si Si5 0.875107 0.339781 0.697117
Si Si6 0.219242 0.660598 0.695359
O O1 0.953168 0.833596 0.500000
O O2 0.913743 0.752293 0.755758
O O3 0.000000 0.788776 0.748180
O O4 0.949661 0.000000 0.742287
O O5 0.500000 0.812964 0.754851
O O6 0.581530 0.732534 0.741276
O O7 0.558631 0.000000 0.754466
O O8 0.549241 0.839237 0.000000
O O9 0.336807 0.248227 0.248206
O O10 0.254927 0.237168 0.244162
O O11 0.298715 0.000000 0.256447
O O12 0.298319 0.151474 0.000000
O O13 0.627039 0.651915 0.500000
O O14 0.627196 0.500000 0.243934
O O15 0.875245 0.334194 0.500000
O O16 0.881238 0.500000 0.742311
O O17 0.827991 0.298471 0.747787
O O18 0.219993 0.661376 0.500000
O O19 0.226737 0.500000 0.745669
#
# Coordination Sequence:
#
# PCOD9388651 Si02
#       6
#     8   8   8   8   8   8
#     4   8  13  20  30  48  78 116 156 195 234 280
#     4   9  19  37  60  85 113 145 181 219 257 299
#     4  11  24  39  55  77 103 131 168 212 255 304
#     4  11  24  39  56  81 111 141 175 215 257 303
#     4   8  14  24  38  58  85 117 153 194 239 287
#     4   9  18  33  52  74 100 129 164 206 251 302
#
# _framework density 18.896794
#
# number of rings (size 3 to 8) (size 9 to 14) (size 15 to 20)
#    0.000    2.667    0.000    4.000    0.000    9.000 
#    0.000    5.833    0.000    0.000    0.000    0.000 
#    0.000    0.667    0.000    7.333    0.000   12.000 
#
# Total GULP energy -267754.106582 kJ/mol
# GULP energy per Si atom -5578.210554 kJ/mol
# Density = 1.885378 g / cm^3
# Si number density = 18.896794 Si / 1000 Ang^3
#
#
#
# Elastic Constant Matrix: (Units=GPa)
#
#
# Indices 1 2 3 4 5 6 
#
# 1 182.5623 129.3102 22.1614 0.0000 0.0000 0.0000
# 2 129.3102 150.0869 21.9360 0.0000 0.0000 0.0000
# 3 22.1614 21.9360 15.5964 0.0000 0.0000 0.0000
# 4 0.0000 0.0000 0.0000 20.8749 0.0000 0.0000
# 5 0.0000 0.0000 0.0000 0.0000 57.5107 0.0000
# 6 0.0000 0.0000 0.0000 0.0000 0.0000 42.1961
#
#
#
# Elastic Compliance Matrix: (Units=1/GPa)
#
#
# Indices 1 2 3 4 5 6 
#
# 1 0.014226 -0.011709 -0.003745 0.000000 0.000000 0.000000
# 2 -0.011709 0.018025 -0.008713 0.000000 0.000000 0.000000
# 3 -0.003745 -0.008713 0.081694 0.000000 0.000000 0.000000
# 4 0.000000 0.000000 0.000000 0.047904 0.000000 0.000000
# 5 0.000000 0.000000 0.000000 0.000000 0.017388 0.000000
# 6 0.000000 0.000000 0.000000 0.000000 0.000000 0.023699
#
#
# Mechanical properties :
#
#
# Convention : Reuss Voigt Hill
#
# Bulk Modulus (GPa) = 15.24177 77.22899 46.23538
# Shear Modulus (GPa) = 18.30554 35.77219 27.03886
#
# Velocity S-wave (km/s) = 3.11579 4.35562 3.78679
# Velocity P-wave (km/s) = 4.58558 8.13958 6.60607
#
# Compressibility (1/GPa) = 0.06560916
#
# Stress axis : x y z
#
# Youngs Moduli (GPa) = 70.29375 55.47963 12.24079
#
# Poissons Ratio (x) = 0.64963 0.04585
# Poissons Ratio (y) = 0.82309 0.10666
# Poissons Ratio (z) = 0.26328 0.48340
#
# Static dielectric constant tensor:
#      x y z
#    x 1.648980 0.000000 0.000000 
#    y 0.000000 1.661740 0.000000 
#    z 0.000000 0.000000 1.668900 
# 
# From -- ./inp_files/2528.got.cif
#   From: 2010.05.17/outbox.cif.g08.bks.cpg/sg47_2_cif.got.tgz:2528.got - 2010.06.03 20:15:42.
