data_PCOD9388909
_publ_section_title
;
Structure prediction by ZEFSAII (Michael W. Deem and Ramdas Pophale) SiO2 
 PCOD9388909
Probable space group: P M M M
;
_chemical_formula_sum "Si O2"
_cell_formula_units_Z 64
_cell_length_a 7.388124
_cell_length_b 10.442424
_cell_length_c 41.394584
_cell_angle_alpha 90.000000
_cell_angle_beta 90.000000
_cell_angle_gamma 90.000000
_cell_volume 3193.588984
_symmetry_space_group_name_H-M "P M M M"
_symmetry_group_IT_number 47
_symmetry_cell_setting 'orthorhombic'
loop_
_space_group_symop_operation_xyz
x,y,z
-x,-y,z
x,-y,-z
-x,y,-z
-x,-y,-z
x,y,-z
-x,y,z
x,-y,z
loop_
_atom_site_type_symbol
_atom_site_label
_atom_site_fract_x
_atom_site_fract_y
_atom_site_fract_z
Si Si1 0.216723 0.854986 0.213370
Si Si2 0.283855 0.855262 0.712161
Si Si3 0.216723 0.645005 0.412126
Si Si4 0.779427 0.354201 0.088567
Si Si5 0.220626 0.145917 0.963124
Si Si6 0.220776 0.354251 0.837595
Si Si7 0.779277 0.145627 0.536960
Si Si8 0.283853 0.644746 0.337664
O O1 0.252566 0.819224 0.250536
O O2 0.284590 0.750549 0.187984
O O3 0.000000 0.860029 0.209559
O O4 0.285791 0.000000 0.208249
O O5 0.500000 0.861658 0.707558
O O6 0.212544 0.749989 0.687253
O O7 0.212841 0.000000 0.707364
O O8 0.285815 0.500000 0.417235
O O9 0.284653 0.749348 0.437528
O O10 0.252548 0.680829 0.374964
O O11 0.000000 0.639945 0.415938
O O12 0.724322 0.500000 0.080850
O O13 0.717455 0.249900 0.062762
O O14 0.725107 0.325542 0.125474
O O15 0.000000 0.352983 0.088188
O O16 0.000000 0.147158 0.962793
O O17 0.275527 0.000000 0.955486
O O18 0.275397 0.174944 0.000000
O O19 0.276288 0.500000 0.829859
O O20 0.000000 0.353638 0.837155
O O21 0.725639 0.174019 0.500000
O O22 0.000000 0.146208 0.537451
O O23 0.723541 0.000000 0.544765
O O24 0.500000 0.638343 0.333064
O O25 0.212844 0.500000 0.332877
#
# Coordination Sequence:
#
# PCOD9388909 Si02
#       8
#     8   8   8   8   8   8   8   8
#     4   9  17  28  42  61  82 102 128 163 199 235
#     4   9  18  32  47  62  82 108 136 165 199 240
#     4   9  17  28  43  65  89 110 137 174 209 239
#     4   8  13  20  29  41  58  82 113 148 185 226
#     4   8  13  19  25  35  53  78 111 151 190 225
#     4   8  14  24  36  51  72  96 122 154 194 238
#     4   8  14  25  41  62  88 115 141 170 205 243
#     4   9  18  32  47  62  83 111 139 166 199 241
#
# _framework density 20.040147999999999
#
# number of rings (size 3 to 8) (size 9 to 14) (size 15 to 20)
#    0.000    3.500    0.000    1.500    0.000    2.500 
#    0.000    5.000    0.000    0.375    0.000    2.625 
#    0.000    0.000    0.000    0.000    0.000    0.625 
#
# Total GULP energy -356905.772599 kJ/mol
# GULP energy per Si atom -5576.652697 kJ/mol
# Density = 1.999454 g / cm^3
# Si number density = 20.040148 Si / 1000 Ang^3
#
#
#
# Elastic Constant Matrix: (Units=GPa)
#
#
# Indices 1 2 3 4 5 6 
#
# 1 69.9117 6.6345 1.8594 0.0000 0.0000 0.0000
# 2 6.6345 184.1129 172.9733 0.0000 0.0000 0.0000
# 3 1.8594 172.9733 187.7095 0.0000 0.0000 0.0000
# 4 0.0000 0.0000 0.0000 33.4289 0.0000 0.0000
# 5 0.0000 0.0000 0.0000 0.0000 4.9043 0.0000
# 6 0.0000 0.0000 0.0000 0.0000 0.0000 -8.8799
#
#
#
# Elastic Compliance Matrix: (Units=1/GPa)
#
#
# Indices 1 2 3 4 5 6 
#
# 1 0.014511 -0.002889 0.002518 0.000000 0.000000 0.000000
# 2 -0.002889 0.041030 -0.037780 0.000000 0.000000 0.000000
# 3 0.002518 -0.037780 0.040117 0.000000 0.000000 0.000000
# 4 0.000000 0.000000 0.000000 0.029914 0.000000 0.000000
# 5 0.000000 0.000000 0.000000 0.000000 0.203903 0.000000
# 6 0.000000 0.000000 0.000000 0.000000 0.000000 -0.112614
#
#
# Mechanical properties :
#
#
# Convention : Reuss Voigt Hill
#
# Bulk Modulus (GPa) = 51.66351 89.40761 70.53556
# Shear Modulus (GPa) = 16.68820 23.24180 19.96500
#
# Velocity S-wave (km/s) = 2.88885 3.40922 3.15977
# Velocity P-wave (km/s) = 6.07974 7.75939 6.97034
#
# Compressibility (1/GPa) = 0.01935602
#
# Stress axis : x y z
#
# Youngs Moduli (GPa) = 68.91364 24.37257 24.92739
#
# Poissons Ratio (x) = 0.07041 -0.06277
# Poissons Ratio (y) = 0.19908 0.94176
# Poissons Ratio (z) = -0.17354 0.92080
#
# Static dielectric constant tensor:
#      x y z
#    x 1.864690 0.000000 0.000000 
#    y 0.000000 1.698930 0.000000 
#    z 0.000000 0.000000 1.661420 
# 
# From -- ./inp_files/34364.got.cif
#   From: 2010.05.17/outbox.cif.g08.bks.cpg/sg47_18_cif.got.tgz:34364.got - 2010.06.03 20:15:42.
