data_PCOD9388263
_publ_section_title
;
Structure prediction by ZEFSAII (Michael W. Deem and Ramdas Pophale) SiO2 
 PCOD9388263
Probable space group: P M M M
;
_chemical_formula_sum "Si O2"
_cell_formula_units_Z 52
_cell_length_a 24.673165
_cell_length_b 8.063355
_cell_length_c 14.169284
_cell_angle_alpha 90.000000
_cell_angle_beta 90.000000
_cell_angle_gamma 90.000000
_cell_volume 2818.957633
_symmetry_space_group_name_H-M "P M M M"
_symmetry_group_IT_number 47
_symmetry_cell_setting 'orthorhombic'
loop_
_space_group_symop_operation_xyz
x,y,z
-x,-y,z
x,-y,-z
-x,y,-z
-x,-y,-z
x,y,-z
-x,y,z
x,-y,z
loop_
_atom_site_type_symbol
_atom_site_label
_atom_site_fract_x
_atom_site_fract_y
_atom_site_fract_z
Si Si1 0.331860 0.306505 0.794047
Si Si2 0.168610 0.796869 0.288339
Si Si3 0.726648 0.799161 0.605100
Si Si4 0.934303 0.691075 0.000000
Si Si5 0.561844 0.200325 0.891769
Si Si6 0.229675 0.195418 0.897215
Si Si7 0.061083 0.198014 0.792629
O O1 0.322048 0.500000 0.806933
O O2 0.312733 0.258266 0.688902
O O3 0.393322 0.265480 0.820235
O O4 0.292188 0.213430 0.867073
O O5 0.211642 0.747331 0.368029
O O6 0.195970 0.737394 0.190632
O O7 0.106392 0.741194 0.281012
O O8 0.168082 0.000000 0.289258
O O9 0.712262 0.742406 0.500000
O O10 0.725721 0.000000 0.606356
O O11 0.918703 0.771295 0.900248
O O12 0.917878 0.500000 0.000000
O O13 0.000000 0.700363 0.000000
O O14 0.500000 0.251784 0.870665
O O15 0.563229 0.000000 0.890079
O O16 0.574276 0.252354 0.000000
O O17 0.217241 0.000000 0.901654
O O18 0.219008 0.269197 0.000000
O O19 0.000000 0.267285 0.782580
O O20 0.057370 0.000000 0.782016
#
# Coordination Sequence:
#
# PCOD9388263 Si02
#       7
#     8   8   8   4   8   8   8
#     4  11  21  31  47  73 104 131 156 195 248 295
#     4   8  15  27  45  68  89 112 151 196 236 282
#     4   9  18  35  57  73  86 115 161 206 246 293
#     4   9  17  27  37  53  81 117 155 189 218 255
#     4   9  18  33  53  76 104 141 180 208 226 256
#     4   9  17  29  45  63  88 127 168 201 232 273
#     4   9  16  26  42  62  86 118 153 188 229 282
#
# _framework density 18.446535999999998
#
# number of rings (size 3 to 8) (size 9 to 14) (size 15 to 20)
#    0.000    2.846    0.000    3.462    1.077    4.000 
#    0.000    3.846    0.000    0.923    0.000    6.462 
#    0.000    0.000    0.000    9.385    0.000   10.154 
#
# Total GULP energy -289720.880402 kJ/mol
# GULP energy per Si atom -5571.555392 kJ/mol
# Density = 1.840455 g / cm^3
# Si number density = 18.446536 Si / 1000 Ang^3
#
#
#
# Elastic Constant Matrix: (Units=GPa)
#
#
# Indices 1 2 3 4 5 6 
#
# 1 96.6059 -1.3389 30.3257 0.0000 0.0000 0.0000
# 2 -1.3389 14.8954 2.5026 0.0000 0.0000 0.0000
# 3 30.3257 2.5026 70.0001 0.0000 0.0000 0.0000
# 4 0.0000 0.0000 0.0000 -2.5652 0.0000 0.0000
# 5 0.0000 0.0000 0.0000 0.0000 17.8070 0.0000
# 6 0.0000 0.0000 0.0000 0.0000 0.0000 -10.3196
#
#
#
# Elastic Compliance Matrix: (Units=1/GPa)
#
#
# Indices 1 2 3 4 5 6 
#
# 1 0.012038 0.001970 -0.005286 0.000000 0.000000 0.000000
# 2 0.001970 0.067863 -0.003280 0.000000 0.000000 0.000000
# 3 -0.005286 -0.003280 0.016693 0.000000 0.000000 0.000000
# 4 0.000000 0.000000 0.000000 -0.389828 0.000000 0.000000
# 5 0.000000 0.000000 0.000000 0.000000 0.056158 0.000000
# 6 0.000000 0.000000 0.000000 0.000000 0.000000 -0.096903
#
#
# Mechanical properties :
#
#
# Convention : Reuss Voigt Hill
#
# Bulk Modulus (GPa) = 11.98993 27.16448 19.57721
# Shear Modulus (GPa) = -17.06548 10.98524 -3.04012
#
# Velocity S-wave (km/s) = -3.04490 2.44297 -1.28517
# Velocity P-wave (km/s) = 2.41825 4.76608 2.90410
#
# Compressibility (1/GPa) = 0.08340332
#
# Stress axis : x y z
#
# Youngs Moduli (GPa) = 83.07155 14.73557 59.90621
#
# Poissons Ratio (x) = -0.02903 0.31663
# Poissons Ratio (y) = -0.16366 0.19647
# Poissons Ratio (z) = 0.43908 0.04833
#
# Static dielectric constant tensor:
#      x y z
#    x 1.678170 0.000000 0.000000 
#    y 0.000000 1.654050 0.000000 
#    z 0.000000 0.000000 1.631250 
# 
# From -- ./inp_files/25402.got.cif
#   From: 2010.05.17/outbox.cif.g08.bks.cpg/sg47_13_cif.got.tgz:25402.got - 2010.06.03 20:15:42.
