data_PCOD9388207
_publ_section_title
;
Structure prediction by ZEFSAII (Michael W. Deem and Ramdas Pophale) SiO2 
 PCOD9388207
Probable space group: P M M M
;
_chemical_formula_sum "Si O2"
_cell_formula_units_Z 64
_cell_length_a 20.663371
_cell_length_b 20.737935
_cell_length_c 7.746151
_cell_angle_alpha 90.000000
_cell_angle_beta 90.000000
_cell_angle_gamma 90.000000
_cell_volume 3319.346890
_symmetry_space_group_name_H-M "P M M M"
_symmetry_group_IT_number 47
_symmetry_cell_setting 'orthorhombic'
loop_
_space_group_symop_operation_xyz
x,y,z
-x,-y,z
x,-y,-z
-x,y,-z
-x,-y,-z
x,y,-z
-x,y,z
x,-y,z
loop_
_atom_site_type_symbol
_atom_site_label
_atom_site_fract_x
_atom_site_fract_y
_atom_site_fract_z
Si Si1 0.925230 0.572542 0.711087
Si Si2 0.713032 0.429100 0.798278
Si Si3 0.430768 0.893212 0.790840
Si Si4 0.180706 0.670669 0.301211
Si Si5 0.253885 0.208774 0.204174
Si Si6 0.429674 0.392851 0.700155
Si Si7 0.605900 0.251572 0.791218
Si Si8 0.712772 0.069868 0.211412
O O1 0.922687 0.572471 0.500000
O O2 0.906306 0.500000 0.766142
O O3 0.876656 0.627243 0.776169
O O4 0.000000 0.583278 0.759338
O O5 0.729160 0.500000 0.727823
O O6 0.754911 0.373311 0.712446
O O7 0.636085 0.418510 0.783447
O O8 0.729622 0.426889 0.000000
O O9 0.500000 0.918745 0.728048
O O10 0.427056 0.816758 0.753425
O O11 0.362638 0.922858 0.734103
O O12 0.430557 0.899752 0.000000
O O13 0.164915 0.680752 0.500000
O O14 0.196402 0.741118 0.229389
O O15 0.320080 0.241874 0.269785
O O16 0.251199 0.135218 0.269772
O O17 0.264423 0.202859 0.000000
O O18 0.427681 0.412046 0.500000
O O19 0.500000 0.412586 0.772106
O O20 0.424611 0.315243 0.713044
O O21 0.604673 0.260310 0.000000
O O22 0.737527 0.000000 0.268633
O O23 0.713565 0.069501 0.000000
#
# Coordination Sequence:
#
# PCOD9388207 Si02
#       8
#     8   8   8   8   8   8   8   8
#     4   8  15  29  49  75 107 138 164 190 226 277
#     4  11  24  39  53  69  91 122 159 198 243 294
#     4   8  13  20  33  56  82 109 145 189 236 285
#     4  11  20  31  53  80 102 127 161 200 236 274
#     4   9  17  29  46  68  95 126 160 199 241 284
#     4  11  23  35  48  67  89 114 150 201 255 300
#     4   9  16  28  45  62  84 117 153 189 235 292
#     4   8  14  24  38  58  86 121 159 198 241 289
#
# _framework density 19.280901
#
# number of rings (size 3 to 8) (size 9 to 14) (size 15 to 20)
#    0.000    2.625    1.250    3.750    0.000    3.500 
#    0.000    2.500    0.000    1.875    0.000    4.375 
#    0.000    0.500    0.000   19.500    0.000   10.000 
#
# Total GULP energy -356928.681252 kJ/mol
# GULP energy per Si atom -5577.010645 kJ/mol
# Density = 1.923702 g / cm^3
# Si number density = 19.280901 Si / 1000 Ang^3
#
#
#
# Elastic Constant Matrix: (Units=GPa)
#
#
# Indices 1 2 3 4 5 6 
#
# 1 76.6981 51.3765 -2.9927 0.0000 0.0000 0.0000
# 2 51.3765 140.0316 1.5116 0.0000 0.0000 0.0000
# 3 -2.9927 1.5116 24.6265 0.0000 0.0000 0.0000
# 4 0.0000 0.0000 0.0000 55.6770 0.0000 0.0000
# 5 0.0000 0.0000 0.0000 0.0000 -42.0493 0.0000
# 6 0.0000 0.0000 0.0000 0.0000 0.0000 38.5456
#
#
#
# Elastic Compliance Matrix: (Units=1/GPa)
#
#
# Indices 1 2 3 4 5 6 
#
# 1 0.017441 -0.006426 0.002514 0.000000 0.000000 0.000000
# 2 -0.006426 0.009514 -0.001365 0.000000 0.000000 0.000000
# 3 0.002514 -0.001365 0.040996 0.000000 0.000000 0.000000
# 4 0.000000 0.000000 0.000000 0.017961 0.000000 0.000000
# 5 0.000000 0.000000 0.000000 0.000000 -0.023782 0.000000
# 6 0.000000 0.000000 0.000000 0.000000 0.000000 0.025943
#
#
# Mechanical properties :
#
#
# Convention : Reuss Voigt Hill
#
# Bulk Modulus (GPa) = 17.42274 37.90523 27.66398
# Shear Modulus (GPa) = 42.45971 23.19871 32.82921
#
# Velocity S-wave (km/s) = 4.69781 3.47247 4.13083
# Velocity P-wave (km/s) = 6.20337 5.98160 6.09350
#
# Compressibility (1/GPa) = 0.05739625
#
# Stress axis : x y z
#
# Youngs Moduli (GPa) = 57.33716 105.11240 24.39269
#
# Poissons Ratio (x) = 0.67545 -0.06132
# Poissons Ratio (y) = 0.36845 0.03329
# Poissons Ratio (z) = -0.14414 0.14346
#
# Static dielectric constant tensor:
#      x y z
#    x 1.679070 0.000000 0.000000 
#    y 0.000000 1.708250 0.000000 
#    z 0.000000 0.000000 1.706860 
# 
# From -- ./inp_files/11858.got.cif
#   From: 2010.05.17/outbox.cif.g08.bks.cpg/sg47_6_cif.got.tgz:11858.got - 2010.06.03 20:15:42.
