data_PCOD9388217
_publ_section_title
;
Structure prediction by ZEFSAII (Michael W. Deem and Ramdas Pophale) SiO2 
 PCOD9388217
Probable space group: P M M M
;
_chemical_formula_sum "Si O2"
_cell_formula_units_Z 40
_cell_length_a 12.097045
_cell_length_b 21.045472
_cell_length_c 8.726720
_cell_angle_alpha 90.000000
_cell_angle_beta 90.000000
_cell_angle_gamma 90.000000
_cell_volume 2221.718382
_symmetry_space_group_name_H-M "P M M M"
_symmetry_group_IT_number 47
_symmetry_cell_setting 'orthorhombic'
loop_
_space_group_symop_operation_xyz
x,y,z
-x,-y,z
x,-y,-z
-x,y,-z
-x,-y,-z
x,y,-z
-x,y,z
x,-y,z
loop_
_atom_site_type_symbol
_atom_site_label
_atom_site_fract_x
_atom_site_fract_y
_atom_site_fract_z
Si Si1 0.628492 0.310324 0.183326
Si Si2 0.775464 0.201005 0.683421
Si Si3 0.000000 0.406418 0.176670
Si Si4 0.872297 0.928236 0.313483
Si Si5 0.000000 0.745733 0.177487
Si Si6 0.238143 0.570184 0.683208
O O1 0.500000 0.314942 0.226925
O O2 0.681560 0.245019 0.244591
O O3 0.695434 0.370889 0.246625
O O4 0.637824 0.310685 0.000000
O O5 0.765262 0.202964 0.500000
O O6 0.789030 0.127451 0.734046
O O7 0.891546 0.231318 0.735125
O O8 0.000000 0.330138 0.176347
O O9 0.111917 0.427173 0.259304
O O10 0.000000 0.427426 0.000000
O O11 0.873233 0.928060 0.500000
O O12 0.000000 0.914447 0.266567
O O13 0.845062 0.000000 0.263871
O O14 0.000000 0.767672 0.000000
O O15 0.239860 0.576067 0.500000
O O16 0.283386 0.500000 0.724966
#
# Coordination Sequence:
#
# PCOD9388217 Si02
#       6
#     8   8   4   8   4   8
#     4  11  25  43  60  79 106 144 188 231 279 333
#     4  11  20  33  58  86 111 144 187 231 276 321
#     4  11  22  36  57  85 118 153 183 215 266 334
#     4   8  14  26  47  80 119 150 177 215 267 324
#     4  11  21  32  51  82 117 150 182 220 273 331
#     4  11  24  40  60  86 114 143 179 228 280 327
#
# _framework density 18.004083000000001
#
# number of rings (size 3 to 8) (size 9 to 14) (size 15 to 20)
#    0.000    1.600    3.000    3.300    0.000    5.600 
#    0.000    2.000    0.000    3.600    0.000    4.200 
#    0.000    0.000    0.000    0.000    0.000    0.000 
#
# Total GULP energy -223286.415587 kJ/mol
# GULP energy per Si atom -5582.160390 kJ/mol
# Density = 1.796310 g / cm^3
# Si number density = 18.004083 Si / 1000 Ang^3
#
#
#
# Elastic Constant Matrix: (Units=GPa)
#
#
# Indices 1 2 3 4 5 6 
#
# 1 112.9048 71.4388 35.1760 0.0000 0.0000 0.0000
# 2 71.4388 168.9794 35.2075 0.0000 0.0000 0.0000
# 3 35.1760 35.2075 38.4417 0.0000 0.0000 0.0000
# 4 0.0000 0.0000 0.0000 -38.7465 0.0000 0.0000
# 5 0.0000 0.0000 0.0000 0.0000 32.1548 0.0000
# 6 0.0000 0.0000 0.0000 0.0000 0.0000 4.5528
#
#
#
# Elastic Compliance Matrix: (Units=1/GPa)
#
#
# Indices 1 2 3 4 5 6 
#
# 1 0.014395 -0.004129 -0.009391 0.000000 0.000000 0.000000
# 2 -0.004129 0.008498 -0.004004 0.000000 0.000000 0.000000
# 3 -0.009391 -0.004004 0.038274 0.000000 0.000000 0.000000
# 4 0.000000 0.000000 0.000000 -0.025809 0.000000 0.000000
# 5 0.000000 0.000000 0.000000 0.000000 0.031100 0.000000
# 6 0.000000 0.000000 0.000000 0.000000 0.000000 0.219645
#
#
# Mechanical properties :
#
#
# Convention : Reuss Voigt Hill
#
# Bulk Modulus (GPa) = 38.28710 67.10783 52.69746
# Shear Modulus (GPa) = 15.15802 11.49246 13.32524
#
# Velocity S-wave (km/s) = 2.90474 2.52925 2.72347
# Velocity P-wave (km/s) = 5.70631 6.77378 6.26283
#
# Compressibility (1/GPa) = 0.02611846
#
# Stress axis : x y z
#
# Youngs Moduli (GPa) = 69.46615 117.67509 26.12748
#
# Poissons Ratio (x) = 0.48592 0.24535
# Poissons Ratio (y) = 0.28685 0.10463
# Poissons Ratio (z) = 0.65233 0.47122
#
# Static dielectric constant tensor:
#      x y z
#    x 1.583320 0.000000 0.000000 
#    y 0.000000 1.654820 0.000000 
#    z 0.000000 0.000000 1.608100 
# 
# From -- ./inp_files/4055.got.cif
#   From: 2010.05.17/outbox.cif.g08.bks.cpg/sg47_3_cif.got.tgz:4055.got - 2010.06.03 20:15:42.
