data_PCOD9388580
_publ_section_title
;
Structure prediction by ZEFSAII (Michael W. Deem and Ramdas Pophale) SiO2 
 PCOD9388580
Probable space group: P M M M
;
_chemical_formula_sum "Si O2"
_cell_formula_units_Z 42
_cell_length_a 25.434075
_cell_length_b 10.156862
_cell_length_c 7.727246
_cell_angle_alpha 90.000000
_cell_angle_beta 90.000000
_cell_angle_gamma 90.000000
_cell_volume 1996.182472
_symmetry_space_group_name_H-M "P M M M"
_symmetry_group_IT_number 47
_symmetry_cell_setting 'orthorhombic'
loop_
_space_group_symop_operation_xyz
x,y,z
-x,-y,z
x,-y,-z
-x,y,-z
-x,-y,-z
x,y,-z
-x,y,z
x,-y,z
loop_
_atom_site_type_symbol
_atom_site_label
_atom_site_fract_x
_atom_site_fract_y
_atom_site_fract_z
Si Si1 0.439360 0.351817 0.790873
Si Si2 0.739483 0.357093 0.797461
Si Si3 0.835317 0.790963 0.699115
Si Si4 0.188133 0.000000 0.000000
Si Si5 0.941585 0.349109 0.289754
Si Si6 0.349021 0.149895 0.295903
O O1 0.500000 0.332000 0.737344
O O2 0.423237 0.500000 0.733559
O O3 0.401744 0.234343 0.733723
O O4 0.438070 0.353277 0.000000
O O5 0.717167 0.500000 0.744770
O O6 0.793283 0.326963 0.699548
O O7 0.698123 0.239681 0.773429
O O8 0.751362 0.363486 0.000000
O O9 0.838396 0.841084 0.500000
O O10 0.892911 0.742015 0.756800
O O11 0.814300 0.888156 0.845248
O O12 0.941925 0.351777 0.500000
O O13 0.933826 0.500000 0.231706
O O14 0.000000 0.305690 0.233562
O O15 0.340645 0.139586 0.500000
O O16 0.350618 0.000000 0.225040
#
# Coordination Sequence:
#
# PCOD9388580 Si02
#       6
#     8   8   8   2   8   8
#     4   9  19  38  63  89 118 155 202 256 313 371
#     4  11  24  42  65  93 125 159 204 263 319 377
#     4  11  23  41  66  91 123 168 214 259 319 385
#     4  12  26  44  59  90 128 168 211 268 314 378
#     4   8  15  32  61  94 124 157 204 264 326 384
#     4  11  25  40  57  87 125 165 207 252 306 371
#
# _framework density 21.040158000000002
#
# number of rings (size 3 to 8) (size 9 to 14) (size 15 to 20)
#    0.000    1.905    0.952    3.714    1.333    7.238 
#    0.000    4.286    0.000    3.429    0.000    0.000 
#    0.000    0.000    0.000    0.000    0.000    0.000 
#
# Total GULP energy -233917.429258 kJ/mol
# GULP energy per Si atom -5569.462601 kJ/mol
# Density = 2.099227 g / cm^3
# Si number density = 21.040158 Si / 1000 Ang^3
#
#
#
# Elastic Constant Matrix: (Units=GPa)
#
#
# Indices 1 2 3 4 5 6 
#
# 1 95.5533 59.0161 8.7716 0.0000 0.0000 0.0000
# 2 59.0161 151.6303 25.8519 0.0000 0.0000 0.0000
# 3 8.7716 25.8519 85.8670 0.0000 0.0000 0.0000
# 4 0.0000 0.0000 0.0000 141.6646 0.0000 0.0000
# 5 0.0000 0.0000 0.0000 0.0000 18.7675 0.0000
# 6 0.0000 0.0000 0.0000 0.0000 0.0000 -725.0179
#
#
#
# Elastic Compliance Matrix: (Units=1/GPa)
#
#
# Indices 1 2 3 4 5 6 
#
# 1 0.013781 -0.005401 0.000218 0.000000 0.000000 0.000000
# 2 -0.005401 0.009069 -0.002179 0.000000 0.000000 0.000000
# 3 0.000218 -0.002179 0.012279 0.000000 0.000000 0.000000
# 4 0.000000 0.000000 0.000000 0.007059 0.000000 0.000000
# 5 0.000000 0.000000 0.000000 0.000000 0.053284 0.000000
# 6 0.000000 0.000000 0.000000 0.000000 0.000000 -0.001379
#
#
# Mechanical properties :
#
#
# Convention : Reuss Voigt Hill
#
# Bulk Modulus (GPa) = 49.00351 57.81442 53.40897
# Shear Modulus (GPa) = 43.24621 -96.95643 -26.85511
#
# Velocity S-wave (km/s) = 4.53858 -6.79571 -3.57651
# Velocity P-wave (km/s) = 7.12783 5.83419 2.89554
#
# Compressibility (1/GPa) = 0.02040670
#
# Stress axis : x y z
#
# Youngs Moduli (GPa) = 72.56318 110.27156 81.43655
#
# Poissons Ratio (x) = 0.59557 -0.01778
# Poissons Ratio (y) = 0.39191 0.17741
# Poissons Ratio (z) = -0.01584 0.24023
#
# Static dielectric constant tensor:
#      x y z
#    x 1.749960 0.000000 0.000000 
#    y 0.000000 1.774870 0.000000 
#    z 0.000000 0.000000 1.772390 
# 
# From -- ./inp_files/13011.got.cif
#   From: 2010.05.17/outbox.cif.g08.bks.cpg/sg47_7_cif.got.tgz:13011.got - 2010.06.03 20:15:42.
