data_PCOD9388968
_publ_section_title
;
Structure prediction by ZEFSAII (Michael W. Deem and Ramdas Pophale) SiO2 
 PCOD9388968
Probable space group: P M M M
;
_chemical_formula_sum "Si O2"
_cell_formula_units_Z 44
_cell_length_a 31.360205
_cell_length_b 7.583411
_cell_length_c 10.144013
_cell_angle_alpha 90.000000
_cell_angle_beta 90.000000
_cell_angle_gamma 90.000000
_cell_volume 2412.422022
_symmetry_space_group_name_H-M "P M M M"
_symmetry_group_IT_number 47
_symmetry_cell_setting 'orthorhombic'
loop_
_space_group_symop_operation_xyz
x,y,z
-x,-y,z
x,-y,-z
-x,y,-z
-x,-y,-z
x,y,-z
-x,y,z
x,-y,z
loop_
_atom_site_type_symbol
_atom_site_label
_atom_site_fract_x
_atom_site_fract_y
_atom_site_fract_z
Si Si1 0.878576 0.784719 0.151711
Si Si2 0.385940 0.297889 0.660541
Si Si3 0.548872 0.000000 0.339110
Si Si4 0.951882 0.784747 0.348479
Si Si5 0.782728 0.211758 0.850910
Si Si6 0.292215 0.710687 0.351195
O O1 0.915156 0.723035 0.250362
O O2 0.830448 0.727628 0.187112
O O3 0.878995 0.000000 0.155066
O O4 0.886591 0.733675 0.000000
O O5 0.385396 0.299922 0.500000
O O6 0.391594 0.500000 0.704686
O O7 0.423969 0.170646 0.702325
O O8 0.338813 0.227532 0.697231
O O9 0.500000 0.000000 0.294626
O O10 0.548254 0.000000 0.500000
O O11 0.944194 0.731834 0.500000
O O12 0.000000 0.730615 0.311243
O O13 0.951510 0.000000 0.346600
O O14 0.746231 0.255316 0.747432
O O15 0.784806 0.000000 0.857190
O O16 0.773575 0.275585 0.000000
O O17 0.283987 0.778213 0.500000
O O18 0.297019 0.500000 0.361028
#
# Coordination Sequence:
#
# PCOD9388968 Si02
#       6
#     8   8   4   8   8   8
#     4   8  14  24  35  49  74 105 136 173 216 263
#     4   8  15  27  40  58  88 120 152 196 239 277
#     4   9  16  24  38  62  89 123 163 193 230 287
#     4   8  13  20  30  46  70 101 137 176 215 257
#     4   9  18  30  43  63  90 117 147 186 230 275
#     4   9  18  31  46  65  88 117 154 190 226 273
#
# _framework density 18.238931000000001
#
# number of rings (size 3 to 8) (size 9 to 14) (size 15 to 20)
#    0.000    3.545    0.000    2.727    1.273    2.182 
#    0.000    5.455    0.000    0.000    0.000    0.000 
#    0.000    2.182    0.000   12.000    0.000   17.091 
#
# Total GULP energy -245067.645713 kJ/mol
# GULP energy per Si atom -5569.719221 kJ/mol
# Density = 1.819742 g / cm^3
# Si number density = 18.238931 Si / 1000 Ang^3
#
#
#
# Elastic Constant Matrix: (Units=GPa)
#
#
# Indices 1 2 3 4 5 6 
#
# 1 215.4475 39.5832 99.6421 0.0000 0.0000 0.0000
# 2 39.5832 52.5455 17.5332 0.0000 0.0000 0.0000
# 3 99.6421 17.5332 65.0976 0.0000 0.0000 0.0000
# 4 0.0000 0.0000 0.0000 2.4465 0.0000 0.0000
# 5 0.0000 0.0000 0.0000 0.0000 -9.1566 0.0000
# 6 0.0000 0.0000 0.0000 0.0000 0.0000 173.6869
#
#
#
# Elastic Compliance Matrix: (Units=1/GPa)
#
#
# Indices 1 2 3 4 5 6 
#
# 1 0.016798 -0.004477 -0.024506 0.000000 0.000000 0.000000
# 2 -0.004477 0.022104 0.000899 0.000000 0.000000 0.000000
# 3 -0.024506 0.000899 0.052629 0.000000 0.000000 0.000000
# 4 0.000000 0.000000 0.000000 0.408743 0.000000 0.000000
# 5 0.000000 0.000000 0.000000 0.000000 -0.109211 0.000000
# 6 0.000000 0.000000 0.000000 0.000000 0.000000 0.005757
#
#
# Mechanical properties :
#
#
# Convention : Reuss Voigt Hill
#
# Bulk Modulus (GPa) = 28.27752 71.84530 50.06141
# Shear Modulus (GPa) = 10.75791 45.15083 27.95437
#
# Velocity S-wave (km/s) = 2.43128 4.98086 3.91919
# Velocity P-wave (km/s) = 4.83933 8.51794 6.92728
#
# Compressibility (1/GPa) = 0.03536378
#
# Stress axis : x y z
#
# Youngs Moduli (GPa) = 59.53241 45.24158 19.00093
#
# Poissons Ratio (x) = 0.20254 0.46563
# Poissons Ratio (y) = 0.26652 -0.01709
# Poissons Ratio (z) = 1.45887 -0.04068
#
# Static dielectric constant tensor:
#      x y z
#    x 1.632650 0.000000 0.000000 
#    y 0.000000 1.741170 0.000000 
#    z 0.000000 0.000000 1.603240 
# 
# From -- ./inp_files/13544.got.cif
#   From: 2010.05.17/outbox.cif.g08.bks.cpg/sg47_7_cif.got.tgz:13544.got - 2010.06.03 20:15:42.
