data_PCOD9388366
_publ_section_title
;
Structure prediction by ZEFSAII (Michael W. Deem and Ramdas Pophale) SiO2 
 PCOD9388366
Probable space group: P M M M
;
_chemical_formula_sum "Si O2"
_cell_formula_units_Z 29
_cell_length_a 7.586987
_cell_length_b 12.497693
_cell_length_c 15.078951
_cell_angle_alpha 90.000000
_cell_angle_beta 90.000000
_cell_angle_gamma 90.000000
_cell_volume 1429.783636
_symmetry_space_group_name_H-M "P M M M"
_symmetry_group_IT_number 47
_symmetry_cell_setting 'orthorhombic'
loop_
_space_group_symop_operation_xyz
x,y,z
-x,-y,z
x,-y,-z
-x,y,-z
-x,-y,-z
x,y,-z
-x,y,z
x,-y,z
loop_
_atom_site_type_symbol
_atom_site_label
_atom_site_fract_x
_atom_site_fract_y
_atom_site_fract_z
Si Si1 0.284976 0.621779 0.901338
Si Si2 0.803606 0.000000 0.157710
Si Si3 0.291553 0.782551 0.246688
Si Si4 0.787731 0.381132 0.397623
Si Si5 0.500000 0.000000 0.000000
O O1 0.500000 0.621038 0.898873
O O2 0.227257 0.500000 0.887998
O O3 0.220045 0.700035 0.826632
O O4 0.234525 0.657061 0.000000
O O5 0.785178 0.102944 0.222085
O O6 0.655567 0.000000 0.079896
O O7 0.000000 0.000000 0.118592
O O8 0.500000 0.794162 0.233627
O O9 0.265911 0.719959 0.338783
O O10 0.730471 0.371012 0.500000
O O11 0.727329 0.500000 0.364780
O O12 0.000000 0.383677 0.397104
#
# Coordination Sequence:
#
# PCOD9388366 Si02
#       5
#     8   4   8   8   1
#     4   8  15  27  47  77 113 154 194 238 302 372
#     4  12  27  45  68  95 128 171 219 270 326 382
#     4  11  21  36  60  88 126 163 211 268 318 384
#     4   9  19  37  61  90 126 169 216 267 326 390
#     4  12  26  52  68  94 124 168 230 276 316 372
#
# _framework density 20.282788
#
# number of rings (size 3 to 8) (size 9 to 14) (size 15 to 20)
#    0.000    2.207    1.379    3.517    1.931    2.207 
#    0.000    2.069    0.000    4.138    0.000    5.793 
#    0.000    0.000    0.000    0.000    0.000    0.000 
#
# Total GULP energy -161533.203975 kJ/mol
# GULP energy per Si atom -5570.110482 kJ/mol
# Density = 2.023662 g / cm^3
# Si number density = 20.282788 Si / 1000 Ang^3
#
#
#
# Elastic Constant Matrix: (Units=GPa)
#
#
# Indices 1 2 3 4 5 6 
#
# 1 98.3397 20.8081 15.0418 0.0000 0.0000 0.0000
# 2 20.8081 105.9857 85.3273 0.0000 0.0000 0.0000
# 3 15.0418 85.3273 101.4345 0.0000 0.0000 0.0000
# 4 0.0000 0.0000 0.0000 29.4912 0.0000 0.0000
# 5 0.0000 0.0000 0.0000 0.0000 -41.6222 0.0000
# 6 0.0000 0.0000 0.0000 0.0000 0.0000 6.5364
#
#
#
# Elastic Compliance Matrix: (Units=1/GPa)
#
#
# Indices 1 2 3 4 5 6 
#
# 1 0.010620 -0.002532 0.000555 0.000000 0.000000 0.000000
# 2 -0.002532 0.029837 -0.024723 0.000000 0.000000 0.000000
# 3 0.000555 -0.024723 0.030574 0.000000 0.000000 0.000000
# 4 0.000000 0.000000 0.000000 0.033908 0.000000 0.000000
# 5 0.000000 0.000000 0.000000 0.000000 -0.024026 0.000000
# 6 0.000000 0.000000 0.000000 0.000000 0.000000 0.152989
#
#
# Mechanical properties :
#
#
# Convention : Reuss Voigt Hill
#
# Bulk Modulus (GPa) = 56.72240 60.90158 58.81199
# Shear Modulus (GPa) = 17.05445 11.18660 14.12052
#
# Velocity S-wave (km/s) = 2.90286 2.35102 2.64139
# Velocity P-wave (km/s) = 6.26594 6.12055 6.19367
#
# Compressibility (1/GPa) = 0.01762972
#
# Stress axis : x y z
#
# Youngs Moduli (GPa) = 94.16515 33.51584 32.70780
#
# Poissons Ratio (x) = 0.08485 -0.01815
# Poissons Ratio (y) = 0.23839 0.80865
# Poissons Ratio (z) = -0.05224 0.82862
#
# Static dielectric constant tensor:
#      x y z
#    x 1.772870 0.000000 0.000000 
#    y 0.000000 1.756200 0.000000 
#    z 0.000000 0.000000 1.714250 
# 
# From -- ./inp_files/14642.got.cif
#   From: 2010.05.17/outbox.cif.g08.bks.cpg/sg47_8_cif.got.tgz:14642.got - 2010.06.03 20:15:42.
