data_PCOD9388295
_publ_section_title
;
Structure prediction by ZEFSAII (Michael W. Deem and Ramdas Pophale) SiO2 
 PCOD9388295
Probable space group: P M M M
;
_chemical_formula_sum "Si O2"
_cell_formula_units_Z 32
_cell_length_a 7.661019
_cell_length_b 17.652321
_cell_length_c 13.891405
_cell_angle_alpha 90.000000
_cell_angle_beta 90.000000
_cell_angle_gamma 90.000000
_cell_volume 1878.600913
_symmetry_space_group_name_H-M "P M M M"
_symmetry_group_IT_number 47
_symmetry_cell_setting 'orthorhombic'
loop_
_space_group_symop_operation_xyz
x,y,z
-x,-y,z
x,-y,-z
-x,y,-z
-x,-y,-z
x,y,-z
-x,y,z
x,-y,z
loop_
_atom_site_type_symbol
_atom_site_label
_atom_site_fract_x
_atom_site_fract_y
_atom_site_fract_z
Si Si1 0.287438 0.165229 0.888817
Si Si2 0.788678 0.586257 0.611611
Si Si3 0.000000 0.415222 0.114079
Si Si4 0.701088 0.000000 0.116850
Si Si5 0.700862 0.680830 0.791139
O O1 0.500000 0.160038 0.891499
O O2 0.243756 0.233373 0.817016
O O3 0.221430 0.081945 0.858030
O O4 0.232576 0.181226 0.000000
O O5 0.740003 0.597442 0.500000
O O6 0.734525 0.500000 0.639113
O O7 0.717445 0.650469 0.682327
O O8 0.000000 0.588478 0.617241
O O9 0.829429 0.372592 0.150058
O O10 0.000000 0.500000 0.153941
O O11 0.000000 0.417387 0.000000
O O12 0.500000 0.000000 0.151381
O O13 0.696642 0.000000 0.000000
O O14 0.500000 0.673112 0.821849
#
# Coordination Sequence:
#
# PCOD9388295 Si02
#       5
#     8   8   4   4   8
#     4   8  14  25  43  69  99 130 163 198 238 286
#     4   9  18  34  54  73  95 124 161 208 258 303
#     4  11  24  38  49  66  98 138 174 204 239 287
#     4   7  10  20  40  65  94 127 161 196 236 283
#     4  11  21  33  52  76 100 128 166 208 249 295
#
# _framework density 17.033951999999999
#
# number of rings (size 3 to 8) (size 9 to 14) (size 15 to 20)
#    0.000    2.750    1.250    3.750    0.000    4.000 
#    0.000    2.500    0.000    0.750    0.000    4.375 
#    0.000    7.000    0.000    0.000    0.000    0.000 
#
# Total GULP energy -178297.274760 kJ/mol
# GULP energy per Si atom -5571.789836 kJ/mol
# Density = 1.699518 g / cm^3
# Si number density = 17.033952 Si / 1000 Ang^3
#
#
#
# Elastic Constant Matrix: (Units=GPa)
#
#
# Indices 1 2 3 4 5 6 
#
# 1 57.6713 33.2754 11.3669 0.0000 0.0000 0.0000
# 2 33.2754 187.9056 67.8452 0.0000 0.0000 0.0000
# 3 11.3669 67.8452 77.3658 0.0000 0.0000 0.0000
# 4 0.0000 0.0000 0.0000 29.9333 0.0000 0.0000
# 5 0.0000 0.0000 0.0000 0.0000 8.0952 0.0000
# 6 0.0000 0.0000 0.0000 0.0000 0.0000 33.1050
#
#
#
# Elastic Compliance Matrix: (Units=1/GPa)
#
#
# Indices 1 2 3 4 5 6 
#
# 1 0.019316 -0.003506 0.000237 0.000000 0.000000 0.000000
# 2 -0.003506 0.008424 -0.006872 0.000000 0.000000 0.000000
# 3 0.000237 -0.006872 0.018917 0.000000 0.000000 0.000000
# 4 0.000000 0.000000 0.000000 0.033408 0.000000 0.000000
# 5 0.000000 0.000000 0.000000 0.000000 0.123530 0.000000
# 6 0.000000 0.000000 0.000000 0.000000 0.000000 0.030207
#
#
# Mechanical properties :
#
#
# Convention : Reuss Voigt Hill
#
# Bulk Modulus (GPa) = 37.91614 60.87974 49.39794
# Shear Modulus (GPa) = 19.02039 28.25706 23.63873
#
# Velocity S-wave (km/s) = 3.34521 4.07734 3.72928
# Velocity P-wave (km/s) = 6.10148 7.61473 6.89971
#
# Compressibility (1/GPa) = 0.02637399
#
# Stress axis : x y z
#
# Youngs Moduli (GPa) = 51.77082 118.70907 52.86154
#
# Poissons Ratio (x) = 0.41619 -0.01251
# Poissons Ratio (y) = 0.18151 0.36327
# Poissons Ratio (z) = -0.01225 0.81579
#
# Static dielectric constant tensor:
#      x y z
#    x 1.625520 0.000000 0.000000 
#    y 0.000000 1.611600 0.000000 
#    z 0.000000 0.000000 1.567800 
# 
# From -- ./inp_files/20495.got.cif
#   From: 2010.05.17/outbox.cif.g08.bks.cpg/sg47_11_cif.got.tgz:20495.got - 2010.06.03 20:15:42.
