data_PCOD9388661
_publ_section_title
;
Structure prediction by ZEFSAII (Michael W. Deem and Ramdas Pophale) SiO2 
 PCOD9388661
Probable space group: P M M M
;
_chemical_formula_sum "Si O2"
_cell_formula_units_Z 28
_cell_length_a 14.296252
_cell_length_b 7.929255
_cell_length_c 14.063309
_cell_angle_alpha 90.000000
_cell_angle_beta 90.000000
_cell_angle_gamma 90.000000
_cell_volume 1594.197408
_symmetry_space_group_name_H-M "P M M M"
_symmetry_group_IT_number 47
_symmetry_cell_setting 'orthorhombic'
loop_
_space_group_symop_operation_xyz
x,y,z
-x,-y,z
x,-y,-z
-x,y,-z
-x,-y,-z
x,y,-z
-x,y,z
x,-y,z
loop_
_atom_site_type_symbol
_atom_site_label
_atom_site_fract_x
_atom_site_fract_y
_atom_site_fract_z
Si Si1 0.891599 0.796090 0.109789
Si Si2 0.289367 0.312267 0.207858
Si Si3 0.607827 0.796109 0.610366
Si Si4 0.393108 0.000000 0.886754
O O1 0.819231 0.714934 0.182520
O O2 0.000000 0.751070 0.125899
O O3 0.884222 0.000000 0.116183
O O4 0.867823 0.750544 0.000000
O O5 0.317220 0.500000 0.178129
O O6 0.319757 0.284979 0.316866
O O7 0.342688 0.165927 0.151400
O O8 0.623830 0.752395 0.500000
O O9 0.500000 0.749244 0.634123
O O10 0.614069 0.000000 0.618536
O O11 0.500000 0.000000 0.853234
O O12 0.390397 0.000000 0.000000
#
# Coordination Sequence:
#
# PCOD9388661 Si02
#       4
#     8   8   8   4
#     4   9  18  35  59  83 109 145 189 236 283 331
#     4  12  23  35  57  85 113 149 188 228 284 341
#     4   9  18  35  59  83 109 145 189 236 283 331
#     4  11  24  40  54  74 112 153 190 234 274 321
#
# _framework density 17.563697000000001
#
# number of rings (size 3 to 8) (size 9 to 14) (size 15 to 20)
#    0.000    1.857    2.857    3.429    0.000    5.714 
#    0.000    4.286    0.000    0.857    0.000    6.000 
#    0.000    0.000    0.000    0.000    0.000    0.000 
#
# Total GULP energy -156342.645139 kJ/mol
# GULP energy per Si atom -5583.665898 kJ/mol
# Density = 1.752372 g / cm^3
# Si number density = 17.563697 Si / 1000 Ang^3
#
#
#
# Elastic Constant Matrix: (Units=GPa)
#
#
# Indices 1 2 3 4 5 6 
#
# 1 112.2874 41.9662 69.6086 0.0000 0.0000 0.0000
# 2 41.9662 94.1369 32.8270 0.0000 0.0000 0.0000
# 3 69.6086 32.8270 96.6130 0.0000 0.0000 0.0000
# 4 0.0000 0.0000 0.0000 -10.3020 0.0000 0.0000
# 5 0.0000 0.0000 0.0000 0.0000 35.2610 0.0000
# 6 0.0000 0.0000 0.0000 0.0000 0.0000 -10.6519
#
#
#
# Elastic Compliance Matrix: (Units=1/GPa)
#
#
# Indices 1 2 3 4 5 6 
#
# 1 0.017214 -0.003799 -0.011111 0.000000 0.000000 0.000000
# 2 -0.003799 0.012889 -0.001642 0.000000 0.000000 0.000000
# 3 -0.011111 -0.001642 0.018914 0.000000 0.000000 0.000000
# 4 0.000000 0.000000 0.000000 -0.097069 0.000000 0.000000
# 5 0.000000 0.000000 0.000000 0.000000 0.028360 0.000000
# 6 0.000000 0.000000 0.000000 0.000000 0.000000 -0.093880
#
#
# Mechanical properties :
#
#
# Convention : Reuss Voigt Hill
#
# Bulk Modulus (GPa) = 62.84750 65.76009 64.30379
# Shear Modulus (GPa) = -66.52253 13.43714 -26.54269
#
# Velocity S-wave (km/s) = -6.16094 2.76896 -3.89166
# Velocity P-wave (km/s) = 3.84049 6.90978 4.06175
#
# Compressibility (1/GPa) = 0.01591153
#
# Stress axis : x y z
#
# Youngs Moduli (GPa) = 58.09301 77.58463 52.87013
#
# Poissons Ratio (x) = 0.29476 0.58747
# Poissons Ratio (y) = 0.22070 0.08682
# Poissons Ratio (z) = 0.64550 0.12741
#
# Static dielectric constant tensor:
#      x y z
#    x 1.597790 0.000000 0.000000 
#    y 0.000000 1.613250 0.000000 
#    z 0.000000 0.000000 1.594730 
# 
# From -- ./inp_files/23157.got.cif
#   From: 2010.05.17/outbox.cif.g08.bks.cpg/sg47_12_cif.got.tgz:23157.got - 2010.06.03 20:15:42.
