data_PCOD9388111
_publ_section_title
;
Structure prediction by ZEFSAII (Michael W. Deem and Ramdas Pophale) SiO2 
 PCOD9388111
Probable space group: P M M M
;
_chemical_formula_sum "Si O2"
_cell_formula_units_Z 64
_cell_length_a 8.426881
_cell_length_b 15.769921
_cell_length_c 24.273326
_cell_angle_alpha 90.000000
_cell_angle_beta 90.000000
_cell_angle_gamma 90.000000
_cell_volume 3225.712577
_symmetry_space_group_name_H-M "P M M M"
_symmetry_group_IT_number 47
_symmetry_cell_setting 'orthorhombic'
loop_
_space_group_symop_operation_xyz
x,y,z
-x,-y,z
x,-y,-z
-x,y,-z
-x,-y,-z
x,y,-z
-x,y,z
x,-y,z
loop_
_atom_site_type_symbol
_atom_site_label
_atom_site_fract_x
_atom_site_fract_y
_atom_site_fract_z
Si Si1 0.313730 0.407025 0.760400
Si Si2 0.318307 0.861192 0.317300
Si Si3 0.190205 0.727167 0.152314
Si Si4 0.183237 0.897770 0.560868
Si Si5 0.310678 0.403893 0.934310
Si Si6 0.814635 0.686855 0.667295
Si Si7 0.809820 0.907386 0.800495
Si Si8 0.193163 0.596148 0.561316
O O1 0.500000 0.400892 0.747569
O O2 0.284710 0.500000 0.784489
O O3 0.262654 0.334107 0.801601
O O4 0.212214 0.394059 0.705407
O O5 0.500000 0.887128 0.313778
O O6 0.259849 0.876590 0.380085
O O7 0.291920 0.761317 0.309406
O O8 0.228324 0.900181 0.264889
O O9 0.235566 0.676527 0.096742
O O10 0.246465 0.823581 0.166020
O O11 0.000000 0.727654 0.157416
O O12 0.247245 0.869537 0.500000
O O13 0.000000 0.868206 0.563230
O O14 0.183359 0.000000 0.558939
O O15 0.500000 0.402123 0.922975
O O16 0.254459 0.500000 0.918607
O O17 0.288138 0.396704 0.000000
O O18 0.759541 0.663303 0.606458
O O19 0.000000 0.711817 0.667943
O O20 0.000000 0.907553 0.805755
O O21 0.749598 0.000000 0.819570
O O22 0.245196 0.617782 0.500000
O O23 0.245005 0.500000 0.573870
O O24 0.000000 0.594904 0.561973
#
# Coordination Sequence:
#
# PCOD9388111 Si02
#       8
#     8   8   8   8   8   8   8   8
#     4  11  23  37  54  79 115 155 188 229 290 352
#     4  12  24  36  53  79 111 144 182 234 298 362
#     4  11  22  36  59  90 120 154 199 248 291 339
#     4   9  19  37  59  79 100 132 176 227 288 359
#     4   9  19  37  61  90 128 173 210 240 285 342
#     4  11  21  34  53  76 103 138 184 233 280 339
#     4  10  22  41  62  83 112 153 199 248 302 358
#     4   8  15  29  49  72  95 122 165 222 277 328
#
# _framework density 19.840577
#
# number of rings (size 3 to 8) (size 9 to 14) (size 15 to 20)
#    0.000    1.875    1.250    4.500    0.000    6.750 
#    0.000    2.500    0.000    1.500    0.000    7.000 
#    0.000    0.000    0.000    0.000    0.000    0.000 
#
# Total GULP energy -356850.170144 kJ/mol
# GULP energy per Si atom -5575.783908 kJ/mol
# Density = 1.979542 g / cm^3
# Si number density = 19.840577 Si / 1000 Ang^3
#
#
#
# Elastic Constant Matrix: (Units=GPa)
#
#
# Indices 1 2 3 4 5 6 
#
# 1 17.6488 16.2819 3.2390 0.0000 0.0000 0.0000
# 2 16.2819 135.8394 39.9719 0.0000 0.0000 0.0000
# 3 3.2390 39.9719 56.0202 0.0000 0.0000 0.0000
# 4 0.0000 0.0000 0.0000 20.6425 0.0000 0.0000
# 5 0.0000 0.0000 0.0000 0.0000 56.7722 0.0000
# 6 0.0000 0.0000 0.0000 0.0000 0.0000 57.6487
#
#
#
# Elastic Compliance Matrix: (Units=1/GPa)
#
#
# Indices 1 2 3 4 5 6 
#
# 1 0.063927 -0.008322 0.002242 0.000000 0.000000 0.000000
# 2 -0.008322 0.010401 -0.006941 0.000000 0.000000 0.000000
# 3 0.002242 -0.006941 0.022673 0.000000 0.000000 0.000000
# 4 0.000000 0.000000 0.000000 0.048444 0.000000 0.000000
# 5 0.000000 0.000000 0.000000 0.000000 0.017614 0.000000
# 6 0.000000 0.000000 0.000000 0.000000 0.000000 0.017346
#
#
# Mechanical properties :
#
#
# Convention : Reuss Voigt Hill
#
# Bulk Modulus (GPa) = 14.09233 36.49932 25.29582
# Shear Modulus (GPa) = 21.72953 37.01371 29.37162
#
# Velocity S-wave (km/s) = 3.31298 4.32389 3.85175
# Velocity P-wave (km/s) = 4.66397 6.58516 5.70600
#
# Compressibility (1/GPa) = 0.07096061
#
# Stress axis : x y z
#
# Youngs Moduli (GPa) = 15.64276 96.14054 44.10471
#
# Poissons Ratio (x) = 0.80009 -0.09888
# Poissons Ratio (y) = 0.13018 0.30611
# Poissons Ratio (z) = -0.03507 0.66727
#
# Static dielectric constant tensor:
#      x y z
#    x 1.694240 0.000000 0.000000 
#    y 0.000000 1.749370 0.000000 
#    z 0.000000 0.000000 1.739980 
# 
# From -- ./inp_files/32132.got.cif
#   From: 2010.05.17/outbox.cif.g08.bks.cpg/sg47_17_cif.got.tgz:32132.got - 2010.06.03 20:15:42.
