data_PCOD9388186
_publ_section_title
;
Structure prediction by ZEFSAII (Michael W. Deem and Ramdas Pophale) SiO2 
 PCOD9388186
Probable space group: P M M M
;
_chemical_formula_sum "Si O2"
_cell_formula_units_Z 64
_cell_length_a 20.899884
_cell_length_b 8.769549
_cell_length_c 20.480559
_cell_angle_alpha 90.000000
_cell_angle_beta 90.000000
_cell_angle_gamma 90.000000
_cell_volume 3753.729219
_symmetry_space_group_name_H-M "P M M M"
_symmetry_group_IT_number 47
_symmetry_cell_setting 'orthorhombic'
loop_
_space_group_symop_operation_xyz
x,y,z
-x,-y,z
x,-y,-z
-x,y,-z
-x,-y,-z
x,y,-z
-x,y,z
x,-y,z
loop_
_atom_site_type_symbol
_atom_site_label
_atom_site_fract_x
_atom_site_fract_y
_atom_site_fract_z
Si Si1 0.688399 0.182542 0.923899
Si Si2 0.809337 0.317730 0.151960
Si Si3 0.757825 0.680071 0.569529
Si Si4 0.570894 0.318628 0.843696
Si Si5 0.073782 0.183776 0.075221
Si Si6 0.608382 0.181495 0.708614
Si Si7 0.751736 0.685508 0.710225
Si Si8 0.397533 0.320655 0.427875
O O1 0.751499 0.251967 0.891183
O O2 0.626593 0.241518 0.885269
O O3 0.691617 0.000000 0.919133
O O4 0.684850 0.225300 0.000000
O O5 0.808826 0.500000 0.147478
O O6 0.875591 0.254767 0.124270
O O7 0.793882 0.275970 0.227037
O O8 0.779139 0.748445 0.500000
O O9 0.773094 0.500000 0.567667
O O10 0.779916 0.736802 0.640152
O O11 0.680249 0.690356 0.571112
O O12 0.500000 0.288119 0.870869
O O13 0.581504 0.500000 0.842394
O O14 0.573619 0.256599 0.769951
O O15 0.000000 0.226783 0.088309
O O16 0.077779 0.000000 0.078319
O O17 0.088808 0.227816 0.000000
O O18 0.681786 0.239673 0.715616
O O19 0.582766 0.234908 0.637808
O O20 0.605907 0.000000 0.712880
O O21 0.743259 0.500000 0.708602
O O22 0.419556 0.267589 0.500000
O O23 0.413427 0.500000 0.422133
#
# Coordination Sequence:
#
# PCOD9388186 Si02
#       8
#     8   8   8   8   8   8   8   8
#     4  11  24  40  58  80 105 132 164 206 257 313
#     4  11  21  32  52  80 110 141 172 211 252 298
#     4   7  10  19  37  60  87 123 164 200 236 283
#     4  11  24  41  59  76  96 127 169 215 261 314
#     4   9  19  36  55  74 101 139 178 215 257 306
#     4  11  20  30  49  74 101 131 164 208 259 309
#     4   9  17  29  45  68 100 134 169 207 249 299
#     4   8  14  26  45  67  94 130 167 203 247 301
#
# _framework density 17.049710999999999
#
# number of rings (size 3 to 8) (size 9 to 14) (size 15 to 20)
#    0.000    2.375    1.250    4.500    0.000    5.000 
#    0.000    1.875    0.000    0.375    0.000    2.625 
#    0.000    0.500    0.000    6.250    0.000    1.125 
#
# Total GULP energy -356881.694401 kJ/mol
# GULP energy per Si atom -5576.276475 kJ/mol
# Density = 1.701091 g / cm^3
# Si number density = 17.049711 Si / 1000 Ang^3
#
#
#
# Elastic Constant Matrix: (Units=GPa)
#
#
# Indices 1 2 3 4 5 6 
#
# 1 74.6939 24.4040 64.6221 0.0000 0.0000 0.0000
# 2 24.4040 27.3320 33.1214 0.0000 0.0000 0.0000
# 3 64.6221 33.1214 154.1470 0.0000 0.0000 0.0000
# 4 0.0000 0.0000 0.0000 5.2880 0.0000 0.0000
# 5 0.0000 0.0000 0.0000 0.0000 85.1357 0.0000
# 6 0.0000 0.0000 0.0000 0.0000 0.0000 20.5221
#
#
#
# Elastic Compliance Matrix: (Units=1/GPa)
#
#
# Indices 1 2 3 4 5 6 
#
# 1 0.023736 -0.012351 -0.007297 0.000000 0.000000 0.000000
# 2 -0.012351 0.055894 -0.006832 0.000000 0.000000 0.000000
# 3 -0.007297 -0.006832 0.011014 0.000000 0.000000 0.000000
# 4 0.000000 0.000000 0.000000 0.189108 0.000000 0.000000
# 5 0.000000 0.000000 0.000000 0.000000 0.011746 0.000000
# 6 0.000000 0.000000 0.000000 0.000000 0.000000 0.048728
#
#
# Mechanical properties :
#
#
# Convention : Reuss Voigt Hill
#
# Bulk Modulus (GPa) = 26.53583 55.60754 41.07169
# Shear Modulus (GPa) = 12.32291 31.12420 21.72355
#
# Velocity S-wave (km/s) = 2.69134 4.27722 3.57337
# Velocity P-wave (km/s) = 5.02547 7.55503 6.41615
#
# Compressibility (1/GPa) = 0.03768490
#
# Stress axis : x y z
#
# Youngs Moduli (GPa) = 42.12943 17.89091 90.79017
#
# Poissons Ratio (x) = 0.22097 0.66250
# Poissons Ratio (y) = 0.52034 0.62029
# Poissons Ratio (z) = 0.30742 0.12223
#
# Static dielectric constant tensor:
#      x y z
#    x 1.561560 0.000000 0.000000 
#    y 0.000000 1.568230 0.000000 
#    z 0.000000 0.000000 1.620550 
# 
# From -- ./inp_files/31539.got.cif
#   From: 2010.05.17/outbox.cif.g08.bks.cpg/sg47_16_cif.got.tgz:31539.got - 2010.06.03 20:15:42.
