data_PCOD9388150
_publ_section_title
;
Structure prediction by ZEFSAII (Michael W. Deem and Ramdas Pophale) SiO2 
 PCOD9388150
Probable space group: P M M M
;
_chemical_formula_sum "Si O2"
_cell_formula_units_Z 41
_cell_length_a 9.327612
_cell_length_b 20.778560
_cell_length_c 11.855759
_cell_angle_alpha 90.000000
_cell_angle_beta 90.000000
_cell_angle_gamma 90.000000
_cell_volume 2297.816172
_symmetry_space_group_name_H-M "P M M M"
_symmetry_group_IT_number 47
_symmetry_cell_setting 'orthorhombic'
loop_
_space_group_symop_operation_xyz
x,y,z
-x,-y,z
x,-y,-z
-x,y,-z
-x,-y,-z
x,y,-z
-x,y,z
x,-y,z
loop_
_atom_site_type_symbol
_atom_site_label
_atom_site_fract_x
_atom_site_fract_y
_atom_site_fract_z
Si Si1 0.773793 0.591813 0.500000
Si Si2 0.837391 0.428914 0.244604
Si Si3 0.169794 0.924248 0.366325
Si Si4 0.826564 0.741466 0.500000
Si Si5 0.671182 0.311780 0.130662
Si Si6 0.500000 0.500000 0.500000
Si Si7 0.671571 0.806395 0.711280
O O1 0.842564 0.573555 0.619524
O O2 0.773224 0.668493 0.500000
O O3 0.623547 0.555947 0.500000
O O4 0.778963 0.500000 0.213183
O O5 0.746945 0.369167 0.198934
O O6 0.000000 0.423775 0.201907
O O7 0.203039 0.913452 0.500000
O O8 0.265279 0.878361 0.288335
O O9 0.000000 0.910195 0.352342
O O10 0.191523 0.000000 0.344599
O O11 0.758969 0.774785 0.608678
O O12 0.000000 0.743972 0.500000
O O13 0.500000 0.321796 0.138053
O O14 0.699709 0.241571 0.184324
O O15 0.714263 0.314152 0.000000
O O16 0.500000 0.807338 0.691344
#
# Coordination Sequence:
#
# PCOD9388150 Si02
#       7
#     4   8   8   4   8   1   8
#     4  12  24  37  57  86 119 151 186 227 289 347
#     4  11  23  39  59  84 115 147 186 235 290 349
#     4   9  18  33  54  83 122 161 188 217 271 341
#     4  12  23  35  56  85 118 152 187 228 289 350
#     4  10  24  43  60  79 108 149 195 243 292 341
#     4  12  28  36  58  88 122 160 188 236 284 362
#     4  11  22  35  57  87 117 148 192 238 282 334
#
# _framework density 17.843029999999999
#
# number of rings (size 3 to 8) (size 9 to 14) (size 15 to 20)
#    0.000    1.366    3.902    2.341    2.732    3.122 
#    0.000    2.927    0.000    0.585    0.000    4.098 
#    0.000    0.000    0.000    0.000    0.000    0.000 
#
# Total GULP energy -228448.369887 kJ/mol
# GULP energy per Si atom -5571.911461 kJ/mol
# Density = 1.780242 g / cm^3
# Si number density = 17.843030 Si / 1000 Ang^3
#
#
#
# Elastic Constant Matrix: (Units=GPa)
#
#
# Indices 1 2 3 4 5 6 
#
# 1 86.0485 59.2454 37.1913 0.0000 0.0000 0.0000
# 2 59.2454 143.0835 42.9419 0.0000 0.0000 0.0000
# 3 37.1913 42.9419 85.0403 0.0000 0.0000 0.0000
# 4 0.0000 0.0000 0.0000 -2.0297 0.0000 0.0000
# 5 0.0000 0.0000 0.0000 0.0000 50.9193 0.0000
# 6 0.0000 0.0000 0.0000 0.0000 0.0000 37.4449
#
#
#
# Elastic Compliance Matrix: (Units=1/GPa)
#
#
# Indices 1 2 3 4 5 6 
#
# 1 0.017763 -0.005921 -0.004779 0.000000 0.000000 0.000000
# 2 -0.005921 0.010211 -0.002567 0.000000 0.000000 0.000000
# 3 -0.004779 -0.002567 0.015145 0.000000 0.000000 0.000000
# 4 0.000000 0.000000 0.000000 -0.492676 0.000000 0.000000
# 5 0.000000 0.000000 0.000000 0.000000 0.019639 0.000000
# 6 0.000000 0.000000 0.000000 0.000000 0.000000 0.026706
#
#
# Mechanical properties :
#
#
# Convention : Reuss Voigt Hill
#
# Bulk Modulus (GPa) = 60.28923 65.88106 63.08515
# Shear Modulus (GPa) = -13.47165 28.91979 7.72407
#
# Velocity S-wave (km/s) = -2.75072 4.03027 2.08286
# Velocity P-wave (km/s) = 4.87580 7.65899 6.42003
#
# Compressibility (1/GPa) = 0.01658671
#
# Stress axis : x y z
#
# Youngs Moduli (GPa) = 56.29530 97.93497 66.02795
#
# Poissons Ratio (x) = 0.57987 0.31553
# Poissons Ratio (y) = 0.33332 0.16947
# Poissons Ratio (z) = 0.26902 0.25136
#
# Static dielectric constant tensor:
#      x y z
#    x 1.598360 0.000000 0.000000 
#    y 0.000000 1.611000 0.000000 
#    z 0.000000 0.000000 1.605520 
# 
# From -- ./inp_files/15182.got.cif
#   From: 2010.05.17/outbox.cif.g08.bks.cpg/sg47_8_cif.got.tgz:15182.got - 2010.06.03 20:15:42.
