data_PCOD9388124
_publ_section_title
;
Structure prediction by ZEFSAII (Michael W. Deem and Ramdas Pophale) SiO2 
 PCOD9388124
Probable space group: P M M M
;
_chemical_formula_sum "Si O2"
_cell_formula_units_Z 37
_cell_length_a 7.680943
_cell_length_b 14.502274
_cell_length_c 18.854285
_cell_angle_alpha 90.000000
_cell_angle_beta 90.000000
_cell_angle_gamma 90.000000
_cell_volume 2100.200299
_symmetry_space_group_name_H-M "P M M M"
_symmetry_group_IT_number 47
_symmetry_cell_setting 'orthorhombic'
loop_
_space_group_symop_operation_xyz
x,y,z
-x,-y,z
x,-y,-z
-x,y,-z
-x,-y,-z
x,y,-z
-x,y,z
x,-y,z
loop_
_atom_site_type_symbol
_atom_site_label
_atom_site_fract_x
_atom_site_fract_y
_atom_site_fract_z
Si Si1 0.804836 0.768074 0.313952
Si Si2 0.712274 0.267998 0.919637
Si Si3 0.500000 0.808216 0.578077
Si Si4 0.288626 0.394418 0.790346
Si Si5 0.500000 0.000000 0.500000
Si Si6 0.288757 0.105396 0.817750
O O1 0.666242 0.781217 0.375684
O O2 0.776377 0.672404 0.271772
O O3 0.775585 0.846620 0.254179
O O4 0.000000 0.773651 0.341430
O O5 0.500000 0.268971 0.921460
O O6 0.765308 0.348292 0.865082
O O7 0.764159 0.171744 0.882623
O O8 0.774183 0.277924 0.000000
O O9 0.500000 0.763057 0.500000
O O10 0.500000 0.917367 0.560719
O O11 0.500000 0.391813 0.788211
O O12 0.232595 0.500000 0.784070
O O13 0.500000 0.106809 0.815085
O O14 0.231793 0.000000 0.824815
#
# Coordination Sequence:
#
# PCOD9388124 Si02
#       6
#     8   8   4   8   1   8
#     4  11  21  35  58  83 112 147 183 225 270 321
#     4   8  14  25  42  72 109 142 182 232 283 333
#     4  10  22  42  59  86 119 146 175 216 259 322
#     4   9  17  32  54  79 107 144 187 232 281 328
#     4   8  24  40  66  84 122 158 170 212 270 312
#     4   9  17  29  48  71 103 145 188 232 275 322
#
# _framework density 17.617367000000002
#
# number of rings (size 3 to 8) (size 9 to 14) (size 15 to 20)
#    0.324    2.378    2.162    1.297    1.514    2.162 
#    0.000    4.865    0.000   11.676    0.000   13.622 
#    0.000    0.000    0.000    0.000    0.000    0.000 
#
# Total GULP energy -206043.204851 kJ/mol
# GULP energy per Si atom -5568.735266 kJ/mol
# Density = 1.757727 g / cm^3
# Si number density = 17.617367 Si / 1000 Ang^3
#
#
#
# Elastic Constant Matrix: (Units=GPa)
#
#
# Indices 1 2 3 4 5 6 
#
# 1 82.8836 31.3216 52.4228 0.0000 0.0000 0.0000
# 2 31.3216 145.8552 58.5410 0.0000 0.0000 0.0000
# 3 52.4228 58.5410 145.8040 0.0000 0.0000 0.0000
# 4 0.0000 0.0000 0.0000 10.0582 0.0000 0.0000
# 5 0.0000 0.0000 0.0000 0.0000 -11.9345 0.0000
# 6 0.0000 0.0000 0.0000 0.0000 0.0000 2.8910
#
#
#
# Elastic Compliance Matrix: (Units=1/GPa)
#
#
# Indices 1 2 3 4 5 6 
#
# 1 0.015830 -0.001329 -0.005158 0.000000 0.000000 0.000000
# 2 -0.001329 0.008285 -0.002849 0.000000 0.000000 0.000000
# 3 -0.005158 -0.002849 0.009857 0.000000 0.000000 0.000000
# 4 0.000000 0.000000 0.000000 0.099422 0.000000 0.000000
# 5 0.000000 0.000000 0.000000 0.000000 -0.083791 0.000000
# 6 0.000000 0.000000 0.000000 0.000000 0.000000 0.345903
#
#
# Mechanical properties :
#
#
# Convention : Reuss Voigt Hill
#
# Bulk Modulus (GPa) = 65.35856 73.23484 69.29670
# Shear Modulus (GPa) = 11.92533 15.68676 13.80605
#
# Velocity S-wave (km/s) = 2.60457 2.98722 2.80243
# Velocity P-wave (km/s) = 6.79886 7.31833 7.06337
#
# Compressibility (1/GPa) = 0.01530022
#
# Stress axis : x y z
#
# Youngs Moduli (GPa) = 63.17273 120.70243 101.45443
#
# Poissons Ratio (x) = 0.16044 0.52328
# Poissons Ratio (y) = 0.08397 0.28899
# Poissons Ratio (z) = 0.32583 0.34382
#
# Static dielectric constant tensor:
#      x y z
#    x 1.636660 0.000000 0.000000 
#    y 0.000000 1.587020 0.000000 
#    z 0.000000 0.000000 1.568700 
# 
# From -- ./inp_files/26294.got.cif
#   From: 2010.05.17/outbox.cif.g08.bks.cpg/sg47_14_cif.got.tgz:26294.got - 2010.06.03 20:15:42.
