data_PCOD9388932
_publ_section_title
;
Structure prediction by ZEFSAII (Michael W. Deem and Ramdas Pophale) SiO2 
 PCOD9388932
Probable space group: P M M M
;
_chemical_formula_sum "Si O2"
_cell_formula_units_Z 44
_cell_length_a 29.651078
_cell_length_b 7.362238
_cell_length_c 9.705008
_cell_angle_alpha 90.000000
_cell_angle_beta 90.000000
_cell_angle_gamma 90.000000
_cell_volume 2118.586682
_symmetry_space_group_name_H-M "P M M M"
_symmetry_group_IT_number 47
_symmetry_cell_setting 'orthorhombic'
loop_
_space_group_symop_operation_xyz
x,y,z
-x,-y,z
x,-y,-z
-x,y,-z
-x,-y,-z
x,y,-z
-x,y,z
x,-y,z
loop_
_atom_site_type_symbol
_atom_site_label
_atom_site_fract_x
_atom_site_fract_y
_atom_site_fract_z
Si Si1 0.916261 0.778854 0.341906
Si Si2 0.000000 0.777908 0.158123
Si Si3 0.451581 0.281925 0.660290
Si Si4 0.269575 0.777608 0.841726
Si Si5 0.352229 0.786079 0.342959
Si Si6 0.814332 0.778964 0.341877
O O1 0.925493 0.724739 0.500000
O O2 0.865294 0.722027 0.305982
O O3 0.955324 0.718967 0.239565
O O4 0.916385 0.000000 0.340541
O O5 0.000000 0.000000 0.159275
O O6 0.000000 0.720432 0.000000
O O7 0.450813 0.221005 0.500000
O O8 0.500000 0.220106 0.719693
O O9 0.452569 0.500000 0.659876
O O10 0.402761 0.231715 0.717382
O O11 0.313157 0.715079 0.755570
O O12 0.224410 0.720073 0.761978
O O13 0.269788 0.000000 0.842435
O O14 0.270567 0.719509 0.000000
O O15 0.351364 0.710881 0.500000
O O16 0.343663 0.000000 0.355899
O O17 0.804833 0.724270 0.500000
O O18 0.814207 0.000000 0.341264
#
# Coordination Sequence:
#
# PCOD9388932 Si02
#       6
#     8   4   8   8   8   8
#     4   8  13  20  28  36  48  70 100 135 177 222
#     4   9  15  19  23  33  49  69  97 137 180 219
#     4   8  14  25  41  61  83 104 127 158 194 227
#     4   9  16  24  34  49  70  94 117 145 184 227
#     4   9  16  25  39  59  80 101 126 157 191 227
#     4   8  13  21  32  44  58  79 109 144 182 225
#
# _framework density 20.768563
#
# number of rings (size 3 to 8) (size 9 to 14) (size 15 to 20)
#    0.000    3.545    0.000    2.455    0.000    4.364 
#    0.000    5.455    0.000    1.091    0.000    3.818 
#    0.000    0.000    0.000    0.000    0.000    0.000 
#
# Total GULP energy -245290.517082 kJ/mol
# GULP energy per Si atom -5574.784479 kJ/mol
# Density = 2.072129 g / cm^3
# Si number density = 20.768563 Si / 1000 Ang^3
#
#
#
# Elastic Constant Matrix: (Units=GPa)
#
#
# Indices 1 2 3 4 5 6 
#
# 1 237.9869 3.2188 142.9094 0.0000 0.0000 0.0000
# 2 3.2188 73.5193 6.0630 0.0000 0.0000 0.0000
# 3 142.9094 6.0630 129.8184 0.0000 0.0000 0.0000
# 4 0.0000 0.0000 0.0000 -10.7420 0.0000 0.0000
# 5 0.0000 0.0000 0.0000 0.0000 -4.8891 0.0000
# 6 0.0000 0.0000 0.0000 0.0000 0.0000 65.3567
#
#
#
# Elastic Compliance Matrix: (Units=1/GPa)
#
#
# Indices 1 2 3 4 5 6 
#
# 1 0.012422 0.000586 -0.013702 0.000000 0.000000 0.000000
# 2 0.000586 0.013682 -0.001284 0.000000 0.000000 0.000000
# 3 -0.013702 -0.001284 0.022847 0.000000 0.000000 0.000000
# 4 0.000000 0.000000 0.000000 -0.093092 0.000000 0.000000
# 5 0.000000 0.000000 0.000000 0.000000 -0.204535 0.000000
# 6 0.000000 0.000000 0.000000 0.000000 0.000000 0.015301
#
#
# Mechanical properties :
#
#
# Convention : Reuss Voigt Hill
#
# Bulk Modulus (GPa) = 49.62618 82.85632 66.24125
# Shear Modulus (GPa) = -25.27043 29.22068 1.97513
#
# Velocity S-wave (km/s) = -3.49200 3.75503 0.97626
# Velocity P-wave (km/s) = 2.77272 7.66694 5.76498
#
# Compressibility (1/GPa) = 0.02015065
#
# Stress axis : x y z
#
# Youngs Moduli (GPa) = 80.50335 73.08809 43.77022
#
# Poissons Ratio (x) = -0.04284 0.59973
# Poissons Ratio (y) = -0.04718 0.05621
# Poissons Ratio (z) = 1.10304 0.09386
#
# Static dielectric constant tensor:
#      x y z
#    x 1.749750 0.000000 0.000000 
#    y 0.000000 1.815810 0.000000 
#    z 0.000000 0.000000 1.688740 
# 
# From -- ./inp_files/13176.got.cif
#   From: 2010.05.17/outbox.cif.g08.bks.cpg/sg47_7_cif.got.tgz:13176.got - 2010.06.03 20:15:42.
