data_PCOD9388455
_publ_section_title
;
Structure prediction by ZEFSAII (Michael W. Deem and Ramdas Pophale) SiO2 
 PCOD9388455
Probable space group: P M M M
;
_chemical_formula_sum "Si O2"
_cell_formula_units_Z 40
_cell_length_a 16.562028
_cell_length_b 7.701413
_cell_length_c 14.234950
_cell_angle_alpha 90.000000
_cell_angle_beta 90.000000
_cell_angle_gamma 90.000000
_cell_volume 1815.682360
_symmetry_space_group_name_H-M "P M M M"
_symmetry_group_IT_number 47
_symmetry_cell_setting 'orthorhombic'
loop_
_space_group_symop_operation_xyz
x,y,z
-x,-y,z
x,-y,-z
-x,y,-z
-x,-y,-z
x,y,-z
-x,y,z
x,-y,z
loop_
_atom_site_type_symbol
_atom_site_label
_atom_site_fract_x
_atom_site_fract_y
_atom_site_fract_z
Si Si1 0.000000 0.713194 0.891115
Si Si2 0.236882 0.790372 0.393489
Si Si3 0.161381 0.704470 0.209131
Si Si4 0.413160 0.795535 0.385529
Si Si5 0.673668 0.792404 0.893580
Si Si6 0.500000 0.796941 0.115294
O O1 0.081184 0.775947 0.839763
O O2 0.000000 0.500000 0.888262
O O3 0.000000 0.763401 0.000000
O O4 0.222585 0.730967 0.500000
O O5 0.169226 0.742123 0.319295
O O6 0.325359 0.723603 0.359678
O O7 0.242936 0.000000 0.395573
O O8 0.159156 0.500000 0.195181
O O9 0.244999 0.765315 0.163254
O O10 0.412877 0.790000 0.500000
O O11 0.500000 0.721703 0.354635
O O12 0.413570 0.000000 0.359095
O O13 0.587366 0.723671 0.855284
O O14 0.662795 0.000000 0.899205
O O15 0.684754 0.725638 0.000000
O O16 0.500000 0.000000 0.143049
O O17 0.500000 0.790348 0.000000
#
# Coordination Sequence:
#
# PCOD9388455 Si02
#       6
#     4   8   8   8   8   4
#     4   9  20  40  62  81 104 138 181 223 268 331
#     4   9  18  34  55  78 108 145 184 228 273 318
#     4  11  22  36  56  81 108 141 180 227 279 331
#     4   7  10  20  42  70  96 127 173 221 256 291
#     4   9  17  32  55  81 109 141 179 222 267 320
#     4   7  12  26  49  75 104 141 180 215 255 312
#
# _framework density 22.030284000000002
#
# number of rings (size 3 to 8) (size 9 to 14) (size 15 to 20)
#    0.000    3.200    0.000    4.200    0.000    1.600 
#    1.800    3.000    0.000    8.400    0.000    2.800 
#    0.000    0.000    0.000    0.000    0.000    0.000 
#
# Total GULP energy -223109.400312 kJ/mol
# GULP energy per Si atom -5577.735008 kJ/mol
# Density = 2.198014 g / cm^3
# Si number density = 22.030284 Si / 1000 Ang^3
#
#
#
# Elastic Constant Matrix: (Units=GPa)
#
#
# Indices 1 2 3 4 5 6 
#
# 1 192.0948 7.8809 98.8820 0.0000 0.0000 0.0000
# 2 7.8809 33.4489 -4.8540 0.0000 0.0000 0.0000
# 3 98.8820 -4.8540 102.6528 0.0000 0.0000 0.0000
# 4 0.0000 0.0000 0.0000 20.1858 0.0000 0.0000
# 5 0.0000 0.0000 0.0000 0.0000 41.4007 0.0000
# 6 0.0000 0.0000 0.0000 0.0000 0.0000 19.7164
#
#
#
# Elastic Compliance Matrix: (Units=1/GPa)
#
#
# Indices 1 2 3 4 5 6 
#
# 1 0.010858 -0.004104 -0.010653 0.000000 0.000000 0.000000
# 2 -0.004104 0.031654 0.005450 0.000000 0.000000 0.000000
# 3 -0.010653 0.005450 0.020261 0.000000 0.000000 0.000000
# 4 0.000000 0.000000 0.000000 0.049540 0.000000 0.000000
# 5 0.000000 0.000000 0.000000 0.000000 0.024154 0.000000
# 6 0.000000 0.000000 0.000000 0.000000 0.000000 0.050719
#
#
# Mechanical properties :
#
#
# Convention : Reuss Voigt Hill
#
# Bulk Modulus (GPa) = 22.64539 59.11270 40.87905
# Shear Modulus (GPa) = 22.67364 31.34641 27.01002
#
# Velocity S-wave (km/s) = 3.21160 3.77620 3.50528
# Velocity P-wave (km/s) = 4.90449 6.77522 5.91429
#
# Compressibility (1/GPa) = 0.04415909
#
# Stress axis : x y z
#
# Youngs Moduli (GPa) = 92.09882 31.59130 49.35567
#
# Poissons Ratio (x) = 0.12966 0.52579
# Poissons Ratio (y) = 0.37799 -0.26900
# Poissons Ratio (z) = 0.98114 -0.17218
#
# Static dielectric constant tensor:
#      x y z
#    x 1.831760 0.000000 0.000000 
#    y 0.000000 1.843490 0.000000 
#    z 0.000000 0.000000 1.854220 
# 
# From -- ./inp_files/23387.got.cif
#   From: 2010.05.17/outbox.cif.g08.bks.cpg/sg47_12_cif.got.tgz:23387.got - 2010.06.03 20:15:42.
