data_PCOD9388865
_publ_section_title
;
Structure prediction by ZEFSAII (Michael W. Deem and Ramdas Pophale) SiO2 
 PCOD9388865
Probable space group: P M M M
;
_chemical_formula_sum "Si O2"
_cell_formula_units_Z 36
_cell_length_a 7.383958
_cell_length_b 24.503551
_cell_length_c 9.778974
_cell_angle_alpha 90.000000
_cell_angle_beta 90.000000
_cell_angle_gamma 90.000000
_cell_volume 1769.340975
_symmetry_space_group_name_H-M "P M M M"
_symmetry_group_IT_number 47
_symmetry_cell_setting 'orthorhombic'
loop_
_space_group_symop_operation_xyz
x,y,z
-x,-y,z
x,-y,-z
-x,y,-z
-x,-y,-z
x,y,-z
-x,y,z
x,-y,z
loop_
_atom_site_type_symbol
_atom_site_label
_atom_site_fract_x
_atom_site_fract_y
_atom_site_fract_z
Si Si1 0.715602 0.400524 0.344161
Si Si2 0.216835 0.277012 0.344541
Si Si3 0.778522 0.177761 0.841212
Si Si4 0.721872 0.500000 0.157257
Si Si5 0.218201 0.058677 0.836452
O O1 0.787231 0.405742 0.500000
O O2 0.500000 0.408153 0.353113
O O3 0.746591 0.338583 0.296260
O O4 0.782209 0.446592 0.240992
O O5 0.286268 0.272583 0.500000
O O6 0.284057 0.228708 0.248076
O O7 0.000000 0.271381 0.350188
O O8 0.719307 0.118030 0.786930
O O9 0.000000 0.177457 0.840112
O O10 0.725180 0.183238 0.000000
O O11 0.500000 0.500000 0.155610
O O12 0.780251 0.500000 0.000000
O O13 0.000000 0.058084 0.820243
O O14 0.285506 0.000000 0.782665
O O15 0.252683 0.058990 0.000000
#
# Coordination Sequence:
#
# PCOD9388865 Si02
#       5
#     8   8   8   4   8
#     4   9  17  30  47  63  79 103 134 161 186 225
#     4   9  17  28  41  58  81 107 132 159 193 230
#     4   8  13  21  34  52  74 102 133 161 192 232
#     4   9  17  29  46  67  86 102 124 159 200 232
#     4   7   9  14  26  45  68  94 126 161 191 222
#
# _framework density 20.346558000000002
#
# number of rings (size 3 to 8) (size 9 to 14) (size 15 to 20)
#    0.000    3.667    0.000    2.333    0.000    2.222 
#    0.000    0.556    0.000    4.000    0.000    4.667 
#    0.000    0.889    0.000   11.111    0.000   10.222 
#
# Total GULP energy -200543.521663 kJ/mol
# GULP energy per Si atom -5570.653380 kJ/mol
# Density = 2.030025 g / cm^3
# Si number density = 20.346558 Si / 1000 Ang^3
#
#
#
# Elastic Constant Matrix: (Units=GPa)
#
#
# Indices 1 2 3 4 5 6 
#
# 1 68.8489 2.2015 4.7646 0.0000 0.0000 0.0000
# 2 2.2015 267.4803 115.5750 0.0000 0.0000 0.0000
# 3 4.7646 115.5750 75.3155 0.0000 0.0000 0.0000
# 4 0.0000 0.0000 0.0000 152.7225 0.0000 0.0000
# 5 0.0000 0.0000 0.0000 0.0000 -5.8053 0.0000
# 6 0.0000 0.0000 0.0000 0.0000 0.0000 19.3489
#
#
#
# Elastic Compliance Matrix: (Units=1/GPa)
#
#
# Indices 1 2 3 4 5 6 
#
# 1 0.014650 0.000831 -0.002201 0.000000 0.000000 0.000000
# 2 0.000831 0.011143 -0.017152 0.000000 0.000000 0.000000
# 3 -0.002201 -0.017152 0.039737 0.000000 0.000000 0.000000
# 4 0.000000 0.000000 0.000000 0.006548 0.000000 0.000000
# 5 0.000000 0.000000 0.000000 0.000000 -0.172256 0.000000
# 6 0.000000 0.000000 0.000000 0.000000 0.000000 0.051682
#
#
# Mechanical properties :
#
#
# Convention : Reuss Voigt Hill
#
# Bulk Modulus (GPa) = 35.10634 72.96966 54.03800
# Shear Modulus (GPa) = -2556.21635 52.52679 -1251.84478
#
# Velocity S-wave (km/s) = -35.48332 5.08646 -24.83137
# Velocity P-wave (km/s) = 40.76105 8.39270 28.20483
#
# Compressibility (1/GPa) = 0.02848488
#
# Stress axis : x y z
#
# Youngs Moduli (GPa) = 68.25771 89.74436 25.16567
#
# Poissons Ratio (x) = -0.07455 0.05540
# Poissons Ratio (y) = -0.05670 0.43163
# Poissons Ratio (z) = 0.15027 1.53926
#
# Static dielectric constant tensor:
#      x y z
#    x 1.798210 0.000000 0.000000 
#    y 0.000000 1.746560 0.000000 
#    z 0.000000 0.000000 1.684770 
# 
# From -- ./inp_files/3908.got.cif
#   From: 2010.05.17/outbox.cif.g08.bks.cpg/sg47_2_cif.got.tgz:3908.got - 2010.06.03 20:15:42.
