data_PCOD9388401
_publ_section_title
;
Structure prediction by ZEFSAII (Michael W. Deem and Ramdas Pophale) SiO2 
 PCOD9388401
Probable space group: P M M M
;
_chemical_formula_sum "Si O2"
_cell_formula_units_Z 52
_cell_length_a 18.343786
_cell_length_b 10.925586
_cell_length_c 14.932881
_cell_angle_alpha 90.000000
_cell_angle_beta 90.000000
_cell_angle_gamma 90.000000
_cell_volume 2992.797410
_symmetry_space_group_name_H-M "P M M M"
_symmetry_group_IT_number 47
_symmetry_cell_setting 'orthorhombic'
loop_
_space_group_symop_operation_xyz
x,y,z
-x,-y,z
x,-y,-z
-x,y,-z
-x,-y,-z
x,y,-z
-x,y,z
x,-y,z
loop_
_atom_site_type_symbol
_atom_site_label
_atom_site_fract_x
_atom_site_fract_y
_atom_site_fract_z
Si Si1 0.912981 0.000000 0.896058
Si Si2 0.084905 0.852124 0.602422
Si Si3 0.663574 0.854252 0.217843
Si Si4 0.413127 0.360703 0.107188
Si Si5 0.918198 0.644962 0.100800
Si Si6 0.416240 0.852001 0.400827
Si Si7 0.166509 0.796067 0.779296
O O1 0.881204 0.112846 0.840675
O O2 0.000000 0.000000 0.893500
O O3 0.889879 0.000000 0.000000
O O4 0.102956 0.817436 0.500000
O O5 0.136592 0.799462 0.678611
O O6 0.000000 0.820210 0.619058
O O7 0.089932 0.000000 0.607913
O O8 0.626857 0.754315 0.152667
O O9 0.633889 0.822171 0.317021
O O10 0.750206 0.835683 0.215922
O O11 0.647185 0.000000 0.199864
O O12 0.500000 0.350702 0.124676
O O13 0.390604 0.500000 0.135538
O O14 0.402712 0.354444 0.000000
O O15 0.922974 0.500000 0.093373
O O16 0.854672 0.672277 0.170741
O O17 0.000000 0.688168 0.128122
O O18 0.904102 0.694122 0.000000
O O19 0.392737 0.809504 0.500000
O O20 0.500000 0.811759 0.385898
O O21 0.417651 0.000000 0.404071
#
# Coordination Sequence:
#
# PCOD9388401 Si02
#       7
#     4   8   8   8   8   8   8
#     4  11  22  34  49  69  98 141 183 217 257 308
#     4   9  17  30  49  71  97 134 180 224 262 309
#     4  11  22  34  50  83 119 146 175 217 273 326
#     4   9  20  40  62  80 102 141 189 226 262 318
#     4   9  19  36  56  75  95 129 183 237 276 316
#     4   8  15  30  53  78 105 140 179 217 260 316
#     4  12  21  33  49  76 110 142 172 212 273 327
#
# _framework density 17.375049000000001
#
# number of rings (size 3 to 8) (size 9 to 14) (size 15 to 20)
#    0.000    2.231    1.538    4.154    0.000    4.923 
#    0.000    3.846    0.000    0.923    0.000    6.462 
#    0.000    0.000    0.000    0.000    0.000    0.000 
#
# Total GULP energy -289640.619346 kJ/mol
# GULP energy per Si atom -5570.011911 kJ/mol
# Density = 1.733550 g / cm^3
# Si number density = 17.375049 Si / 1000 Ang^3
#
#
#
# Elastic Constant Matrix: (Units=GPa)
#
#
# Indices 1 2 3 4 5 6 
#
# 1 75.7327 39.1177 58.6084 0.0000 0.0000 0.0000
# 2 39.1177 73.8089 43.0099 0.0000 0.0000 0.0000
# 3 58.6084 43.0099 102.4414 0.0000 0.0000 0.0000
# 4 0.0000 0.0000 0.0000 -7.0933 0.0000 0.0000
# 5 0.0000 0.0000 0.0000 0.0000 -41.0050 0.0000
# 6 0.0000 0.0000 0.0000 0.0000 0.0000 19.3535
#
#
#
# Elastic Compliance Matrix: (Units=1/GPa)
#
#
# Indices 1 2 3 4 5 6 
#
# 1 0.026025 -0.006774 -0.012045 0.000000 0.000000 0.000000
# 2 -0.006774 0.019700 -0.004396 0.000000 0.000000 0.000000
# 3 -0.012045 -0.004396 0.018498 0.000000 0.000000 0.000000
# 4 0.000000 0.000000 0.000000 -0.140978 0.000000 0.000000
# 5 0.000000 0.000000 0.000000 0.000000 -0.024387 0.000000
# 6 0.000000 0.000000 0.000000 0.000000 0.000000 0.051670
#
#
# Mechanical properties :
#
#
# Convention : Reuss Voigt Hill
#
# Bulk Modulus (GPa) = 56.19902 59.27278 57.73590
# Shear Modulus (GPa) = 1731.17530 1.66751 866.42141
#
# Velocity S-wave (km/s) = 31.59937 0.98071 22.35489
# Velocity P-wave (km/s) = 36.92932 5.95569 26.45038
#
# Compressibility (1/GPa) = 0.01779390
#
# Stress axis : x y z
#
# Youngs Moduli (GPa) = 38.42495 50.76167 54.05858
#
# Poissons Ratio (x) = 0.34385 0.65115
# Poissons Ratio (y) = 0.26028 0.23762
# Poissons Ratio (z) = 0.46284 0.22313
#
# Static dielectric constant tensor:
#      x y z
#    x 1.568420 0.000000 0.000000 
#    y 0.000000 1.714810 0.000000 
#    z 0.000000 0.000000 1.596100 
# 
# From -- ./inp_files/23656.got.cif
#   From: 2010.05.17/outbox.cif.g08.bks.cpg/sg47_12_cif.got.tgz:23656.got - 2010.06.03 20:15:42.
