data_PCOD9388057
_publ_section_title
;
Structure prediction by ZEFSAII (Michael W. Deem and Ramdas Pophale) SiO2 
 PCOD9388057
Probable space group: P M M M
;
_chemical_formula_sum "Si O2"
_cell_formula_units_Z 52
_cell_length_a 8.385113
_cell_length_b 15.419494
_cell_length_c 20.544552
_cell_angle_alpha 90.000000
_cell_angle_beta 90.000000
_cell_angle_gamma 90.000000
_cell_volume 2656.291407
_symmetry_space_group_name_H-M "P M M M"
_symmetry_group_IT_number 47
_symmetry_cell_setting 'orthorhombic'
loop_
_space_group_symop_operation_xyz
x,y,z
-x,-y,z
x,-y,-z
-x,y,-z
-x,-y,-z
x,y,-z
-x,y,z
x,-y,z
loop_
_atom_site_type_symbol
_atom_site_label
_atom_site_fract_x
_atom_site_fract_y
_atom_site_fract_z
Si Si1 0.308845 0.594108 0.709882
Si Si2 0.809987 0.100615 0.769086
Si Si3 0.315322 0.829488 0.631820
Si Si4 0.192090 0.598613 0.076362
Si Si5 0.179053 0.000000 0.575673
Si Si6 0.187646 0.655136 0.425607
Si Si7 0.310553 0.730239 0.816984
O O1 0.500000 0.594824 0.716140
O O2 0.248861 0.500000 0.732991
O O3 0.267446 0.604063 0.633903
O O4 0.249421 0.673837 0.754286
O O5 0.734077 0.142445 0.704301
O O6 0.764980 0.174115 0.821508
O O7 0.000000 0.098677 0.761917
O O8 0.756792 0.000000 0.778371
O O9 0.500000 0.802964 0.631187
O O10 0.279503 0.916554 0.593532
O O11 0.215328 0.754129 0.597341
O O12 0.241123 0.500000 0.093931
O O13 0.271827 0.669682 0.121824
O O14 0.000000 0.603715 0.083537
O O15 0.228528 0.611278 0.000000
O O16 0.155670 0.000000 0.500000
O O17 0.000000 0.000000 0.607313
O O18 0.247085 0.642183 0.500000
O O19 0.000000 0.635503 0.425736
O O20 0.500000 0.741160 0.809949
#
# Coordination Sequence:
#
# PCOD9388057 Si02
#       7
#     8   8   8   8   4   8   8
#     4  10  22  39  58  83 115 151 193 242 298 359
#     4  11  23  39  61  86 116 154 197 244 294 352
#     4  12  23  36  56  80 107 141 184 238 301 362
#     4   9  19  37  62  94 132 172 210 244 284 342
#     4  11  23  37  53  75 105 141 182 233 296 363
#     4  11  24  40  57  77 105 145 194 246 299 358
#     4  11  22  37  61  92 125 160 198 244 297 352
#
# _framework density 19.576165
#
# number of rings (size 3 to 8) (size 9 to 14) (size 15 to 20)
#    0.000    1.308    2.308    4.385    0.000    7.077 
#    0.000    2.308    0.000    0.462    0.000    3.231 
#    0.000    0.000    0.000    0.000    0.000    0.000 
#
# Total GULP energy -290291.712173 kJ/mol
# GULP energy per Si atom -5582.532926 kJ/mol
# Density = 1.953161 g / cm^3
# Si number density = 19.576165 Si / 1000 Ang^3
#
#
#
# Elastic Constant Matrix: (Units=GPa)
#
#
# Indices 1 2 3 4 5 6 
#
# 1 30.4935 4.6751 5.9491 0.0000 0.0000 0.0000
# 2 4.6751 119.4602 37.0173 0.0000 0.0000 0.0000
# 3 5.9491 37.0173 68.8844 0.0000 0.0000 0.0000
# 4 0.0000 0.0000 0.0000 27.1902 0.0000 0.0000
# 5 0.0000 0.0000 0.0000 0.0000 31.2978 0.0000
# 6 0.0000 0.0000 0.0000 0.0000 0.0000 25.0752
#
#
#
# Elastic Compliance Matrix: (Units=1/GPa)
#
#
# Indices 1 2 3 4 5 6 
#
# 1 0.033380 -0.000496 -0.002617 0.000000 0.000000 0.000000
# 2 -0.000496 0.010051 -0.005358 0.000000 0.000000 0.000000
# 3 -0.002617 -0.005358 0.017623 0.000000 0.000000 0.000000
# 4 0.000000 0.000000 0.000000 0.036778 0.000000 0.000000
# 5 0.000000 0.000000 0.000000 0.000000 0.031951 0.000000
# 6 0.000000 0.000000 0.000000 0.000000 0.000000 0.039880
#
#
# Mechanical properties :
#
#
# Convention : Reuss Voigt Hill
#
# Bulk Modulus (GPa) = 22.66917 34.90233 28.78575
# Shear Modulus (GPa) = 24.83759 28.12574 26.48167
#
# Velocity S-wave (km/s) = 3.56584 3.79454 3.68197
# Velocity P-wave (km/s) = 5.34404 6.08816 5.72820
#
# Compressibility (1/GPa) = 0.04411278
#
# Stress axis : x y z
#
# Youngs Moduli (GPa) = 29.95781 99.49486 56.74561
#
# Poissons Ratio (x) = 0.04931 0.14848
# Poissons Ratio (y) = 0.01485 0.30406
# Poissons Ratio (z) = 0.07838 0.53312
#
# Static dielectric constant tensor:
#      x y z
#    x 1.696360 0.000000 0.000000 
#    y 0.000000 1.754240 0.000000 
#    z 0.000000 0.000000 1.703900 
# 
# From -- ./inp_files/29589.got.cif
#   From: 2010.05.17/outbox.cif.g08.bks.cpg/sg47_15_cif.got.tgz:29589.got - 2010.06.03 20:15:42.
