data_PCOD9388182
_publ_section_title
;
Structure prediction by ZEFSAII (Michael W. Deem and Ramdas Pophale) SiO2 
 PCOD9388182
Probable space group: P M M M
;
_chemical_formula_sum "Si O2"
_cell_formula_units_Z 40
_cell_length_a 9.053649
_cell_length_b 21.489055
_cell_length_c 14.698145
_cell_angle_alpha 90.000000
_cell_angle_beta 90.000000
_cell_angle_gamma 90.000000
_cell_volume 2859.588213
_symmetry_space_group_name_H-M "P M M M"
_symmetry_group_IT_number 47
_symmetry_cell_setting 'orthorhombic'
loop_
_space_group_symop_operation_xyz
x,y,z
-x,-y,z
x,-y,-z
-x,y,-z
-x,-y,-z
x,y,-z
-x,y,z
x,-y,z
loop_
_atom_site_type_symbol
_atom_site_label
_atom_site_fract_x
_atom_site_fract_y
_atom_site_fract_z
Si Si1 0.678296 0.880881 0.705176
Si Si2 0.171020 0.374697 0.610552
Si Si3 0.824262 0.000000 0.608980
Si Si4 0.329749 0.500000 0.610780
Si Si5 0.178205 0.764055 0.608045
Si Si6 0.320736 0.072342 0.100646
O O1 0.500000 0.883260 0.698780
O O2 0.740622 0.817759 0.662702
O O3 0.723137 0.888936 0.811068
O O4 0.747857 0.939157 0.651372
O O5 0.175824 0.374619 0.500000
O O6 0.255736 0.435866 0.642450
O O7 0.224569 0.305839 0.637176
O O8 0.000000 0.380317 0.636676
O O9 0.806321 0.000000 0.500000
O O10 0.000000 0.000000 0.628614
O O11 0.500000 0.500000 0.635174
O O12 0.318507 0.500000 0.500000
O O13 0.208311 0.771109 0.500000
O O14 0.000000 0.768470 0.618668
O O15 0.500000 0.072615 0.099271
O O16 0.276443 0.000000 0.113204
O O17 0.270480 0.092822 0.000000
#
# Coordination Sequence:
#
# PCOD9388182 Si02
#       6
#     8   8   4   4   8   8
#     4  11  20  30  46  66  81  99 133 175 211 241
#     4   8  14  25  39  52  70 103 143 170 190 231
#     4  11  23  35  44  55  78 112 141 165 200 245
#     4   9  15  21  33  55  79  99 126 171 216 237
#     4   9  18  31  43  56  80 115 146 168 199 244
#     4   8  14  27  46  64  81 100 124 159 206 258
#
# _framework density 13.988028
#
# number of rings (size 3 to 8) (size 9 to 14) (size 15 to 20)
#    0.000    2.800    1.000    3.600    0.000    5.600 
#    0.000    2.000    0.000    3.000    0.000    0.000 
#    0.000    0.000    0.000    0.900    0.000   18.300 
#
# Total GULP energy -222701.244586 kJ/mol
# GULP energy per Si atom -5567.531115 kJ/mol
# Density = 1.395619 g / cm^3
# Si number density = 13.988028 Si / 1000 Ang^3
#
#
#
# Elastic Constant Matrix: (Units=GPa)
#
#
# Indices 1 2 3 4 5 6 
#
# 1 46.2925 59.9329 33.4976 0.0000 0.0000 0.0000
# 2 59.9329 152.2108 57.5712 0.0000 0.0000 0.0000
# 3 33.4976 57.5712 74.3397 0.0000 0.0000 0.0000
# 4 0.0000 0.0000 0.0000 1.2559 0.0000 0.0000
# 5 0.0000 0.0000 0.0000 0.0000 2.9797 0.0000
# 6 0.0000 0.0000 0.0000 0.0000 0.0000 5.9456
#
#
#
# Elastic Compliance Matrix: (Units=1/GPa)
#
#
# Indices 1 2 3 4 5 6 
#
# 1 0.048869 -0.015434 -0.010068 0.000000 0.000000 0.000000
# 2 -0.015434 0.014166 -0.004016 0.000000 0.000000 0.000000
# 3 -0.010068 -0.004016 0.021098 0.000000 0.000000 0.000000
# 4 0.000000 0.000000 0.000000 0.796212 0.000000 0.000000
# 5 0.000000 0.000000 0.000000 0.000000 0.335607 0.000000
# 6 0.000000 0.000000 0.000000 0.000000 0.000000 0.168192
#
#
# Mechanical properties :
#
#
# Convention : Reuss Voigt Hill
#
# Bulk Modulus (GPa) = 39.84451 63.87184 51.85817
# Shear Modulus (GPa) = 3.44461 10.15899 6.80180
#
# Velocity S-wave (km/s) = 1.57095 2.69785 2.20752
# Velocity P-wave (km/s) = 5.64243 7.44751 6.60691
#
# Compressibility (1/GPa) = 0.02509756
#
# Stress axis : x y z
#
# Youngs Moduli (GPa) = 20.46307 70.59178 47.39701
#
# Poissons Ratio (x) = 1.08951 0.47718
# Poissons Ratio (y) = 0.31583 0.19035
# Poissons Ratio (z) = 0.20601 0.28350
#
# Static dielectric constant tensor:
#      x y z
#    x 1.467700 0.000000 0.000000 
#    y 0.000000 1.462010 0.000000 
#    z 0.000000 0.000000 1.448750 
# 
# From -- ./inp_files/10814.got.cif
#   From: 2010.05.17/outbox.cif.g08.bks.cpg/sg47_6_cif.got.tgz:10814.got - 2010.06.03 20:15:42.
