data_PCOD9388245
_publ_section_title
;
Structure prediction by ZEFSAII (Michael W. Deem and Ramdas Pophale) SiO2 
 PCOD9388245
Probable space group: P M M M
;
_chemical_formula_sum "Si O2"
_cell_formula_units_Z 44
_cell_length_a 21.870081
_cell_length_b 14.180319
_cell_length_c 8.076823
_cell_angle_alpha 90.000000
_cell_angle_beta 90.000000
_cell_angle_gamma 90.000000
_cell_volume 2504.822513
_symmetry_space_group_name_H-M "P M M M"
_symmetry_group_IT_number 47
_symmetry_cell_setting 'orthorhombic'
loop_
_space_group_symop_operation_xyz
x,y,z
-x,-y,z
x,-y,-z
-x,y,-z
-x,-y,-z
x,y,-z
-x,y,z
x,-y,z
loop_
_atom_site_type_symbol
_atom_site_label
_atom_site_fract_x
_atom_site_fract_y
_atom_site_fract_z
Si Si1 0.000000 0.890483 0.202738
Si Si2 0.568432 0.609203 0.199956
Si Si3 0.813086 0.394793 0.803598
Si Si4 0.749290 0.894243 0.799836
Si Si5 0.691717 0.704598 0.306966
Si Si6 0.125655 0.205640 0.797648
O O1 0.938750 0.836543 0.257103
O O2 0.000000 0.000000 0.253900
O O3 0.000000 0.890449 0.000000
O O4 0.500000 0.638186 0.253318
O O5 0.577436 0.500000 0.250794
O O6 0.624073 0.671110 0.263154
O O7 0.569441 0.611150 0.000000
O O8 0.820618 0.500000 0.733294
O O9 0.743681 0.357903 0.782458
O O10 0.856674 0.310908 0.738858
O O11 0.824589 0.400367 0.000000
O O12 0.704083 0.812998 0.739347
O O13 0.817567 0.861309 0.750345
O O14 0.736236 0.000000 0.741970
O O15 0.747817 0.893872 0.000000
O O16 0.702559 0.691707 0.500000
O O17 0.124734 0.207649 0.000000
#
# Coordination Sequence:
#
# PCOD9388245 Si02
#       6
#     4   8   8   8   8   8
#     4   9  14  20  35  61  92 119 143 183 240 291
#     4   9  18  33  52  72  95 125 158 188 220 265
#     4   9  17  30  46  62  86 122 160 195 229 270
#     4   9  17  31  50  68  89 121 159 194 228 272
#     4  11  21  30  45  71  99 123 149 188 235 276
#     4   8  14  24  39  63  91 117 148 186 231 281
#
# _framework density 17.566115
#
# number of rings (size 3 to 8) (size 9 to 14) (size 15 to 20)
#    0.000    2.818    0.000    4.364    0.000    5.818 
#    0.000    1.364    0.000    3.273    0.000   14.000 
#    0.000   23.273    0.000    0.000    0.000    0.000 
#
# Total GULP energy -245276.887006 kJ/mol
# GULP energy per Si atom -5574.474705 kJ/mol
# Density = 1.752613 g / cm^3
# Si number density = 17.566115 Si / 1000 Ang^3
#
#
#
# Elastic Constant Matrix: (Units=GPa)
#
#
# Indices 1 2 3 4 5 6 
#
# 1 136.5011 84.3390 0.8472 0.0000 0.0000 0.0000
# 2 84.3390 149.1855 4.4146 0.0000 0.0000 0.0000
# 3 0.8472 4.4146 9.9259 0.0000 0.0000 0.0000
# 4 0.0000 0.0000 0.0000 -6.4424 0.0000 0.0000
# 5 0.0000 0.0000 0.0000 0.0000 -17.8837 0.0000
# 6 0.0000 0.0000 0.0000 0.0000 0.0000 18.6731
#
#
#
# Elastic Compliance Matrix: (Units=1/GPa)
#
#
# Indices 1 2 3 4 5 6 
#
# 1 0.011294 -0.006441 0.001901 0.000000 0.000000 0.000000
# 2 -0.006441 0.010466 -0.004105 0.000000 0.000000 0.000000
# 3 0.001901 -0.004105 0.102410 0.000000 0.000000 0.000000
# 4 0.000000 0.000000 0.000000 -0.155220 0.000000 0.000000
# 5 0.000000 0.000000 0.000000 0.000000 -0.055917 0.000000
# 6 0.000000 0.000000 0.000000 0.000000 0.000000 0.053553
#
#
# Mechanical properties :
#
#
# Convention : Reuss Voigt Hill
#
# Bulk Modulus (GPa) = 9.35634 52.75713 31.05673
# Shear Modulus (GPa) = 256.37893 12.60350 134.49122
#
# Velocity S-wave (km/s) = 12.09412 2.68151 8.75951
# Velocity P-wave (km/s) = 14.15491 6.29968 10.95553
#
# Compressibility (1/GPa) = 0.10687937
#
# Stress axis : x y z
#
# Youngs Moduli (GPa) = 88.54434 95.54931 9.76465
#
# Poissons Ratio (x) = 0.61543 -0.01856
# Poissons Ratio (y) = 0.57031 0.04008
# Poissons Ratio (z) = -0.16829 0.39222
#
# Static dielectric constant tensor:
#      x y z
#    x 1.576700 0.000000 0.000000 
#    y 0.000000 1.607030 0.000000 
#    z 0.000000 0.000000 1.613870 
# 
# From -- ./inp_files/10876.got.cif
#   From: 2010.05.17/outbox.cif.g08.bks.cpg/sg47_6_cif.got.tgz:10876.got - 2010.06.03 20:15:42.
