data_PCOD9388663
_publ_section_title
;
Structure prediction by ZEFSAII (Michael W. Deem and Ramdas Pophale) SiO2 
 PCOD9388663
Probable space group: P M M M
;
_chemical_formula_sum "Si O2"
_cell_formula_units_Z 37
_cell_length_a 8.050291
_cell_length_b 9.660318
_cell_length_c 23.097472
_cell_angle_alpha 90.000000
_cell_angle_beta 90.000000
_cell_angle_gamma 90.000000
_cell_volume 1796.252773
_symmetry_space_group_name_H-M "P M M M"
_symmetry_group_IT_number 47
_symmetry_cell_setting 'orthorhombic'
loop_
_space_group_symop_operation_xyz
x,y,z
-x,-y,z
x,-y,-z
-x,y,-z
-x,-y,-z
x,y,-z
-x,y,z
x,-y,z
loop_
_atom_site_type_symbol
_atom_site_label
_atom_site_fract_x
_atom_site_fract_y
_atom_site_fract_z
Si Si1 0.696970 0.841623 0.172876
Si Si2 0.186980 0.717547 0.500000
Si Si3 0.196232 0.657851 0.280321
Si Si4 0.200913 0.341816 0.933359
Si Si5 0.500000 0.500000 0.500000
Si Si6 0.305380 0.845883 0.615291
O O1 0.500000 0.844952 0.183079
O O2 0.773999 0.746894 0.222836
O O3 0.730949 0.768330 0.111688
O O4 0.759156 0.000000 0.174042
O O5 0.348689 0.617874 0.500000
O O6 0.205123 0.806980 0.558186
O O7 0.000000 0.655830 0.500000
O O8 0.257054 0.500000 0.273481
O O9 0.277684 0.734542 0.334519
O O10 0.000000 0.652994 0.291406
O O11 0.251306 0.500000 0.918377
O O12 0.000000 0.337911 0.930989
O O13 0.250130 0.315585 0.000000
O O14 0.500000 0.846152 0.600301
O O15 0.260676 0.000000 0.636543
#
# Coordination Sequence:
#
# PCOD9388663 Si02
#       6
#     8   4   8   8   1   8
#     4  11  24  40  58  85 121 160 202 251 308 369
#     4  12  26  44  72 101 134 181 225 270 333 395
#     4  11  25  42  63  92 123 160 210 264 317 378
#     4   9  19  37  61  88 118 153 196 247 301 361
#     4  12  26  48  66 102 144 176 216 288 326 386
#     4  11  24  44  68  97 134 173 215 266 325 386
#
# _framework density 20.598438999999999
#
# number of rings (size 3 to 8) (size 9 to 14) (size 15 to 20)
#    0.000    1.297    1.081    4.378    1.514   12.973 
#    0.000    3.243    0.000    0.000    0.000    0.000 
#    0.000    0.000    0.000    0.000    0.000    0.000 
#
# Total GULP energy -206560.600668 kJ/mol
# GULP energy per Si atom -5582.718937 kJ/mol
# Density = 2.055156 g / cm^3
# Si number density = 20.598439 Si / 1000 Ang^3
#
#
#
# Elastic Constant Matrix: (Units=GPa)
#
#
# Indices 1 2 3 4 5 6 
#
# 1 85.3663 30.6763 8.8088 0.0000 0.0000 0.0000
# 2 30.6763 176.9378 69.6976 0.0000 0.0000 0.0000
# 3 8.8088 69.6976 93.0801 0.0000 0.0000 0.0000
# 4 0.0000 0.0000 0.0000-2272.1368 0.0000 0.0000
# 5 0.0000 0.0000 0.0000 0.0000 36.0800 0.0000
# 6 0.0000 0.0000 0.0000 0.0000 0.0000 52.9125
#
#
#
# Elastic Compliance Matrix: (Units=1/GPa)
#
#
# Indices 1 2 3 4 5 6 
#
# 1 0.012518 -0.002416 0.000625 0.000000 0.000000 0.000000
# 2 -0.002416 0.008483 -0.006123 0.000000 0.000000 0.000000
# 3 0.000625 -0.006123 0.015269 0.000000 0.000000 0.000000
# 4 0.000000 0.000000 0.000000 -0.000440 0.000000 0.000000
# 5 0.000000 0.000000 0.000000 0.000000 0.027716 0.000000
# 6 0.000000 0.000000 0.000000 0.000000 0.000000 0.018899
#
#
# Mechanical properties :
#
#
# Convention : Reuss Voigt Hill
#
# Bulk Modulus (GPa) = 48.92259 63.74996 56.33627
# Shear Modulus (GPa) = 47.57925 -420.21544 -186.31810
#
# Velocity S-wave (km/s) = 4.81130 -14.29848 -9.52097
# Velocity P-wave (km/s) = 7.39371 15.54281 9.66727
#
# Compressibility (1/GPa) = 0.02044045
#
# Stress axis : x y z
#
# Youngs Moduli (GPa) = 79.88442 117.88910 65.49145
#
# Poissons Ratio (x) = 0.28486 -0.04091
# Poissons Ratio (y) = 0.19303 0.40100
# Poissons Ratio (z) = -0.04990 0.72183
#
# Static dielectric constant tensor:
#      x y z
#    x 1.740020 0.000000 0.000000 
#    y 0.000000 1.734900 0.000000 
#    z 0.000000 0.000000 1.691360 
# 
# From -- ./inp_files/31689.got.cif
#   From: 2010.05.17/outbox.cif.g08.bks.cpg/sg47_16_cif.got.tgz:31689.got - 2010.06.03 20:15:42.
