data_PCOD9388660
_publ_section_title
;
Structure prediction by ZEFSAII (Michael W. Deem and Ramdas Pophale) SiO2 
 PCOD9388660
Probable space group: P M M M
;
_chemical_formula_sum "Si O2"
_cell_formula_units_Z 48
_cell_length_a 8.139031
_cell_length_b 33.777979
_cell_length_c 9.522531
_cell_angle_alpha 90.000000
_cell_angle_beta 90.000000
_cell_angle_gamma 90.000000
_cell_volume 2617.934396
_symmetry_space_group_name_H-M "P M M M"
_symmetry_group_IT_number 47
_symmetry_cell_setting 'orthorhombic'
loop_
_space_group_symop_operation_xyz
x,y,z
-x,-y,z
x,-y,-z
-x,y,-z
-x,-y,-z
x,y,-z
-x,y,z
x,-y,z
loop_
_atom_site_type_symbol
_atom_site_label
_atom_site_fract_x
_atom_site_fract_y
_atom_site_fract_z
Si Si1 0.804400 0.500000 0.659561
Si Si2 0.197913 0.738798 0.660494
Si Si3 0.695642 0.424736 0.840333
Si Si4 0.697241 0.813241 0.158490
Si Si5 0.690294 0.098552 0.171422
Si Si6 0.000000 0.954329 0.828764
Si Si7 0.801438 0.349590 0.337048
O O1 0.736730 0.500000 0.500000
O O2 0.754439 0.461162 0.745589
O O3 0.000000 0.500000 0.649382
O O4 0.254009 0.744104 0.500000
O O5 0.252102 0.775589 0.752410
O O6 0.252409 0.694758 0.706406
O O7 0.000000 0.738040 0.659981
O O8 0.500000 0.427378 0.848065
O O9 0.740958 0.383847 0.764359
O O10 0.761746 0.426714 0.000000
O O11 0.500000 0.813897 0.150863
O O12 0.741200 0.856857 0.215256
O O13 0.763476 0.809543 0.000000
O O14 0.500000 0.090305 0.214835
O O15 0.832453 0.068122 0.215199
O O16 0.687332 0.099099 0.000000
O O17 0.000000 0.000000 0.784145
O O18 0.000000 0.953716 0.000000
O O19 0.750368 0.356082 0.500000
O O20 0.000000 0.350355 0.336226
#
# Coordination Sequence:
#
# PCOD9388660 Si02
#       7
#     4   8   8   8   8   4   8
#     4  11  24  41  62  86 108 135 174 215 256 306
#     4   9  19  34  51  74 103 133 169 214 258 302
#     4  11  24  39  56  82 113 140 170 212 257 302
#     4   9  18  31  47  69  97 131 170 209 253 308
#     4   8  15  27  40  59  91 126 162 209 259 308
#     4   9  16  24  38  62  89 125 171 209 253 316
#     4   9  19  37  57  76 102 137 175 212 253 305
#
# _framework density 18.335066000000001
#
# number of rings (size 3 to 8) (size 9 to 14) (size 15 to 20)
#    0.000    2.667    0.000    3.500    1.167    7.667 
#    0.000    6.667    0.000    0.000    0.000    0.000 
#    0.000    1.333    0.000    3.667    0.000    3.667 
#
# Total GULP energy -267578.745502 kJ/mol
# GULP energy per Si atom -5574.557198 kJ/mol
# Density = 1.829333 g / cm^3
# Si number density = 18.335066 Si / 1000 Ang^3
#
#
#
# Elastic Constant Matrix: (Units=GPa)
#
#
# Indices 1 2 3 4 5 6 
#
# 1 53.8394 60.7558 30.0073 0.0000 0.0000 0.0000
# 2 60.7558 201.2510 83.8329 0.0000 0.0000 0.0000
# 3 30.0073 83.8329 77.2396 0.0000 0.0000 0.0000
# 4 0.0000 0.0000 0.0000 141.4990 0.0000 0.0000
# 5 0.0000 0.0000 0.0000 0.0000 22.0578 0.0000
# 6 0.0000 0.0000 0.0000 0.0000 0.0000 56.7425
#
#
#
# Elastic Compliance Matrix: (Units=1/GPa)
#
#
# Indices 1 2 3 4 5 6 
#
# 1 0.028591 -0.007309 -0.003175 0.000000 0.000000 0.000000
# 2 -0.007309 0.010938 -0.009032 0.000000 0.000000 0.000000
# 3 -0.003175 -0.009032 0.023983 0.000000 0.000000 0.000000
# 4 0.000000 0.000000 0.000000 0.007067 0.000000 0.000000
# 5 0.000000 0.000000 0.000000 0.000000 0.045335 0.000000
# 6 0.000000 0.000000 0.000000 0.000000 0.000000 0.017623
#
#
# Mechanical properties :
#
#
# Convention : Reuss Voigt Hill
#
# Bulk Modulus (GPa) = 40.84850 75.72468 58.28659
# Shear Modulus (GPa) = 27.66571 54.57547 41.12059
#
# Velocity S-wave (km/s) = 3.88866 5.46171 4.74088
# Velocity P-wave (km/s) = 6.51840 9.00909 7.86299
#
# Compressibility (1/GPa) = 0.02448070
#
# Stress axis : x y z
#
# Youngs Moduli (GPa) = 34.97597 91.42655 41.69626
#
# Poissons Ratio (x) = 0.66823 0.13237
# Poissons Ratio (y) = 0.25564 0.37660
# Poissons Ratio (z) = 0.11104 0.82576
#
# Static dielectric constant tensor:
#      x y z
#    x 1.648320 0.000000 0.000000 
#    y 0.000000 1.635660 0.000000 
#    z 0.000000 0.000000 1.632110 
# 
# From -- ./inp_files/2682.got.cif
#   From: 2010.05.17/outbox.cif.g08.bks.cpg/sg47_2_cif.got.tgz:2682.got - 2010.06.03 20:15:42.
