data_PCOD9388076
_publ_section_title
;
Structure prediction by ZEFSAII (Michael W. Deem and Ramdas Pophale) SiO2 
 PCOD9388076
Probable space group: P M M M
;
_chemical_formula_sum "Si O2"
_cell_formula_units_Z 48
_cell_length_a 15.444174
_cell_length_b 8.583557
_cell_length_c 20.422389
_cell_angle_alpha 90.000000
_cell_angle_beta 90.000000
_cell_angle_gamma 90.000000
_cell_volume 2707.313355
_symmetry_space_group_name_H-M "P M M M"
_symmetry_group_IT_number 47
_symmetry_cell_setting 'orthorhombic'
loop_
_space_group_symop_operation_xyz
x,y,z
-x,-y,z
x,-y,-z
-x,y,-z
-x,-y,-z
x,y,-z
-x,y,z
x,-y,z
loop_
_atom_site_type_symbol
_atom_site_label
_atom_site_fract_x
_atom_site_fract_y
_atom_site_fract_z
Si Si1 0.095527 0.311668 0.734833
Si Si2 0.400907 0.187946 0.424875
Si Si3 0.713296 0.312149 0.691713
Si Si4 0.897630 0.323534 0.000000
Si Si5 0.349460 0.315793 0.832111
Si Si6 0.834600 0.815985 0.133783
Si Si7 0.500000 0.185916 0.923889
O O1 0.098370 0.500000 0.739598
O O2 0.185394 0.263300 0.699049
O O3 0.104538 0.240272 0.807144
O O4 0.000000 0.269844 0.707406
O O5 0.382693 0.235418 0.500000
O O6 0.500000 0.236520 0.409222
O O7 0.333204 0.252599 0.373011
O O8 0.398870 0.000000 0.422850
O O9 0.712851 0.500000 0.692197
O O10 0.658475 0.260642 0.756211
O O11 0.871512 0.229938 0.935898
O O12 0.860422 0.500000 0.000000
O O13 0.000000 0.337879 0.000000
O O14 0.366358 0.500000 0.831158
O O15 0.254316 0.278169 0.858332
O O16 0.418083 0.239245 0.880706
O O17 0.818986 0.000000 0.139177
O O18 0.500000 0.000000 0.927352
O O19 0.500000 0.244115 0.000000
#
# Coordination Sequence:
#
# PCOD9388076 Si02
#       7
#     8   8   8   4   8   8   4
#     4   9  18  35  56  77 106 143 180 219 268 327
#     4   9  19  35  54  79 112 149 183 216 266 329
#     4   9  19  34  55  84 111 139 181 228 267 313
#     4  11  23  37  53  72  97 134 173 211 269 337
#     4  10  22  40  58  78 106 143 184 222 269 329
#     4  11  22  35  53  77 105 132 170 224 275 321
#     4  11  25  41  57  79 108 139 182 235 282 323
#
# _framework density 17.729754
#
# number of rings (size 3 to 8) (size 9 to 14) (size 15 to 20)
#    0.000    2.167    0.000    4.500    2.333    7.667 
#    0.000    0.833    0.000    0.500    0.000    3.500 
#    0.000    0.000    0.000    0.000    0.000    0.000 
#
# Total GULP energy -267633.560818 kJ/mol
# GULP energy per Si atom -5575.699184 kJ/mol
# Density = 1.768940 g / cm^3
# Si number density = 17.729754 Si / 1000 Ang^3
#
#
#
# Elastic Constant Matrix: (Units=GPa)
#
#
# Indices 1 2 3 4 5 6 
#
# 1 106.1261 8.7194 80.3572 0.0000 0.0000 0.0000
# 2 8.7194 13.9790 17.4079 0.0000 0.0000 0.0000
# 3 80.3572 17.4079 128.0710 0.0000 0.0000 0.0000
# 4 0.0000 0.0000 0.0000 35.0305 0.0000 0.0000
# 5 0.0000 0.0000 0.0000 0.0000 4.6178 0.0000
# 6 0.0000 0.0000 0.0000 0.0000 0.0000 40.8367
#
#
#
# Elastic Compliance Matrix: (Units=1/GPa)
#
#
# Indices 1 2 3 4 5 6 
#
# 1 0.018087 0.003431 -0.011815 0.000000 0.000000 0.000000
# 2 0.003431 0.086762 -0.013946 0.000000 0.000000 0.000000
# 3 -0.011815 -0.013946 0.017117 0.000000 0.000000 0.000000
# 4 0.000000 0.000000 0.000000 0.028547 0.000000 0.000000
# 5 0.000000 0.000000 0.000000 0.000000 0.216555 0.000000
# 6 0.000000 0.000000 0.000000 0.000000 0.000000 0.024488
#
#
# Mechanical properties :
#
#
# Convention : Reuss Voigt Hill
#
# Bulk Modulus (GPa) = 12.93548 51.23833 32.08691
# Shear Modulus (GPa) = 10.82291 25.54311 18.18301
#
# Velocity S-wave (km/s) = 2.47338 3.79976 3.20592
# Velocity P-wave (km/s) = 3.93301 6.94358 5.64278
#
# Compressibility (1/GPa) = 0.07730676
#
# Stress axis : x y z
#
# Youngs Moduli (GPa) = 55.28872 11.52577 58.42188
#
# Poissons Ratio (x) = -0.03955 0.69025
# Poissons Ratio (y) = -0.18971 0.81474
# Poissons Ratio (z) = 0.65323 0.16074
#
# Static dielectric constant tensor:
#      x y z
#    x 1.640670 0.000000 0.000000 
#    y 0.000000 1.606930 0.000000 
#    z 0.000000 0.000000 1.599150 
# 
# From -- ./inp_files/21092.got.cif
#   From: 2010.05.17/outbox.cif.g08.bks.cpg/sg47_11_cif.got.tgz:21092.got - 2010.06.03 20:15:42.
