data_PCOD9388256
_publ_section_title
;
Structure prediction by ZEFSAII (Michael W. Deem and Ramdas Pophale) SiO2 
 PCOD9388256
Probable space group: P M M M
;
_chemical_formula_sum "Si O2"
_cell_formula_units_Z 56
_cell_length_a 19.203282
_cell_length_b 7.806701
_cell_length_c 19.813822
_cell_angle_alpha 90.000000
_cell_angle_beta 90.000000
_cell_angle_gamma 90.000000
_cell_volume 2970.374875
_symmetry_space_group_name_H-M "P M M M"
_symmetry_group_IT_number 47
_symmetry_cell_setting 'orthorhombic'
loop_
_space_group_symop_operation_xyz
x,y,z
-x,-y,z
x,-y,-z
-x,y,-z
-x,-y,-z
x,y,-z
-x,y,z
x,-y,z
loop_
_atom_site_type_symbol
_atom_site_label
_atom_site_fract_x
_atom_site_fract_y
_atom_site_fract_z
Si Si1 0.722257 0.801703 0.140249
Si Si2 0.074516 0.197181 0.581143
Si Si3 0.772526 0.696019 0.424778
Si Si4 0.861165 0.699662 0.074433
Si Si5 0.423036 0.293132 0.078276
Si Si6 0.921980 0.709860 0.784065
Si Si7 0.219778 0.706889 0.283171
O O1 0.779402 0.707280 0.093923
O O2 0.643485 0.769020 0.118742
O O3 0.735729 0.750537 0.217423
O O4 0.738870 0.000000 0.132131
O O5 0.068948 0.189094 0.500000
O O6 0.144288 0.303565 0.589786
O O7 0.000000 0.265148 0.606696
O O8 0.083424 0.000000 0.603908
O O9 0.761751 0.773318 0.500000
O O10 0.747906 0.500000 0.428772
O O11 0.748681 0.775369 0.353712
O O12 0.881093 0.500000 0.070792
O O13 0.901583 0.768716 0.140044
O O14 0.873047 0.775689 0.000000
O O15 0.500000 0.237118 0.101960
O O16 0.422282 0.500000 0.079610
O O17 0.415843 0.240150 0.000000
O O18 0.920829 0.500000 0.783765
O O19 0.859087 0.765990 0.735247
O O20 0.000000 0.765291 0.766818
O O21 0.217732 0.500000 0.288503
#
# Coordination Sequence:
#
# PCOD9388256 Si02
#       7
#     8   8   8   8   8   8   8
#     4  11  21  31  46  68  95 125 156 189 222 260
#     4   8  14  24  36  51  75 107 137 165 209 275
#     4   9  17  28  43  63  83 104 138 189 240 277
#     4   9  17  29  45  63  84 115 154 193 235 280
#     4   9  18  33  53  76 102 132 161 185 213 253
#     4   8  14  25  41  60  80 106 146 192 232 272
#     4   9  18  32  47  62  85 118 152 187 232 287
#
# _framework density 18.85284
#
# number of rings (size 3 to 8) (size 9 to 14) (size 15 to 20)
#    0.000    3.000    0.000    3.429    0.000    4.286 
#    0.000    5.000    0.000    6.857    0.000    4.000 
#    0.000    0.571    0.000    6.571    0.000    1.857 
#
# Total GULP energy -311879.341504 kJ/mol
# GULP energy per Si atom -5569.273955 kJ/mol
# Density = 1.880993 g / cm^3
# Si number density = 18.852840 Si / 1000 Ang^3
#
#
#
# Elastic Constant Matrix: (Units=GPa)
#
#
# Indices 1 2 3 4 5 6 
#
# 1 68.1924 -3.7977 27.9144 0.0000 0.0000 0.0000
# 2 -3.7977 30.3750 1.4616 0.0000 0.0000 0.0000
# 3 27.9144 1.4616 140.4233 0.0000 0.0000 0.0000
# 4 0.0000 0.0000 0.0000 -5.8811 0.0000 0.0000
# 5 0.0000 0.0000 0.0000 0.0000 5.5186 0.0000
# 6 0.0000 0.0000 0.0000 0.0000 0.0000 -6.8361
#
#
#
# Elastic Compliance Matrix: (Units=1/GPa)
#
#
# Indices 1 2 3 4 5 6 
#
# 1 0.016105 0.002169 -0.003224 0.000000 0.000000 0.000000
# 2 0.002169 0.033230 -0.000777 0.000000 0.000000 0.000000
# 3 -0.003224 -0.000777 0.007770 0.000000 0.000000 0.000000
# 4 0.000000 0.000000 0.000000 -0.170036 0.000000 0.000000
# 5 0.000000 0.000000 0.000000 0.000000 0.181205 0.000000
# 6 0.000000 0.000000 0.000000 0.000000 0.000000 -0.146283
#
#
# Mechanical properties :
#
#
# Convention : Reuss Voigt Hill
#
# Bulk Modulus (GPa) = 18.71229 32.23861 25.47545
# Shear Modulus (GPa) = -88.44844 12.78778 -37.83033
#
# Velocity S-wave (km/s) = -6.85690 2.60723 -4.48438
# Velocity P-wave (km/s) = 7.26239 5.11867 3.64291
#
# Compressibility (1/GPa) = 0.05344082
#
# Stress axis : x y z
#
# Youngs Moduli (GPa) = 62.09285 30.09303 128.69499
#
# Poissons Ratio (x) = -0.06526 0.41492
# Poissons Ratio (y) = -0.13466 0.10000
# Poissons Ratio (z) = 0.20019 0.02338
#
# Static dielectric constant tensor:
#      x y z
#    x 1.643610 0.000000 0.000000 
#    y 0.000000 1.679250 0.000000 
#    z 0.000000 0.000000 1.729350 
# 
# From -- ./inp_files/26932.got.cif
#   From: 2010.05.17/outbox.cif.g08.bks.cpg/sg47_14_cif.got.tgz:26932.got - 2010.06.03 20:15:42.
