data_PCOD9388079
_publ_section_title
;
Structure prediction by ZEFSAII (Michael W. Deem and Ramdas Pophale) SiO2 
 PCOD9388079
Probable space group: P M M M
;
_chemical_formula_sum "Si O2"
_cell_formula_units_Z 44
_cell_length_a 33.934173
_cell_length_b 7.974269
_cell_length_c 7.775039
_cell_angle_alpha 90.000000
_cell_angle_beta 90.000000
_cell_angle_gamma 90.000000
_cell_volume 2103.927293
_symmetry_space_group_name_H-M "P M M M"
_symmetry_group_IT_number 47
_symmetry_cell_setting 'orthorhombic'
loop_
_space_group_symop_operation_xyz
x,y,z
-x,-y,z
x,-y,-z
-x,y,-z
-x,-y,-z
x,y,-z
-x,y,z
x,-y,z
loop_
_atom_site_type_symbol
_atom_site_label
_atom_site_fract_x
_atom_site_fract_y
_atom_site_fract_z
Si Si1 0.626707 0.808917 0.705933
Si Si2 0.000000 0.307151 0.290500
Si Si3 0.085772 0.297186 0.302931
Si Si4 0.542316 0.804215 0.793609
Si Si5 0.856362 0.802065 0.000000
Si Si6 0.233952 0.700946 0.000000
Si Si7 0.712388 0.699644 0.694862
O O1 0.628446 0.814401 0.500000
O O2 0.584477 0.727400 0.747015
O O3 0.667766 0.728020 0.760920
O O4 0.626127 0.000000 0.773916
O O5 0.042454 0.232400 0.244190
O O6 0.000000 0.500000 0.227621
O O7 0.000000 0.312163 0.500000
O O8 0.093305 0.241365 0.500000
O O9 0.082816 0.500000 0.307998
O O10 0.119185 0.252011 0.168183
O O11 0.500000 0.733027 0.733653
O O12 0.543257 0.000000 0.734183
O O13 0.541164 0.806116 0.000000
O O14 0.812327 0.731739 0.000000
O O15 0.853439 0.000000 0.000000
O O16 0.256068 0.767794 0.169807
O O17 0.239914 0.500000 0.000000
O O18 0.716135 0.768696 0.500000
O O19 0.717992 0.500000 0.682279
#
# Coordination Sequence:
#
# PCOD9388079 Si02
#       7
#     8   4   8   8   4   4   8
#     4   9  17  28  45  71  97 122 157 199 243 296
#     4   7  12  27  55  88 113 141 192 246 281 311
#     4   9  18  36  62  87 114 152 197 242 280 320
#     4   8  14  24  38  60  92 128 162 194 230 277
#     4  12  26  39  53  82 121 153 185 228 284 348
#     4  10  22  40  59  77  97 131 181 223 260 321
#     4   9  19  36  56  77 100 125 158 208 266 317
#
# _framework density 20.913269
#
# number of rings (size 3 to 8) (size 9 to 14) (size 15 to 20)
#    0.000    3.000    0.000    2.455    1.273    2.545 
#    0.000    5.909    0.000    2.182    0.000    3.818 
#    0.000    0.000    0.000    0.000    0.000    0.000 
#
# Total GULP energy -245164.954257 kJ/mol
# GULP energy per Si atom -5571.930779 kJ/mol
# Density = 2.086567 g / cm^3
# Si number density = 20.913269 Si / 1000 Ang^3
#
#
#
# Elastic Constant Matrix: (Units=GPa)
#
#
# Indices 1 2 3 4 5 6 
#
# 1 203.1164 -5.9947 87.7623 0.0000 0.0000 0.0000
# 2 -5.9947 12.5886 8.6196 0.0000 0.0000 0.0000
# 3 87.7623 8.6196 93.0222 0.0000 0.0000 0.0000
# 4 0.0000 0.0000 0.0000 22.8026 0.0000 0.0000
# 5 0.0000 0.0000 0.0000 0.0000 44.4091 0.0000
# 6 0.0000 0.0000 0.0000 0.0000 0.0000 19.0260
#
#
#
# Elastic Compliance Matrix: (Units=1/GPa)
#
#
# Indices 1 2 3 4 5 6 
#
# 1 0.009672 0.011589 -0.010199 0.000000 0.000000 0.000000
# 2 0.011589 0.098705 -0.020080 0.000000 0.000000 0.000000
# 3 -0.010199 -0.020080 0.022233 0.000000 0.000000 0.000000
# 4 0.000000 0.000000 0.000000 0.043855 0.000000 0.000000
# 5 0.000000 0.000000 0.000000 0.000000 0.022518 0.000000
# 6 0.000000 0.000000 0.000000 0.000000 0.000000 0.052560
#
#
# Mechanical properties :
#
#
# Convention : Reuss Voigt Hill
#
# Bulk Modulus (GPa) = 10.72616 54.38910 32.55763
# Shear Modulus (GPa) = 15.72332 31.80354 23.76343
#
# Velocity S-wave (km/s) = 2.74493 3.90389 3.37454
# Velocity P-wave (km/s) = 3.89695 6.81057 5.54843
#
# Compressibility (1/GPa) = 0.09323004
#
# Stress axis : x y z
#
# Youngs Moduli (GPa) = 103.38938 10.13123 44.97766
#
# Poissons Ratio (x) = -0.11741 0.45873
# Poissons Ratio (y) = -1.19822 0.90316
# Poissons Ratio (z) = 1.05449 0.20344
#
# Static dielectric constant tensor:
#      x y z
#    x 1.796360 0.000000 0.000000 
#    y 0.000000 1.773810 0.000000 
#    z 0.000000 0.000000 1.768400 
# 
# From -- ./inp_files/13700.got.cif
#   From: 2010.05.17/outbox.cif.g08.bks.cpg/sg47_7_cif.got.tgz:13700.got - 2010.06.03 20:15:42.
