data_PCOD9388270
_publ_section_title
;
Structure prediction by ZEFSAII (Michael W. Deem and Ramdas Pophale) SiO2 
 PCOD9388270
Probable space group: P M M M
;
_chemical_formula_sum "Si O2"
_cell_formula_units_Z 32
_cell_length_a 17.651883
_cell_length_b 8.057831
_cell_length_c 14.606454
_cell_angle_alpha 90.000000
_cell_angle_beta 90.000000
_cell_angle_gamma 90.000000
_cell_volume 2077.561985
_symmetry_space_group_name_H-M "P M M M"
_symmetry_group_IT_number 47
_symmetry_cell_setting 'orthorhombic'
loop_
_space_group_symop_operation_xyz
x,y,z
-x,-y,z
x,-y,-z
-x,y,-z
-x,-y,-z
x,y,-z
-x,y,z
x,-y,z
loop_
_atom_site_type_symbol
_atom_site_label
_atom_site_fract_x
_atom_site_fract_y
_atom_site_fract_z
Si Si1 0.150183 0.196541 0.290487
Si Si2 0.304793 0.803558 0.389854
Si Si3 0.413542 0.500000 0.610933
Si Si4 0.913013 0.299964 0.897172
Si Si5 0.000000 0.696966 0.397474
O O1 0.227577 0.250660 0.339238
O O2 0.140670 0.245772 0.184744
O O3 0.075690 0.256616 0.343458
O O4 0.150123 0.000000 0.296326
O O5 0.293761 0.794244 0.500000
O O6 0.368979 0.669292 0.363952
O O7 0.321070 0.000000 0.369306
O O8 0.500000 0.500000 0.644488
O O9 0.415782 0.500000 0.500000
O O10 0.914601 0.500000 0.897541
O O11 0.000000 0.243833 0.879054
O O12 0.892307 0.244603 0.000000
O O13 0.000000 0.500000 0.404444
O O14 0.000000 0.769889 0.500000
#
# Coordination Sequence:
#
# PCOD9388270 Si02
#       5
#     8   8   4   8   4
#     4  11  21  32  47  68  94 126 162 201 243 283
#     4   9  19  33  48  70 101 132 160 197 242 284
#     4   9  18  32  52  75  96 125 162 195 234 289
#     4   9  18  32  48  65  88 121 162 205 245 284
#     4  11  23  33  44  63  88 127 171 204 234 275
#
# _framework density 15.402668999999999
#
# number of rings (size 3 to 8) (size 9 to 14) (size 15 to 20)
#    0.000    2.250    1.250    2.625    3.500    3.000 
#    0.000    3.750    0.000    0.000    0.000    0.000 
#    0.000    2.000    0.000    5.500    0.000    0.250 
#
# Total GULP energy -178339.944540 kJ/mol
# GULP energy per Si atom -5573.123267 kJ/mol
# Density = 1.536761 g / cm^3
# Si number density = 15.402669 Si / 1000 Ang^3
#
#
#
# Elastic Constant Matrix: (Units=GPa)
#
#
# Indices 1 2 3 4 5 6 
#
# 1 131.2222 57.7605 51.5220 0.0000 0.0000 0.0000
# 2 57.7605 55.1552 24.7566 0.0000 0.0000 0.0000
# 3 51.5220 24.7566 75.5263 0.0000 0.0000 0.0000
# 4 0.0000 0.0000 0.0000 -6.6706 0.0000 0.0000
# 5 0.0000 0.0000 0.0000 0.0000 6.5449 0.0000
# 6 0.0000 0.0000 0.0000 0.0000 0.0000 15.2023
#
#
#
# Elastic Compliance Matrix: (Units=1/GPa)
#
#
# Indices 1 2 3 4 5 6 
#
# 1 0.016512 -0.014347 -0.006561 0.000000 0.000000 0.000000
# 2 -0.014347 0.033724 -0.001267 0.000000 0.000000 0.000000
# 3 -0.006561 -0.001267 0.018132 0.000000 0.000000 0.000000
# 4 0.000000 0.000000 0.000000 -0.149911 0.000000 0.000000
# 5 0.000000 0.000000 0.000000 0.000000 0.152790 0.000000
# 6 0.000000 0.000000 0.000000 0.000000 0.000000 0.065780
#
#
# Mechanical properties :
#
#
# Convention : Reuss Voigt Hill
#
# Bulk Modulus (GPa) = 41.63740 58.88689 50.26214
# Shear Modulus (GPa) = 26.40152 11.53962 18.97057
#
# Velocity S-wave (km/s) = 4.14465 2.74011 3.51328
# Velocity P-wave (km/s) = 7.07074 6.95166 7.01145
#
# Compressibility (1/GPa) = 0.02401687
#
# Stress axis : x y z
#
# Youngs Moduli (GPa) = 60.56233 29.65248 55.15184
#
# Poissons Ratio (x) = 0.42542 0.36187
# Poissons Ratio (y) = 0.86888 0.06989
# Poissons Ratio (z) = 0.39737 0.03758
#
# Static dielectric constant tensor:
#      x y z
#    x 1.481650 0.000000 0.000000 
#    y 0.000000 1.538330 0.000000 
#    z 0.000000 0.000000 1.539270 
# 
# From -- ./inp_files/5390.got.cif
#   From: 2010.05.17/outbox.cif.g08.bks.cpg/sg47_3_cif.got.tgz:5390.got - 2010.06.03 20:15:42.
