data_PCOD9388993
_publ_section_title
;
Structure prediction by ZEFSAII (Michael W. Deem and Ramdas Pophale) SiO2 
 PCOD9388993
Probable space group: P M M M
;
_chemical_formula_sum "Si O2"
_cell_formula_units_Z 44
_cell_length_a 29.858387
_cell_length_b 7.364430
_cell_length_c 9.597574
_cell_angle_alpha 90.000000
_cell_angle_beta 90.000000
_cell_angle_gamma 90.000000
_cell_volume 2110.410556
_symmetry_space_group_name_H-M "P M M M"
_symmetry_group_IT_number 47
_symmetry_cell_setting 'orthorhombic'
loop_
_space_group_symop_operation_xyz
x,y,z
-x,-y,z
x,-y,-z
-x,y,-z
-x,-y,-z
x,y,-z
-x,y,z
x,-y,z
loop_
_atom_site_type_symbol
_atom_site_label
_atom_site_fract_x
_atom_site_fract_y
_atom_site_fract_z
Si Si1 0.500000 0.722021 0.160587
Si Si2 0.414456 0.721288 0.337379
Si Si3 0.781620 0.785587 0.341268
Si Si4 0.135008 0.777670 0.840113
Si Si5 0.949592 0.220992 0.660315
Si Si6 0.316576 0.282340 0.339191
O O1 0.500000 0.500000 0.161726
O O2 0.455657 0.781277 0.243216
O O3 0.500000 0.778618 0.000000
O O4 0.419469 0.774617 0.500000
O O5 0.415104 0.500000 0.336939
O O6 0.365037 0.778565 0.284524
O O7 0.782179 0.710777 0.500000
O O8 0.821444 0.715236 0.245438
O O9 0.731738 0.765100 0.278352
O O10 0.789337 0.000000 0.353773
O O11 0.089886 0.719649 0.761398
O O12 0.135166 0.000000 0.839965
O O13 0.136095 0.720051 0.000000
O O14 0.941125 0.275238 0.500000
O O15 0.000000 0.278066 0.699153
O O16 0.949501 0.000000 0.661497
O O17 0.315029 0.218069 0.500000
O O18 0.318121 0.500000 0.341104
#
# Coordination Sequence:
#
# PCOD9388993 Si02
#       6
#     4   8   8   8   8   8
#     4   9  15  21  31  51  78 101 120 148 188 229
#     4   8  13  22  36  52  71  97 126 153 184 225
#     4   9  16  26  41  59  78 102 132 164 196 229
#     4   9  16  24  34  50  74 103 132 161 193 231
#     4   8  13  21  33  49  70  97 128 161 197 235
#     4   8  14  25  41  60  80 102 130 163 196 230
#
# _framework density 20.849025999999999
#
# number of rings (size 3 to 8) (size 9 to 14) (size 15 to 20)
#    0.000    3.545    0.000    2.455    0.000    3.636 
#    0.000    2.727    0.000    1.636    0.000    0.636 
#    0.000    5.818    0.000    8.364    0.000   10.727 
#
# Total GULP energy -245272.363626 kJ/mol
# GULP energy per Si atom -5574.371901 kJ/mol
# Density = 2.080157 g / cm^3
# Si number density = 20.849026 Si / 1000 Ang^3
#
#
#
# Elastic Constant Matrix: (Units=GPa)
#
#
# Indices 1 2 3 4 5 6 
#
# 1 258.4096 4.4187 131.4752 0.0000 0.0000 0.0000
# 2 4.4187 73.7511 5.1870 0.0000 0.0000 0.0000
# 3 131.4752 5.1870 116.9019 0.0000 0.0000 0.0000
# 4 0.0000 0.0000 0.0000 -9.8175 0.0000 0.0000
# 5 0.0000 0.0000 0.0000 0.0000 -4.7712 0.0000
# 6 0.0000 0.0000 0.0000 0.0000 0.0000 9.5481
#
#
#
# Elastic Compliance Matrix: (Units=1/GPa)
#
#
# Indices 1 2 3 4 5 6 
#
# 1 0.009048 0.000174 -0.010184 0.000000 0.000000 0.000000
# 2 0.000174 0.013605 -0.000800 0.000000 0.000000 0.000000
# 3 -0.010184 -0.000800 0.020043 0.000000 0.000000 0.000000
# 4 0.000000 0.000000 0.000000 -0.101859 0.000000 0.000000
# 5 0.000000 0.000000 0.000000 0.000000 -0.209592 0.000000
# 6 0.000000 0.000000 0.000000 0.000000 0.000000 0.104732
#
#
# Mechanical properties :
#
#
# Convention : Reuss Voigt Hill
#
# Bulk Modulus (GPa) = 47.44349 81.24715 64.34532
# Shear Modulus (GPa) = -36.93400 19.52399 -8.70501
#
# Velocity S-wave (km/s) = -4.21348 3.06346 -2.04556
# Velocity P-wave (km/s) = 0.93065 7.18101 5.03492
#
# Compressibility (1/GPa) = 0.02107771
#
# Stress axis : x y z
#
# Youngs Moduli (GPa) = 110.51695 73.50281 49.89185
#
# Poissons Ratio (x) = -0.01280 0.50810
# Poissons Ratio (y) = -0.01925 0.03989
# Poissons Ratio (z) = 1.12552 0.05877
#
# Static dielectric constant tensor:
#      x y z
#    x 1.757720 0.000000 0.000000 
#    y 0.000000 1.860970 0.000000 
#    z 0.000000 0.000000 1.689910 
# 
# From -- ./inp_files/13175.got.cif
#   From: 2010.05.17/outbox.cif.g08.bks.cpg/sg47_7_cif.got.tgz:13175.got - 2010.06.03 20:15:42.
