data_PCOD9388333
_publ_section_title
;
Structure prediction by ZEFSAII (Michael W. Deem and Ramdas Pophale) SiO2 
 PCOD9388333
Probable space group: P M M M
;
_chemical_formula_sum "Si O2"
_cell_formula_units_Z 52
_cell_length_a 8.569563
_cell_length_b 11.985227
_cell_length_c 29.547716
_cell_angle_alpha 90.000000
_cell_angle_beta 90.000000
_cell_angle_gamma 90.000000
_cell_volume 3034.791479
_symmetry_space_group_name_H-M "P M M M"
_symmetry_group_IT_number 47
_symmetry_cell_setting 'orthorhombic'
loop_
_space_group_symop_operation_xyz
x,y,z
-x,-y,z
x,-y,-z
-x,y,-z
-x,-y,-z
x,y,-z
-x,y,z
x,-y,z
loop_
_atom_site_type_symbol
_atom_site_label
_atom_site_fract_x
_atom_site_fract_y
_atom_site_fract_z
Si Si1 0.318570 0.738795 0.198308
Si Si2 0.320782 0.865393 0.896216
Si Si3 0.811929 0.370852 0.448367
Si Si4 0.186132 0.126535 0.282643
Si Si5 0.816261 0.500000 0.686390
Si Si6 0.684630 0.722707 0.640766
Si Si7 0.182589 0.500000 0.794811
Si Si8 0.000000 0.864434 0.052355
O O1 0.500000 0.731538 0.210409
O O2 0.302174 0.814566 0.153810
O O3 0.233471 0.794680 0.240891
O O4 0.257256 0.614799 0.188476
O O5 0.500000 0.835079 0.911993
O O6 0.165507 0.830357 0.924419
O O7 0.317920 0.000000 0.894298
O O8 0.765113 0.344899 0.500000
O O9 0.764270 0.500000 0.438915
O O10 0.745928 0.290022 0.410274
O O11 0.000000 0.368559 0.446399
O O12 0.249843 0.176479 0.329355
O O13 0.000000 0.125876 0.285094
O O14 0.242443 0.000000 0.274791
O O15 0.740729 0.610233 0.665898
O O16 0.799117 0.500000 0.740341
O O17 0.000000 0.500000 0.675116
O O18 0.500000 0.727576 0.640637
O O19 0.000000 0.500000 0.805373
O O20 0.000000 0.000000 0.053664
O O21 0.000000 0.829522 0.000000
#
# Coordination Sequence:
#
# PCOD9388333 Si02
#       8
#     8   8   8   8   4   8   4   4
#     4  11  22  36  55  79 111 146 182 226 275 324
#     4   9  19  34  53  80 114 150 186 230 283 336
#     4   9  18  33  54  78 105 138 172 210 260 319
#     4  11  24  39  56  77 103 142 186 223 261 316
#     4  11  21  35  52  72 104 142 179 216 261 317
#     4  12  23  34  54  80 108 139 172 217 271 318
#     4  11  23  35  53  78 107 147 187 224 266 318
#     4   9  18  32  54  83 113 149 191 234 280 333
#
# _framework density 17.134622
#
# number of rings (size 3 to 8) (size 9 to 14) (size 15 to 20)
#    0.000    1.615    2.308    3.692    2.154    3.077 
#    0.000    2.308    0.000    0.462    0.000    4.308 
#    0.000    2.462    0.000    0.000    0.000    0.000 
#
# Total GULP energy -290175.654562 kJ/mol
# GULP energy per Si atom -5580.301049 kJ/mol
# Density = 1.709562 g / cm^3
# Si number density = 17.134622 Si / 1000 Ang^3
#
#
#
# Elastic Constant Matrix: (Units=GPa)
#
#
# Indices 1 2 3 4 5 6 
#
# 1 101.5185 20.9354 55.7651 0.0000 0.0000 0.0000
# 2 20.9354 52.8148 20.6480 0.0000 0.0000 0.0000
# 3 55.7651 20.6480 76.9387 0.0000 0.0000 0.0000
# 4 0.0000 0.0000 0.0000 14.4754 0.0000 0.0000
# 5 0.0000 0.0000 0.0000 0.0000-1645.2045 0.0000
# 6 0.0000 0.0000 0.0000 0.0000 0.0000 40.2687
#
#
#
# Elastic Compliance Matrix: (Units=1/GPa)
#
#
# Indices 1 2 3 4 5 6 
#
# 1 0.016571 -0.002093 -0.011449 0.000000 0.000000 0.000000
# 2 -0.002093 0.021418 -0.004231 0.000000 0.000000 0.000000
# 3 -0.011449 -0.004231 0.022431 0.000000 0.000000 0.000000
# 4 0.000000 0.000000 0.000000 0.069083 0.000000 0.000000
# 5 0.000000 0.000000 0.000000 0.000000 -0.000608 0.000000
# 6 0.000000 0.000000 0.000000 0.000000 0.000000 0.024833
#
#
# Mechanical properties :
#
#
# Convention : Reuss Voigt Hill
#
# Bulk Modulus (GPa) = 40.20221 47.32989 43.76605
# Shear Modulus (GPa) = 25.30811 -309.16385 -141.92787
#
# Velocity S-wave (km/s) = 3.84737 -13.44708 -9.11103
# Velocity P-wave (km/s) = 6.57646 14.60877 9.22406
#
# Compressibility (1/GPa) = 0.02487425
#
# Stress axis : x y z
#
# Youngs Moduli (GPa) = 60.34619 46.69027 44.58088
#
# Poissons Ratio (x) = 0.09771 0.51041
# Poissons Ratio (y) = 0.12628 0.18863
# Poissons Ratio (z) = 0.69091 0.19755
#
# Static dielectric constant tensor:
#      x y z
#    x 1.596130 0.000000 0.000000 
#    y 0.000000 1.581900 0.000000 
#    z 0.000000 0.000000 1.572310 
# 
# From -- ./inp_files/34322.got.cif
#   From: 2010.05.17/outbox.cif.g08.bks.cpg/sg47_18_cif.got.tgz:34322.got - 2010.06.03 20:15:42.
