data_PCOD9388051
_publ_section_title
;
Structure prediction by ZEFSAII (Michael W. Deem and Ramdas Pophale) SiO2 
 PCOD9388051
Probable space group: P M M M
;
_chemical_formula_sum "Si O2"
_cell_formula_units_Z 52
_cell_length_a 28.914738
_cell_length_b 11.893989
_cell_length_c 8.776865
_cell_angle_alpha 90.000000
_cell_angle_beta 90.000000
_cell_angle_gamma 90.000000
_cell_volume 3018.465472
_symmetry_space_group_name_H-M "P M M M"
_symmetry_group_IT_number 47
_symmetry_cell_setting 'orthorhombic'
loop_
_space_group_symop_operation_xyz
x,y,z
-x,-y,z
x,-y,-z
-x,y,-z
-x,-y,-z
x,y,-z
-x,y,z
x,-y,z
loop_
_atom_site_type_symbol
_atom_site_label
_atom_site_fract_x
_atom_site_fract_y
_atom_site_fract_z
Si Si1 0.449698 0.364797 0.681147
Si Si2 0.797178 0.500000 0.681925
Si Si3 0.179889 0.869255 0.683291
Si Si4 0.646651 0.631031 0.182753
Si Si5 0.254691 0.285062 0.816963
Si Si6 0.100406 0.500000 0.818586
Si Si7 0.913694 0.738376 0.682756
Si Si8 0.000000 0.133973 0.178600
O O1 0.447609 0.346183 0.500000
O O2 0.500000 0.322555 0.736797
O O3 0.449990 0.500000 0.705360
O O4 0.402242 0.324877 0.755720
O O5 0.803157 0.500000 0.500000
O O6 0.769888 0.609352 0.737034
O O7 0.846624 0.500000 0.762540
O O8 0.184719 0.859706 0.500000
O O9 0.226112 0.822588 0.761606
O O10 0.135866 0.792477 0.728510
O O11 0.171299 0.000000 0.719878
O O12 0.653448 0.500000 0.233931
O O13 0.691264 0.704527 0.225534
O O14 0.644356 0.628073 0.000000
O O15 0.251155 0.296152 0.000000
O O16 0.079817 0.385279 0.751831
O O17 0.097558 0.500000 0.000000
O O18 0.914177 0.731818 0.500000
O O19 0.954650 0.816549 0.741862
O O20 0.000000 0.000000 0.191055
O O21 0.000000 0.164757 0.000000
#
# Coordination Sequence:
#
# PCOD9388051 Si02
#       8
#     8   4   8   8   8   4   8   4
#     4   8  14  24  37  56  85 123 167 211 254 303
#     4  12  22  34  53  79 109 145 182 216 262 319
#     4  10  22  39  58  81 109 141 179 221 265 318
#     4   9  17  28  41  63  95 130 170 212 258 309
#     4  11  21  34  52  76 107 141 178 223 267 312
#     4  12  24  39  61  90 120 147 178 222 271 320
#     4  11  23  41  65  90 115 148 185 222 269 324
#     4  11  25  44  65  90 119 151 189 231 274 319
#
# _framework density 17.227295999999999
#
# number of rings (size 3 to 8) (size 9 to 14) (size 15 to 20)
#    0.000    1.769    2.308    3.462    0.000    4.000 
#    0.000    3.077    0.000    0.000    0.000    0.000 
#    0.000    0.615    0.000    6.769    0.000    5.231 
#
# Total GULP energy -290176.245179 kJ/mol
# GULP energy per Si atom -5580.312407 kJ/mol
# Density = 1.718809 g / cm^3
# Si number density = 17.227296 Si / 1000 Ang^3
#
#
#
# Elastic Constant Matrix: (Units=GPa)
#
#
# Indices 1 2 3 4 5 6 
#
# 1 120.2999 26.8572 34.7690 0.0000 0.0000 0.0000
# 2 26.8572 70.9610 30.3256 0.0000 0.0000 0.0000
# 3 34.7690 30.3256 54.7239 0.0000 0.0000 0.0000
# 4 0.0000 0.0000 0.0000 22.0081 0.0000 0.0000
# 5 0.0000 0.0000 0.0000 0.0000 31.7006 0.0000
# 6 0.0000 0.0000 0.0000 0.0000 0.0000 9.5047
#
#
#
# Elastic Compliance Matrix: (Units=1/GPa)
#
#
# Indices 1 2 3 4 5 6 
#
# 1 0.010294 -0.001443 -0.005741 0.000000 0.000000 0.000000
# 2 -0.001443 0.018667 -0.009428 0.000000 0.000000 0.000000
# 3 -0.005741 -0.009428 0.027146 0.000000 0.000000 0.000000
# 4 0.000000 0.000000 0.000000 0.045438 0.000000 0.000000
# 5 0.000000 0.000000 0.000000 0.000000 0.031545 0.000000
# 6 0.000000 0.000000 0.000000 0.000000 0.000000 0.105211
#
#
# Mechanical properties :
#
#
# Convention : Reuss Voigt Hill
#
# Bulk Modulus (GPa) = 43.69894 47.76538 45.73216
# Shear Modulus (GPa) = 17.91139 22.91155 20.41147
#
# Velocity S-wave (km/s) = 3.22795 3.65081 3.44587
# Velocity P-wave (km/s) = 6.27009 6.74967 6.51429
#
# Compressibility (1/GPa) = 0.02288385
#
# Stress axis : x y z
#
# Youngs Moduli (GPa) = 97.14562 53.56932 36.83842
#
# Poissons Ratio (x) = 0.07728 0.21148
# Poissons Ratio (y) = 0.14015 0.34732
# Poissons Ratio (z) = 0.55769 0.50506
#
# Static dielectric constant tensor:
#      x y z
#    x 1.614850 0.000000 0.000000 
#    y 0.000000 1.574270 0.000000 
#    z 0.000000 0.000000 1.577840 
# 
# From -- ./inp_files/13325.got.cif
#   From: 2010.05.17/outbox.cif.g08.bks.cpg/sg47_7_cif.got.tgz:13325.got - 2010.06.03 20:15:42.
