data_PCOD9388672
_publ_section_title
;
Structure prediction by ZEFSAII (Michael W. Deem and Ramdas Pophale) SiO2 
 PCOD9388672
Probable space group: P M M M
;
_chemical_formula_sum "Si O2"
_cell_formula_units_Z 37
_cell_length_a 10.404195
_cell_length_b 7.633272
_cell_length_c 23.159844
_cell_angle_alpha 90.000000
_cell_angle_beta 90.000000
_cell_angle_gamma 90.000000
_cell_volume 1839.309657
_symmetry_space_group_name_H-M "P M M M"
_symmetry_group_IT_number 47
_symmetry_cell_setting 'orthorhombic'
loop_
_space_group_symop_operation_xyz
x,y,z
-x,-y,z
x,-y,-z
-x,y,-z
-x,-y,-z
x,y,-z
-x,y,z
x,-y,z
loop_
_atom_site_type_symbol
_atom_site_label
_atom_site_fract_x
_atom_site_fract_y
_atom_site_fract_z
Si Si1 0.355537 0.206277 0.885979
Si Si2 0.646748 0.713892 0.434271
Si Si3 0.213203 0.309334 0.000000
Si Si4 0.145536 0.713867 0.658390
Si Si5 0.000000 0.000000 0.000000
Si Si6 0.144897 0.288501 0.790671
O O1 0.500000 0.266827 0.871447
O O2 0.300585 0.294730 0.943124
O O3 0.254642 0.231720 0.834309
O O4 0.361129 0.000000 0.898296
O O5 0.678001 0.767100 0.500000
O O6 0.500000 0.767246 0.421553
O O7 0.648243 0.500000 0.433658
O O8 0.748728 0.774938 0.387075
O O9 0.150261 0.500000 0.000000
O O10 0.111761 0.153248 0.000000
O O11 0.147967 0.500000 0.658148
O O12 0.169580 0.768199 0.724608
O O13 0.000000 0.766121 0.642866
O O14 0.142881 0.500000 0.790794
O O15 0.000000 0.229646 0.807413
#
# Coordination Sequence:
#
# PCOD9388672 Si02
#       6
#     8   8   4   8   1   8
#     4  11  24  42  61  85 120 156 193 244 300 352
#     4   8  13  20  31  51  82 122 167 214 267 328
#     4  12  26  44  70  97 126 165 205 246 299 357
#     4   8  14  25  39  59  90 126 167 219 273 329
#     4  12  26  48  66 102 136 160 200 256 294 354
#     4   9  19  34  53  78 107 141 186 236 286 347
#
# _framework density 20.116243999999998
#
# number of rings (size 3 to 8) (size 9 to 14) (size 15 to 20)
#    0.000    2.595    1.081    3.081    1.514    4.757 
#    0.000    4.324    0.000    0.000    0.000    0.000 
#    0.000    0.865    0.000    9.514    0.000   15.568 
#
# Total GULP energy -206280.720975 kJ/mol
# GULP energy per Si atom -5575.154621 kJ/mol
# Density = 2.007046 g / cm^3
# Si number density = 20.116244 Si / 1000 Ang^3
#
#
#
# Elastic Constant Matrix: (Units=GPa)
#
#
# Indices 1 2 3 4 5 6 
#
# 1 193.6229 28.3631 131.3253 0.0000 0.0000 0.0000
# 2 28.3631 79.3733 15.0574 0.0000 0.0000 0.0000
# 3 131.3253 15.0574 142.3587 0.0000 0.0000 0.0000
# 4 0.0000 0.0000 0.0000 40.3302 0.0000 0.0000
# 5 0.0000 0.0000 0.0000 0.0000 -93.1340 0.0000
# 6 0.0000 0.0000 0.0000 0.0000 0.0000 2.7551
#
#
#
# Elastic Compliance Matrix: (Units=1/GPa)
#
#
# Indices 1 2 3 4 5 6 
#
# 1 0.014330 -0.002666 -0.012937 0.000000 0.000000 0.000000
# 2 -0.002666 0.013353 0.001047 0.000000 0.000000 0.000000
# 3 -0.012937 0.001047 0.018848 0.000000 0.000000 0.000000
# 4 0.000000 0.000000 0.000000 0.024795 0.000000 0.000000
# 5 0.000000 0.000000 0.000000 0.000000 -0.010737 0.000000
# 6 0.000000 0.000000 0.000000 0.000000 0.000000 0.362964
#
#
# Mechanical properties :
#
#
# Convention : Reuss Voigt Hill
#
# Bulk Modulus (GPa) = 57.41018 84.98296 71.19657
# Shear Modulus (GPa) = 10.90578 6.03087 8.46832
#
# Velocity S-wave (km/s) = 2.33091 1.73336 2.05398
# Velocity P-wave (km/s) = 5.98710 6.80762 6.41050
#
# Compressibility (1/GPa) = 0.01741851
#
# Stress axis : x y z
#
# Youngs Moduli (GPa) = 69.78292 74.89057 53.05467
#
# Poissons Ratio (x) = 0.19969 0.68639
# Poissons Ratio (y) = 0.18607 -0.05557
# Poissons Ratio (z) = 0.90281 -0.07844
#
# Static dielectric constant tensor:
#      x y z
#    x 1.688340 0.000000 0.000000 
#    y 0.000000 1.747430 0.000000 
#    z 0.000000 0.000000 1.679490 
# 
# From -- ./inp_files/31687.got.cif
#   From: 2010.05.17/outbox.cif.g08.bks.cpg/sg47_16_cif.got.tgz:31687.got - 2010.06.03 20:15:42.
