data_PCOD9388281
_publ_section_title
;
Structure prediction by ZEFSAII (Michael W. Deem and Ramdas Pophale) SiO2 
 PCOD9388281
Probable space group: P M M M
;
_chemical_formula_sum "Si O2"
_cell_formula_units_Z 48
_cell_length_a 19.212368
_cell_length_b 10.306843
_cell_length_c 18.027101
_cell_angle_alpha 90.000000
_cell_angle_beta 90.000000
_cell_angle_gamma 90.000000
_cell_volume 3569.706001
_symmetry_space_group_name_H-M "P M M M"
_symmetry_group_IT_number 47
_symmetry_cell_setting 'orthorhombic'
loop_
_space_group_symop_operation_xyz
x,y,z
-x,-y,z
x,-y,-z
-x,y,-z
-x,-y,-z
x,y,-z
-x,y,z
x,-y,z
loop_
_atom_site_type_symbol
_atom_site_label
_atom_site_fract_x
_atom_site_fract_y
_atom_site_fract_z
Si Si1 0.583013 0.500000 0.683112
Si Si2 0.415572 0.000000 0.806796
Si Si3 0.647437 0.727441 0.413484
Si Si4 0.584801 0.775399 0.083347
Si Si5 0.584787 0.500000 0.854223
Si Si6 0.195767 0.649624 0.589713
Si Si7 0.080160 0.852181 0.590283
Si Si8 0.415674 0.000000 0.366800
O O1 0.500000 0.500000 0.684380
O O2 0.608577 0.373777 0.639314
O O3 0.607324 0.500000 0.768485
O O4 0.392261 0.874751 0.853210
O O5 0.397052 0.000000 0.720728
O O6 0.500000 0.000000 0.807922
O O7 0.638719 0.690188 0.500000
O O8 0.729264 0.713676 0.395289
O O9 0.616837 0.870515 0.401721
O O10 0.500000 0.777633 0.083522
O O11 0.606712 0.630355 0.104233
O O12 0.606501 0.811840 0.000000
O O13 0.500000 0.500000 0.854172
O O14 0.189887 0.643797 0.500000
O O15 0.193463 0.500000 0.616279
O O16 0.133824 0.742857 0.616586
O O17 0.081704 0.850878 0.500000
O O18 0.000000 0.827055 0.611949
O O19 0.098767 0.000000 0.612521
O O20 0.500000 0.000000 0.374639
#
# Coordination Sequence:
#
# PCOD9388281 Si02
#       8
#     4   4   8   8   4   8   8   4
#     4  11  21  33  47  57  72 101 133 173 223 261
#     4   9  17  29  41  55  75  96 119 149 194 250
#     4  11  22  34  45  58  73  96 135 181 225 262
#     4   9  15  24  40  60  79  96 113 137 177 236
#     4   9  17  27  39  57  77  96 119 149 192 242
#     4   9  17  29  42  57  77  98 123 158 200 246
#     4   8  14  24  40  62  83 101 119 141 181 239
#     4  11  23  35  45  57  74  97 131 179 229 267
#
# _framework density 13.446484999999999
#
# number of rings (size 3 to 8) (size 9 to 14) (size 15 to 20)
#    0.000    2.500    0.833    3.000    1.167    7.000 
#    0.000    1.667    0.000    0.000    0.000    0.000 
#    0.000    0.000    0.000    0.000    0.000    0.000 
#
# Total GULP energy -267374.885999 kJ/mol
# GULP energy per Si atom -5570.310125 kJ/mol
# Density = 1.341588 g / cm^3
# Si number density = 13.446485 Si / 1000 Ang^3
#
#
#
# Elastic Constant Matrix: (Units=GPa)
#
#
# Indices 1 2 3 4 5 6 
#
# 1 60.7413 37.0740 6.1900 0.0000 0.0000 0.0000
# 2 37.0740 76.0252 -3.4687 0.0000 0.0000 0.0000
# 3 6.1900 -3.4687 36.9481 0.0000 0.0000 0.0000
# 4 0.0000 0.0000 0.0000 26.3969 0.0000 0.0000
# 5 0.0000 0.0000 0.0000 0.0000 -1.1855 0.0000
# 6 0.0000 0.0000 0.0000 0.0000 0.0000 17.8228
#
#
#
# Elastic Compliance Matrix: (Units=1/GPa)
#
#
# Indices 1 2 3 4 5 6 
#
# 1 0.024406 -0.012140 -0.005229 0.000000 0.000000 0.000000
# 2 -0.012140 0.019249 0.003841 0.000000 0.000000 0.000000
# 3 -0.005229 0.003841 0.028302 0.000000 0.000000 0.000000
# 4 0.000000 0.000000 0.000000 0.037883 0.000000 0.000000
# 5 0.000000 0.000000 0.000000 0.000000 -0.843504 0.000000
# 6 0.000000 0.000000 0.000000 0.000000 0.000000 0.056108
#
#
# Mechanical properties :
#
#
# Convention : Reuss Voigt Hill
#
# Bulk Modulus (GPa) = 22.27124 28.14504 25.20814
# Shear Modulus (GPa) = -7.86740 17.53478 4.83369
#
# Velocity S-wave (km/s) = -2.42149 3.61507 1.89804
# Velocity P-wave (km/s) = 2.96322 6.19690 4.85707
#
# Compressibility (1/GPa) = 0.04490095
#
# Stress axis : x y z
#
# Youngs Moduli (GPa) = 40.97344 51.95062 35.33379
#
# Poissons Ratio (x) = 0.63070 0.18474
# Poissons Ratio (y) = 0.49743 -0.13572
# Poissons Ratio (z) = 0.21423 -0.19954
#
# Static dielectric constant tensor:
#      x y z
#    x 1.421970 0.000000 0.000000 
#    y 0.000000 1.462970 0.000000 
#    z 0.000000 0.000000 1.428000 
# 
# From -- ./inp_files/28704.got.cif
#   From: 2010.05.17/outbox.cif.g08.bks.cpg/sg47_15_cif.got.tgz:28704.got - 2010.06.03 20:15:42.
