data_PCOD9388704
_publ_section_title
;
Structure prediction by ZEFSAII (Michael W. Deem and Ramdas Pophale) SiO2 
 PCOD9388704
Probable space group: P M M M
;
_chemical_formula_sum "Si O2"
_cell_formula_units_Z 38
_cell_length_a 19.715426
_cell_length_b 11.717341
_cell_length_c 7.798188
_cell_angle_alpha 90.000000
_cell_angle_beta 90.000000
_cell_angle_gamma 90.000000
_cell_volume 1801.477887
_symmetry_space_group_name_H-M "P M M M"
_symmetry_group_IT_number 47
_symmetry_cell_setting 'orthorhombic'
loop_
_space_group_symop_operation_xyz
x,y,z
-x,-y,z
x,-y,-z
-x,y,-z
-x,-y,-z
x,y,-z
-x,y,z
x,-y,z
loop_
_atom_site_type_symbol
_atom_site_label
_atom_site_fract_x
_atom_site_fract_y
_atom_site_fract_z
Si Si1 0.074674 0.136138 0.700791
Si Si2 0.698740 0.000000 0.000000
Si Si3 0.922867 0.500000 0.296661
Si Si4 0.690443 0.191146 0.308635
Si Si5 0.179061 0.301548 0.810588
Si Si6 0.420631 0.628834 0.207435
O O1 0.083003 0.168505 0.500000
O O2 0.136029 0.185071 0.806719
O O3 0.000000 0.177276 0.756581
O O4 0.074401 0.000000 0.708539
O O5 0.697138 0.899535 0.153599
O O6 0.929248 0.500000 0.500000
O O7 0.877003 0.392301 0.246812
O O8 0.000000 0.500000 0.225038
O O9 0.689407 0.139849 0.500000
O O10 0.754942 0.276711 0.298846
O O11 0.624834 0.270664 0.281714
O O12 0.202183 0.333040 0.000000
O O13 0.500000 0.642456 0.251756
O O14 0.399599 0.500000 0.259848
O O15 0.415594 0.633692 0.000000
#
# Coordination Sequence:
#
# PCOD9388704 Si02
#       6
#     8   2   4   8   8   8
#     4   9  19  36  58  85 117 158 212 269 322 381
#     4  12  26  52  67 102 139 188 238 294 352 410
#     4  11  25  45  67  93 128 173 228 284 349 427
#     4  12  26  45  72 103 141 186 237 290 349 416
#     4  12  25  41  62  92 129 171 218 277 338 413
#     4   9  19  41  74 109 147 187 230 287 349 411
#
# _framework density 21.093792000000001
#
# number of rings (size 3 to 8) (size 9 to 14) (size 15 to 20)
#    0.000    1.368    2.105    4.421    2.947    5.053 
#    0.000    3.158    0.000    1.263    0.000    0.000 
#    0.000    0.000    0.000    0.000    0.000    0.000 
#
# Total GULP energy -211699.168344 kJ/mol
# GULP energy per Si atom -5571.030746 kJ/mol
# Density = 2.104578 g / cm^3
# Si number density = 21.093792 Si / 1000 Ang^3
#
#
#
# Elastic Constant Matrix: (Units=GPa)
#
#
# Indices 1 2 3 4 5 6 
#
# 1 92.0573 46.1466 30.5002 0.0000 0.0000 0.0000
# 2 46.1466 87.4988 39.7756 0.0000 0.0000 0.0000
# 3 30.5002 39.7756 132.5242 0.0000 0.0000 0.0000
# 4 0.0000 0.0000 0.0000 23.8393 0.0000 0.0000
# 5 0.0000 0.0000 0.0000 0.0000 26.0230 0.0000
# 6 0.0000 0.0000 0.0000 0.0000 0.0000 -12.4433
#
#
#
# Elastic Compliance Matrix: (Units=1/GPa)
#
#
# Indices 1 2 3 4 5 6 
#
# 1 0.014942 -0.007315 -0.001243 0.000000 0.000000 0.000000
# 2 -0.007315 0.016816 -0.003363 0.000000 0.000000 0.000000
# 3 -0.001243 -0.003363 0.008841 0.000000 0.000000 0.000000
# 4 0.000000 0.000000 0.000000 0.041947 0.000000 0.000000
# 5 0.000000 0.000000 0.000000 0.000000 0.038427 0.000000
# 6 0.000000 0.000000 0.000000 0.000000 0.000000 -0.080364
#
#
# Mechanical properties :
#
#
# Convention : Reuss Voigt Hill
#
# Bulk Modulus (GPa) = 59.68305 60.54722 60.11513
# Shear Modulus (GPa) = 71.39017 20.52767 45.95892
#
# Velocity S-wave (km/s) = 5.82388 3.12294 4.67281
# Velocity P-wave (km/s) = 8.57782 6.46295 7.59437
#
# Compressibility (1/GPa) = 0.01675518
#
# Stress axis : x y z
#
# Youngs Moduli (GPa) = 66.92736 59.46867 113.10378
#
# Poissons Ratio (x) = 0.43501 0.14062
# Poissons Ratio (y) = 0.48957 0.38042
# Poissons Ratio (z) = 0.08321 0.20002
#
# Static dielectric constant tensor:
#      x y z
#    x 1.765370 0.000000 0.000000 
#    y 0.000000 1.026960 0.000000 
#    z 0.000000 0.000000 1.809600 
# 
# From -- ./inp_files/8697.got.cif
#   From: 2010.05.17/outbox.cif.g08.bks.cpg/sg47_5_cif.got.tgz:8697.got - 2010.06.03 20:15:42.
