data_PCOD9388974
_publ_section_title
;
Structure prediction by ZEFSAII (Michael W. Deem and Ramdas Pophale) SiO2 
 PCOD9388974
Probable space group: P M M M
;
_chemical_formula_sum "Si O2"
_cell_formula_units_Z 56
_cell_length_a 19.586065
_cell_length_b 19.647349
_cell_length_c 7.494762
_cell_angle_alpha 90.000000
_cell_angle_beta 90.000000
_cell_angle_gamma 90.000000
_cell_volume 2884.091252
_symmetry_space_group_name_H-M "P M M M"
_symmetry_group_IT_number 47
_symmetry_cell_setting 'orthorhombic'
loop_
_space_group_symop_operation_xyz
x,y,z
-x,-y,z
x,-y,-z
-x,y,-z
-x,-y,-z
x,y,-z
-x,y,z
x,-y,z
loop_
_atom_site_type_symbol
_atom_site_label
_atom_site_fract_x
_atom_site_fract_y
_atom_site_fract_z
Si Si1 0.923471 0.342814 0.717864
Si Si2 0.577224 0.222891 0.708837
Si Si3 0.580309 0.927228 0.214696
Si Si4 0.922755 0.923473 0.786267
Si Si5 0.289230 0.290756 0.281279
Si Si6 0.842482 0.788675 0.287449
Si Si7 0.791069 0.423612 0.282497
O O1 0.924563 0.342887 0.500000
O O2 0.896478 0.268452 0.775962
O O3 0.866140 0.397155 0.771277
O O4 0.000000 0.356256 0.779314
O O5 0.570718 0.238703 0.500000
O O6 0.500000 0.225360 0.785503
O O7 0.605417 0.145477 0.720788
O O8 0.635676 0.271340 0.784088
O O9 0.500000 0.928091 0.264786
O O10 0.610052 0.000000 0.275495
O O11 0.583801 0.926297 0.000000
O O12 0.869327 0.864111 0.746927
O O13 0.000000 0.906645 0.721759
O O14 0.905436 0.000000 0.722220
O O15 0.926377 0.926958 0.000000
O O16 0.290801 0.289680 0.500000
O O17 0.232048 0.235539 0.223338
O O18 0.261708 0.364835 0.227635
O O19 0.839939 0.781263 0.500000
O O20 0.790365 0.424205 0.500000
O O21 0.776998 0.500000 0.221362
#
# Coordination Sequence:
#
# PCOD9388974 Si02
#       7
#     8   8   8   8   8   8   8
#     4   8  13  20  32  54  80 101 126 163 199 230
#     4   9  16  26  42  61  80 107 141 173 206 245
#     4   8  14  25  40  58  81 105 127 158 201 242
#     4   9  18  31  44  59  82 110 138 172 210 239
#     4   8  15  27  40  57  82 107 134 171 208 241
#     4   9  16  27  43  59  78 107 139 170 206 246
#     4   8  13  21  34  52  77 111 138 153 187 244
#
# _framework density 19.416861000000001
#
# number of rings (size 3 to 8) (size 9 to 14) (size 15 to 20)
#    0.000    3.571    0.000    3.000    0.000    1.714 
#    0.000    5.000    0.000    4.714    0.000    3.000 
#    0.000   14.286    0.000   35.000    0.000   30.000 
#
# Total GULP energy -311831.941260 kJ/mol
# GULP energy per Si atom -5568.427522 kJ/mol
# Density = 1.937267 g / cm^3
# Si number density = 19.416861 Si / 1000 Ang^3
#
#
#
# Elastic Constant Matrix: (Units=GPa)
#
#
# Indices 1 2 3 4 5 6 
#
# 1 127.6309 94.5116 6.5350 0.0000 0.0000 0.0000
# 2 94.5116 155.9661 0.6851 0.0000 0.0000 0.0000
# 3 6.5350 0.6851 48.4079 0.0000 0.0000 0.0000
# 4 0.0000 0.0000 0.0000 29.2319 0.0000 0.0000
# 5 0.0000 0.0000 0.0000 0.0000 -5.9578 0.0000
# 6 0.0000 0.0000 0.0000 0.0000 0.0000 15.5112
#
#
#
# Elastic Compliance Matrix: (Units=1/GPa)
#
#
# Indices 1 2 3 4 5 6 
#
# 1 0.014371 -0.008700 -0.001817 0.000000 0.000000 0.000000
# 2 -0.008700 0.011679 0.001009 0.000000 0.000000 0.000000
# 3 -0.001817 0.001009 0.020889 0.000000 0.000000 0.000000
# 4 0.000000 0.000000 0.000000 0.034209 0.000000 0.000000
# 5 0.000000 0.000000 0.000000 0.000000 -0.167847 0.000000
# 6 0.000000 0.000000 0.000000 0.000000 0.000000 0.064469
#
#
# Mechanical properties :
#
#
# Convention : Reuss Voigt Hill
#
# Bulk Modulus (GPa) = 35.81285 59.49648 47.65466
# Shear Modulus (GPa) = 820.46810 23.10860 421.78835
#
# Velocity S-wave (km/s) = 20.57843 3.45357 14.75464
# Velocity P-wave (km/s) = 24.14774 6.82723 17.74436
#
# Compressibility (1/GPa) = 0.02792294
#
# Stress axis : x y z
#
# Youngs Moduli (GPa) = 69.58546 85.62063 47.87256
#
# Poissons Ratio (x) = 0.74493 0.08698
# Poissons Ratio (y) = 0.60542 -0.04831
# Poissons Ratio (z) = 0.12643 -0.08641
#
# Static dielectric constant tensor:
#      x y z
#    x 1.684730 0.000000 0.000000 
#    y 0.000000 1.692790 0.000000 
#    z 0.000000 0.000000 1.735990 
# 
# From -- ./inp_files/11512.got.cif
#   From: 2010.05.17/outbox.cif.g08.bks.cpg/sg47_6_cif.got.tgz:11512.got - 2010.06.03 20:15:42.
