data_PCOD9388013
_publ_section_title
;
Structure prediction by ZEFSAII (Michael W. Deem and Ramdas Pophale) SiO2 
 PCOD9388013
Probable space group: P M M M
;
_chemical_formula_sum "Si O2"
_cell_formula_units_Z 52
_cell_length_a 14.987219
_cell_length_b 9.982530
_cell_length_c 19.019418
_cell_angle_alpha 90.000000
_cell_angle_beta 90.000000
_cell_angle_gamma 90.000000
_cell_volume 2845.502036
_symmetry_space_group_name_H-M "P M M M"
_symmetry_group_IT_number 47
_symmetry_cell_setting 'orthorhombic'
loop_
_space_group_symop_operation_xyz
x,y,z
-x,-y,z
x,-y,-z
-x,y,-z
-x,-y,-z
x,y,-z
-x,y,z
x,-y,z
loop_
_atom_site_type_symbol
_atom_site_label
_atom_site_fract_x
_atom_site_fract_y
_atom_site_fract_z
Si Si1 0.100999 0.000000 0.415915
Si Si2 0.150277 0.346881 0.917564
Si Si3 0.251560 0.218935 0.583652
Si Si4 0.100968 0.156347 0.795681
Si Si5 0.237825 0.350652 0.277083
Si Si6 0.600674 0.000000 0.415363
Si Si7 0.500000 0.841890 0.084591
Si Si8 0.349380 0.651582 0.143903
O O1 0.163448 0.871575 0.401434
O O2 0.092128 0.000000 0.500000
O O3 0.000000 0.000000 0.386339
O O4 0.120472 0.500000 0.901498
O O5 0.105442 0.234252 0.869867
O O6 0.255349 0.340993 0.897626
O O7 0.137399 0.324387 0.000000
O O8 0.252296 0.250764 0.500000
O O9 0.253596 0.336177 0.640248
O O10 0.337885 0.127685 0.601038
O O11 0.168240 0.238646 0.747207
O O12 0.000000 0.163473 0.768865
O O13 0.125976 0.000000 0.801737
O O14 0.203624 0.500000 0.260663
O O15 0.323112 0.332061 0.226080
O O16 0.500000 0.000000 0.386573
O O17 0.594060 0.000000 0.500000
O O18 0.415130 0.764341 0.116267
O O19 0.500000 0.000000 0.101366
O O20 0.500000 0.828325 0.000000
O O21 0.384763 0.500000 0.133642
#
# Coordination Sequence:
#
# PCOD9388013 Si02
#       8
#     4   8   8   8   8   4   4   8
#     4   8  15  29  50  79 113 144 175 222 281 335
#     4   9  18  34  57  82 108 141 179 220 269 324
#     4   9  18  33  55  83 112 145 187 233 281 335
#     4  10  22  37  54  78 107 143 185 226 271 325
#     4  10  22  39  56  77 110 146 182 230 280 332
#     4   8  15  31  54  81 113 142 173 220 274 330
#     4  11  23  37  55  85 116 137 172 226 276 322
#     4   9  19  37  56  75 105 145 183 216 262 326
#
# _framework density 18.274455
#
# number of rings (size 3 to 8) (size 9 to 14) (size 15 to 20)
#    0.000    2.692    0.000    3.000    2.154    6.462 
#    1.385    1.538    0.000    0.000    0.000    5.385 
#    0.000    0.000    0.000    0.000    0.000    0.000 
#
# Total GULP energy -289727.518983 kJ/mol
# GULP energy per Si atom -5571.683057 kJ/mol
# Density = 1.823286 g / cm^3
# Si number density = 18.274455 Si / 1000 Ang^3
#
#
#
# Elastic Constant Matrix: (Units=GPa)
#
#
# Indices 1 2 3 4 5 6 
#
# 1 94.9888 53.2050 17.0195 0.0000 0.0000 0.0000
# 2 53.2050 136.3613 55.4768 0.0000 0.0000 0.0000
# 3 17.0195 55.4768 105.1141 0.0000 0.0000 0.0000
# 4 0.0000 0.0000 0.0000 34.1787 0.0000 0.0000
# 5 0.0000 0.0000 0.0000 0.0000 4.0332 0.0000
# 6 0.0000 0.0000 0.0000 0.0000 0.0000 20.9772
#
#
#
# Elastic Compliance Matrix: (Units=1/GPa)
#
#
# Indices 1 2 3 4 5 6 
#
# 1 0.013519 -0.005583 0.000758 0.000000 0.000000 0.000000
# 2 -0.005583 0.011644 -0.005242 0.000000 0.000000 0.000000
# 3 0.000758 -0.005242 0.012157 0.000000 0.000000 0.000000
# 4 0.000000 0.000000 0.000000 0.029258 0.000000 0.000000
# 5 0.000000 0.000000 0.000000 0.000000 0.247945 0.000000
# 6 0.000000 0.000000 0.000000 0.000000 0.000000 0.047671
#
#
# Mechanical properties :
#
#
# Convention : Reuss Voigt Hill
#
# Bulk Modulus (GPa) = 58.18514 65.31853 61.75183
# Shear Modulus (GPa) = 12.88471 25.88867 19.38669
#
# Velocity S-wave (km/s) = 2.65819 3.76794 3.26062
# Velocity P-wave (km/s) = 6.42884 7.39936 6.93111
#
# Compressibility (1/GPa) = 0.01718652
#
# Stress axis : x y z
#
# Youngs Moduli (GPa) = 73.97010 85.87876 82.25577
#
# Poissons Ratio (x) = 0.47947 -0.06232
# Poissons Ratio (y) = 0.41298 0.43115
# Poissons Ratio (z) = -0.05605 0.45014
#
# Static dielectric constant tensor:
#      x y z
#    x 1.651650 0.000000 0.000000 
#    y 0.000000 1.619530 0.000000 
#    z 0.000000 0.000000 1.642140 
# 
# From -- ./inp_files/30935.got.cif
#   From: 2010.05.17/outbox.cif.g08.bks.cpg/sg47_16_cif.got.tgz:30935.got - 2010.06.03 20:15:42.
