data_PCOD9388180
_publ_section_title
;
Structure prediction by ZEFSAII (Michael W. Deem and Ramdas Pophale) SiO2 
 PCOD9388180
Probable space group: P M M M
;
_chemical_formula_sum "Si O2"
_cell_formula_units_Z 64
_cell_length_a 14.955826
_cell_length_b 8.067086
_cell_length_c 32.184010
_cell_angle_alpha 90.000000
_cell_angle_beta 90.000000
_cell_angle_gamma 90.000000
_cell_volume 3882.998700
_symmetry_space_group_name_H-M "P M M M"
_symmetry_group_IT_number 47
_symmetry_cell_setting 'orthorhombic'
loop_
_space_group_symop_operation_xyz
x,y,z
-x,-y,z
x,-y,-z
-x,y,-z
-x,-y,-z
x,y,-z
-x,y,z
x,-y,z
loop_
_atom_site_type_symbol
_atom_site_label
_atom_site_fract_x
_atom_site_fract_y
_atom_site_fract_z
Si Si1 0.900877 0.797759 0.246759
Si Si2 0.715497 0.195615 0.213273
Si Si3 0.288491 0.197370 0.626645
Si Si4 0.397361 0.700315 0.452890
Si Si5 0.098764 0.798168 0.343909
Si Si6 0.601971 0.699027 0.865270
Si Si7 0.602574 0.303212 0.707306
Si Si8 0.391626 0.696253 0.955294
O O1 0.815412 0.736607 0.221375
O O2 0.889962 0.752716 0.295352
O O3 0.000000 0.743955 0.233120
O O4 0.900032 0.000000 0.245689
O O5 0.664543 0.264323 0.173438
O O6 0.658107 0.226202 0.254894
O O7 0.723203 0.000000 0.207210
O O8 0.331777 0.237105 0.582481
O O9 0.186340 0.258638 0.631582
O O10 0.348666 0.269619 0.663748
O O11 0.287692 0.000000 0.632628
O O12 0.374867 0.752966 0.500000
O O13 0.500000 0.752557 0.444237
O O14 0.396412 0.500000 0.452141
O O15 0.000000 0.741089 0.357654
O O16 0.097372 0.000000 0.345471
O O17 0.500000 0.759776 0.857831
O O18 0.596359 0.500000 0.869277
O O19 0.636026 0.763986 0.910199
O O20 0.500000 0.242466 0.706354
O O21 0.600646 0.500000 0.714317
O O22 0.500000 0.706043 0.954592
O O23 0.369212 0.500000 0.956177
O O24 0.361956 0.767862 0.000000
#
# Coordination Sequence:
#
# PCOD9388180 Si02
#       8
#     8   8   8   8   8   8   8   8
#     4   8  14  27  46  64  83 110 145 183 222 263
#     4  11  20  30  45  65  87 114 150 188 222 257
#     4  11  20  31  51  77  96 113 146 190 228 258
#     4   9  19  36  54  70  93 127 158 180 213 264
#     4   8  14  27  47  69  92 116 143 178 222 268
#     4   9  17  28  41  59  87 122 152 178 218 268
#     4  11  23  35  45  60  89 128 158 178 210 259
#     4   7  10  19  37  58  77 103 146 191 218 246
#
# _framework density 16.482106999999999
#
# number of rings (size 3 to 8) (size 9 to 14) (size 15 to 20)
#    0.000    2.750    1.250    4.125    0.000    4.750 
#    0.000    0.625    0.000    4.500    0.000    4.375 
#    0.000    0.500    0.000    6.250    0.000    0.250 
#
# Total GULP energy -356526.498904 kJ/mol
# GULP energy per Si atom -5570.726545 kJ/mol
# Density = 1.644459 g / cm^3
# Si number density = 16.482107 Si / 1000 Ang^3
#
#
#
# Elastic Constant Matrix: (Units=GPa)
#
#
# Indices 1 2 3 4 5 6 
#
# 1 129.8690 1.5216 69.4818 0.0000 0.0000 0.0000
# 2 1.5216 8.9677 -4.2432 0.0000 0.0000 0.0000
# 3 69.4818 -4.2432 108.0369 0.0000 0.0000 0.0000
# 4 0.0000 0.0000 0.0000 165.7248 0.0000 0.0000
# 5 0.0000 0.0000 0.0000 0.0000 5.4664 0.0000
# 6 0.0000 0.0000 0.0000 0.0000 0.0000 29.4325
#
#
#
# Elastic Compliance Matrix: (Units=1/GPa)
#
#
# Indices 1 2 3 4 5 6 
#
# 1 0.012029 -0.005810 -0.007965 0.000000 0.000000 0.000000
# 2 -0.005810 0.116429 0.008309 0.000000 0.000000 0.000000
# 3 -0.007965 0.008309 0.014705 0.000000 0.000000 0.000000
# 4 0.000000 0.000000 0.000000 0.006034 0.000000 0.000000
# 5 0.000000 0.000000 0.000000 0.000000 0.182934 0.000000
# 6 0.000000 0.000000 0.000000 0.000000 0.000000 0.033976
#
#
# Mechanical properties :
#
#
# Convention : Reuss Voigt Hill
#
# Bulk Modulus (GPa) = 7.56244 42.26600 24.91422
# Shear Modulus (GPa) = 11.87325 52.13229 32.00277
#
# Velocity S-wave (km/s) = 2.68689 5.63012 4.41122
# Velocity P-wave (km/s) = 3.77148 8.24401 6.41045
#
# Compressibility (1/GPa) = 0.13223245
#
# Stress axis : x y z
#
# Youngs Moduli (GPa) = 83.13027 8.58896 68.00538
#
# Poissons Ratio (x) = 0.04990 0.54164
# Poissons Ratio (y) = 0.48295 -0.56506
# Poissons Ratio (z) = 0.66210 -0.07137
#
# Static dielectric constant tensor:
#      x y z
#    x 1.568110 0.000000 0.000000 
#    y 0.000000 1.599500 0.000000 
#    z 0.000000 0.000000 1.558640 
# 
# From -- ./inp_files/34677.got.cif
#   From: 2010.05.17/outbox.cif.g08.bks.cpg/sg47_18_cif.got.tgz:34677.got - 2010.06.03 20:15:42.
