data_PCOD9388197
_publ_section_title
;
Structure prediction by ZEFSAII (Michael W. Deem and Ramdas Pophale) SiO2 
 PCOD9388197
Probable space group: P M M M
;
_chemical_formula_sum "Si O2"
_cell_formula_units_Z 52
_cell_length_a 12.489718
_cell_length_b 8.908561
_cell_length_c 28.494621
_cell_angle_alpha 90.000000
_cell_angle_beta 90.000000
_cell_angle_gamma 90.000000
_cell_volume 3170.465822
_symmetry_space_group_name_H-M "P M M M"
_symmetry_group_IT_number 47
_symmetry_cell_setting 'orthorhombic'
loop_
_space_group_symop_operation_xyz
x,y,z
-x,-y,z
x,-y,-z
-x,y,-z
-x,-y,-z
x,y,-z
-x,y,z
x,-y,z
loop_
_atom_site_type_symbol
_atom_site_label
_atom_site_fract_x
_atom_site_fract_y
_atom_site_fract_z
Si Si1 0.123206 0.318978 0.673853
Si Si2 0.500000 0.323129 0.802032
Si Si3 0.375677 0.817576 0.947540
Si Si4 0.500000 0.183496 0.554076
Si Si5 0.500000 0.827154 0.295658
Si Si6 0.127742 0.323353 0.780508
Si Si7 0.680145 0.177008 0.625775
Si Si8 0.707904 0.820069 0.150386
O O1 0.124579 0.500000 0.673895
O O2 0.153219 0.271131 0.727247
O O3 0.209410 0.258365 0.637278
O O4 0.000000 0.271976 0.664937
O O5 0.500000 0.500000 0.810501
O O6 0.500000 0.286343 0.746967
O O7 0.604241 0.247584 0.824265
O O8 0.500000 0.773453 0.938862
O O9 0.301859 0.771159 0.904121
O O10 0.375209 0.000000 0.948272
O O11 0.345441 0.766514 0.000000
O O12 0.500000 0.229087 0.500000
O O13 0.606454 0.231431 0.582446
O O14 0.500000 0.000000 0.556185
O O15 0.602721 0.807763 0.329010
O O16 0.500000 0.000000 0.278049
O O17 0.155755 0.500000 0.783477
O O18 0.190714 0.236502 0.820545
O O19 0.000000 0.310038 0.785789
O O20 0.700747 0.000000 0.619021
O O21 0.703226 0.000000 0.151910
#
# Coordination Sequence:
#
# PCOD9388197 Si02
#       8
#     8   4   8   4   4   8   8   8
#     4   9  18  32  48  66  92 128 164 194 228 273
#     4  12  23  31  42  65  98 132 158 181 228 292
#     4   8  14  27  47  68  90 117 149 187 235 286
#     4   8  15  30  51  73  99 128 155 188 236 288
#     4   9  18  31  44  64  96 123 150 193 236 273
#     4   9  19  35  51  68  95 131 165 193 228 281
#     4   9  17  29  48  73  95 120 156 197 237 273
#     4  11  20  31  49  72  95 118 153 198 240 279
#
# _framework density 16.401374000000001
#
# number of rings (size 3 to 8) (size 9 to 14) (size 15 to 20)
#    0.000    2.692    0.769    4.385    0.000    4.308 
#    0.000    2.692    0.000    4.154    0.000    6.462 
#    0.000    0.000    0.000    0.000    0.000    0.000 
#
# Total GULP energy -289783.779712 kJ/mol
# GULP energy per Si atom -5572.764994 kJ/mol
# Density = 1.636404 g / cm^3
# Si number density = 16.401374 Si / 1000 Ang^3
#
#
#
# Elastic Constant Matrix: (Units=GPa)
#
#
# Indices 1 2 3 4 5 6 
#
# 1 72.3447 26.0090 56.4775 0.0000 0.0000 0.0000
# 2 26.0090 29.8011 31.0284 0.0000 0.0000 0.0000
# 3 56.4775 31.0284 121.3460 0.0000 0.0000 0.0000
# 4 0.0000 0.0000 0.0000 2.6256 0.0000 0.0000
# 5 0.0000 0.0000 0.0000 0.0000 -47.8998 0.0000
# 6 0.0000 0.0000 0.0000 0.0000 0.0000 26.5004
#
#
#
# Elastic Compliance Matrix: (Units=1/GPa)
#
#
# Indices 1 2 3 4 5 6 
#
# 1 0.025038 -0.013245 -0.008267 0.000000 0.000000 0.000000
# 2 -0.013245 0.052738 -0.007320 0.000000 0.000000 0.000000
# 3 -0.008267 -0.007320 0.013960 0.000000 0.000000 0.000000
# 4 0.000000 0.000000 0.000000 0.380868 0.000000 0.000000
# 5 0.000000 0.000000 0.000000 0.000000 -0.020877 0.000000
# 6 0.000000 0.000000 0.000000 0.000000 0.000000 0.037735
#
#
# Mechanical properties :
#
#
# Convention : Reuss Voigt Hill
#
# Bulk Modulus (GPa) = 29.34998 50.05797 39.70397
# Shear Modulus (GPa) = 8.95282 3.57702 6.26492
#
# Velocity S-wave (km/s) = 2.33890 1.47840 1.95654
# Velocity P-wave (km/s) = 5.02271 5.78801 5.41889
#
# Compressibility (1/GPa) = 0.03407157
#
# Stress axis : x y z
#
# Youngs Moduli (GPa) = 39.93937 18.96183 71.63214
#
# Poissons Ratio (x) = 0.25115 0.59215
# Poissons Ratio (y) = 0.52900 0.52438
# Poissons Ratio (z) = 0.33016 0.13881
#
# Static dielectric constant tensor:
#      x y z
#    x 1.543240 0.000000 0.000000 
#    y 0.000000 1.554920 0.000000 
#    z 0.000000 0.000000 1.564790 
# 
# From -- ./inp_files/33666.got.cif
#   From: 2010.05.17/outbox.cif.g08.bks.cpg/sg47_17_cif.got.tgz:33666.got - 2010.06.03 20:15:42.
