data_PCOD9388784
_publ_section_title
;
Structure prediction by ZEFSAII (Michael W. Deem and Ramdas Pophale) SiO2 
 PCOD9388784
Probable space group: P M M M
;
_chemical_formula_sum "Si O2"
_cell_formula_units_Z 44
_cell_length_a 7.625835
_cell_length_b 30.048013
_cell_length_c 9.867395
_cell_angle_alpha 90.000000
_cell_angle_beta 90.000000
_cell_angle_gamma 90.000000
_cell_volume 2261.026625
_symmetry_space_group_name_H-M "P M M M"
_symmetry_group_IT_number 47
_symmetry_cell_setting 'orthorhombic'
loop_
_space_group_symop_operation_xyz
x,y,z
-x,-y,z
x,-y,-z
-x,y,-z
-x,-y,-z
x,y,-z
-x,y,z
x,-y,z
loop_
_atom_site_type_symbol
_atom_site_label
_atom_site_fract_x
_atom_site_fract_y
_atom_site_fract_z
Si Si1 0.796412 0.000000 0.335203
Si Si2 0.208977 0.629168 0.845587
Si Si3 0.708426 0.274040 0.845533
Si Si4 0.208854 0.822896 0.154581
Si Si5 0.784541 0.902777 0.656964
Si Si6 0.785751 0.550012 0.656129
O O1 0.722846 0.048155 0.295770
O O2 0.794823 0.000000 0.500000
O O3 0.000000 0.000000 0.291831
O O4 0.238365 0.678498 0.785421
O O5 0.277630 0.589166 0.753572
O O6 0.000000 0.623274 0.854759
O O7 0.279908 0.628284 0.000000
O O8 0.500000 0.274073 0.852586
O O9 0.761473 0.226513 0.785916
O O10 0.782217 0.274068 0.000000
O O11 0.275917 0.862671 0.248166
O O12 0.000000 0.828816 0.145532
O O13 0.279742 0.824034 0.000000
O O14 0.733792 0.896218 0.500000
O O15 0.000000 0.903779 0.658274
O O16 0.732666 0.556939 0.500000
O O17 0.732954 0.500000 0.697650
O O18 0.000000 0.550663 0.657407
#
# Coordination Sequence:
#
# PCOD9388784 Si02
#       6
#     4   8   8   8   8   8
#     4   7  10  18  33  53  78 107 134 158 190 237
#     4   9  16  26  43  66  86 104 133 173 206 230
#     4   9  17  29  44  60  80 109 140 166 199 246
#     4   9  16  26  41  61  83 105 132 168 205 237
#     4   8  13  22  37  57  81 108 135 162 196 240
#     4   8  14  25  41  62  88 114 136 160 196 242
#
# _framework density 19.460187999999999
#
# number of rings (size 3 to 8) (size 9 to 14) (size 15 to 20)
#    0.000    3.545    0.000    2.182    0.000    2.545 
#    0.000    3.182    0.000    9.818    0.000    4.455 
#    0.000    5.091    0.000    0.000    0.000    0.000 
#
# Total GULP energy -244941.319503 kJ/mol
# GULP energy per Si atom -5566.848171 kJ/mol
# Density = 1.941590 g / cm^3
# Si number density = 19.460188 Si / 1000 Ang^3
#
#
#
# Elastic Constant Matrix: (Units=GPa)
#
#
# Indices 1 2 3 4 5 6 
#
# 1 38.9173 2.7402 4.1706 0.0000 0.0000 0.0000
# 2 2.7402 242.3327 90.5840 0.0000 0.0000 0.0000
# 3 4.1706 90.5840 57.0820 0.0000 0.0000 0.0000
# 4 0.0000 0.0000 0.0000 31.1528 0.0000 0.0000
# 5 0.0000 0.0000 0.0000 0.0000 -1.3584 0.0000
# 6 0.0000 0.0000 0.0000 0.0000 0.0000 -40.9300
#
#
#
# Elastic Compliance Matrix: (Units=1/GPa)
#
#
# Indices 1 2 3 4 5 6 
#
# 1 0.026001 0.001023 -0.003523 0.000000 0.000000 0.000000
# 2 0.001023 0.010184 -0.016236 0.000000 0.000000 0.000000
# 3 -0.003523 -0.016236 0.043540 0.000000 0.000000 0.000000
# 4 0.000000 0.000000 0.000000 0.032100 0.000000 0.000000
# 5 0.000000 0.000000 0.000000 0.000000 -0.736186 0.000000
# 6 0.000000 0.000000 0.000000 0.000000 0.000000 -0.024432
#
#
# Mechanical properties :
#
#
# Convention : Reuss Voigt Hill
#
# Bulk Modulus (GPa) = 23.66634 59.25796 41.46215
# Shear Modulus (GPa) = -8.37189 13.82872 2.72842
#
# Velocity S-wave (km/s) = -2.07639 2.66863 1.18537
# Velocity P-wave (km/s) = 2.53757 6.32554 4.81932
#
# Compressibility (1/GPa) = 0.04225410
#
# Stress axis : x y z
#
# Youngs Moduli (GPa) = 38.46002 98.19468 22.96716
#
# Poissons Ratio (x) = -0.10044 0.08091
# Poissons Ratio (y) = -0.03934 0.37289
# Poissons Ratio (z) = 0.13549 1.59425
#
# Static dielectric constant tensor:
#      x y z
#    x 1.707580 0.000000 0.000000 
#    y 0.000000 1.716270 0.000000 
#    z 0.000000 0.000000 1.665980 
# 
# From -- ./inp_files/2042.got.cif
#   From: 2010.05.17/outbox.cif.g08.bks.cpg/sg47_2_cif.got.tgz:2042.got - 2010.06.03 20:15:42.
