data_PCOD9388741
_publ_section_title
;
Structure prediction by ZEFSAII (Michael W. Deem and Ramdas Pophale) SiO2 
 PCOD9388741
Probable space group: P M M M
;
_chemical_formula_sum "Si O2"
_cell_formula_units_Z 40
_cell_length_a 9.692315
_cell_length_b 26.818228
_cell_length_c 7.368485
_cell_angle_alpha 90.000000
_cell_angle_beta 90.000000
_cell_angle_gamma 90.000000
_cell_volume 1915.295564
_symmetry_space_group_name_H-M "P M M M"
_symmetry_group_IT_number 47
_symmetry_cell_setting 'orthorhombic'
loop_
_space_group_symop_operation_xyz
x,y,z
-x,-y,z
x,-y,-z
-x,y,-z
-x,-y,-z
x,y,-z
-x,y,z
x,-y,z
loop_
_atom_site_type_symbol
_atom_site_label
_atom_site_fract_x
_atom_site_fract_y
_atom_site_fract_z
Si Si1 0.343123 0.091824 0.716579
Si Si2 0.332262 0.500000 0.210082
Si Si3 0.343045 0.205165 0.216554
Si Si4 0.659725 0.390976 0.221954
Si Si5 0.841517 0.296909 0.778097
Si Si6 0.158278 0.000000 0.277726
O O1 0.350964 0.085710 0.500000
O O2 0.500000 0.086523 0.787450
O O3 0.296862 0.148472 0.750357
O O4 0.240913 0.049128 0.782711
O O5 0.500000 0.500000 0.211473
O O6 0.293246 0.554045 0.285868
O O7 0.287118 0.500000 0.000000
O O8 0.500000 0.210402 0.287402
O O9 0.240345 0.247679 0.283252
O O10 0.350951 0.211480 0.000000
O O11 0.500000 0.382654 0.275347
O O12 0.757483 0.346018 0.278125
O O13 0.659596 0.392386 0.000000
O O14 0.000000 0.297378 0.719779
O O15 0.841859 0.296754 0.000000
O O16 0.157445 0.000000 0.500000
O O17 0.000000 0.000000 0.219391
#
# Coordination Sequence:
#
# PCOD9388741 Si02
#       6
#     8   4   8   8   8   4
#     4   9  17  30  48  67  85 106 134 168 202 234
#     4   7  10  16  27  43  61  85 122 165 202 235
#     4   9  17  29  44  61  81 107 138 168 199 238
#     4   8  12  19  31  45  63  91 128 166 201 239
#     4   9  16  24  34  50  73 101 132 165 201 240
#     4   9  17  29  46  67  88 110 136 163 194 238
#
# _framework density 20.884505000000001
#
# number of rings (size 3 to 8) (size 9 to 14) (size 15 to 20)
#    0.000    3.400    0.000    2.100    0.000    4.400 
#    0.000    1.000    0.000    6.000    0.000    0.000 
#    0.000    0.000    0.000    0.900    0.000   21.600 
#
# Total GULP energy -223125.142365 kJ/mol
# GULP energy per Si atom -5578.128559 kJ/mol
# Density = 2.083697 g / cm^3
# Si number density = 20.884505 Si / 1000 Ang^3
#
#
#
# Elastic Constant Matrix: (Units=GPa)
#
#
# Indices 1 2 3 4 5 6 
#
# 1 139.0370 153.3311 6.6205 0.0000 0.0000 0.0000
# 2 153.3311 257.0700 3.6916 0.0000 0.0000 0.0000
# 3 6.6205 3.6916 75.0676 0.0000 0.0000 0.0000
# 4 0.0000 0.0000 0.0000 19.5985 0.0000 0.0000
# 5 0.0000 0.0000 0.0000 0.0000 -7.3949 0.0000
# 6 0.0000 0.0000 0.0000 0.0000 0.0000 185.4852
#
#
#
# Elastic Compliance Matrix: (Units=1/GPa)
#
#
# Indices 1 2 3 4 5 6 
#
# 1 0.021132 -0.012587 -0.001245 0.000000 0.000000 0.000000
# 2 -0.012587 0.011389 0.000550 0.000000 0.000000 0.000000
# 3 -0.001245 0.000550 0.013404 0.000000 0.000000 0.000000
# 4 0.000000 0.000000 0.000000 0.051024 0.000000 0.000000
# 5 0.000000 0.000000 0.000000 0.000000 -0.135228 0.000000
# 6 0.000000 0.000000 0.000000 0.000000 0.000000 0.005391
#
#
# Mechanical properties :
#
#
# Convention : Reuss Voigt Hill
#
# Bulk Modulus (GPa) = 51.64500 88.71789 70.18145
# Shear Modulus (GPa) = 38376.14851 60.03986 19218.09418
#
# Velocity S-wave (km/s) = 135.70302 5.36758 96.03156
# Velocity P-wave (km/s) = 156.77540 8.99928 111.03944
#
# Compressibility (1/GPa) = 0.01936296
#
# Stress axis : x y z
#
# Youngs Moduli (GPa) = 47.32136 87.80092 74.60424
#
# Poissons Ratio (x) = 1.10511 0.09286
# Poissons Ratio (y) = 0.59561 -0.04103
# Poissons Ratio (z) = 0.05890 -0.04829
#
# Static dielectric constant tensor:
#      x y z
#    x 1.697850 0.000000 0.000000 
#    y 0.000000 1.736490 0.000000 
#    z 0.000000 0.000000 1.826040 
# 
# From -- ./inp_files/13148.got.cif
#   From: 2010.05.17/outbox.cif.g08.bks.cpg/sg47_7_cif.got.tgz:13148.got - 2010.06.03 20:15:42.
