data_PCOD9388621
_publ_section_title
;
Structure prediction by ZEFSAII (Michael W. Deem and Ramdas Pophale) SiO2 
 PCOD9388621
Probable space group: P M M M
;
_chemical_formula_sum "Si O2"
_cell_formula_units_Z 44
_cell_length_a 9.609005
_cell_length_b 8.886933
_cell_length_c 29.347815
_cell_angle_alpha 90.000000
_cell_angle_beta 90.000000
_cell_angle_gamma 90.000000
_cell_volume 2506.144442
_symmetry_space_group_name_H-M "P M M M"
_symmetry_group_IT_number 47
_symmetry_cell_setting 'orthorhombic'
loop_
_space_group_symop_operation_xyz
x,y,z
-x,-y,z
x,-y,-z
-x,y,-z
-x,-y,-z
x,y,-z
-x,y,z
x,-y,z
loop_
_atom_site_type_symbol
_atom_site_label
_atom_site_fract_x
_atom_site_fract_y
_atom_site_fract_z
Si Si1 0.337293 0.319716 0.817391
Si Si2 0.838806 0.181011 0.631836
Si Si3 0.831060 0.173703 0.000000
Si Si4 0.836439 0.182686 0.899921
Si Si5 0.663334 0.319134 0.449303
Si Si6 0.164125 0.181213 0.264602
O O1 0.500000 0.276714 0.817090
O O2 0.328116 0.500000 0.819063
O O3 0.258315 0.250187 0.860732
O O4 0.259496 0.259642 0.772539
O O5 0.746997 0.249220 0.592087
O O6 0.798348 0.224852 0.683471
O O7 0.000000 0.224673 0.625507
O O8 0.831541 0.000000 0.629969
O O9 0.792357 0.237726 0.049357
O O10 0.000000 0.170632 0.000000
O O11 0.783513 0.000000 0.000000
O O12 0.000000 0.220423 0.892788
O O13 0.828224 0.000000 0.899453
O O14 0.711370 0.270623 0.500000
O O15 0.500000 0.281299 0.445533
O O16 0.674733 0.500000 0.447525
O O17 0.000000 0.216098 0.257525
O O18 0.177439 0.000000 0.260649
#
# Coordination Sequence:
#
# PCOD9388621 Si02
#       6
#     8   8   4   8   8   8
#     4  11  24  37  48  70 105 139 170 205 247 296
#     4   9  19  35  54  78 105 129 159 205 257 304
#     4   7  12  26  50  79 104 124 156 205 252 293
#     4   9  17  32  56  81 102 128 165 208 252 297
#     4   9  19  35  52  72 102 139 175 208 243 288
#     4   9  19  37  58  77  98 127 165 208 254 303
#
# _framework density 17.556850000000001
#
# number of rings (size 3 to 8) (size 9 to 14) (size 15 to 20)
#    0.000    2.818    0.000    3.818    0.000    7.273 
#    0.000    9.091    0.000    4.364    0.000    0.000 
#    0.000    0.000    0.000    0.000    0.000    0.000 
#
# Total GULP energy -245274.415756 kJ/mol
# GULP energy per Si atom -5574.418540 kJ/mol
# Density = 1.751689 g / cm^3
# Si number density = 17.556850 Si / 1000 Ang^3
#
#
#
# Elastic Constant Matrix: (Units=GPa)
#
#
# Indices 1 2 3 4 5 6 
#
# 1 94.4507 39.5212 113.1148 0.0000 0.0000 0.0000
# 2 39.5212 21.4786 50.9386 0.0000 0.0000 0.0000
# 3 113.1148 50.9386 213.6178 0.0000 0.0000 0.0000
# 4 0.0000 0.0000 0.0000 6816.6340 0.0000 0.0000
# 5 0.0000 0.0000 0.0000 0.0000 -58.8301 0.0000
# 6 0.0000 0.0000 0.0000 0.0000 0.0000 30.8824
#
#
#
# Elastic Compliance Matrix: (Units=1/GPa)
#
#
# Indices 1 2 3 4 5 6 
#
# 1 0.056557 -0.076050 -0.011814 0.000000 0.000000 0.000000
# 2 -0.076050 0.209418 -0.009667 0.000000 0.000000 0.000000
# 3 -0.011814 -0.009667 0.013242 0.000000 0.000000 0.000000
# 4 0.000000 0.000000 0.000000 0.000147 0.000000 0.000000
# 5 0.000000 0.000000 0.000000 0.000000 -0.016998 0.000000
# 6 0.000000 0.000000 0.000000 0.000000 0.000000 0.032381
#
#
# Mechanical properties :
#
#
# Convention : Reuss Voigt Hill
#
# Bulk Modulus (GPa) = 11.88265 81.85514 46.86890
# Shear Modulus (GPa) = 9.65512 1366.13545 687.89528
#
# Velocity S-wave (km/s) = 2.34761 27.92508 19.81567
# Velocity P-wave (km/s) = 3.75915 32.96166 23.45850
#
# Compressibility (1/GPa) = 0.08415630
#
# Stress axis : x y z
#
# Youngs Moduli (GPa) = 17.68124 4.77513 75.51696
#
# Poissons Ratio (x) = 0.36315 0.89213
# Poissons Ratio (y) = 1.34465 0.73006
# Poissons Ratio (z) = 0.20888 0.04616
#
# Static dielectric constant tensor:
#      x y z
#    x 1.574770 0.000000 0.000000 
#    y 0.000000 1.588640 0.000000 
#    z 0.000000 0.000000 1.607900 
# 
# From -- ./inp_files/33884.got.cif
#   From: 2010.05.17/outbox.cif.g08.bks.cpg/sg47_17_cif.got.tgz:33884.got - 2010.06.03 20:15:42.
