data_PCOD9388780
_publ_section_title
;
Structure prediction by ZEFSAII (Michael W. Deem and Ramdas Pophale) SiO2 
 PCOD9388780
Probable space group: P M M M
;
_chemical_formula_sum "Si O2"
_cell_formula_units_Z 44
_cell_length_a 7.365718
_cell_length_b 9.916180
_cell_length_c 30.130364
_cell_angle_alpha 90.000000
_cell_angle_beta 90.000000
_cell_angle_gamma 90.000000
_cell_volume 2200.715324
_symmetry_space_group_name_H-M "P M M M"
_symmetry_group_IT_number 47
_symmetry_cell_setting 'orthorhombic'
loop_
_space_group_symop_operation_xyz
x,y,z
-x,-y,z
x,-y,-z
-x,y,-z
-x,-y,-z
x,y,-z
-x,y,z
x,-y,z
loop_
_atom_site_type_symbol
_atom_site_label
_atom_site_fract_x
_atom_site_fract_y
_atom_site_fract_z
Si Si1 0.783200 0.346616 0.824011
Si Si2 0.716729 0.346494 0.276165
Si Si3 0.718639 0.161206 0.547704
Si Si4 0.777488 0.156074 0.096979
Si Si5 0.788632 0.836099 0.000000
Si Si6 0.722054 0.156642 0.355230
O O1 0.712469 0.500000 0.827200
O O2 0.749595 0.297144 0.773948
O O3 0.715859 0.249411 0.862750
O O4 0.000000 0.353378 0.829302
O O5 0.500000 0.353525 0.281649
O O6 0.787479 0.500000 0.279385
O O7 0.784782 0.248516 0.314657
O O8 0.786059 0.214472 0.500000
O O9 0.500000 0.177403 0.547242
O O10 0.781159 0.209176 0.596047
O O11 0.753171 0.000000 0.547870
O O12 0.000000 0.156947 0.096026
O O13 0.724428 0.000000 0.103173
O O14 0.714765 0.204274 0.048108
O O15 0.000000 0.795629 0.000000
O O16 0.782781 0.000000 0.000000
O O17 0.500000 0.156890 0.355414
O O18 0.775925 0.000000 0.350217
#
# Coordination Sequence:
#
# PCOD9388780 Si02
#       6
#     8   8   8   8   4   8
#     4   9  17  28  40  55  76  99 123 153 186 216
#     4   9  17  28  40  53  72 100 128 151 181 221
#     4   7   9  14  26  45  68  92 116 142 175 215
#     4   8  13  22  37  56  77 100 123 147 179 219
#     4   7  10  18  33  53  76  99 120 142 174 219
#     4   8  13  21  34  52  72  94 122 154 182 211
#
# _framework density 19.993500000000001
#
# number of rings (size 3 to 8) (size 9 to 14) (size 15 to 20)
#    0.000    3.909    0.000    2.727    0.000    0.727 
#    0.000    0.455    0.000    3.273    0.000    4.455 
#    0.000    5.818    0.000    9.091    0.000    8.364 
#
# Total GULP energy -244954.440317 kJ/mol
# GULP energy per Si atom -5567.146371 kJ/mol
# Density = 1.994799 g / cm^3
# Si number density = 19.993500 Si / 1000 Ang^3
#
#
#
# Elastic Constant Matrix: (Units=GPa)
#
#
# Indices 1 2 3 4 5 6 
#
# 1 70.2893 3.5440 4.9855 0.0000 0.0000 0.0000
# 2 3.5440 55.7095 99.6322 0.0000 0.0000 0.0000
# 3 4.9855 99.6322 271.5443 0.0000 0.0000 0.0000
# 4 0.0000 0.0000 0.0000 -21.0915 0.0000 0.0000
# 5 0.0000 0.0000 0.0000 0.0000 8.2834 0.0000
# 6 0.0000 0.0000 0.0000 0.0000 0.0000 -7.9115
#
#
#
# Elastic Compliance Matrix: (Units=1/GPa)
#
#
# Indices 1 2 3 4 5 6 
#
# 1 0.014277 -0.001278 0.000207 0.000000 0.000000 0.000000
# 2 -0.001278 0.052324 -0.019175 0.000000 0.000000 0.000000
# 3 0.000207 -0.019175 0.010714 0.000000 0.000000 0.000000
# 4 0.000000 0.000000 0.000000 -0.047412 0.000000 0.000000
# 5 0.000000 0.000000 0.000000 0.000000 0.120723 0.000000
# 6 0.000000 0.000000 0.000000 0.000000 0.000000 -0.126399
#
#
# Mechanical properties :
#
#
# Convention : Reuss Voigt Hill
#
# Bulk Modulus (GPa) = 27.15697 68.20740 47.68218
# Shear Modulus (GPa) = 64.94066 15.14818 40.04442
#
# Velocity S-wave (km/s) = 5.70538 2.75554 4.48020
# Velocity P-wave (km/s) = 7.55078 6.65679 7.11783
#
# Compressibility (1/GPa) = 0.03682296
#
# Stress axis : x y z
#
# Youngs Moduli (GPa) = 70.04422 19.11160 93.33358
#
# Poissons Ratio (x) = 0.02443 -0.01931
# Poissons Ratio (y) = 0.08953 1.78965
# Poissons Ratio (z) = -0.01449 0.36646
#
# Static dielectric constant tensor:
#      x y z
#    x 1.830690 0.000000 0.000000 
#    y 0.000000 1.663960 0.000000 
#    z 0.000000 0.000000 1.740640 
# 
# From -- ./inp_files/34478.got.cif
#   From: 2010.05.17/outbox.cif.g08.bks.cpg/sg47_18_cif.got.tgz:34478.got - 2010.06.03 20:15:42.
