data_PCOD9388373
_publ_section_title
;
Structure prediction by ZEFSAII (Michael W. Deem and Ramdas Pophale) SiO2 
 PCOD9388373
Probable space group: P M M M
;
_chemical_formula_sum "Si O2"
_cell_formula_units_Z 48
_cell_length_a 10.406208
_cell_length_b 8.202182
_cell_length_c 30.930652
_cell_angle_alpha 90.000000
_cell_angle_beta 90.000000
_cell_angle_gamma 90.000000
_cell_volume 2640.042868
_symmetry_space_group_name_H-M "P M M M"
_symmetry_group_IT_number 47
_symmetry_cell_setting 'orthorhombic'
loop_
_space_group_symop_operation_xyz
x,y,z
-x,-y,z
x,-y,-z
-x,y,-z
-x,-y,-z
x,y,-z
-x,y,z
x,-y,z
loop_
_atom_site_type_symbol
_atom_site_label
_atom_site_fract_x
_atom_site_fract_y
_atom_site_fract_z
Si Si1 0.351246 0.801417 0.690137
Si Si2 0.500000 0.304227 0.549921
Si Si3 0.000000 0.693634 0.451038
Si Si4 0.647820 0.196977 0.787713
Si Si5 0.247961 0.194451 0.399063
Si Si6 0.148338 0.697137 0.141018
Si Si7 0.844316 0.307507 0.953548
O O1 0.500000 0.755979 0.681703
O O2 0.318452 0.748111 0.738763
O O3 0.265127 0.743701 0.650232
O O4 0.347564 0.000000 0.690361
O O5 0.500000 0.500000 0.550386
O O6 0.500000 0.249706 0.500000
O O7 0.625387 0.242333 0.574531
O O8 0.874981 0.743689 0.424461
O O9 0.000000 0.500000 0.454622
O O10 0.000000 0.762478 0.500000
O O11 0.500000 0.249454 0.796840
O O12 0.751934 0.253954 0.822223
O O13 0.647246 0.000000 0.787642
O O14 0.240187 0.000000 0.396993
O O15 0.144704 0.500000 0.138667
O O16 0.193272 0.759076 0.093447
O O17 0.000000 0.751035 0.148863
O O18 0.810434 0.500000 0.954114
O O19 0.000000 0.300019 0.953288
O O20 0.801015 0.236870 0.000000
#
# Coordination Sequence:
#
# PCOD9388373 Si02
#       7
#     8   4   4   8   8   8   8
#     4   8  15  32  56  79 100 124 163 215 258 289
#     4  11  23  37  55  83 117 145 167 203 262 319
#     4  11  25  43  57  75 113 153 173 199 258 323
#     4   9  18  33  53  72  95 132 172 203 242 303
#     4  11  21  37  62  85 104 133 180 227 255 292
#     4   9  17  29  46  72 104 129 158 208 258 297
#     4   7  10  19  38  63  90 123 161 200 246 296
#
# _framework density 18.181522999999999
#
# number of rings (size 3 to 8) (size 9 to 14) (size 15 to 20)
#    0.000    2.833    0.833    4.000    0.000    4.000 
#    1.500    1.667    0.000    1.000    0.000    5.833 
#    0.000    0.000    0.000    0.000    0.000    0.000 
#
# Total GULP energy -267379.127088 kJ/mol
# GULP energy per Si atom -5570.398481 kJ/mol
# Density = 1.814014 g / cm^3
# Si number density = 18.181523 Si / 1000 Ang^3
#
#
#
# Elastic Constant Matrix: (Units=GPa)
#
#
# Indices 1 2 3 4 5 6 
#
# 1 117.0338 14.4467 104.0683 0.0000 0.0000 0.0000
# 2 14.4467 16.8055 20.0618 0.0000 0.0000 0.0000
# 3 104.0683 20.0618 217.3516 0.0000 0.0000 0.0000
# 4 0.0000 0.0000 0.0000 22.5119 0.0000 0.0000
# 5 0.0000 0.0000 0.0000 0.0000 30.4152 0.0000
# 6 0.0000 0.0000 0.0000 0.0000 0.0000 26.1019
#
#
#
# Elastic Compliance Matrix: (Units=1/GPa)
#
#
# Indices 1 2 3 4 5 6 
#
# 1 0.015235 -0.004932 -0.006839 0.000000 0.000000 0.000000
# 2 -0.004932 0.068469 -0.003958 0.000000 0.000000 0.000000
# 3 -0.006839 -0.003958 0.008241 0.000000 0.000000 0.000000
# 4 0.000000 0.000000 0.000000 0.044421 0.000000 0.000000
# 5 0.000000 0.000000 0.000000 0.000000 0.032878 0.000000
# 6 0.000000 0.000000 0.000000 0.000000 0.000000 0.038311
#
#
# Mechanical properties :
#
#
# Convention : Reuss Voigt Hill
#
# Bulk Modulus (GPa) = 16.53281 69.81606 43.17443
# Shear Modulus (GPa) = 19.29183 29.98008 24.63595
#
# Velocity S-wave (km/s) = 3.26094 4.06511 3.68502
# Velocity P-wave (km/s) = 4.82610 7.77922 6.47331
#
# Compressibility (1/GPa) = 0.06048579
#
# Stress axis : x y z
#
# Youngs Moduli (GPa) = 65.63848 14.60507 121.34660
#
# Poissons Ratio (x) = 0.07203 0.82992
# Poissons Ratio (y) = 0.32374 0.48033
# Poissons Ratio (z) = 0.44892 0.05781
#
# Static dielectric constant tensor:
#      x y z
#    x 1.588070 0.000000 0.000000 
#    y 0.000000 1.649820 0.000000 
#    z 0.000000 0.000000 1.677500 
# 
# From -- ./inp_files/34038.got.cif
#   From: 2010.05.17/outbox.cif.g08.bks.cpg/sg47_18_cif.got.tgz:34038.got - 2010.06.03 20:15:42.
