data_PCOD9388887
_publ_section_title
;
Structure prediction by ZEFSAII (Michael W. Deem and Ramdas Pophale) SiO2 
 PCOD9388887
Probable space group: P M M M
;
_chemical_formula_sum "Si O2"
_cell_formula_units_Z 64
_cell_length_a 24.719891
_cell_length_b 7.418038
_cell_length_c 19.825476
_cell_angle_alpha 90.000000
_cell_angle_beta 90.000000
_cell_angle_gamma 90.000000
_cell_volume 3635.458811
_symmetry_space_group_name_H-M "P M M M"
_symmetry_group_IT_number 47
_symmetry_cell_setting 'orthorhombic'
loop_
_space_group_symop_operation_xyz
x,y,z
-x,-y,z
x,-y,-z
-x,y,-z
-x,-y,-z
x,y,-z
-x,y,z
x,-y,z
loop_
_atom_site_type_symbol
_atom_site_label
_atom_site_fract_x
_atom_site_fract_y
_atom_site_fract_z
Si Si1 0.773742 0.216500 0.923848
Si Si2 0.835776 0.714135 0.793930
Si Si3 0.060665 0.720595 0.713834
Si Si4 0.439261 0.219730 0.921904
Si Si5 0.728192 0.716777 0.282585
Si Si6 0.666455 0.213785 0.152681
Si Si7 0.239742 0.280504 0.425372
Si Si8 0.113443 0.280866 0.425157
O O1 0.822042 0.256588 0.872058
O O2 0.718137 0.285404 0.889427
O O3 0.769559 0.000000 0.926830
O O4 0.780444 0.282985 0.000000
O O5 0.836196 0.500000 0.782331
O O6 0.892472 0.781647 0.765030
O O7 0.783887 0.784692 0.752128
O O8 0.060327 0.500000 0.714236
O O9 0.078449 0.777176 0.638517
O O10 0.000000 0.779616 0.729810
O O11 0.500000 0.279030 0.903597
O O12 0.390527 0.283792 0.874726
O O13 0.439948 0.000000 0.920092
O O14 0.428920 0.269539 0.000000
O O15 0.731277 0.500000 0.284353
O O16 0.680138 0.760814 0.231241
O O17 0.727288 0.779913 0.359800
O O18 0.665585 0.000000 0.140469
O O19 0.257015 0.219986 0.500000
O O20 0.240898 0.500000 0.426228
O O21 0.176519 0.230529 0.416058
O O22 0.095924 0.222077 0.500000
O O23 0.112313 0.500000 0.425203
#
# Coordination Sequence:
#
# PCOD9388887 Si02
#       8
#     8   8   8   8   8   8   8   8
#     4   9  17  28  42  59  77  97 121 153 191 225
#     4   9  16  26  39  56  77  99 123 151 187 231
#     4   9  15  22  33  50  74 101 125 152 188 228
#     4   8  13  22  38  59  81 106 135 161 182 212
#     4   9  15  24  38  55  77 104 131 158 189 225
#     4   9  16  25  39  60  83 103 125 156 189 220
#     4   8  12  19  33  51  72 100 131 158 184 220
#     4   8  12  18  29  47  72 100 127 153 182 219
#
# _framework density 17.604379000000002
#
# number of rings (size 3 to 8) (size 9 to 14) (size 15 to 20)
#    0.000    3.375    1.250    1.500    0.000    2.000 
#    0.000    1.250    0.000    2.625    0.000    3.500 
#    0.000    1.000    0.000    7.375    0.000    1.250 
#
# Total GULP energy -356615.882897 kJ/mol
# GULP energy per Si atom -5572.123170 kJ/mol
# Density = 1.756431 g / cm^3
# Si number density = 17.604379 Si / 1000 Ang^3
#
#
#
# Elastic Constant Matrix: (Units=GPa)
#
#
# Indices 1 2 3 4 5 6 
#
# 1 127.2252 6.1283 93.1355 0.0000 0.0000 0.0000
# 2 6.1283 54.5217 -1.5114 0.0000 0.0000 0.0000
# 3 93.1355 -1.5114 144.5640 0.0000 0.0000 0.0000
# 4 0.0000 0.0000 0.0000 15.6046 0.0000 0.0000
# 5 0.0000 0.0000 0.0000 0.0000 29.4472 0.0000
# 6 0.0000 0.0000 0.0000 0.0000 0.0000 3.5215
#
#
#
# Elastic Compliance Matrix: (Units=1/GPa)
#
#
# Indices 1 2 3 4 5 6 
#
# 1 0.015084 -0.001965 -0.009738 0.000000 0.000000 0.000000
# 2 -0.001965 0.018603 0.001461 0.000000 0.000000 0.000000
# 3 -0.009738 0.001461 0.013206 0.000000 0.000000 0.000000
# 4 0.000000 0.000000 0.000000 0.064084 0.000000 0.000000
# 5 0.000000 0.000000 0.000000 0.000000 0.033959 0.000000
# 6 0.000000 0.000000 0.000000 0.000000 0.000000 0.283973
#
#
# Mechanical properties :
#
#
# Convention : Reuss Voigt Hill
#
# Bulk Modulus (GPa) = 37.86870 57.97953 47.92411
# Shear Modulus (GPa) = 10.91235 24.95189 17.93212
#
# Velocity S-wave (km/s) = 2.49241 3.76888 3.19504
# Velocity P-wave (km/s) = 5.46264 7.20732 6.39476
#
# Compressibility (1/GPa) = 0.02640704
#
# Stress axis : x y z
#
# Youngs Moduli (GPa) = 66.29728 53.75560 75.72071
#
# Poissons Ratio (x) = 0.10565 0.73738
# Poissons Ratio (y) = 0.13030 -0.11060
# Poissons Ratio (z) = 0.64561 -0.07852
#
# Static dielectric constant tensor:
#      x y z
#    x 1.581270 0.000000 0.000000 
#    y 0.000000 1.705140 0.000000 
#    z 0.000000 0.000000 1.613820 
# 
# From -- ./inp_files/28837.got.cif
#   From: 2010.05.17/outbox.cif.g08.bks.cpg/sg47_15_cif.got.tgz:28837.got - 2010.06.03 20:15:42.
