data_PCOD9388690
_publ_section_title
;
Structure prediction by ZEFSAII (Michael W. Deem and Ramdas Pophale) SiO2 
 PCOD9388690
Probable space group: P M M M
;
_chemical_formula_sum "Si O2"
_cell_formula_units_Z 36
_cell_length_a 7.510085
_cell_length_b 9.285914
_cell_length_c 26.493409
_cell_angle_alpha 90.000000
_cell_angle_beta 90.000000
_cell_angle_gamma 90.000000
_cell_volume 1847.597448
_symmetry_space_group_name_H-M "P M M M"
_symmetry_group_IT_number 47
_symmetry_cell_setting 'orthorhombic'
loop_
_space_group_symop_operation_xyz
x,y,z
-x,-y,z
x,-y,-z
-x,y,-z
-x,-y,-z
x,y,-z
-x,y,z
x,-y,z
loop_
_atom_site_type_symbol
_atom_site_label
_atom_site_fract_x
_atom_site_fract_y
_atom_site_fract_z
Si Si1 0.217256 0.667193 0.444564
Si Si2 0.711424 0.173987 0.126694
Si Si3 0.787233 0.163592 0.653000
Si Si4 0.000000 0.328537 0.940053
Si Si5 0.713143 0.835657 0.762223
O O1 0.272371 0.722661 0.500000
O O2 0.268489 0.500000 0.441088
O O3 0.281394 0.752349 0.395680
O O4 0.000000 0.670984 0.444023
O O5 0.500000 0.200599 0.120439
O O6 0.769296 0.223108 0.183338
O O7 0.829307 0.254266 0.085767
O O8 0.736580 0.000000 0.124424
O O9 0.754912 0.232610 0.708111
O O10 0.000000 0.155444 0.647661
O O11 0.716012 0.000000 0.653563
O O12 0.000000 0.500000 0.930931
O O13 0.000000 0.304329 0.000000
O O14 0.500000 0.843743 0.765443
O O15 0.783915 0.000000 0.759424
#
# Coordination Sequence:
#
# PCOD9388690 Si02
#       5
#     8   8   8   4   8
#     4   8  14  25  39  55  81 118 155 193 241 293
#     4   9  19  37  62  88 112 145 190 236 278 323
#     4   9  16  24  40  68  93 115 149 195 246 298
#     4  11  25  41  57  83 119 157 190 223 274 331
#     4   8  15  29  49  73 100 129 160 200 256 313
#
# _framework density 19.484764999999999
#
# number of rings (size 3 to 8) (size 9 to 14) (size 15 to 20)
#    0.000    3.222    0.000    2.333    1.556    2.222 
#    0.000    5.556    0.000    2.667    0.000    4.667 
#    0.000    0.000    0.000    0.000    0.000    0.000 
#
# Total GULP energy -200524.486945 kJ/mol
# GULP energy per Si atom -5570.124637 kJ/mol
# Density = 1.944042 g / cm^3
# Si number density = 19.484765 Si / 1000 Ang^3
#
#
#
# Elastic Constant Matrix: (Units=GPa)
#
#
# Indices 1 2 3 4 5 6 
#
# 1 71.8033 26.0823 49.5933 0.0000 0.0000 0.0000
# 2 26.0823 45.1909 76.6102 0.0000 0.0000 0.0000
# 3 49.5933 76.6102 217.6943 0.0000 0.0000 0.0000
# 4 0.0000 0.0000 0.0000 368.4240 0.0000 0.0000
# 5 0.0000 0.0000 0.0000 0.0000 59.9249 0.0000
# 6 0.0000 0.0000 0.0000 0.0000 0.0000 4.5239
#
#
#
# Elastic Compliance Matrix: (Units=1/GPa)
#
#
# Indices 1 2 3 4 5 6 
#
# 1 0.017724 -0.008390 -0.001085 0.000000 0.000000 0.000000
# 2 -0.008390 0.058825 -0.018790 0.000000 0.000000 0.000000
# 3 -0.001085 -0.018790 0.011453 0.000000 0.000000 0.000000
# 4 0.000000 0.000000 0.000000 0.002714 0.000000 0.000000
# 5 0.000000 0.000000 0.000000 0.000000 0.016688 0.000000
# 6 0.000000 0.000000 0.000000 0.000000 0.000000 0.221049
#
#
# Mechanical properties :
#
#
# Convention : Reuss Voigt Hill
#
# Bulk Modulus (GPa) = 31.77452 71.02890 51.40171
# Shear Modulus (GPa) = 12.64306 98.73472 55.68889
#
# Velocity S-wave (km/s) = 2.55005 7.12620 5.35189
# Velocity P-wave (km/s) = 5.00131 10.20995 8.03916
#
# Compressibility (1/GPa) = 0.03147176
#
# Stress axis : x y z
#
# Youngs Moduli (GPa) = 56.42049 16.99969 87.31067
#
# Poissons Ratio (x) = 0.14263 0.09475
# Poissons Ratio (y) = 0.47336 1.64057
# Poissons Ratio (z) = 0.06123 0.31943
#
# Static dielectric constant tensor:
#      x y z
#    x 1.723580 0.000000 0.000000 
#    y 0.000000 1.656920 0.000000 
#    z 0.000000 0.000000 1.717490 
# 
# From -- ./inp_files/32972.got.cif
#   From: 2010.05.17/outbox.cif.g08.bks.cpg/sg47_17_cif.got.tgz:32972.got - 2010.06.03 20:15:42.
