data_PCOD9388137
_publ_section_title
;
Structure prediction by ZEFSAII (Michael W. Deem and Ramdas Pophale) SiO2 
 PCOD9388137
Probable space group: P M M M
;
_chemical_formula_sum "Si O2"
_cell_formula_units_Z 52
_cell_length_a 8.169916
_cell_length_b 14.274612
_cell_length_c 22.340414
_cell_angle_alpha 90.000000
_cell_angle_beta 90.000000
_cell_angle_gamma 90.000000
_cell_volume 2605.392273
_symmetry_space_group_name_H-M "P M M M"
_symmetry_group_IT_number 47
_symmetry_cell_setting 'orthorhombic'
loop_
_space_group_symop_operation_xyz
x,y,z
-x,-y,z
x,-y,-z
-x,y,-z
-x,-y,-z
x,y,-z
-x,y,z
x,-y,z
loop_
_atom_site_type_symbol
_atom_site_label
_atom_site_fract_x
_atom_site_fract_y
_atom_site_fract_z
Si Si1 0.306491 0.702845 0.122344
Si Si2 0.193370 0.611646 0.000000
Si Si3 0.314135 0.609096 0.570731
Si Si4 0.696329 0.107338 0.433624
Si Si5 0.300389 0.105807 0.930612
Si Si6 0.804884 0.393093 0.758437
Si Si7 0.182710 0.745194 0.659499
O O1 0.500000 0.704956 0.134998
O O2 0.275087 0.653406 0.059043
O O3 0.246376 0.809886 0.112236
O O4 0.222566 0.644023 0.174662
O O5 0.209920 0.500000 0.000000
O O6 0.000000 0.634716 0.000000
O O7 0.291320 0.617804 0.500000
O O8 0.500000 0.642990 0.584157
O O9 0.306179 0.500000 0.586074
O O10 0.186105 0.666822 0.607842
O O11 0.752058 0.143194 0.500000
O O12 0.500000 0.106415 0.436087
O O13 0.742475 0.167316 0.375732
O O14 0.753780 0.000000 0.428369
O O15 0.500000 0.107256 0.930558
O O16 0.249336 0.000000 0.914380
O O17 0.250775 0.123165 0.000000
O O18 0.740943 0.500000 0.750512
O O19 0.736027 0.312243 0.714243
O O20 0.000000 0.397687 0.746635
O O21 0.000000 0.771871 0.677947
#
# Coordination Sequence:
#
# PCOD9388137 Si02
#       7
#     8   4   8   8   8   8   8
#     4  11  21  35  58  87 110 135 183 241 280 317
#     4  11  23  37  54  77 110 150 181 215 280 355
#     4   9  18  32  50  74 105 139 175 219 272 328
#     4   9  19  37  60  85 114 148 185 228 281 340
#     4   8  14  28  52  81 112 140 163 200 263 326
#     4  10  23  42  57  72 106 154 192 223 274 341
#     4  11  22  35  54  79 107 143 186 231 276 328
#
# _framework density 19.958607000000001
#
# number of rings (size 3 to 8) (size 9 to 14) (size 15 to 20)
#    0.000    2.231    0.769    3.923    0.000    7.692 
#    0.000    2.308    0.000    5.077    0.000    0.000 
#    0.000    0.000    0.000    0.000    0.000    0.000 
#
# Total GULP energy -289920.890975 kJ/mol
# GULP energy per Si atom -5575.401750 kJ/mol
# Density = 1.991318 g / cm^3
# Si number density = 19.958607 Si / 1000 Ang^3
#
#
#
# Elastic Constant Matrix: (Units=GPa)
#
#
# Indices 1 2 3 4 5 6 
#
# 1 10.0269 6.1479 2.4460 0.0000 0.0000 0.0000
# 2 6.1479 103.9928 57.5108 0.0000 0.0000 0.0000
# 3 2.4460 57.5108 84.3148 0.0000 0.0000 0.0000
# 4 0.0000 0.0000 0.0000 38.3513 0.0000 0.0000
# 5 0.0000 0.0000 0.0000 0.0000 24.0211 0.0000
# 6 0.0000 0.0000 0.0000 0.0000 0.0000 27.3370
#
#
#
# Elastic Compliance Matrix: (Units=1/GPa)
#
#
# Indices 1 2 3 4 5 6 
#
# 1 0.103669 -0.007170 0.001883 0.000000 0.000000 0.000000
# 2 -0.007170 0.015936 -0.010662 0.000000 0.000000 0.000000
# 3 0.001883 -0.010662 0.019078 0.000000 0.000000 0.000000
# 4 0.000000 0.000000 0.000000 0.026075 0.000000 0.000000
# 5 0.000000 0.000000 0.000000 0.000000 0.041630 0.000000
# 6 0.000000 0.000000 0.000000 0.000000 0.000000 0.036580
#
#
# Mechanical properties :
#
#
# Convention : Reuss Voigt Hill
#
# Bulk Modulus (GPa) = 9.36461 36.72711 23.04586
# Shear Modulus (GPa) = 16.10505 26.75720 21.43112
#
# Velocity S-wave (km/s) = 2.84372 3.66544 3.28041
# Velocity P-wave (km/s) = 3.93504 6.02955 5.09117
#
# Compressibility (1/GPa) = 0.10678500
#
# Stress axis : x y z
#
# Youngs Moduli (GPa) = 9.64613 62.74954 52.41572
#
# Poissons Ratio (x) = 0.44993 -0.09872
# Poissons Ratio (y) = 0.06917 0.55886
# Poissons Ratio (z) = -0.01817 0.66904
#
# Static dielectric constant tensor:
#      x y z
#    x 1.847300 0.000000 0.000000 
#    y 0.000000 1.736530 0.000000 
#    z 0.000000 0.000000 1.690780 
# 
# From -- ./inp_files/29560.got.cif
#   From: 2010.05.17/outbox.cif.g08.bks.cpg/sg47_15_cif.got.tgz:29560.got - 2010.06.03 20:15:42.
