data_PCOD9388442
_publ_section_title
;
Structure prediction by ZEFSAII (Michael W. Deem and Ramdas Pophale) SiO2 
 PCOD9388442
Probable space group: P M M M
;
_chemical_formula_sum "Si O2"
_cell_formula_units_Z 52
_cell_length_a 7.798916
_cell_length_b 15.214901
_cell_length_c 20.898322
_cell_angle_alpha 90.000000
_cell_angle_beta 90.000000
_cell_angle_gamma 90.000000
_cell_volume 2479.789347
_symmetry_space_group_name_H-M "P M M M"
_symmetry_group_IT_number 47
_symmetry_cell_setting 'orthorhombic'
loop_
_space_group_symop_operation_xyz
x,y,z
-x,-y,z
x,-y,-z
-x,y,-z
-x,-y,-z
x,y,-z
-x,y,z
x,-y,z
loop_
_atom_site_type_symbol
_atom_site_label
_atom_site_fract_x
_atom_site_fract_y
_atom_site_fract_z
Si Si1 0.790923 0.597196 0.118733
Si Si2 0.207166 0.899048 0.811563
Si Si3 0.799062 0.598497 0.500000
Si Si4 0.792827 0.599375 0.267171
Si Si5 0.209932 0.217900 0.930181
Si Si6 0.704416 0.901032 0.334640
Si Si7 0.300562 0.278738 0.382441
O O1 0.732642 0.500000 0.098641
O O2 0.742775 0.611340 0.193162
O O3 0.736026 0.680992 0.078605
O O4 0.000000 0.595739 0.117106
O O5 0.268334 0.837169 0.868820
O O6 0.270228 0.878335 0.740316
O O7 0.000000 0.893350 0.809419
O O8 0.254524 0.000000 0.825089
O O9 0.718854 0.500000 0.500000
O O10 0.761012 0.656516 0.437674
O O11 0.000000 0.586017 0.500000
O O12 0.742457 0.500000 0.286494
O O13 0.722891 0.671060 0.315337
O O14 0.000000 0.603795 0.269601
O O15 0.000000 0.216032 0.928961
O O16 0.263226 0.184386 0.000000
O O17 0.500000 0.905705 0.345621
O O18 0.776504 0.819314 0.375327
O O19 0.774593 0.000000 0.345265
O O20 0.500000 0.266234 0.395046
#
# Coordination Sequence:
#
# PCOD9388442 Si02
#       7
#     8   8   4   8   8   8   8
#     4   8  14  24  38  58  85 119 160 202 243 292
#     4   9  17  29  47  71  96 124 161 205 251 298
#     4  11  25  43  60  79 108 146 177 197 230 285
#     4   9  17  30  49  72  99 132 167 205 254 308
#     4   9  16  24  36  58  89 124 160 200 248 298
#     4   9  19  36  56  78 104 133 166 205 252 303
#     4  11  22  35  55  81 106 134 168 208 250 287
#
# _framework density 20.969524
#
# number of rings (size 3 to 8) (size 9 to 14) (size 15 to 20)
#    0.000    2.692    0.000    3.000    0.000    5.846 
#    0.000    3.462    0.000    2.769    0.000    2.154 
#    0.000    0.000    0.000   13.231    0.000   10.769 
#
# Total GULP energy -290090.116467 kJ/mol
# GULP energy per Si atom -5578.656086 kJ/mol
# Density = 2.092180 g / cm^3
# Si number density = 20.969524 Si / 1000 Ang^3
#
#
#
# Elastic Constant Matrix: (Units=GPa)
#
#
# Indices 1 2 3 4 5 6 
#
# 1 24.8392 14.8746 7.5023 0.0000 0.0000 0.0000
# 2 14.8746 151.8747 70.5563 0.0000 0.0000 0.0000
# 3 7.5023 70.5563 49.8273 0.0000 0.0000 0.0000
# 4 0.0000 0.0000 0.0000 22.6739 0.0000 0.0000
# 5 0.0000 0.0000 0.0000 0.0000 29.9052 0.0000
# 6 0.0000 0.0000 0.0000 0.0000 0.0000 71.6135
#
#
#
# Elastic Compliance Matrix: (Units=1/GPa)
#
#
# Indices 1 2 3 4 5 6 
#
# 1 0.042805 -0.003502 -0.001486 0.000000 0.000000 0.000000
# 2 -0.003502 0.019530 -0.027127 0.000000 0.000000 0.000000
# 3 -0.001486 -0.027127 0.058706 0.000000 0.000000 0.000000
# 4 0.000000 0.000000 0.000000 0.044104 0.000000 0.000000
# 5 0.000000 0.000000 0.000000 0.000000 0.033439 0.000000
# 6 0.000000 0.000000 0.000000 0.000000 0.000000 0.013964
#
#
# Mechanical properties :
#
#
# Convention : Reuss Voigt Hill
#
# Bulk Modulus (GPa) = 17.60261 45.82306 31.71283
# Shear Modulus (GPa) = 16.90817 33.74574 25.32695
#
# Velocity S-wave (km/s) = 2.84266 4.01593 3.47911
# Velocity P-wave (km/s) = 4.38028 6.58811 5.59420
#
# Compressibility (1/GPa) = 0.05680977
#
# Stress axis : x y z
#
# Youngs Moduli (GPa) = 23.36178 51.20344 17.03402
#
# Poissons Ratio (x) = 0.17931 0.02532
# Poissons Ratio (y) = 0.08181 0.46209
# Poissons Ratio (z) = 0.03472 1.38902
#
# Static dielectric constant tensor:
#      x y z
#    x 1.780570 0.000000 0.000000 
#    y 0.000000 1.810690 0.000000 
#    z 0.000000 0.000000 1.735680 
# 
# From -- ./inp_files/29620.got.cif
#   From: 2010.05.17/outbox.cif.g08.bks.cpg/sg47_15_cif.got.tgz:29620.got - 2010.06.03 20:15:42.
