data_PCOD9388948
_publ_section_title
;
Structure prediction by ZEFSAII (Michael W. Deem and Ramdas Pophale) SiO2 
 PCOD9388948
Probable space group: P M M M
;
_chemical_formula_sum "Si O2"
_cell_formula_units_Z 36
_cell_length_a 29.359002
_cell_length_b 7.920298
_cell_length_c 7.349423
_cell_angle_alpha 90.000000
_cell_angle_beta 90.000000
_cell_angle_gamma 90.000000
_cell_volume 1708.976358
_symmetry_space_group_name_H-M "P M M M"
_symmetry_group_IT_number 47
_symmetry_cell_setting 'orthorhombic'
loop_
_space_group_symop_operation_xyz
x,y,z
-x,-y,z
x,-y,-z
-x,y,-z
-x,-y,-z
x,y,-z
-x,y,z
x,-y,z
loop_
_atom_site_type_symbol
_atom_site_label
_atom_site_fract_x
_atom_site_fract_y
_atom_site_fract_z
Si Si1 0.552505 0.500000 0.777191
Si Si2 0.780382 0.500000 0.722942
Si Si3 0.052125 0.808422 0.278495
Si Si4 0.114775 0.500000 0.722291
Si Si5 0.386277 0.809607 0.782858
Si Si6 0.719095 0.809590 0.282834
O O1 0.500000 0.500000 0.721865
O O2 0.579631 0.333602 0.715658
O O3 0.553289 0.500000 0.000000
O O4 0.779741 0.500000 0.500000
O O5 0.832843 0.500000 0.779311
O O6 0.753208 0.333629 0.784193
O O7 0.052407 0.807673 0.500000
O O8 0.087272 0.666226 0.218850
O O9 0.000000 0.770338 0.223955
O O10 0.063161 0.000000 0.221889
O O11 0.114550 0.500000 0.500000
O O12 0.333587 0.762944 0.750103
O O13 0.393476 0.000000 0.711539
O O14 0.392282 0.817472 0.000000
O O15 0.725057 0.817403 0.500000
O O16 0.726307 0.000000 0.211581
#
# Coordination Sequence:
#
# PCOD9388948 Si02
#       6
#     4   4   8   4   8   8
#     4   9  17  28  43  65  90 111 131 161 202 241
#     4   9  17  26  36  53  75 100 132 167 202 241
#     4   8  13  20  29  41  58  83 117 156 195 232
#     4   9  15  21  30  44  63  88 119 158 198 231
#     4   9  17  29  46  66  84 105 137 171 198 231
#     4   9  17  29  44  60  80 107 136 167 203 239
#
# _framework density 21.065242000000001
#
# number of rings (size 3 to 8) (size 9 to 14) (size 15 to 20)
#    0.000    3.222    0.000    1.667    0.000    2.667 
#    0.000    6.667    0.000    1.333    0.000    3.111 
#    0.000    0.000    0.000    0.000    0.000    8.889 
#
# Total GULP energy -200969.085188 kJ/mol
# GULP energy per Si atom -5582.474589 kJ/mol
# Density = 2.101730 g / cm^3
# Si number density = 21.065242 Si / 1000 Ang^3
#
#
#
# Elastic Constant Matrix: (Units=GPa)
#
#
# Indices 1 2 3 4 5 6 
#
# 1 214.9647 177.8659 2.3713 0.0000 0.0000 0.0000
# 2 177.8659 195.1769 7.4196 0.0000 0.0000 0.0000
# 3 2.3713 7.4196 80.3823 0.0000 0.0000 0.0000
# 4 0.0000 0.0000 0.0000 -20.5026 0.0000 0.0000
# 5 0.0000 0.0000 0.0000 0.0000 14.6929 0.0000
# 6 0.0000 0.0000 0.0000 0.0000 0.0000 37.0434
#
#
#
# Elastic Compliance Matrix: (Units=1/GPa)
#
#
# Indices 1 2 3 4 5 6 
#
# 1 0.018999 -0.017354 0.001041 0.000000 0.000000 0.000000
# 2 -0.017354 0.020992 -0.001426 0.000000 0.000000 0.000000
# 3 0.001041 -0.001426 0.012541 0.000000 0.000000 0.000000
# 4 0.000000 0.000000 0.000000 -0.048774 0.000000 0.000000
# 5 0.000000 0.000000 0.000000 0.000000 0.068060 0.000000
# 6 0.000000 0.000000 0.000000 0.000000 0.000000 0.026995
#
#
# Mechanical properties :
#
#
# Convention : Reuss Voigt Hill
#
# Bulk Modulus (GPa) = 58.62784 96.20418 77.41601
# Shear Modulus (GPa) = 35.72047 26.43788 31.07917
#
# Velocity S-wave (km/s) = 4.12236 3.54651 3.84523
# Velocity P-wave (km/s) = 7.10989 7.90816 7.51963
#
# Compressibility (1/GPa) = 0.01705674
#
# Stress axis : x y z
#
# Youngs Moduli (GPa) = 52.63378 47.63658 79.73574
#
# Poissons Ratio (x) = 0.82667 -0.08303
# Poissons Ratio (y) = 0.91339 0.11368
# Poissons Ratio (z) = -0.05481 0.06792
#
# Static dielectric constant tensor:
#      x y z
#    x 1.689280 0.000000 0.000000 
#    y 0.000000 1.745750 0.000000 
#    z 0.000000 0.000000 1.846170 
# 
# From -- ./inp_files/18866.got.cif
#   From: 2010.05.17/outbox.cif.g08.bks.cpg/sg47_10_cif.got.tgz:18866.got - 2010.06.03 20:15:42.
