data_PCOD9388991
_publ_section_title
;
Structure prediction by ZEFSAII (Michael W. Deem and Ramdas Pophale) SiO2 
 PCOD9388991
Probable space group: P M M M
;
_chemical_formula_sum "Si O2"
_cell_formula_units_Z 40
_cell_length_a 30.163797
_cell_length_b 7.596119
_cell_length_c 7.402385
_cell_angle_alpha 90.000000
_cell_angle_beta 90.000000
_cell_angle_gamma 90.000000
_cell_volume 1696.092127
_symmetry_space_group_name_H-M "P M M M"
_symmetry_group_IT_number 47
_symmetry_cell_setting 'orthorhombic'
loop_
_space_group_symop_operation_xyz
x,y,z
-x,-y,z
x,-y,-z
-x,y,-z
-x,-y,-z
x,y,-z
-x,y,z
x,-y,z
loop_
_atom_site_type_symbol
_atom_site_label
_atom_site_fract_x
_atom_site_fract_y
_atom_site_fract_z
Si Si1 0.050769 0.500000 0.779026
Si Si2 0.215230 0.796869 0.783886
Si Si3 0.881604 0.795786 0.779725
Si Si4 0.500000 0.291686 0.705446
Si Si5 0.404760 0.210882 0.292898
Si Si6 0.310995 0.201674 0.715545
O O1 0.078834 0.329686 0.720970
O O2 0.000000 0.500000 0.719424
O O3 0.050297 0.500000 0.000000
O O4 0.167358 0.727688 0.723026
O O5 0.262887 0.713256 0.742711
O O6 0.216746 0.000000 0.717148
O O7 0.213121 0.801430 0.000000
O O8 0.886273 0.000000 0.725477
O O9 0.881992 0.794284 0.000000
O O10 0.500000 0.500000 0.692155
O O11 0.500000 0.213061 0.500000
O O12 0.547179 0.243475 0.791245
O O13 0.408400 0.278951 0.500000
O O14 0.357801 0.277881 0.215809
O O15 0.399544 0.000000 0.299177
O O16 0.316817 0.192245 0.500000
O O17 0.307176 0.000000 0.786420
#
# Coordination Sequence:
#
# PCOD9388991 Si02
#       6
#     4   8   8   4   8   8
#     4   9  16  24  36  56  81 109 139 170 207 248
#     4   8  13  22  37  56  78 105 133 160 195 238
#     4   8  14  24  37  54  78 107 137 169 205 245
#     4   9  15  21  31  47  68  95 122 148 186 235
#     4   8  13  21  33  49  69  93 121 153 188 228
#     4   8  13  21  35  56  79 101 127 161 199 237
#
# _framework density 23.583622999999999
#
# number of rings (size 3 to 8) (size 9 to 14) (size 15 to 20)
#    0.000    3.800    0.000    2.700    0.000    1.600 
#    0.000    2.000    2.200    0.000    0.000    0.700 
#    0.000    7.200    0.000    7.800    0.000    8.000 
#
# Total GULP energy -222778.908213 kJ/mol
# GULP energy per Si atom -5569.472705 kJ/mol
# Density = 2.352995 g / cm^3
# Si number density = 23.583623 Si / 1000 Ang^3
#
#
#
# Elastic Constant Matrix: (Units=GPa)
#
#
# Indices 1 2 3 4 5 6 
#
# 1 337.3549 70.5956 12.4869 0.0000 0.0000 0.0000
# 2 70.5956 80.4746 -0.1676 0.0000 0.0000 0.0000
# 3 12.4869 -0.1676 77.0884 0.0000 0.0000 0.0000
# 4 0.0000 0.0000 0.0000 46.4381 0.0000 0.0000
# 5 0.0000 0.0000 0.0000 0.0000 10.5962 0.0000
# 6 0.0000 0.0000 0.0000 0.0000 0.0000 127.2055
#
#
#
# Elastic Compliance Matrix: (Units=1/GPa)
#
#
# Indices 1 2 3 4 5 6 
#
# 1 0.003658 -0.003210 -0.000600 0.000000 0.000000 0.000000
# 2 -0.003210 0.015244 0.000553 0.000000 0.000000 0.000000
# 3 -0.000600 0.000553 0.013070 0.000000 0.000000 0.000000
# 4 0.000000 0.000000 0.000000 0.021534 0.000000 0.000000
# 5 0.000000 0.000000 0.000000 0.000000 0.094373 0.000000
# 6 0.000000 0.000000 0.000000 0.000000 0.000000 0.007861
#
#
# Mechanical properties :
#
#
# Convention : Reuss Voigt Hill
#
# Bulk Modulus (GPa) = 39.27908 73.41643 56.34776
# Shear Modulus (GPa) = 29.28418 64.31483 46.79951
#
# Velocity S-wave (km/s) = 3.52762 5.22783 4.45950
# Velocity P-wave (km/s) = 5.76919 8.22424 7.10358
#
# Compressibility (1/GPa) = 0.02545884
#
# Stress axis : x y z
#
# Youngs Moduli (GPa) = 273.35495 65.60070 76.50856
#
# Poissons Ratio (x) = 0.21061 0.04587
# Poissons Ratio (y) = 0.87758 -0.04232
# Poissons Ratio (z) = 0.16389 -0.03629
#
# Static dielectric constant tensor:
#      x y z
#    x 1.965050 0.000000 0.000000 
#    y 0.000000 1.911050 0.000000 
#    z 0.000000 0.000000 2.006720 
# 
# From -- ./inp_files/19737.got.cif
#   From: 2010.05.17/outbox.cif.g08.bks.cpg/sg47_10_cif.got.tgz:19737.got - 2010.06.03 20:15:42.
