data_PCOD9388351
_publ_section_title
;
Structure prediction by ZEFSAII (Michael W. Deem and Ramdas Pophale) SiO2 
 PCOD9388351
Probable space group: P M M M
;
_chemical_formula_sum "Si O2"
_cell_formula_units_Z 48
_cell_length_a 19.409699
_cell_length_b 8.678232
_cell_length_c 14.214354
_cell_angle_alpha 90.000000
_cell_angle_beta 90.000000
_cell_angle_gamma 90.000000
_cell_volume 2394.292382
_symmetry_space_group_name_H-M "P M M M"
_symmetry_group_IT_number 47
_symmetry_cell_setting 'orthorhombic'
loop_
_space_group_symop_operation_xyz
x,y,z
-x,-y,z
x,-y,-z
-x,y,-z
-x,-y,-z
x,y,-z
-x,y,z
x,-y,z
loop_
_atom_site_type_symbol
_atom_site_label
_atom_site_fract_x
_atom_site_fract_y
_atom_site_fract_z
Si Si1 0.620154 0.823999 0.396369
Si Si2 0.363178 0.317626 0.200838
Si Si3 0.500000 0.676929 0.110565
Si Si4 0.126989 0.323591 0.257062
Si Si5 0.224244 0.184158 0.890685
Si Si6 0.785145 0.830079 0.394810
Si Si7 0.000000 0.311367 0.388787
O O1 0.595156 0.774319 0.500000
O O2 0.611756 0.716037 0.307129
O O3 0.703246 0.833071 0.401653
O O4 0.595452 0.000000 0.379445
O O5 0.353862 0.500000 0.186132
O O6 0.427689 0.253578 0.141758
O O7 0.292111 0.240138 0.166460
O O8 0.500000 0.500000 0.148655
O O9 0.500000 0.668790 0.000000
O O10 0.111606 0.500000 0.234018
O O11 0.155472 0.240597 0.163990
O O12 0.190754 0.305388 0.328622
O O13 0.065170 0.263058 0.323975
O O14 0.224745 0.000000 0.890139
O O15 0.226788 0.237212 0.000000
O O16 0.813329 0.811690 0.500000
O O17 0.806647 0.000000 0.357965
O O18 0.000000 0.500000 0.392489
O O19 0.000000 0.261747 0.500000
#
# Coordination Sequence:
#
# PCOD9388351 Si02
#       7
#     8   8   4   8   8   8   4
#     4   9  18  33  53  79 115 154 187 226 280 339
#     4  11  21  36  61  90 117 150 193 243 294 347
#     4   9  20  38  58  83 118 154 187 235 300 357
#     4  11  21  35  58  86 115 150 191 237 287 339
#     4  11  24  41  60  83 115 153 193 243 297 346
#     4   9  17  30  50  77 112 150 184 223 272 328
#     4   9  20  38  58  87 126 158 185 227 286 347
#
# _framework density 20.047675999999999
#
# number of rings (size 3 to 8) (size 9 to 14) (size 15 to 20)
#    0.000    2.000    1.667    3.500    0.000    3.333 
#    0.000    5.833    0.000   11.000    0.000    0.000 
#    0.000    0.000    0.000    0.000    0.000    0.000 
#
# Total GULP energy -267282.051410 kJ/mol
# GULP energy per Si atom -5568.376071 kJ/mol
# Density = 2.000205 g / cm^3
# Si number density = 20.047676 Si / 1000 Ang^3
#
#
#
# Elastic Constant Matrix: (Units=GPa)
#
#
# Indices 1 2 3 4 5 6 
#
# 1 78.7404 13.5641 41.9929 0.0000 0.0000 0.0000
# 2 13.5641 34.3449 22.3380 0.0000 0.0000 0.0000
# 3 41.9929 22.3380 123.8566 0.0000 0.0000 0.0000
# 4 0.0000 0.0000 0.0000 27.3021 0.0000 0.0000
# 5 0.0000 0.0000 0.0000 0.0000 26.7945 0.0000
# 6 0.0000 0.0000 0.0000 0.0000 0.0000 19.4659
#
#
#
# Elastic Compliance Matrix: (Units=1/GPa)
#
#
# Indices 1 2 3 4 5 6 
#
# 1 0.015793 -0.003121 -0.004792 0.000000 0.000000 0.000000
# 2 -0.003121 0.033602 -0.005002 0.000000 0.000000 0.000000
# 3 -0.004792 -0.005002 0.010601 0.000000 0.000000 0.000000
# 4 0.000000 0.000000 0.000000 0.036627 0.000000 0.000000
# 5 0.000000 0.000000 0.000000 0.000000 0.037321 0.000000
# 6 0.000000 0.000000 0.000000 0.000000 0.000000 0.051372
#
#
# Mechanical properties :
#
#
# Convention : Reuss Voigt Hill
#
# Bulk Modulus (GPa) = 29.26828 43.63687 36.45257
# Shear Modulus (GPa) = 22.46842 25.31561 23.89201
#
# Velocity S-wave (km/s) = 3.35139 3.55740 3.45593
# Velocity P-wave (km/s) = 5.44121 6.21991 5.84355
#
# Compressibility (1/GPa) = 0.03416668
#
# Stress axis : x y z
#
# Youngs Moduli (GPa) = 63.31918 29.75978 94.33408
#
# Poissons Ratio (x) = 0.09287 0.45202
# Poissons Ratio (y) = 0.19760 0.47188
# Poissons Ratio (z) = 0.30341 0.14887
#
# Static dielectric constant tensor:
#      x y z
#    x 1.761450 0.000000 0.000000 
#    y 0.000000 1.739030 0.000000 
#    z 0.000000 0.000000 1.752830 
# 
# From -- ./inp_files/24491.got.cif
#   From: 2010.05.17/outbox.cif.g08.bks.cpg/sg47_13_cif.got.tgz:24491.got - 2010.06.03 20:15:42.
