data_PCOD9388949
_publ_section_title
;
Structure prediction by ZEFSAII (Michael W. Deem and Ramdas Pophale) SiO2 
 PCOD9388949
Probable space group: P M M M
;
_chemical_formula_sum "Si O2"
_cell_formula_units_Z 36
_cell_length_a 7.433779
_cell_length_b 20.734976
_cell_length_c 13.303099
_cell_angle_alpha 90.000000
_cell_angle_beta 90.000000
_cell_angle_gamma 90.000000
_cell_volume 2050.529425
_symmetry_space_group_name_H-M "P M M M"
_symmetry_group_IT_number 47
_symmetry_cell_setting 'orthorhombic'
loop_
_space_group_symop_operation_xyz
x,y,z
-x,-y,z
x,-y,-z
-x,y,-z
-x,-y,-z
x,y,-z
-x,y,z
x,-y,z
loop_
_atom_site_type_symbol
_atom_site_label
_atom_site_fract_x
_atom_site_fract_y
_atom_site_fract_z
Si Si1 0.780001 0.655084 0.803682
Si Si2 0.219215 0.425821 0.000000
Si Si3 0.213328 0.789525 0.114910
Si Si4 0.219262 0.574088 0.613673
Si Si5 0.715764 0.069323 0.883522
O O1 0.725962 0.612387 0.899990
O O2 0.719330 0.728405 0.822769
O O3 0.719450 0.622005 0.700690
O O4 0.000000 0.654594 0.801506
O O5 0.278261 0.500000 0.000000
O O6 0.000000 0.426227 0.000000
O O7 0.238234 0.860902 0.160144
O O8 0.000000 0.780320 0.106089
O O9 0.286550 0.788517 0.000000
O O10 0.275900 0.590378 0.500000
O O11 0.272261 0.500000 0.635063
O O12 0.000000 0.574732 0.614041
O O13 0.500000 0.067279 0.885615
O O14 0.777603 0.000000 0.840667
O O15 0.779268 0.071172 0.000000
#
# Coordination Sequence:
#
# PCOD9388949 Si02
#       5
#     8   4   8   8   8
#     4   9  14  20  28  42  66  92 117 146 178 211
#     4   9  14  18  26  40  60  89 118 142 173 211
#     4   9  15  22  32  48  72  97 118 143 177 214
#     4   8  13  20  29  41  60  90 124 152 179 212
#     4   8  14  24  36  49  67  93 123 149 170 201
#
# _framework density 17.556439999999998
#
# number of rings (size 3 to 8) (size 9 to 14) (size 15 to 20)
#    0.000    3.444    1.111    2.000    0.000    3.111 
#    0.000    2.222    0.000    0.000    0.000    0.000 
#    0.000    6.222    0.000   13.556    0.000    4.444 
#
# Total GULP energy -200467.196103 kJ/mol
# GULP energy per Si atom -5568.533225 kJ/mol
# Density = 1.751648 g / cm^3
# Si number density = 17.556440 Si / 1000 Ang^3
#
#
#
# Elastic Constant Matrix: (Units=GPa)
#
#
# Indices 1 2 3 4 5 6 
#
# 1 52.1199 4.1371 3.6717 0.0000 0.0000 0.0000
# 2 4.1371 209.3307 90.7257 0.0000 0.0000 0.0000
# 3 3.6717 90.7257 96.4788 0.0000 0.0000 0.0000
# 4 0.0000 0.0000 0.0000 15.6839 0.0000 0.0000
# 5 0.0000 0.0000 0.0000 0.0000 -5.3222 0.0000
# 6 0.0000 0.0000 0.0000 0.0000 0.0000 37.7845
#
#
#
# Elastic Compliance Matrix: (Units=1/GPa)
#
#
# Indices 1 2 3 4 5 6 
#
# 1 0.019239 -0.000106 -0.000632 0.000000 0.000000 0.000000
# 2 -0.000106 0.008064 -0.007579 0.000000 0.000000 0.000000
# 3 -0.000632 -0.007579 0.017516 0.000000 0.000000 0.000000
# 4 0.000000 0.000000 0.000000 0.063760 0.000000 0.000000
# 5 0.000000 0.000000 0.000000 0.000000 -0.187893 0.000000
# 6 0.000000 0.000000 0.000000 0.000000 0.000000 0.026466
#
#
# Mechanical properties :
#
#
# Convention : Reuss Voigt Hill
#
# Bulk Modulus (GPa) = 35.48060 61.66649 48.57355
# Shear Modulus (GPa) = -186.44610 26.92223 -79.76193
#
# Velocity S-wave (km/s) = -10.31643 3.92020 -6.74762
# Velocity P-wave (km/s) = 11.02958 7.46268 5.74282
#
# Compressibility (1/GPa) = 0.02818441
#
# Stress axis : x y z
#
# Youngs Moduli (GPa) = 51.97643 124.00608 57.08973
#
# Poissons Ratio (x) = 0.01316 0.03610
# Poissons Ratio (y) = 0.00552 0.43269
# Poissons Ratio (z) = 0.03287 0.93987
#
# Static dielectric constant tensor:
#      x y z
#    x 1.675000 0.000000 0.000000 
#    y 0.000000 1.644800 0.000000 
#    z 0.000000 0.000000 1.560110 
# 
# From -- ./inp_files/3886.got.cif
#   From: 2010.05.17/outbox.cif.g08.bks.cpg/sg47_2_cif.got.tgz:3886.got - 2010.06.03 20:15:42.
