data_PCOD9388438
_publ_section_title
;
Structure prediction by ZEFSAII (Michael W. Deem and Ramdas Pophale) SiO2 
 PCOD9388438
Probable space group: P M M M
;
_chemical_formula_sum "Si O2"
_cell_formula_units_Z 52
_cell_length_a 9.868551
_cell_length_b 14.008033
_cell_length_c 21.969650
_cell_angle_alpha 90.000000
_cell_angle_beta 90.000000
_cell_angle_gamma 90.000000
_cell_volume 3037.062184
_symmetry_space_group_name_H-M "P M M M"
_symmetry_group_IT_number 47
_symmetry_cell_setting 'orthorhombic'
loop_
_space_group_symop_operation_xyz
x,y,z
-x,-y,z
x,-y,-z
-x,y,-z
-x,-y,-z
x,y,-z
-x,y,z
x,-y,z
loop_
_atom_site_type_symbol
_atom_site_label
_atom_site_fract_x
_atom_site_fract_y
_atom_site_fract_z
Si Si1 0.335646 0.217288 0.124722
Si Si2 0.500000 0.884965 0.427784
Si Si3 0.842277 0.612217 0.839019
Si Si4 0.839210 0.390209 0.693185
Si Si5 0.000000 0.109720 0.572208
Si Si6 0.336634 0.891483 0.000000
Si Si7 0.244530 0.802063 0.357961
Si Si8 0.158794 0.114250 0.227836
O O1 0.500000 0.219760 0.132540
O O2 0.266084 0.321223 0.127805
O O3 0.258181 0.159216 0.177727
O O4 0.302083 0.165509 0.061112
O O5 0.500000 0.861061 0.500000
O O6 0.374865 0.841888 0.391213
O O7 0.500000 0.000000 0.423812
O O8 0.825275 0.500000 0.852493
O O9 0.822834 0.623973 0.765969
O O10 0.000000 0.637408 0.852443
O O11 0.803768 0.500000 0.679308
O O12 0.757907 0.310358 0.656777
O O13 0.000000 0.377171 0.680911
O O14 0.873725 0.166854 0.597111
O O15 0.000000 0.105331 0.500000
O O16 0.000000 0.000000 0.595719
O O17 0.500000 0.898100 0.000000
O O18 0.282670 0.000000 0.000000
O O19 0.210985 0.852168 0.293607
O O20 0.000000 0.144299 0.220605
O O21 0.162832 0.000000 0.223918
#
# Coordination Sequence:
#
# PCOD9388438 Si02
#       8
#     8   4   8   8   4   4   8   8
#     4  11  22  36  59  85 115 153 197 246 291 346
#     4  11  26  44  59  81 121 164 197 236 292 359
#     4   9  18  35  58  84 118 156 191 236 295 353
#     4   9  17  33  59  88 115 147 189 238 293 347
#     4  11  22  36  57  83 111 152 201 236 278 349
#     4   9  20  40  58  77 112 162 207 235 278 351
#     4  12  21  37  60  85 116 151 195 244 295 343
#     4  11  22  35  54  85 120 149 185 245 303 350
#
# _framework density 17.121808999999999
#
# number of rings (size 3 to 8) (size 9 to 14) (size 15 to 20)
#    0.000    1.615    3.077    3.692    1.077    2.462 
#    0.000    2.308    0.000    7.846    0.000    0.000 
#    0.000    0.000    0.000    0.000    0.000    0.000 
#
# Total GULP energy -290131.297580 kJ/mol
# GULP energy per Si atom -5579.448030 kJ/mol
# Density = 1.708284 g / cm^3
# Si number density = 17.121809 Si / 1000 Ang^3
#
#
#
# Elastic Constant Matrix: (Units=GPa)
#
#
# Indices 1 2 3 4 5 6 
#
# 1 133.5685 65.1921 66.3319 0.0000 0.0000 0.0000
# 2 65.1921 132.0117 58.7616 0.0000 0.0000 0.0000
# 3 66.3319 58.7616 109.3023 0.0000 0.0000 0.0000
# 4 0.0000 0.0000 0.0000 26.9109 0.0000 0.0000
# 5 0.0000 0.0000 0.0000 0.0000 23.1313 0.0000
# 6 0.0000 0.0000 0.0000 0.0000 0.0000 28.2585
#
#
#
# Elastic Compliance Matrix: (Units=1/GPa)
#
#
# Indices 1 2 3 4 5 6 
#
# 1 0.011816 -0.003475 -0.005303 0.000000 0.000000 0.000000
# 2 -0.003475 0.010980 -0.003794 0.000000 0.000000 0.000000
# 3 -0.005303 -0.003794 0.014407 0.000000 0.000000 0.000000
# 4 0.000000 0.000000 0.000000 0.037160 0.000000 0.000000
# 5 0.000000 0.000000 0.000000 0.000000 0.043231 0.000000
# 6 0.000000 0.000000 0.000000 0.000000 0.000000 0.035388
#
#
# Mechanical properties :
#
#
# Convention : Reuss Voigt Hill
#
# Bulk Modulus (GPa) = 82.92260 83.93928 83.43094
# Shear Modulus (GPa) = 27.45065 27.96659 27.70862
#
# Velocity S-wave (km/s) = 4.00841 4.04591 4.02720
# Velocity P-wave (km/s) = 8.36417 8.42360 8.39394
#
# Compressibility (1/GPa) = 0.01205944
#
# Stress axis : x y z
#
# Youngs Moduli (GPa) = 84.62926 91.07499 69.41205
#
# Poissons Ratio (x) = 0.31648 0.36807
# Poissons Ratio (y) = 0.29408 0.26336
# Poissons Ratio (z) = 0.44877 0.34555
#
# Static dielectric constant tensor:
#      x y z
#    x 1.549140 0.000000 0.000000 
#    y 0.000000 1.601280 0.000000 
#    z 0.000000 0.000000 1.558100 
# 
# From -- ./inp_files/29662.got.cif
#   From: 2010.05.17/outbox.cif.g08.bks.cpg/sg47_15_cif.got.tgz:29662.got - 2010.06.03 20:15:42.
