data_PCOD9388331
_publ_section_title
;
Structure prediction by ZEFSAII (Michael W. Deem and Ramdas Pophale) SiO2 
 PCOD9388331
Probable space group: P M M M
;
_chemical_formula_sum "Si O2"
_cell_formula_units_Z 64
_cell_length_a 8.103204
_cell_length_b 14.463725
_cell_length_c 24.918153
_cell_angle_alpha 90.000000
_cell_angle_beta 90.000000
_cell_angle_gamma 90.000000
_cell_volume 2920.470183
_symmetry_space_group_name_H-M "P M M M"
_symmetry_group_IT_number 47
_symmetry_cell_setting 'orthorhombic'
loop_
_space_group_symop_operation_xyz
x,y,z
-x,-y,z
x,-y,-z
-x,y,-z
-x,-y,-z
x,y,-z
-x,y,z
x,-y,z
loop_
_atom_site_type_symbol
_atom_site_label
_atom_site_fract_x
_atom_site_fract_y
_atom_site_fract_z
Si Si1 0.810380 0.896592 0.673286
Si Si2 0.698017 0.892807 0.940610
Si Si3 0.694854 0.397610 0.772465
Si Si4 0.197914 0.302177 0.329719
Si Si5 0.699140 0.392886 0.560871
Si Si6 0.798758 0.399670 0.061044
Si Si7 0.196643 0.250478 0.857581
Si Si8 0.312499 0.889197 0.558344
O O1 0.735236 0.798514 0.690733
O O2 0.804053 0.879666 0.609075
O O3 0.000000 0.900656 0.691589
O O4 0.737491 0.000000 0.683511
O O5 0.500000 0.888492 0.942416
O O6 0.749463 0.845706 0.884408
O O7 0.748462 0.000000 0.939416
O O8 0.757648 0.855045 0.000000
O O9 0.500000 0.400470 0.780823
O O10 0.763603 0.500000 0.787987
O O11 0.733270 0.379365 0.710141
O O12 0.758624 0.306741 0.803926
O O13 0.241518 0.328080 0.390895
O O14 0.000000 0.299044 0.325117
O O15 0.752742 0.368473 0.500000
O O16 0.500000 0.390665 0.561079
O O17 0.749690 0.500000 0.570650
O O18 0.748468 0.500000 0.081338
O O19 0.733588 0.319883 0.097434
O O20 0.000000 0.396672 0.061641
O O21 0.746344 0.390533 0.000000
O O22 0.000000 0.247673 0.857830
O O23 0.258546 0.854012 0.500000
O O24 0.500000 0.854370 0.569078
O O25 0.326766 0.000000 0.553732
#
# Coordination Sequence:
#
# PCOD9388331 Si02
#       8
#     8   8   8   8   8   8   8   8
#     4   9  19  35  52  72 102 138 173 212 262 321
#     4   9  19  37  60  87 125 174 221 262 305 354
#     4  11  25  44  64  85 113 152 195 239 294 366
#     4  11  23  38  59  86 113 145 189 242 299 354
#     4   9  19  37  60  85 114 148 184 226 286 364
#     4   8  14  25  43  72 111 149 181 218 271 333
#     4  11  21  34  57  88 120 154 196 249 304 352
#     4   8  14  25  42  66  96 130 169 210 249 294
#
# _framework density 21.914280000000002
#
# number of rings (size 3 to 8) (size 9 to 14) (size 15 to 20)
#    0.000    2.500    0.000    3.750    0.000    6.250 
#    0.000    5.625    0.000    2.250    0.000    5.250 
#    0.000    0.000    0.000    0.000    0.000    0.000 
#
# Total GULP energy -356363.281913 kJ/mol
# GULP energy per Si atom -5568.176280 kJ/mol
# Density = 2.186440 g / cm^3
# Si number density = 21.914280 Si / 1000 Ang^3
#
#
#
# Elastic Constant Matrix: (Units=GPa)
#
#
# Indices 1 2 3 4 5 6 
#
# 1 28.6483 10.7829 4.3027 0.0000 0.0000 0.0000
# 2 10.7829 121.5586 40.5185 0.0000 0.0000 0.0000
# 3 4.3027 40.5185 77.3410 0.0000 0.0000 0.0000
# 4 0.0000 0.0000 0.0000 32.3901 0.0000 0.0000
# 5 0.0000 0.0000 0.0000 0.0000 19.0046 0.0000
# 6 0.0000 0.0000 0.0000 0.0000 0.0000 18.1272
#
#
#
# Elastic Compliance Matrix: (Units=1/GPa)
#
#
# Indices 1 2 3 4 5 6 
#
# 1 0.036122 -0.003071 -0.000401 0.000000 0.000000 0.000000
# 2 -0.003071 0.010228 -0.005188 0.000000 0.000000 0.000000
# 3 -0.000401 -0.005188 0.015670 0.000000 0.000000 0.000000
# 4 0.000000 0.000000 0.000000 0.030874 0.000000 0.000000
# 5 0.000000 0.000000 0.000000 0.000000 0.052619 0.000000
# 6 0.000000 0.000000 0.000000 0.000000 0.000000 0.055166
#
#
# Mechanical properties :
#
#
# Convention : Reuss Voigt Hill
#
# Bulk Modulus (GPa) = 22.37050 37.63955 30.00503
# Shear Modulus (GPa) = 21.46873 25.36729 23.41801
#
# Velocity S-wave (km/s) = 3.13336 3.40600 3.27252
# Velocity P-wave (km/s) = 4.82918 5.71672 5.29159
#
# Compressibility (1/GPa) = 0.04470173
#
# Stress axis : x y z
#
# Youngs Moduli (GPa) = 27.68391 97.77077 63.81704
#
# Poissons Ratio (x) = 0.30021 0.02559
# Poissons Ratio (y) = 0.08501 0.33106
# Poissons Ratio (z) = 0.01110 0.50719
#
# Static dielectric constant tensor:
#      x y z
#    x 1.792100 0.000000 0.000000 
#    y 0.000000 1.899840 0.000000 
#    z 0.000000 0.000000 1.837320 
# 
# From -- ./inp_files/32088.got.cif
#   From: 2010.05.17/outbox.cif.g08.bks.cpg/sg47_17_cif.got.tgz:32088.got - 2010.06.03 20:15:42.
