data_PCOD9388750
_publ_section_title
;
Structure prediction by ZEFSAII (Michael W. Deem and Ramdas Pophale) SiO2 
 PCOD9388750
Probable space group: P M M M
;
_chemical_formula_sum "Si O2"
_cell_formula_units_Z 36
_cell_length_a 7.388816
_cell_length_b 7.412501
_cell_length_c 27.502164
_cell_angle_alpha 90.000000
_cell_angle_beta 90.000000
_cell_angle_gamma 90.000000
_cell_volume 1506.282686
_symmetry_space_group_name_H-M "P M M M"
_symmetry_group_IT_number 47
_symmetry_cell_setting 'orthorhombic'
loop_
_space_group_symop_operation_xyz
x,y,z
-x,-y,z
x,-y,-z
-x,y,-z
-x,-y,-z
x,y,-z
-x,y,z
x,-y,z
loop_
_atom_site_type_symbol
_atom_site_label
_atom_site_fract_x
_atom_site_fract_y
_atom_site_fract_z
Si Si1 0.291863 0.720708 0.867147
Si Si2 0.707105 0.284749 0.657578
Si Si3 0.289700 0.216114 0.552159
Si Si4 0.278721 0.289005 0.238721
Si Si5 0.000000 0.720301 0.055470
O O1 0.500000 0.773957 0.872865
O O2 0.287669 0.500000 0.865511
O O3 0.225132 0.784598 0.813935
O O4 0.171491 0.776700 0.912386
O O5 0.500000 0.214595 0.653930
O O6 0.697319 0.500000 0.663553
O O7 0.792848 0.257828 0.604686
O O8 0.782929 0.214765 0.708959
O O9 0.213762 0.279346 0.500000
O O10 0.500000 0.279362 0.553427
O O11 0.291683 0.000000 0.550114
O O12 0.500000 0.281407 0.239566
O O13 0.226782 0.500000 0.237771
O O14 0.000000 0.500000 0.054234
O O15 0.000000 0.782199 0.000000
#
# Coordination Sequence:
#
# PCOD9388750 Si02
#       5
#     8   8   8   8   4
#     4   8  13  21  31  41  57  83 113 148 188 223
#     4   8  12  17  26  39  52  70 106 152 184 212
#     4   8  13  19  24  32  52  83 113 139 175 225
#     4   7  10  17  28  40  52  69  99 140 183 220
#     4   9  16  22  28  42  62  86 120 153 178 214
#
# _framework density 23.899898
#
# number of rings (size 3 to 8) (size 9 to 14) (size 15 to 20)
#    0.000    4.111    0.000    3.333    0.000    0.889 
#    0.000    4.444    0.000    0.000    0.000    0.000 
#    0.000    0.000    0.000    2.000    0.000   32.667 
#
# Total GULP energy -200537.738911 kJ/mol
# GULP energy per Si atom -5570.492748 kJ/mol
# Density = 2.384550 g / cm^3
# Si number density = 23.899898 Si / 1000 Ang^3
#
#
#
# Elastic Constant Matrix: (Units=GPa)
#
#
# Indices 1 2 3 4 5 6 
#
# 1 96.1835 -0.7570 76.2060 0.0000 0.0000 0.0000
# 2 -0.7570 75.9950 11.5942 0.0000 0.0000 0.0000
# 3 76.2060 11.5942 356.4081 0.0000 0.0000 0.0000
# 4 0.0000 0.0000 0.0000 59.1638 0.0000 0.0000
# 5 0.0000 0.0000 0.0000 0.0000 128.5045 0.0000
# 6 0.0000 0.0000 0.0000 0.0000 0.0000 -10.9244
#
#
#
# Elastic Compliance Matrix: (Units=1/GPa)
#
#
# Indices 1 2 3 4 5 6 
#
# 1 0.012539 0.000537 -0.002699 0.000000 0.000000 0.000000
# 2 0.000537 0.013247 -0.000546 0.000000 0.000000 0.000000
# 3 -0.002699 -0.000546 0.003401 0.000000 0.000000 0.000000
# 4 0.000000 0.000000 0.000000 0.016902 0.000000 0.000000
# 5 0.000000 0.000000 0.000000 0.000000 0.007782 0.000000
# 6 0.000000 0.000000 0.000000 0.000000 0.000000 -0.091538
#
#
# Mechanical properties :
#
#
# Convention : Reuss Voigt Hill
#
# Bulk Modulus (GPa) = 42.06677 78.07477 60.07077
# Shear Modulus (GPa) = -205.52504 64.78499 -70.37003
#
# Velocity S-wave (km/s) = -9.28336 5.21207 -5.43209
# Velocity P-wave (km/s) = 9.86247 8.30417 3.76225
#
# Compressibility (1/GPa) = 0.02377173
#
# Stress axis : x y z
#
# Youngs Moduli (GPa) = 79.75092 75.48678 294.07349
#
# Poissons Ratio (x) = -0.04051 0.79356
# Poissons Ratio (y) = -0.04279 0.16047
# Poissons Ratio (z) = 0.21521 0.04119
#
# Static dielectric constant tensor:
#      x y z
#    x -3.210460 0.000000 0.000000 
#    y 0.000000 1.919170 0.000000 
#    z 0.000000 0.000000 1.958530 
# 
# From -- ./inp_files/15201.got.cif
#   From: 2010.05.17/outbox.cif.g08.bks.cpg/sg47_8_cif.got.tgz:15201.got - 2010.06.03 20:15:42.
