data_PCOD9388178
_publ_section_title
;
Structure prediction by ZEFSAII (Michael W. Deem and Ramdas Pophale) SiO2 
 PCOD9388178
Probable space group: P M M M
;
_chemical_formula_sum "Si O2"
_cell_formula_units_Z 64
_cell_length_a 14.783105
_cell_length_b 8.439419
_cell_length_c 32.339004
_cell_angle_alpha 90.000000
_cell_angle_beta 90.000000
_cell_angle_gamma 90.000000
_cell_volume 4034.640567
_symmetry_space_group_name_H-M "P M M M"
_symmetry_group_IT_number 47
_symmetry_cell_setting 'orthorhombic'
loop_
_space_group_symop_operation_xyz
x,y,z
-x,-y,z
x,-y,-z
-x,y,-z
-x,-y,-z
x,y,-z
-x,y,z
x,-y,z
loop_
_atom_site_type_symbol
_atom_site_label
_atom_site_fract_x
_atom_site_fract_y
_atom_site_fract_z
Si Si1 0.895444 0.693456 0.704795
Si Si2 0.602084 0.808788 0.754095
Si Si3 0.784950 0.310997 0.376033
Si Si4 0.786897 0.310726 0.213531
Si Si5 0.895105 0.191794 0.134794
Si Si6 0.109492 0.812039 0.044467
Si Si7 0.398317 0.191067 0.658123
Si Si8 0.103626 0.808870 0.453037
O O1 0.894850 0.500000 0.704723
O O2 0.843571 0.747216 0.663505
O O3 0.842579 0.746040 0.745924
O O4 0.000000 0.744073 0.705108
O O5 0.500000 0.760290 0.766066
O O6 0.683492 0.742104 0.780943
O O7 0.616076 0.759849 0.706076
O O8 0.605184 0.000000 0.755176
O O9 0.787740 0.500000 0.375413
O O10 0.682459 0.255940 0.369298
O O11 0.829621 0.252216 0.418167
O O12 0.791154 0.500000 0.213178
O O13 0.833789 0.247270 0.172333
O O14 0.862221 0.250369 0.089446
O O15 0.000000 0.242063 0.140972
O O16 0.895320 0.000000 0.133521
O O17 0.000000 0.801203 0.044926
O O18 0.130880 0.000000 0.043858
O O19 0.140429 0.744404 0.000000
O O20 0.500000 0.240932 0.646104
O O21 0.395923 0.000000 0.657310
O O22 0.125975 0.758314 0.500000
O O23 0.000000 0.757924 0.444185
O O24 0.104587 0.000000 0.452505
#
# Coordination Sequence:
#
# PCOD9388178 Si02
#       8
#     8   8   8   8   8   8   8   8
#     4   9  18  30  41  59  91 127 157 184 216 258
#     4   9  18  33  51  68  88 116 152 196 238 273
#     4  11  20  31  50  75 100 125 155 194 234 272
#     4  11  20  30  44  63  92 128 158 188 227 273
#     4   9  17  28  42  62  89 122 160 197 231 272
#     4   7  10  19  37  59  81 108 147 195 239 272
#     4   9  18  33  52  72  95 123 154 190 233 280
#     4   9  19  36  55  74  98 128 160 193 230 274
#
# _framework density 15.862628000000001
#
# number of rings (size 3 to 8) (size 9 to 14) (size 15 to 20)
#    0.000    2.750    1.250    3.750    0.000    2.250 
#    0.000    1.875    0.000    3.750    0.000    4.375 
#    0.000    0.500    0.000    5.750    0.000    1.875 
#
# Total GULP energy -356592.276874 kJ/mol
# GULP energy per Si atom -5571.754326 kJ/mol
# Density = 1.582652 g / cm^3
# Si number density = 15.862628 Si / 1000 Ang^3
#
#
#
# Elastic Constant Matrix: (Units=GPa)
#
#
# Indices 1 2 3 4 5 6 
#
# 1 121.7149 20.0874 88.2223 0.0000 0.0000 0.0000
# 2 20.0874 12.1189 23.3575 0.0000 0.0000 0.0000
# 3 88.2223 23.3575 146.7655 0.0000 0.0000 0.0000
# 4 0.0000 0.0000 0.0000 11.9102 0.0000 0.0000
# 5 0.0000 0.0000 0.0000 0.0000 8.6792 0.0000
# 6 0.0000 0.0000 0.0000 0.0000 0.0000 13.3061
#
#
#
# Elastic Compliance Matrix: (Units=1/GPa)
#
#
# Indices 1 2 3 4 5 6 
#
# 1 0.015545 -0.011188 -0.007563 0.000000 0.000000 0.000000
# 2 -0.011188 0.127077 -0.013499 0.000000 0.000000 0.000000
# 3 -0.007563 -0.013499 0.013508 0.000000 0.000000 0.000000
# 4 0.000000 0.000000 0.000000 0.083961 0.000000 0.000000
# 5 0.000000 0.000000 0.000000 0.000000 0.115217 0.000000
# 6 0.000000 0.000000 0.000000 0.000000 0.000000 0.075153
#
#
# Mechanical properties :
#
#
# Convention : Reuss Voigt Hill
#
# Bulk Modulus (GPa) = 10.91356 60.43707 35.67532
# Shear Modulus (GPa) = 9.51466 16.70793 13.11130
#
# Velocity S-wave (km/s) = 2.45177 3.24896 2.87810
# Velocity P-wave (km/s) = 3.86133 7.22892 5.79514
#
# Compressibility (1/GPa) = 0.09162912
#
# Stress axis : x y z
#
# Youngs Moduli (GPa) = 64.33129 7.86927 74.02816
#
# Poissons Ratio (x) = 0.08804 0.55991
# Poissons Ratio (y) = 0.71973 0.99929
# Poissons Ratio (z) = 0.48657 0.10623
#
# Static dielectric constant tensor:
#      x y z
#    x 1.513150 0.000000 0.000000 
#    y 0.000000 1.545580 0.000000 
#    z 0.000000 0.000000 1.543460 
# 
# From -- ./inp_files/14377.got.cif
#   From: 2010.05.17/outbox.cif.g08.bks.cpg/sg47_8_cif.got.tgz:14377.got - 2010.06.03 20:15:42.
