data_PCOD9388924
_publ_section_title
;
Structure prediction by ZEFSAII (Michael W. Deem and Ramdas Pophale) SiO2 
 PCOD9388924
Probable space group: P M M M
;
_chemical_formula_sum "Si O2"
_cell_formula_units_Z 44
_cell_length_a 7.368089
_cell_length_b 9.428646
_cell_length_c 29.565064
_cell_angle_alpha 90.000000
_cell_angle_beta 90.000000
_cell_angle_gamma 90.000000
_cell_volume 2053.917603
_symmetry_space_group_name_H-M "P M M M"
_symmetry_group_IT_number 47
_symmetry_cell_setting 'orthorhombic'
loop_
_space_group_symop_operation_xyz
x,y,z
-x,-y,z
x,-y,-z
-x,y,-z
-x,-y,-z
x,y,-z
-x,y,z
x,-y,z
loop_
_atom_site_type_symbol
_atom_site_label
_atom_site_fract_x
_atom_site_fract_y
_atom_site_fract_z
Si Si1 0.220979 0.663767 0.550753
Si Si2 0.714988 0.661252 0.000000
Si Si3 0.778603 0.336723 0.726301
Si Si4 0.221694 0.162924 0.362083
Si Si5 0.778015 0.836958 0.185038
Si Si6 0.785810 0.338231 0.900972
O O1 0.278064 0.705171 0.500000
O O2 0.274383 0.500000 0.558574
O O3 0.281026 0.764222 0.591241
O O4 0.000000 0.665524 0.550896
O O5 0.765306 0.724189 0.048530
O O6 0.791929 0.500000 0.000000
O O7 0.500000 0.652269 0.000000
O O8 0.719976 0.500000 0.726892
O O9 0.721341 0.255002 0.681082
O O10 0.722276 0.252092 0.771034
O O11 0.000000 0.337656 0.726220
O O12 0.000000 0.163444 0.362158
O O13 0.278966 0.000000 0.358500
O O14 0.715377 0.758944 0.139359
O O15 0.000000 0.838240 0.184870
O O16 0.719877 0.000000 0.187299
O O17 0.711339 0.500000 0.900552
O O18 0.000000 0.350788 0.893020
#
# Coordination Sequence:
#
# PCOD9388924 Si02
#       6
#     8   4   8   8   8   8
#     4   8  13  20  27  33  43  63  94 132 173 218
#     4   9  17  29  46  67  88 110 138 171 202 232
#     4   9  15  22  32  45  62  84 109 138 176 224
#     4   9  15  20  26  37  53  73  98 131 174 223
#     4   9  16  25  37  54  75  96 119 150 188 229
#     4   9  16  27  44  64  84 107 136 167 199 237
#
# _framework density 21.422474999999999
#
# number of rings (size 3 to 8) (size 9 to 14) (size 15 to 20)
#    0.000    3.182    0.000    2.455    0.000    8.000 
#    0.000    2.273    0.000    3.273    0.000    0.000 
#    0.000    0.000    0.000    0.000    0.000    0.000 
#
# Total GULP energy -245604.080390 kJ/mol
# GULP energy per Si atom -5581.910918 kJ/mol
# Density = 2.137372 g / cm^3
# Si number density = 21.422475 Si / 1000 Ang^3
#
#
#
# Elastic Constant Matrix: (Units=GPa)
#
#
# Indices 1 2 3 4 5 6 
#
# 1 76.8641 5.8799 1.8709 0.0000 0.0000 0.0000
# 2 5.8799 181.8286 150.6277 0.0000 0.0000 0.0000
# 3 1.8709 150.6277 249.7093 0.0000 0.0000 0.0000
# 4 0.0000 0.0000 0.0000 9.8878 0.0000 0.0000
# 5 0.0000 0.0000 0.0000 0.0000 -39.2619 0.0000
# 6 0.0000 0.0000 0.0000 0.0000 0.0000 -13.0581
#
#
#
# Elastic Compliance Matrix: (Units=1/GPa)
#
#
# Indices 1 2 3 4 5 6 
#
# 1 0.013055 -0.000682 0.000313 0.000000 0.000000 0.000000
# 2 -0.000682 0.011028 -0.006647 0.000000 0.000000 0.000000
# 3 0.000313 -0.006647 0.008012 0.000000 0.000000 0.000000
# 4 0.000000 0.000000 0.000000 0.101134 0.000000 0.000000
# 5 0.000000 0.000000 0.000000 0.000000 -0.025470 0.000000
# 6 0.000000 0.000000 0.000000 0.000000 0.000000 -0.076581
#
#
# Mechanical properties :
#
#
# Convention : Reuss Voigt Hill
#
# Bulk Modulus (GPa) = 55.36006 91.68434 73.52220
# Shear Modulus (GPa) = 97.59617 14.84846 56.22231
#
# Velocity S-wave (km/s) = 6.75698 2.63558 5.12850
# Velocity P-wave (km/s) = 9.31525 7.22169 8.33447
#
# Compressibility (1/GPa) = 0.01806356
#
# Stress axis : x y z
#
# Youngs Moduli (GPa) = 76.60189 90.67441 124.81124
#
# Poissons Ratio (x) = 0.06183 -0.03913
# Poissons Ratio (y) = 0.05223 0.82967
# Poissons Ratio (z) = -0.02401 0.60275
#
# Static dielectric constant tensor:
#      x y z
#    x 1.805180 0.000000 0.000000 
#    y 0.000000 1.722490 0.000000 
#    z 0.000000 0.000000 1.751720 
# 
# From -- ./inp_files/33882.got.cif
#   From: 2010.05.17/outbox.cif.g08.bks.cpg/sg47_17_cif.got.tgz:33882.got - 2010.06.03 20:15:42.
