data_PCOD9388762
_publ_section_title
;
Structure prediction by ZEFSAII (Michael W. Deem and Ramdas Pophale) SiO2 
 PCOD9388762
Probable space group: P M M M
;
_chemical_formula_sum "Si O2"
_cell_formula_units_Z 36
_cell_length_a 7.316703
_cell_length_b 14.138063
_cell_length_c 14.095461
_cell_angle_alpha 90.000000
_cell_angle_beta 90.000000
_cell_angle_gamma 90.000000
_cell_volume 1458.090980
_symmetry_space_group_name_H-M "P M M M"
_symmetry_group_IT_number 47
_symmetry_cell_setting 'orthorhombic'
loop_
_space_group_symop_operation_xyz
x,y,z
-x,-y,z
x,-y,-z
-x,y,-z
-x,-y,-z
x,y,-z
-x,y,z
x,-y,z
loop_
_atom_site_type_symbol
_atom_site_label
_atom_site_fract_x
_atom_site_fract_y
_atom_site_fract_z
Si Si1 0.219174 0.612065 0.898270
Si Si2 0.723835 0.792972 0.603076
Si Si3 0.278492 0.111052 0.796088
Si Si4 0.279843 0.113889 0.000000
Si Si5 0.712437 0.605674 0.312486
O O1 0.269455 0.500000 0.898415
O O2 0.281137 0.646149 0.795402
O O3 0.000000 0.616933 0.898230
O O4 0.285012 0.651445 0.000000
O O5 0.779517 0.829823 0.500000
O O6 0.500000 0.794957 0.604583
O O7 0.786301 0.846240 0.697377
O O8 0.785571 0.684786 0.617754
O O9 0.500000 0.119483 0.796907
O O10 0.235666 0.000000 0.795840
O O11 0.212964 0.151255 0.898036
O O12 0.500000 0.122997 0.000000
O O13 0.243806 0.000000 0.000000
O O14 0.500000 0.596136 0.336029
O O15 0.792989 0.500000 0.313951
#
# Coordination Sequence:
#
# PCOD9388762 Si02
#       5
#     8   8   8   4   8
#     4   8  14  26  44  63  83 110 143 179 220 262
#     4   9  17  27  37  53  79 111 149 185 215 255
#     4   8  13  22  36  53  74 103 138 175 217 261
#     4   7  10  18  32  48  67  93 126 163 205 257
#     4   9  17  28  41  59  85 117 149 179 213 252
#
# _framework density 24.689817000000001
#
# number of rings (size 3 to 8) (size 9 to 14) (size 15 to 20)
#    0.000    3.667    0.000    2.000    0.000    1.333 
#    2.000    6.667    0.000    0.667    0.000    3.111 
#    0.000    0.889    0.000    4.444    0.000    4.222 
#
# Total GULP energy -200878.508294 kJ/mol
# GULP energy per Si atom -5579.958564 kJ/mol
# Density = 2.463362 g / cm^3
# Si number density = 24.689817 Si / 1000 Ang^3
#
#
#
# Elastic Constant Matrix: (Units=GPa)
#
#
# Indices 1 2 3 4 5 6 
#
# 1 98.1204 0.5486 1.3767 0.0000 0.0000 0.0000
# 2 0.5486 55.4172 71.7222 0.0000 0.0000 0.0000
# 3 1.3767 71.7222 246.5667 0.0000 0.0000 0.0000
# 4 0.0000 0.0000 0.0000 33.2309 0.0000 0.0000
# 5 0.0000 0.0000 0.0000 0.0000 37.4715 0.0000
# 6 0.0000 0.0000 0.0000 0.0000 0.0000 -17.6279
#
#
#
# Elastic Compliance Matrix: (Units=1/GPa)
#
#
# Indices 1 2 3 4 5 6 
#
# 1 0.010192 -0.000044 -0.000044 0.000000 0.000000 0.000000
# 2 -0.000044 0.028940 -0.008418 0.000000 0.000000 0.000000
# 3 -0.000044 -0.008418 0.006505 0.000000 0.000000 0.000000
# 4 0.000000 0.000000 0.000000 0.030092 0.000000 0.000000
# 5 0.000000 0.000000 0.000000 0.000000 0.026687 0.000000
# 6 0.000000 0.000000 0.000000 0.000000 0.000000 -0.056728
#
#
# Mechanical properties :
#
#
# Convention : Reuss Voigt Hill
#
# Bulk Modulus (GPa) = 34.93400 60.82214 47.87807
# Shear Modulus (GPa) = 69.21218 32.37869 50.79543
#
# Velocity S-wave (km/s) = 5.30033 3.62528 4.54072
# Velocity P-wave (km/s) = 7.18595 6.49704 6.85016
#
# Compressibility (1/GPa) = 0.02862541
#
# Stress axis : x y z
#
# Youngs Moduli (GPa) = 98.11210 34.55419 153.73777
#
# Poissons Ratio (x) = 0.00151 0.00680
# Poissons Ratio (y) = 0.00429 1.29415
# Poissons Ratio (z) = 0.00434 0.29088
#
# Static dielectric constant tensor:
#      x y z
#    x 1.914090 0.000000 0.000000 
#    y 0.000000 1.974050 0.000000 
#    z 0.000000 0.000000 1.967700 
# 
# From -- ./inp_files/16089.got.cif
#   From: 2010.05.17/outbox.cif.g08.bks.cpg/sg47_9_cif.got.tgz:16089.got - 2010.06.03 20:15:42.
