data_PCOD9388418
_publ_section_title
;
Structure prediction by ZEFSAII (Michael W. Deem and Ramdas Pophale) SiO2 
 PCOD9388418
Probable space group: P M M M
;
_chemical_formula_sum "Si O2"
_cell_formula_units_Z 44
_cell_length_a 9.025504
_cell_length_b 15.243200
_cell_length_c 17.200902
_cell_angle_alpha 90.000000
_cell_angle_beta 90.000000
_cell_angle_gamma 90.000000
_cell_volume 2366.458171
_symmetry_space_group_name_H-M "P M M M"
_symmetry_group_IT_number 47
_symmetry_cell_setting 'orthorhombic'
loop_
_space_group_symop_operation_xyz
x,y,z
-x,-y,z
x,-y,-z
-x,y,-z
-x,-y,-z
x,y,-z
-x,y,z
x,-y,z
loop_
_atom_site_type_symbol
_atom_site_label
_atom_site_fract_x
_atom_site_fract_y
_atom_site_fract_z
Si Si1 0.176569 0.274482 0.143122
Si Si2 0.670513 0.097895 0.093676
Si Si3 0.680331 0.899340 0.588843
Si Si4 0.674781 0.738751 0.306924
Si Si5 0.168264 0.398608 0.406920
Si Si6 0.180604 0.398147 0.000000
O O1 0.226751 0.176801 0.119387
O O2 0.246465 0.287856 0.227360
O O3 0.000000 0.280049 0.147245
O O4 0.227228 0.343445 0.076664
O O5 0.500000 0.113166 0.119431
O O6 0.714525 0.000000 0.120218
O O7 0.669524 0.096791 0.000000
O O8 0.726237 0.875943 0.500000
O O9 0.500000 0.897735 0.588837
O O10 0.729147 0.829843 0.653629
O O11 0.725441 0.000000 0.604019
O O12 0.500000 0.746396 0.293479
O O13 0.712973 0.664038 0.368825
O O14 0.176067 0.394034 0.500000
O O15 0.189119 0.500000 0.384242
O O16 0.000000 0.372554 0.383931
O O17 0.228700 0.500000 0.000000
O O18 0.000000 0.398492 0.000000
#
# Coordination Sequence:
#
# PCOD9388418 Si02
#       6
#     8   8   8   8   8   4
#     4  11  22  37  57  82 110 144 188 236 283 337
#     4   9  18  34  57  82 109 142 177 219 277 337
#     4   8  15  30  52  77 107 146 189 226 262 312
#     4  11  22  34  53  84 117 148 183 230 284 337
#     4   9  19  37  59  81 108 145 186 228 280 341
#     4   9  20  40  62  79  98 134 185 235 284 339
#
# _framework density 18.593187
#
# number of rings (size 3 to 8) (size 9 to 14) (size 15 to 20)
#    0.000    2.455    0.909    3.273    0.000    3.273 
#    0.000    5.455    0.000    5.455    0.000    6.364 
#    0.000    0.000    0.000    0.000    0.000    0.000 
#
# Total GULP energy -245359.847322 kJ/mol
# GULP energy per Si atom -5576.360166 kJ/mol
# Density = 1.855087 g / cm^3
# Si number density = 18.593187 Si / 1000 Ang^3
#
#
#
# Elastic Constant Matrix: (Units=GPa)
#
#
# Indices 1 2 3 4 5 6 
#
# 1 31.4099 28.9096 25.0422 0.0000 0.0000 0.0000
# 2 28.9096 100.6339 53.6409 0.0000 0.0000 0.0000
# 3 25.0422 53.6409 80.5921 0.0000 0.0000 0.0000
# 4 0.0000 0.0000 0.0000 -19.2058 0.0000 0.0000
# 5 0.0000 0.0000 0.0000 0.0000 -14.5940 0.0000
# 6 0.0000 0.0000 0.0000 0.0000 0.0000 27.4556
#
#
#
# Elastic Compliance Matrix: (Units=1/GPa)
#
#
# Indices 1 2 3 4 5 6 
#
# 1 0.046903 -0.008843 -0.008688 0.000000 0.000000 0.000000
# 2 -0.008843 0.017068 -0.008613 0.000000 0.000000 0.000000
# 3 -0.008688 -0.008613 0.020840 0.000000 0.000000 0.000000
# 4 0.000000 0.000000 0.000000 -0.052068 0.000000 0.000000
# 5 0.000000 0.000000 0.000000 0.000000 -0.068521 0.000000
# 6 0.000000 0.000000 0.000000 0.000000 0.000000 0.036422
#
#
# Mechanical properties :
#
#
# Convention : Reuss Voigt Hill
#
# Bulk Modulus (GPa) = 30.74671 47.53570 39.14121
# Shear Modulus (GPa) = 78.40181 5.73404 42.06793
#
# Velocity S-wave (km/s) = 6.50065 1.75802 4.76178
# Velocity P-wave (km/s) = 8.53915 5.45367 7.16448
#
# Compressibility (1/GPa) = 0.03252380
#
# Stress axis : x y z
#
# Youngs Moduli (GPa) = 21.32053 58.58886 47.98396
#
# Poissons Ratio (x) = 0.51809 0.41691
# Poissons Ratio (y) = 0.18853 0.41326
# Poissons Ratio (z) = 0.18524 0.50460
#
# Static dielectric constant tensor:
#      x y z
#    x 1.634930 0.000000 0.000000 
#    y 0.000000 1.647560 0.000000 
#    z 0.000000 0.000000 1.629620 
# 
# From -- ./inp_files/9014.got.cif
#   From: 2010.05.17/outbox.cif.g08.bks.cpg/sg47_5_cif.got.tgz:9014.got - 2010.06.03 20:15:42.
