data_PCOD9388609
_publ_section_title
;
Structure prediction by ZEFSAII (Michael W. Deem and Ramdas Pophale) SiO2 
 PCOD9388609
Probable space group: P M M M
;
_chemical_formula_sum "Si O2"
_cell_formula_units_Z 36
_cell_length_a 23.724143
_cell_length_b 7.476282
_cell_length_c 9.829947
_cell_angle_alpha 90.000000
_cell_angle_beta 90.000000
_cell_angle_gamma 90.000000
_cell_volume 1743.521807
_symmetry_space_group_name_H-M "P M M M"
_symmetry_group_IT_number 47
_symmetry_cell_setting 'orthorhombic'
loop_
_space_group_symop_operation_xyz
x,y,z
-x,-y,z
x,-y,-z
-x,y,-z
-x,-y,-z
x,y,-z
-x,y,z
x,-y,z
loop_
_atom_site_type_symbol
_atom_site_label
_atom_site_fract_x
_atom_site_fract_y
_atom_site_fract_z
Si Si1 0.000000 0.289304 0.348229
Si Si2 0.333347 0.218956 0.656361
Si Si3 0.769480 0.218073 0.156238
Si Si4 0.103710 0.786384 0.847569
Si Si5 0.435993 0.782012 0.844449
O O1 0.055467 0.246668 0.261225
O O2 0.000000 0.500000 0.362857
O O3 0.000000 0.209048 0.500000
O O4 0.333278 0.276224 0.500000
O O5 0.277980 0.277481 0.738889
O O6 0.388809 0.276841 0.738720
O O7 0.333355 0.000000 0.656569
O O8 0.833306 0.277819 0.188476
O O9 0.768974 0.000000 0.158845
O O10 0.756844 0.269653 0.000000
O O11 0.108178 0.000000 0.857795
O O12 0.089031 0.719773 0.000000
O O13 0.500000 0.726057 0.812244
O O14 0.435747 0.000000 0.843594
O O15 0.422954 0.728227 0.000000
#
# Coordination Sequence:
#
# PCOD9388609 Si02
#       5
#     4   8   8   8   8
#     4  11  24  37  48  68  98 127 152 179 218 270
#     4   9  15  20  28  45  68  93 123 162 207 252
#     4   8  14  25  40  57  77 100 128 167 213 257
#     4   9  18  33  53  74  92 114 150 192 229 267
#     4   8  13  20  28  37  53  84 126 167 206 248
#
# _framework density 20.647864999999999
#
# number of rings (size 3 to 8) (size 9 to 14) (size 15 to 20)
#    0.000    3.222    0.000    3.333    0.000    6.667 
#    0.000    4.444    0.000    0.000    0.000    0.000 
#    0.000    0.000    0.000    0.000    0.000    1.111 
#
# Total GULP energy -200852.370341 kJ/mol
# GULP energy per Si atom -5579.232509 kJ/mol
# Density = 2.060087 g / cm^3
# Si number density = 20.647865 Si / 1000 Ang^3
#
#
#
# Elastic Constant Matrix: (Units=GPa)
#
#
# Indices 1 2 3 4 5 6 
#
# 1 207.2255 6.9658 176.6815 0.0000 0.0000 0.0000
# 2 6.9658 56.6883 6.6368 0.0000 0.0000 0.0000
# 3 176.6815 6.6368 210.7816 0.0000 0.0000 0.0000
# 4 0.0000 0.0000 0.0000 10.7135 0.0000 0.0000
# 5 0.0000 0.0000 0.0000 0.0000 -5.3206 0.0000
# 6 0.0000 0.0000 0.0000 0.0000 0.0000 -45.8136
#
#
#
# Elastic Compliance Matrix: (Units=1/GPa)
#
#
# Indices 1 2 3 4 5 6 
#
# 1 0.016923 -0.000420 -0.014172 0.000000 0.000000 0.000000
# 2 -0.000420 0.017716 -0.000206 0.000000 0.000000 0.000000
# 3 -0.014172 -0.000206 0.016630 0.000000 0.000000 0.000000
# 4 0.000000 0.000000 0.000000 0.093340 0.000000 0.000000
# 5 0.000000 0.000000 0.000000 0.000000 -0.187950 0.000000
# 6 0.000000 0.000000 0.000000 0.000000 0.000000 -0.021828
#
#
# Mechanical properties :
#
#
# Convention : Reuss Voigt Hill
#
# Bulk Modulus (GPa) = 46.13948 95.02929 70.58439
# Shear Modulus (GPa) = -176.37367 10.87661 -82.74853
#
# Velocity S-wave (km/s) = -9.25231 2.29763 -6.33743
# Velocity P-wave (km/s) = 9.57841 7.29126 4.39223
#
# Compressibility (1/GPa) = 0.02167341
#
# Stress axis : x y z
#
# Youngs Moduli (GPa) = 59.09254 56.44605 60.13338
#
# Poissons Ratio (x) = 0.02372 0.85219
# Poissons Ratio (y) = 0.02483 0.01236
# Poissons Ratio (z) = 0.83744 0.01160
#
# Static dielectric constant tensor:
#      x y z
#    x 1.735160 0.000000 0.000000 
#    y 0.000000 1.776220 0.000000 
#    z 0.000000 0.000000 1.726330 
# 
# From -- ./inp_files/12055.got.cif
#   From: 2010.05.17/outbox.cif.g08.bks.cpg/sg47_7_cif.got.tgz:12055.got - 2010.06.03 20:15:42.
