data_PCOD9388550
_publ_section_title
;
Structure prediction by ZEFSAII (Michael W. Deem and Ramdas Pophale) SiO2 
 PCOD9388550
Probable space group: P M M M
;
_chemical_formula_sum "Si O2"
_cell_formula_units_Z 38
_cell_length_a 17.105691
_cell_length_b 15.691996
_cell_length_c 7.714099
_cell_angle_alpha 90.000000
_cell_angle_beta 90.000000
_cell_angle_gamma 90.000000
_cell_volume 2070.637235
_symmetry_space_group_name_H-M "P M M M"
_symmetry_group_IT_number 47
_symmetry_cell_setting 'orthorhombic'
loop_
_space_group_symop_operation_xyz
x,y,z
-x,-y,z
x,-y,-z
-x,y,-z
-x,-y,-z
x,y,-z
-x,y,z
x,-y,z
loop_
_atom_site_type_symbol
_atom_site_label
_atom_site_fract_x
_atom_site_fract_y
_atom_site_fract_z
Si Si1 0.092139 0.094565 0.209296
Si Si2 0.912366 0.596813 0.208454
Si Si3 0.799258 0.748728 0.303550
Si Si4 0.326726 0.134923 0.199741
Si Si5 0.500000 0.097622 0.791897
Si Si6 0.716599 0.000000 0.500000
O O1 0.140037 0.172697 0.282693
O O2 0.000000 0.103189 0.246970
O O3 0.116879 0.000000 0.272025
O O4 0.100823 0.095775 0.000000
O O5 0.897496 0.500000 0.269251
O O6 0.846557 0.664502 0.254123
O O7 0.000000 0.622426 0.269166
O O8 0.915697 0.594441 0.000000
O O9 0.774662 0.739942 0.500000
O O10 0.722760 0.778303 0.200959
O O11 0.417983 0.141038 0.252149
O O12 0.289808 0.073618 0.344904
O O13 0.322928 0.101611 0.000000
O O14 0.500000 0.000000 0.722581
O O15 0.500000 0.091863 0.000000
#
# Coordination Sequence:
#
# PCOD9388550 Si02
#       6
#     8   8   8   8   4   2
#     4   9  19  34  50  67  93 138 186 223 264 310
#     4   9  19  38  63  85 105 138 184 232 288 345
#     4  12  24  35  49  79 112 142 184 226 276 336
#     4  11  23  38  55  79 114 151 190 241 282 327
#     4   9  18  34  56  78 105 150 197 232 282 327
#     4  12  22  37  54  86 107 150 202 230 283 340
#
# _framework density 18.351838999999998
#
# number of rings (size 3 to 8) (size 9 to 14) (size 15 to 20)
#    0.000    1.789    2.105    4.105    1.474    5.053 
#    0.000    2.105    0.000    0.000    0.000    0.737 
#    0.000    5.895    0.000    0.000    0.000    0.000 
#
# Total GULP energy -211546.341131 kJ/mol
# GULP energy per Si atom -5567.008977 kJ/mol
# Density = 1.831007 g / cm^3
# Si number density = 18.351839 Si / 1000 Ang^3
#
#
#
# Elastic Constant Matrix: (Units=GPa)
#
#
# Indices 1 2 3 4 5 6 
#
# 1 123.2984 69.2087 10.0622 0.0000 0.0000 0.0000
# 2 69.2087 95.3172 17.2347 0.0000 0.0000 0.0000
# 3 10.0622 17.2347 82.6533 0.0000 0.0000 0.0000
# 4 0.0000 0.0000 0.0000 2.1567 0.0000 0.0000
# 5 0.0000 0.0000 0.0000 0.0000 25.6014 0.0000
# 6 0.0000 0.0000 0.0000 0.0000 0.0000 16.0862
#
#
#
# Elastic Compliance Matrix: (Units=1/GPa)
#
#
# Indices 1 2 3 4 5 6 
#
# 1 0.013704 -0.010027 0.000422 0.000000 0.000000 0.000000
# 2 -0.010027 0.018238 -0.002582 0.000000 0.000000 0.000000
# 3 0.000422 -0.002582 0.012586 0.000000 0.000000 0.000000
# 4 0.000000 0.000000 0.000000 0.463669 0.000000 0.000000
# 5 0.000000 0.000000 0.000000 0.000000 0.039060 0.000000
# 6 0.000000 0.000000 0.000000 0.000000 0.000000 0.062165
#
#
# Mechanical properties :
#
#
# Convention : Reuss Voigt Hill
#
# Bulk Modulus (GPa) = 49.61567 54.92002 52.26785
# Shear Modulus (GPa) = 7.80622 22.41975 15.11299
#
# Velocity S-wave (km/s) = 2.06467 3.49902 2.87281
# Velocity P-wave (km/s) = 5.72524 6.80554 6.28863
#
# Compressibility (1/GPa) = 0.02015492
#
# Stress axis : x y z
#
# Youngs Moduli (GPa) = 72.97121 54.82907 79.45469
#
# Poissons Ratio (x) = 0.54976 -0.03356
# Poissons Ratio (y) = 0.73166 0.20518
# Poissons Ratio (z) = -0.03082 0.14159
#
# Static dielectric constant tensor:
#      x y z
#    x 1.678840 0.000000 0.000000 
#    y 0.000000 1.635950 0.000000 
#    z 0.000000 0.000000 1.691030 
# 
# From -- ./inp_files/8881.got.cif
#   From: 2010.05.17/outbox.cif.g08.bks.cpg/sg47_5_cif.got.tgz:8881.got - 2010.06.03 20:15:42.
