data_PCOD9388328
_publ_section_title
;
Structure prediction by ZEFSAII (Michael W. Deem and Ramdas Pophale) SiO2 
 PCOD9388328
Probable space group: P M M M
;
_chemical_formula_sum "Si O2"
_cell_formula_units_Z 40
_cell_length_a 25.537111
_cell_length_b 9.159323
_cell_length_c 10.447432
_cell_angle_alpha 90.000000
_cell_angle_beta 90.000000
_cell_angle_gamma 90.000000
_cell_volume 2443.682011
_symmetry_space_group_name_H-M "P M M M"
_symmetry_group_IT_number 47
_symmetry_cell_setting 'orthorhombic'
loop_
_space_group_symop_operation_xyz
x,y,z
-x,-y,z
x,-y,-z
-x,y,-z
-x,-y,-z
x,y,-z
-x,y,z
x,-y,z
loop_
_atom_site_type_symbol
_atom_site_label
_atom_site_fract_x
_atom_site_fract_y
_atom_site_fract_z
Si Si1 0.942871 0.671688 0.344781
Si Si2 0.437249 0.829172 0.500000
Si Si3 0.838793 0.830558 0.344408
Si Si4 0.721882 0.175561 0.653156
Si Si5 0.559995 0.677067 0.000000
Si Si6 0.381848 0.323992 0.261231
O O1 0.942625 0.685478 0.500000
O O2 0.940690 0.500000 0.316276
O O3 0.890137 0.747420 0.297063
O O4 0.000000 0.728792 0.301390
O O5 0.500000 0.822588 0.500000
O O6 0.414407 0.748237 0.623669
O O7 0.421039 0.000000 0.500000
O O8 0.838886 0.823415 0.500000
O O9 0.780717 0.778600 0.306934
O O10 0.843175 0.000000 0.309437
O O11 0.715973 0.202179 0.500000
O O12 0.676584 0.261045 0.725683
O O13 0.717464 0.000000 0.670753
O O14 0.590927 0.718723 0.127881
O O15 0.557836 0.500000 0.000000
O O16 0.500000 0.730482 0.000000
O O17 0.381861 0.500000 0.272686
#
# Coordination Sequence:
#
# PCOD9388328 Si02
#       6
#     8   4   8   8   4   8
#     4   8  13  20  29  44  70 105 144 188 233 270
#     4  11  23  37  53  75 103 129 154 193 240 281
#     4   8  14  23  35  52  75 110 149 184 227 274
#     4   9  17  30  46  65  95 126 152 193 244 285
#     4   9  20  38  55  73 101 129 154 195 244 285
#     4  11  21  34  55  78  97 125 163 198 237 288
#
# _framework density 16.368741
#
# number of rings (size 3 to 8) (size 9 to 14) (size 15 to 20)
#    0.000    2.800    1.000    3.300    0.000    2.800 
#    0.000    6.000    0.000    3.600    0.000    0.000 
#    0.000    0.000    0.000    0.900    0.000   18.000 
#
# Total GULP energy -222753.231525 kJ/mol
# GULP energy per Si atom -5568.830788 kJ/mol
# Density = 1.633149 g / cm^3
# Si number density = 16.368741 Si / 1000 Ang^3
#
#
#
# Elastic Constant Matrix: (Units=GPa)
#
#
# Indices 1 2 3 4 5 6 
#
# 1 193.9141 67.9215 57.9142 0.0000 0.0000 0.0000
# 2 67.9215 51.4358 32.2209 0.0000 0.0000 0.0000
# 3 57.9142 32.2209 73.5658 0.0000 0.0000 0.0000
# 4 0.0000 0.0000 0.0000 1.4165 0.0000 0.0000
# 5 0.0000 0.0000 0.0000 0.0000 7.9626 0.0000
# 6 0.0000 0.0000 0.0000 0.0000 0.0000 33.6286
#
#
#
# Elastic Compliance Matrix: (Units=1/GPa)
#
#
# Indices 1 2 3 4 5 6 
#
# 1 0.010020 -0.011425 -0.002884 0.000000 0.000000 0.000000
# 2 -0.011425 0.039819 -0.008446 0.000000 0.000000 0.000000
# 3 -0.002884 -0.008446 0.019563 0.000000 0.000000 0.000000
# 4 0.000000 0.000000 0.000000 0.705977 0.000000 0.000000
# 5 0.000000 0.000000 0.000000 0.000000 0.125587 0.000000
# 6 0.000000 0.000000 0.000000 0.000000 0.000000 0.029737
#
#
# Mechanical properties :
#
#
# Convention : Reuss Voigt Hill
#
# Bulk Modulus (GPa) = 41.85524 70.55878 56.20701
# Shear Modulus (GPa) = 5.08038 19.32548 12.20293
#
# Velocity S-wave (km/s) = 1.76365 3.43976 2.73335
# Velocity P-wave (km/s) = 5.45646 7.67954 6.66139
#
# Compressibility (1/GPa) = 0.02389187
#
# Stress axis : x y z
#
# Youngs Moduli (GPa) = 99.79993 25.11353 51.11619
#
# Poissons Ratio (x) = 0.28692 0.14744
# Poissons Ratio (y) = 1.14019 0.43174
# Poissons Ratio (z) = 0.28785 0.21212
#
# Static dielectric constant tensor:
#      x y z
#    x 1.588190 0.000000 0.000000 
#    y 0.000000 1.546770 0.000000 
#    z 0.000000 0.000000 1.525500 
# 
# From -- ./inp_files/13070.got.cif
#   From: 2010.05.17/outbox.cif.g08.bks.cpg/sg47_7_cif.got.tgz:13070.got - 2010.06.03 20:15:42.
