data_PCOD9388895
_publ_section_title
;
Structure prediction by ZEFSAII (Michael W. Deem and Ramdas Pophale) SiO2 
 PCOD9388895
Probable space group: P M M M
;
_chemical_formula_sum "Si O2"
_cell_formula_units_Z 32
_cell_length_a 23.986443
_cell_length_b 7.877812
_cell_length_c 7.481144
_cell_angle_alpha 90.000000
_cell_angle_beta 90.000000
_cell_angle_gamma 90.000000
_cell_volume 1413.642121
_symmetry_space_group_name_H-M "P M M M"
_symmetry_group_IT_number 47
_symmetry_cell_setting 'orthorhombic'
loop_
_space_group_symop_operation_xyz
x,y,z
-x,-y,z
x,-y,-z
-x,y,-z
-x,-y,-z
x,y,-z
-x,y,z
x,-y,z
loop_
_atom_site_type_symbol
_atom_site_label
_atom_site_fract_x
_atom_site_fract_y
_atom_site_fract_z
Si Si1 0.000000 0.306857 0.210381
Si Si2 0.639515 0.186771 0.718545
Si Si3 0.119756 0.695566 0.713289
Si Si4 0.563940 0.500000 0.718690
Si Si5 0.760364 0.297288 0.284449
O O1 0.059379 0.223678 0.254724
O O2 0.000000 0.500000 0.291489
O O3 0.000000 0.323811 0.000000
O O4 0.640742 0.192918 0.500000
O O5 0.598456 0.335167 0.776453
O O6 0.703002 0.217546 0.781188
O O7 0.620627 0.000000 0.771210
O O8 0.125138 0.686474 0.500000
O O9 0.116176 0.500000 0.781452
O O10 0.178987 0.767085 0.779463
O O11 0.500000 0.500000 0.776853
O O12 0.563694 0.500000 0.500000
O O13 0.759388 0.274876 0.500000
O O14 0.758476 0.500000 0.250912
#
# Coordination Sequence:
#
# PCOD9388895 Si02
#       5
#     4   8   8   4   8
#     4   9  15  21  29  47  78 107 130 165 213 258
#     4   9  15  22  33  48  67  93 127 168 209 244
#     4   8  13  20  32  48  67  97 136 173 209 253
#     4   9  16  24  32  44  68 101 133 164 198 243
#     4   8  12  20  33  47  64  88 122 166 210 246
#
# _framework density 22.636565000000001
#
# number of rings (size 3 to 8) (size 9 to 14) (size 15 to 20)
#    0.000    3.500    1.250    1.875    0.000    2.000 
#    0.000    2.500    0.000    0.000    0.000    0.875 
#    0.000    8.000    0.000    0.000    0.000    2.500 
#
# Total GULP energy -178339.040041 kJ/mol
# GULP energy per Si atom -5573.095001 kJ/mol
# Density = 2.258504 g / cm^3
# Si number density = 22.636565 Si / 1000 Ang^3
#
#
#
# Elastic Constant Matrix: (Units=GPa)
#
#
# Indices 1 2 3 4 5 6 
#
# 1 246.2687 104.0957 6.7974 0.0000 0.0000 0.0000
# 2 104.0957 98.9814 2.2777 0.0000 0.0000 0.0000
# 3 6.7974 2.2777 62.6841 0.0000 0.0000 0.0000
# 4 0.0000 0.0000 0.0000 -7.8836 0.0000 0.0000
# 5 0.0000 0.0000 0.0000 0.0000 -50.2988 0.0000
# 6 0.0000 0.0000 0.0000 0.0000 0.0000 -13.9071
#
#
#
# Elastic Compliance Matrix: (Units=1/GPa)
#
#
# Indices 1 2 3 4 5 6 
#
# 1 0.007327 -0.007694 -0.000515 0.000000 0.000000 0.000000
# 2 -0.007694 0.018190 0.000173 0.000000 0.000000 0.000000
# 3 -0.000515 0.000173 0.016003 0.000000 0.000000 0.000000
# 4 0.000000 0.000000 0.000000 -0.126846 0.000000 0.000000
# 5 0.000000 0.000000 0.000000 0.000000 -0.019881 0.000000
# 6 0.000000 0.000000 0.000000 0.000000 0.000000 -0.071906
#
#
# Mechanical properties :
#
#
# Convention : Reuss Voigt Hill
#
# Bulk Modulus (GPa) = 39.29424 70.47508 54.88466
# Shear Modulus (GPa) = -32.77396 5.23299 -13.77048
#
# Velocity S-wave (km/s) = -3.80917 1.52209 -2.46911
# Velocity P-wave (km/s) = 1.39639 5.85576 4.02119
#
# Compressibility (1/GPa) = 0.02544902
#
# Stress axis : x y z
#
# Youngs Moduli (GPa) = 136.48494 54.97532 62.48999
#
# Poissons Ratio (x) = 0.42295 0.03218
# Poissons Ratio (y) = 1.05005 -0.01083
# Poissons Ratio (z) = 0.07028 -0.00953
#
# Static dielectric constant tensor:
#      x y z
#    x 1.875030 0.000000 0.000000 
#    y 0.000000 1.828610 0.000000 
#    z 0.000000 0.000000 1.834890 
# 
# From -- ./inp_files/12015.got.cif
#   From: 2010.05.17/outbox.cif.g08.bks.cpg/sg47_7_cif.got.tgz:12015.got - 2010.06.03 20:15:42.
