data_PCOD9388125
_publ_section_title
;
Structure prediction by ZEFSAII (Michael W. Deem and Ramdas Pophale) SiO2 
 PCOD9388125
Probable space group: P M M M
;
_chemical_formula_sum "Si O2"
_cell_formula_units_Z 37
_cell_length_a 7.626126
_cell_length_b 18.703904
_cell_length_c 12.466179
_cell_angle_alpha 90.000000
_cell_angle_beta 90.000000
_cell_angle_gamma 90.000000
_cell_volume 1778.154937
_symmetry_space_group_name_H-M "P M M M"
_symmetry_group_IT_number 47
_symmetry_cell_setting 'orthorhombic'
loop_
_space_group_symop_operation_xyz
x,y,z
-x,-y,z
x,-y,-z
-x,y,-z
-x,-y,-z
x,y,-z
-x,y,z
x,-y,z
loop_
_atom_site_type_symbol
_atom_site_label
_atom_site_fract_x
_atom_site_fract_y
_atom_site_fract_z
Si Si1 0.213875 0.421462 0.624150
Si Si2 0.500000 0.500000 0.000000
Si Si3 0.710228 0.081767 0.000000
Si Si4 0.213215 0.294808 0.774991
Si Si5 0.787240 0.369420 0.000000
Si Si6 0.204532 0.863169 0.234805
Si Si7 0.705286 0.000000 0.620366
O O1 0.265168 0.414855 0.500000
O O2 0.269464 0.500000 0.664459
O O3 0.277404 0.356209 0.694934
O O4 0.000000 0.421074 0.626602
O O5 0.657023 0.436985 0.000000
O O6 0.768795 0.117914 0.890034
O O7 0.500000 0.080897 0.000000
O O8 0.774173 0.000000 0.000000
O O9 0.282547 0.215840 0.748228
O O10 0.000000 0.292946 0.765879
O O11 0.248553 0.321389 0.895080
O O12 0.000000 0.387634 0.000000
O O13 0.258786 0.929120 0.309565
O O14 0.000000 0.856289 0.255009
O O15 0.500000 0.000000 0.605873
O O16 0.786622 0.000000 0.500000
#
# Coordination Sequence:
#
# PCOD9388125 Si02
#       7
#     8   1   4   8   4   8   4
#     4   8  14  26  48  79 111 146 192 238 282 345
#     4  12  26  40  60  98 126 170 226 244 312 380
#     4  11  22  37  60  86 116 151 191 230 295 371
#     4   9  19  35  57  86 122 159 194 246 313 364
#     4  10  22  42  62  90 132 168 207 260 313 374
#     4  11  22  38  63  93 119 152 203 260 314 366
#     4  11  25  44  61  84 123 167 207 247 308 387
#
# _framework density 20.808084999999998
#
# number of rings (size 3 to 8) (size 9 to 14) (size 15 to 20)
#    0.000    2.162    1.081    2.757    1.514    3.892 
#    5.838    2.162    0.000    0.000    0.000    0.757 
#    0.000    0.000    0.000    0.000    0.000    0.000 
#
# Total GULP energy -206215.658518 kJ/mol
# GULP energy per Si atom -5573.396176 kJ/mol
# Density = 2.076073 g / cm^3
# Si number density = 20.808085 Si / 1000 Ang^3
#
#
#
# Elastic Constant Matrix: (Units=GPa)
#
#
# Indices 1 2 3 4 5 6 
#
# 1 66.7102 29.6772 8.7768 0.0000 0.0000 0.0000
# 2 29.6772 252.9638 117.8491 0.0000 0.0000 0.0000
# 3 8.7768 117.8491 136.5394 0.0000 0.0000 0.0000
# 4 0.0000 0.0000 0.0000 83.7607 0.0000 0.0000
# 5 0.0000 0.0000 0.0000 0.0000 8.0162 0.0000
# 6 0.0000 0.0000 0.0000 0.0000 0.0000 -34.7660
#
#
#
# Elastic Compliance Matrix: (Units=1/GPa)
#
#
# Indices 1 2 3 4 5 6 
#
# 1 0.015894 -0.002323 0.000983 0.000000 0.000000 0.000000
# 2 -0.002323 0.006951 -0.005850 0.000000 0.000000 0.000000
# 3 0.000983 -0.005850 0.012310 0.000000 0.000000 0.000000
# 4 0.000000 0.000000 0.000000 0.011939 0.000000 0.000000
# 5 0.000000 0.000000 0.000000 0.000000 0.124747 0.000000
# 6 0.000000 0.000000 0.000000 0.000000 0.000000 -0.028764
#
#
# Mechanical properties :
#
#
# Convention : Reuss Voigt Hill
#
# Bulk Modulus (GPa) = 48.13340 85.42441 66.77890
# Shear Modulus (GPa) = 30.41689 31.39621 30.90655
#
# Velocity S-wave (km/s) = 3.82747 3.88860 3.85816
# Velocity P-wave (km/s) = 6.53567 7.82970 7.21177
#
# Compressibility (1/GPa) = 0.02077560
#
# Stress axis : x y z
#
# Youngs Moduli (GPa) = 62.91625 143.86160 81.23347
#
# Poissons Ratio (x) = 0.33414 -0.07985
# Poissons Ratio (y) = 0.14613 0.47524
# Poissons Ratio (z) = -0.06185 0.84164
#
# Static dielectric constant tensor:
#      x y z
#    x 1.766150 0.000000 0.000000 
#    y 0.000000 1.803500 0.000000 
#    z 0.000000 0.000000 1.668060 
# 
# From -- ./inp_files/14908.got.cif
#   From: 2010.05.17/outbox.cif.g08.bks.cpg/sg47_8_cif.got.tgz:14908.got - 2010.06.03 20:15:42.
