data_PCOD9388982
_publ_section_title
;
Structure prediction by ZEFSAII (Michael W. Deem and Ramdas Pophale) SiO2 
 PCOD9388982
Probable space group: P M M M
;
_chemical_formula_sum "Si O2"
_cell_formula_units_Z 56
_cell_length_a 29.811114
_cell_length_b 13.926353
_cell_length_c 9.569986
_cell_angle_alpha 90.000000
_cell_angle_beta 90.000000
_cell_angle_gamma 90.000000
_cell_volume 3973.076315
_symmetry_space_group_name_H-M "P M M M"
_symmetry_group_IT_number 47
_symmetry_cell_setting 'orthorhombic'
loop_
_space_group_symop_operation_xyz
x,y,z
-x,-y,z
x,-y,-z
-x,y,-z
-x,-y,-z
x,y,-z
-x,y,z
x,-y,z
loop_
_atom_site_type_symbol
_atom_site_label
_atom_site_fract_x
_atom_site_fract_y
_atom_site_fract_z
Si Si1 0.592231 0.389079 0.166228
Si Si2 0.641022 0.889471 0.332512
Si Si3 0.223446 0.613931 0.165840
Si Si4 0.684414 0.279927 0.165941
Si Si5 0.449728 0.781753 0.666560
Si Si6 0.864296 0.616970 0.660699
Si Si7 0.050456 0.383246 0.838136
O O1 0.586387 0.500000 0.205942
O O2 0.643526 0.354551 0.190369
O O3 0.561470 0.315796 0.251420
O O4 0.583638 0.380274 0.000000
O O5 0.646894 0.880618 0.500000
O O6 0.672795 0.814954 0.252764
O O7 0.589901 0.856576 0.300030
O O8 0.648200 0.000000 0.293315
O O9 0.231132 0.500000 0.189331
O O10 0.268245 0.672028 0.202269
O O11 0.180225 0.644470 0.254408
O O12 0.214600 0.625658 0.000000
O O13 0.684547 0.258897 0.000000
O O14 0.447489 0.763972 0.500000
O O15 0.500000 0.815473 0.699794
O O16 0.862926 0.648036 0.500000
O O17 0.865190 0.500000 0.661644
O O18 0.909387 0.649766 0.739288
O O19 0.050662 0.500000 0.834974
O O20 0.000000 0.353050 0.797160
O O21 0.058123 0.356038 0.000000
#
# Coordination Sequence:
#
# PCOD9388982 Si02
#       7
#     8   8   8   8   8   8   8
#     4   9  17  29  44  61  82 107 133 160 190 226
#     4   9  18  32  48  64  81 101 125 155 193 235
#     4   9  16  26  40  56  76 103 132 161 194 233
#     4   9  17  29  45  63  80 100 129 162 194 230
#     4   9  18  31  45  62  83 105 130 159 189 224
#     4   9  16  23  31  47  71  97 127 164 203 238
#     4   8  13  21  32  44  60  88 128 170 207 240
#
# _framework density 14.094872000000001
#
# number of rings (size 3 to 8) (size 9 to 14) (size 15 to 20)
#    0.000    3.143    0.000    1.286    0.000    5.714 
#    0.000    4.286    0.000    2.571    0.000    4.000 
#    0.000    0.000    0.000    0.000    0.000    0.714 
#
# Total GULP energy -311774.276609 kJ/mol
# GULP energy per Si atom -5567.397797 kJ/mol
# Density = 1.406279 g / cm^3
# Si number density = 14.094872 Si / 1000 Ang^3
#
#
#
# Elastic Constant Matrix: (Units=GPa)
#
#
# Indices 1 2 3 4 5 6 
#
# 1 115.1693 24.7996 55.7953 0.0000 0.0000 0.0000
# 2 24.7996 51.2085 25.3501 0.0000 0.0000 0.0000
# 3 55.7953 25.3501 44.1579 0.0000 0.0000 0.0000
# 4 0.0000 0.0000 0.0000 17.3792 0.0000 0.0000
# 5 0.0000 0.0000 0.0000 0.0000 20.6243 0.0000
# 6 0.0000 0.0000 0.0000 0.0000 0.0000 7.9787
#
#
#
# Elastic Compliance Matrix: (Units=1/GPa)
#
#
# Indices 1 2 3 4 5 6 
#
# 1 0.023125 0.004562 -0.031838 0.000000 0.000000 0.000000
# 2 0.004562 0.028181 -0.021942 0.000000 0.000000 0.000000
# 3 -0.031838 -0.021942 0.075472 0.000000 0.000000 0.000000
# 4 0.000000 0.000000 0.000000 0.057540 0.000000 0.000000
# 5 0.000000 0.000000 0.000000 0.000000 0.048486 0.000000
# 6 0.000000 0.000000 0.000000 0.000000 0.000000 0.125334
#
#
# Mechanical properties :
#
#
# Convention : Reuss Voigt Hill
#
# Bulk Modulus (GPa) = 35.28547 46.93615 41.11081
# Shear Modulus (GPa) = 10.72910 16.16915 13.44913
#
# Velocity S-wave (km/s) = 2.76199 3.39066 3.09234
# Velocity P-wave (km/s) = 5.93802 6.97862 6.47925
#
# Compressibility (1/GPa) = 0.02834028
#
# Stress axis : x y z
#
# Youngs Moduli (GPa) = 43.24317 35.48493 13.25000
#
# Poissons Ratio (x) = -0.16188 0.42186
# Poissons Ratio (y) = -0.19728 0.29074
# Poissons Ratio (z) = 1.37679 0.77862
#
# Static dielectric constant tensor:
#      x y z
#    x 1.468410 0.000000 0.000000 
#    y 0.000000 1.426500 0.000000 
#    z 0.000000 0.000000 1.468100 
# 
# From -- ./inp_files/8153.got.cif
#   From: 2010.05.17/outbox.cif.g08.bks.cpg/sg47_5_cif.got.tgz:8153.got - 2010.06.03 20:15:42.
