data_PCOD9388645
_publ_section_title
;
Structure prediction by ZEFSAII (Michael W. Deem and Ramdas Pophale) SiO2 
 PCOD9388645
Probable space group: P M M M
;
_chemical_formula_sum "Si O2"
_cell_formula_units_Z 48
_cell_length_a 8.168422
_cell_length_b 32.058198
_cell_length_c 9.550597
_cell_angle_alpha 90.000000
_cell_angle_beta 90.000000
_cell_angle_gamma 90.000000
_cell_volume 2500.966031
_symmetry_space_group_name_H-M "P M M M"
_symmetry_group_IT_number 47
_symmetry_cell_setting 'orthorhombic'
loop_
_space_group_symop_operation_xyz
x,y,z
-x,-y,z
x,-y,-z
-x,y,-z
-x,-y,-z
x,y,-z
-x,y,z
x,-y,z
loop_
_atom_site_type_symbol
_atom_site_label
_atom_site_fract_x
_atom_site_fract_y
_atom_site_fract_z
Si Si1 0.799345 0.500000 0.160589
Si Si2 0.197917 0.673176 0.661870
Si Si3 0.695092 0.751646 0.159400
Si Si4 0.311065 0.000000 0.829652
Si Si5 0.697993 0.090767 0.839051
Si Si6 0.800385 0.420904 0.661112
Si Si7 0.804770 0.169461 0.340892
O O1 0.744674 0.541738 0.240323
O O2 0.000000 0.500000 0.163460
O O3 0.748087 0.500000 0.000000
O O4 0.247934 0.681044 0.500000
O O5 0.260445 0.708528 0.764805
O O6 0.250786 0.626071 0.700252
O O7 0.000000 0.674045 0.664118
O O8 0.500000 0.755157 0.153344
O O9 0.757884 0.789988 0.251855
O O10 0.759461 0.753190 0.000000
O O11 0.238741 0.954969 0.791303
O O12 0.500000 0.000000 0.780373
O O13 0.314711 0.000000 0.000000
O O14 0.500000 0.088117 0.842940
O O15 0.745472 0.128215 0.738730
O O16 0.752252 0.098500 0.000000
O O17 0.752137 0.428485 0.500000
O O18 0.000000 0.420951 0.663603
O O19 0.739898 0.171901 0.500000
O O20 0.000000 0.167852 0.347795
#
# Coordination Sequence:
#
# PCOD9388645 Si02
#       7
#     4   8   8   4   8   8   8
#     4   9  15  21  33  59  94 129 166 205 242 284
#     4   9  18  33  53  77 103 132 168 208 251 301
#     4  11  24  39  55  77 102 129 165 208 254 306
#     4   7  12  26  50  79 108 136 168 209 252 293
#     4   9  17  32  56  83 108 136 173 214 254 298
#     4   8  14  25  41  62  92 129 164 199 242 291
#     4  11  24  39  54  75 104 137 172 210 254 303
#
# _framework density 19.192584
#
# number of rings (size 3 to 8) (size 9 to 14) (size 15 to 20)
#    0.000    2.667    0.000    4.250    0.000    9.000 
#    0.000    2.500    0.000    4.000    0.000    0.583 
#    0.000    4.667    0.000    0.000    0.000    0.000 
#
# Total GULP energy -267735.024972 kJ/mol
# GULP energy per Si atom -5577.813020 kJ/mol
# Density = 1.914890 g / cm^3
# Si number density = 19.192584 Si / 1000 Ang^3
#
#
#
# Elastic Constant Matrix: (Units=GPa)
#
#
# Indices 1 2 3 4 5 6 
#
# 1 15.7871 14.7440 16.2291 0.0000 0.0000 0.0000
# 2 14.7440 201.3284 128.3878 0.0000 0.0000 0.0000
# 3 16.2291 128.3878 149.0283 0.0000 0.0000 0.0000
# 4 0.0000 0.0000 0.0000 23.1694 0.0000 0.0000
# 5 0.0000 0.0000 0.0000 0.0000 19.6768 0.0000
# 6 0.0000 0.0000 0.0000 0.0000 0.0000 20.8590
#
#
#
# Elastic Compliance Matrix: (Units=1/GPa)
#
#
# Indices 1 2 3 4 5 6 
#
# 1 0.071361 -0.000600 -0.007254 0.000000 0.000000 0.000000
# 2 -0.000600 0.011028 -0.009435 0.000000 0.000000 0.000000
# 3 -0.007254 -0.009435 0.015628 0.000000 0.000000 0.000000
# 4 0.000000 0.000000 0.000000 0.043160 0.000000 0.000000
# 5 0.000000 0.000000 0.000000 0.000000 0.050821 0.000000
# 6 0.000000 0.000000 0.000000 0.000000 0.000000 0.047941
#
#
# Mechanical properties :
#
#
# Convention : Reuss Voigt Hill
#
# Bulk Modulus (GPa) = 15.76338 76.09618 45.92978
# Shear Modulus (GPa) = 16.91109 26.52654 21.71881
#
# Velocity S-wave (km/s) = 2.97160 3.72173 3.36761
# Velocity P-wave (km/s) = 4.47269 7.62910 6.25332
#
# Compressibility (1/GPa) = 0.06343816
#
# Stress axis : x y z
#
# Youngs Moduli (GPa) = 14.01334 90.68085 63.98603
#
# Poissons Ratio (x) = 0.05439 0.46418
# Poissons Ratio (y) = 0.00841 0.60371
# Poissons Ratio (z) = 0.10166 0.85558
#
# Static dielectric constant tensor:
#      x y z
#    x 1.690340 0.000000 0.000000 
#    y 0.000000 1.669860 0.000000 
#    z 0.000000 0.000000 1.655780 
# 
# From -- ./inp_files/2573.got.cif
#   From: 2010.05.17/outbox.cif.g08.bks.cpg/sg47_2_cif.got.tgz:2573.got - 2010.06.03 20:15:42.
