data_PCOD9388078
_publ_section_title
;
Structure prediction by ZEFSAII (Michael W. Deem and Ramdas Pophale) SiO2 
 PCOD9388078
Probable space group: P M M M
;
_chemical_formula_sum "Si O2"
_cell_formula_units_Z 48
_cell_length_a 19.018867
_cell_length_b 10.133999
_cell_length_c 14.620609
_cell_angle_alpha 90.000000
_cell_angle_beta 90.000000
_cell_angle_gamma 90.000000
_cell_volume 2817.934936
_symmetry_space_group_name_H-M "P M M M"
_symmetry_group_IT_number 47
_symmetry_cell_setting 'orthorhombic'
loop_
_space_group_symop_operation_xyz
x,y,z
-x,-y,z
x,-y,-z
-x,y,-z
-x,-y,-z
x,y,-z
-x,y,z
x,-y,z
loop_
_atom_site_type_symbol
_atom_site_label
_atom_site_fract_x
_atom_site_fract_y
_atom_site_fract_z
Si Si1 0.417273 0.000000 0.353949
Si Si2 0.213803 0.842864 0.784226
Si Si3 0.633331 0.500000 0.601704
Si Si4 0.919851 0.159987 0.895811
Si Si5 0.420620 0.500000 0.797260
Si Si6 0.701071 0.785961 0.396908
Si Si7 0.339442 0.269139 0.896928
Si Si8 0.580445 0.000000 0.866028
O O1 0.369894 0.873982 0.382982
O O2 0.500000 0.000000 0.383992
O O3 0.417784 0.000000 0.244210
O O4 0.135600 0.804153 0.816902
O O5 0.242261 0.818869 0.681542
O O6 0.265861 0.763712 0.850188
O O7 0.221970 0.000000 0.801246
O O8 0.600821 0.500000 0.500000
O O9 0.582087 0.500000 0.687723
O O10 0.679439 0.367217 0.609436
O O11 0.000000 0.205309 0.879914
O O12 0.921524 0.000000 0.896929
O O13 0.898625 0.199823 0.000000
O O14 0.500000 0.500000 0.830876
O O15 0.381158 0.372401 0.835315
O O16 0.726681 0.813224 0.500000
O O17 0.381197 0.131525 0.897632
O O18 0.332168 0.318849 0.000000
O O19 0.500000 0.000000 0.895116
#
# Coordination Sequence:
#
# PCOD9388078 Si02
#       8
#     4   8   4   8   4   8   8   4
#     4  11  21  37  55  76 105 137 175 229 291 337
#     4  11  19  33  54  83 111 141 177 223 266 313
#     4  10  22  40  59  76  98 132 181 231 273 322
#     4   8  15  28  49  80 117 151 178 208 254 313
#     4  12  25  41  54  71 105 140 177 227 276 329
#     4  11  21  36  56  79 104 137 180 226 282 333
#     4  12  23  36  53  75 101 139 181 218 264 317
#     4  11  21  35  53  72  99 132 174 225 266 308
#
# _framework density 17.033750000000001
#
# number of rings (size 3 to 8) (size 9 to 14) (size 15 to 20)
#    0.000    1.333    5.000    2.250    0.000    5.500 
#    0.000    1.667    0.000    0.500    0.000    4.667 
#    0.000    8.667    0.000    0.000    0.000    0.000 
#
# Total GULP energy -267763.075852 kJ/mol
# GULP energy per Si atom -5578.397414 kJ/mol
# Density = 1.699498 g / cm^3
# Si number density = 17.033750 Si / 1000 Ang^3
#
#
#
# Elastic Constant Matrix: (Units=GPa)
#
#
# Indices 1 2 3 4 5 6 
#
# 1 116.8853 29.4517 60.8771 0.0000 0.0000 0.0000
# 2 29.4517 82.5455 17.2983 0.0000 0.0000 0.0000
# 3 60.8771 17.2983 135.0308 0.0000 0.0000 0.0000
# 4 0.0000 0.0000 0.0000 27.5740 0.0000 0.0000
# 5 0.0000 0.0000 0.0000 0.0000 -16.2500 0.0000
# 6 0.0000 0.0000 0.0000 0.0000 0.0000 8.2923
#
#
#
# Elastic Compliance Matrix: (Units=1/GPa)
#
#
# Indices 1 2 3 4 5 6 
#
# 1 0.011961 -0.003224 -0.004980 0.000000 0.000000 0.000000
# 2 -0.003224 0.013318 -0.000253 0.000000 0.000000 0.000000
# 3 -0.004980 -0.000253 0.009683 0.000000 0.000000 0.000000
# 4 0.000000 0.000000 0.000000 0.036266 0.000000 0.000000
# 5 0.000000 0.000000 0.000000 0.000000 -0.061538 0.000000
# 6 0.000000 0.000000 0.000000 0.000000 0.000000 0.120594
#
#
# Mechanical properties :
#
#
# Convention : Reuss Voigt Hill
#
# Bulk Modulus (GPa) = 55.40280 61.07951 58.24115
# Shear Modulus (GPa) = 32.63431 19.04557 25.83994
#
# Velocity S-wave (km/s) = 4.38180 3.34744 3.89907
# Velocity P-wave (km/s) = 7.62864 7.13276 7.38486
#
# Compressibility (1/GPa) = 0.01804963
#
# Stress axis : x y z
#
# Youngs Moduli (GPa) = 83.60300 75.08734 103.27325
#
# Poissons Ratio (x) = 0.24210 0.51426
# Poissons Ratio (y) = 0.26955 0.02608
# Poissons Ratio (z) = 0.41631 0.01896
#
# Static dielectric constant tensor:
#      x y z
#    x 1.563330 0.000000 0.000000 
#    y 0.000000 1.571100 0.000000 
#    z 0.000000 0.000000 1.604880 
# 
# From -- ./inp_files/24545.got.cif
#   From: 2010.05.17/outbox.cif.g08.bks.cpg/sg47_13_cif.got.tgz:24545.got - 2010.06.03 20:15:42.
