data_PCOD9388114
_publ_section_title
;
Structure prediction by ZEFSAII (Michael W. Deem and Ramdas Pophale) SiO2 
 PCOD9388114
Probable space group: P M M M
;
_chemical_formula_sum "Si O2"
_cell_formula_units_Z 44
_cell_length_a 8.720593
_cell_length_b 15.238670
_cell_length_c 17.570787
_cell_angle_alpha 90.000000
_cell_angle_beta 90.000000
_cell_angle_gamma 90.000000
_cell_volume 2334.986083
_symmetry_space_group_name_H-M "P M M M"
_symmetry_group_IT_number 47
_symmetry_cell_setting 'orthorhombic'
loop_
_space_group_symop_operation_xyz
x,y,z
-x,-y,z
x,-y,-z
-x,y,-z
-x,-y,-z
x,y,-z
-x,y,z
x,-y,z
loop_
_atom_site_type_symbol
_atom_site_label
_atom_site_fract_x
_atom_site_fract_y
_atom_site_fract_z
Si Si1 0.316717 0.661459 0.313039
Si Si2 0.683110 0.707627 0.858869
Si Si3 0.669761 0.896948 0.500000
Si Si4 0.684490 0.903473 0.815051
Si Si5 0.820218 0.151030 0.342214
Si Si6 0.185197 0.500000 0.409288
Si Si7 0.816699 0.601389 0.000000
O O1 0.500000 0.673167 0.324283
O O2 0.292110 0.657777 0.221668
O O3 0.223532 0.747363 0.335879
O O4 0.255562 0.582574 0.364239
O O5 0.500000 0.710624 0.871556
O O6 0.736877 0.810133 0.851492
O O7 0.759799 0.654278 0.926336
O O8 0.500000 0.854319 0.500000
O O9 0.761507 0.875791 0.575677
O O10 0.649910 0.000000 0.500000
O O11 0.500000 0.902256 0.819664
O O12 0.732896 0.896260 0.726886
O O13 0.736276 0.000000 0.844513
O O14 0.000000 0.135785 0.333583
O O15 0.222693 0.500000 0.500000
O O16 0.000000 0.500000 0.403080
O O17 0.761076 0.500000 0.000000
O O18 0.000000 0.599572 0.000000
#
# Coordination Sequence:
#
# PCOD9388114 Si02
#       7
#     8   8   4   8   8   4   4
#     4  10  22  41  63  86 114 154 202 245 292 353
#     4   9  20  39  63  91 119 154 199 244 291 349
#     4  11  23  37  53  74 105 148 195 243 293 347
#     4   9  18  36  61  87 117 154 196 239 287 351
#     4  11  22  35  54  81 114 149 190 242 299 351
#     4  11  25  41  59  86 121 156 197 249 305 356
#     4  11  25  41  60  89 122 158 195 241 304 363
#
# _framework density 18.843795
#
# number of rings (size 3 to 8) (size 9 to 14) (size 15 to 20)
#    0.000    1.909    0.000    4.636    2.545    8.364 
#    0.000    0.455    0.000    2.727    0.000    0.000 
#    0.000    0.000    0.000    0.000    0.000    0.000 
#
# Total GULP energy -245443.847203 kJ/mol
# GULP energy per Si atom -5578.269255 kJ/mol
# Density = 1.880091 g / cm^3
# Si number density = 18.843795 Si / 1000 Ang^3
#
#
#
# Elastic Constant Matrix: (Units=GPa)
#
#
# Indices 1 2 3 4 5 6 
#
# 1 23.0431 15.1407 26.8982 0.0000 0.0000 0.0000
# 2 15.1407 122.8379 62.6311 0.0000 0.0000 0.0000
# 3 26.8982 62.6311 105.1404 0.0000 0.0000 0.0000
# 4 0.0000 0.0000 0.0000 41.9390 0.0000 0.0000
# 5 0.0000 0.0000 0.0000 0.0000 61.3320 0.0000
# 6 0.0000 0.0000 0.0000 0.0000 0.0000 47.7434
#
#
#
# Elastic Compliance Matrix: (Units=1/GPa)
#
#
# Indices 1 2 3 4 5 6 
#
# 1 0.061909 0.000639 -0.016219 0.000000 0.000000 0.000000
# 2 0.000639 0.011699 -0.007132 0.000000 0.000000 0.000000
# 3 -0.016219 -0.007132 0.017909 0.000000 0.000000 0.000000
# 4 0.000000 0.000000 0.000000 0.023844 0.000000 0.000000
# 5 0.000000 0.000000 0.000000 0.000000 0.016305 0.000000
# 6 0.000000 0.000000 0.000000 0.000000 0.000000 0.020945
#
#
# Mechanical properties :
#
#
# Convention : Reuss Voigt Hill
#
# Bulk Modulus (GPa) = 21.69561 51.15127 36.42344
# Shear Modulus (GPa) = 23.43027 39.95966 31.69497
#
# Velocity S-wave (km/s) = 3.53001 4.60996 4.10565
# Velocity P-wave (km/s) = 5.30594 7.45248 6.46887
#
# Compressibility (1/GPa) = 0.04609228
#
# Stress axis : x y z
#
# Youngs Moduli (GPa) = 16.15266 85.48101 55.83839
#
# Poissons Ratio (x) = -0.05459 0.90563
# Poissons Ratio (y) = -0.01031 0.39824
# Poissons Ratio (z) = 0.26198 0.60965
#
# Static dielectric constant tensor:
#      x y z
#    x 1.648220 0.000000 0.000000 
#    y 0.000000 1.594270 0.000000 
#    z 0.000000 0.000000 1.548230 
# 
# From -- ./inp_files/26445.got.cif
#   From: 2010.05.17/outbox.cif.g08.bks.cpg/sg47_14_cif.got.tgz:26445.got - 2010.06.03 20:15:42.
