data_PCOD9388419
_publ_section_title
;
Structure prediction by ZEFSAII (Michael W. Deem and Ramdas Pophale) SiO2 
 PCOD9388419
Probable space group: P M M M
;
_chemical_formula_sum "Si O2"
_cell_formula_units_Z 44
_cell_length_a 17.027721
_cell_length_b 15.624034
_cell_length_c 8.114722
_cell_angle_alpha 90.000000
_cell_angle_beta 90.000000
_cell_angle_gamma 90.000000
_cell_volume 2158.854370
_symmetry_space_group_name_H-M "P M M M"
_symmetry_group_IT_number 47
_symmetry_cell_setting 'orthorhombic'
loop_
_space_group_symop_operation_xyz
x,y,z
-x,-y,z
x,-y,-z
-x,y,-z
-x,-y,-z
x,y,-z
-x,y,z
x,-y,z
loop_
_atom_site_type_symbol
_atom_site_label
_atom_site_fract_x
_atom_site_fract_y
_atom_site_fract_z
Si Si1 0.406355 0.595154 0.804867
Si Si2 0.695592 0.745817 0.309378
Si Si3 0.135014 0.275731 0.192800
Si Si4 0.094381 0.091179 0.194604
Si Si5 0.590203 0.901667 0.701004
Si Si6 0.000000 0.596827 0.695054
O O1 0.500000 0.597495 0.786317
O O2 0.378934 0.500000 0.755955
O O3 0.367787 0.670937 0.705158
O O4 0.389456 0.606253 0.000000
O O5 0.716513 0.760386 0.500000
O O6 0.772716 0.712245 0.217513
O O7 0.654186 0.832302 0.242353
O O8 0.120425 0.181111 0.268422
O O9 0.077157 0.348156 0.259525
O O10 0.115631 0.270393 0.000000
O O11 0.000000 0.091116 0.201155
O O12 0.122470 0.000000 0.265910
O O13 0.116371 0.090912 0.000000
O O14 0.590498 0.899047 0.500000
O O15 0.500000 0.880913 0.751846
O O16 0.606819 0.000000 0.749842
O O17 0.000000 0.500000 0.766268
O O18 0.000000 0.589204 0.500000
#
# Coordination Sequence:
#
# PCOD9388419 Si02
#       6
#     8   8   8   8   8   4
#     4   9  19  37  59  81 107 141 181 227 281 340
#     4  11  22  34  53  84 118 151 187 233 282 327
#     4  11  22  38  60  85 113 149 189 228 275 335
#     4   8  14  28  53  82 108 136 174 219 265 315
#     4   8  15  30  52  78 112 156 200 236 274 325
#     4  11  25  45  66  85 108 140 181 235 294 345
#
# _framework density 20.381178999999999
#
# number of rings (size 3 to 8) (size 9 to 14) (size 15 to 20)
#    0.000    2.455    0.909    3.545    0.000    3.636 
#    0.000    0.909    0.000    3.818    0.000    6.364 
#    0.000    0.000    0.000    0.000    0.000    0.000 
#
# Total GULP energy -245318.330067 kJ/mol
# GULP energy per Si atom -5575.416592 kJ/mol
# Density = 2.033479 g / cm^3
# Si number density = 20.381179 Si / 1000 Ang^3
#
#
#
# Elastic Constant Matrix: (Units=GPa)
#
#
# Indices 1 2 3 4 5 6 
#
# 1 75.3894 57.8090 12.1512 0.0000 0.0000 0.0000
# 2 57.8090 144.3611 25.4673 0.0000 0.0000 0.0000
# 3 12.1512 25.4673 20.6237 0.0000 0.0000 0.0000
# 4 0.0000 0.0000 0.0000 3.1616 0.0000 0.0000
# 5 0.0000 0.0000 0.0000 0.0000 11.9443 0.0000
# 6 0.0000 0.0000 0.0000 0.0000 0.0000 -11.9155
#
#
#
# Elastic Compliance Matrix: (Units=1/GPa)
#
#
# Indices 1 2 3 4 5 6 
#
# 1 0.019229 -0.007290 -0.002328 0.000000 0.000000 0.000000
# 2 -0.007290 0.011620 -0.010054 0.000000 0.000000 0.000000
# 3 -0.002328 -0.010054 0.062275 0.000000 0.000000 0.000000
# 4 0.000000 0.000000 0.000000 0.316294 0.000000 0.000000
# 5 0.000000 0.000000 0.000000 0.000000 0.083722 0.000000
# 6 0.000000 0.000000 0.000000 0.000000 0.000000 -0.083924
#
#
# Mechanical properties :
#
#
# Convention : Reuss Voigt Hill
#
# Bulk Modulus (GPa) = 18.59399 47.91437 33.25418
# Shear Modulus (GPa) = 10.71845 10.30120 10.50982
#
# Velocity S-wave (km/s) = 2.29574 2.25061 2.27329
# Velocity P-wave (km/s) = 4.02121 5.50580 4.82099
#
# Compressibility (1/GPa) = 0.05378081
#
# Stress axis : x y z
#
# Youngs Moduli (GPa) = 52.00353 86.05964 16.05790
#
# Poissons Ratio (x) = 0.62735 0.03738
# Poissons Ratio (y) = 0.37909 0.16144
# Poissons Ratio (z) = 0.12107 0.86523
#
# Static dielectric constant tensor:
#      x y z
#    x 1.654590 0.000000 0.000000 
#    y 0.000000 1.761370 0.000000 
#    z 0.000000 0.000000 1.744520 
# 
# From -- ./inp_files/9011.got.cif
#   From: 2010.05.17/outbox.cif.g08.bks.cpg/sg47_5_cif.got.tgz:9011.got - 2010.06.03 20:15:42.
