data_PCOD9388005
_publ_section_title
;
Structure prediction by ZEFSAII (Michael W. Deem and Ramdas Pophale) SiO2 
 PCOD9388005
Probable space group: P M M M
;
_chemical_formula_sum "Si O2"
_cell_formula_units_Z 56
_cell_length_a 25.019003
_cell_length_b 14.626514
_cell_length_c 8.255750
_cell_angle_alpha 90.000000
_cell_angle_beta 90.000000
_cell_angle_gamma 90.000000
_cell_volume 3021.115740
_symmetry_space_group_name_H-M "P M M M"
_symmetry_group_IT_number 47
_symmetry_cell_setting 'orthorhombic'
loop_
_space_group_symop_operation_xyz
x,y,z
-x,-y,z
x,-y,-z
-x,y,-z
-x,-y,-z
x,y,-z
-x,y,z
x,-y,z
loop_
_atom_site_type_symbol
_atom_site_label
_atom_site_fract_x
_atom_site_fract_y
_atom_site_fract_z
Si Si1 0.940248 0.221186 0.810513
Si Si2 0.342580 0.276821 0.190915
Si Si3 0.942195 0.646742 0.500000
Si Si4 0.177113 0.602422 0.500000
Si Si5 0.719602 0.895479 0.307532
Si Si6 0.235913 0.610915 0.816267
Si Si7 0.439204 0.603008 0.694778
Si Si8 0.164290 0.896369 0.806071
O O1 0.940900 0.295252 0.667239
O O2 0.889756 0.157796 0.770091
O O3 0.000000 0.177306 0.805149
O O4 0.933866 0.253027 0.000000
O O5 0.324242 0.178242 0.255369
O O6 0.293808 0.347357 0.222238
O O7 0.396465 0.321417 0.256960
O O8 0.348005 0.268727 0.000000
O O9 0.886219 0.596608 0.500000
O O10 0.000000 0.599659 0.500000
O O11 0.200127 0.500000 0.500000
O O12 0.197458 0.642777 0.670244
O O13 0.719036 0.900384 0.500000
O O14 0.778526 0.861228 0.255028
O O15 0.712561 0.000000 0.243375
O O16 0.237580 0.500000 0.820383
O O17 0.220247 0.640683 0.000000
O O18 0.440369 0.599981 0.500000
O O19 0.500000 0.621406 0.750731
O O20 0.424115 0.500000 0.751717
O O21 0.159422 0.000000 0.742836
O O22 0.168085 0.899101 0.000000
#
# Coordination Sequence:
#
# PCOD9388005 Si02
#       8
#     8   8   4   4   8   8   8   8
#     4   9  19  34  51  73 100 131 168 213 268 326
#     4  11  22  34  55  83 111 151 189 225 276 329
#     4  10  22  37  53  74 100 130 172 225 269 324
#     4  10  22  37  56  77 100 140 176 216 280 329
#     4  10  22  37  53  77 109 144 185 233 279 327
#     4   9  20  36  52  81 118 143 176 224 276 341
#     4   9  19  36  58  86 120 155 189 226 268 321
#     4   9  18  32  50  72 100 134 170 213 266 323
#
# _framework density 18.536197999999999
#
# number of rings (size 3 to 8) (size 9 to 14) (size 15 to 20)
#    0.000    2.429    0.000    1.714    5.000    3.000 
#    0.000    2.143    0.000    1.714    0.000    7.000 
#    0.000    0.000    0.000    0.000    0.000    0.000 
#
# Total GULP energy -311993.717642 kJ/mol
# GULP energy per Si atom -5571.316386 kJ/mol
# Density = 1.849401 g / cm^3
# Si number density = 18.536198 Si / 1000 Ang^3
#
#
#
# Elastic Constant Matrix: (Units=GPa)
#
#
# Indices 1 2 3 4 5 6 
#
# 1 135.3383 66.6194 48.7342 0.0000 0.0000 0.0000
# 2 66.6194 83.6238 30.0794 0.0000 0.0000 0.0000
# 3 48.7342 30.0794 56.2909 0.0000 0.0000 0.0000
# 4 0.0000 0.0000 0.0000 3.8196 0.0000 0.0000
# 5 0.0000 0.0000 0.0000 0.0000 45.7087 0.0000
# 6 0.0000 0.0000 0.0000 0.0000 0.0000 -55.7683
#
#
#
# Elastic Compliance Matrix: (Units=1/GPa)
#
#
# Indices 1 2 3 4 5 6 
#
# 1 0.014541 -0.008735 -0.007921 0.000000 0.000000 0.000000
# 2 -0.008735 0.020051 -0.003152 0.000000 0.000000 0.000000
# 3 -0.007921 -0.003152 0.026307 0.000000 0.000000 0.000000
# 4 0.000000 0.000000 0.000000 0.261810 0.000000 0.000000
# 5 0.000000 0.000000 0.000000 0.000000 0.021878 0.000000
# 6 0.000000 0.000000 0.000000 0.000000 0.000000 -0.017931
#
#
# Mechanical properties :
#
#
# Convention : Reuss Voigt Hill
#
# Bulk Modulus (GPa) = 46.98728 62.90213 54.94471
# Shear Modulus (GPa) = 13.39168 7.40665 10.39917
#
# Velocity S-wave (km/s) = 2.69078 2.00111 2.37115
# Velocity P-wave (km/s) = 5.92095 6.27277 6.09940
#
# Compressibility (1/GPa) = 0.02128235
#
# Stress axis : x y z
#
# Youngs Moduli (GPa) = 68.77097 49.87339 38.01242
#
# Poissons Ratio (x) = 0.43564 0.30111
# Poissons Ratio (y) = 0.60070 0.11982
# Poissons Ratio (z) = 0.54477 0.15720
#
# Static dielectric constant tensor:
#      x y z
#    x 1.641010 0.000000 0.000000 
#    y 0.000000 1.718950 0.000000 
#    z 0.000000 0.000000 1.664890 
# 
# From -- ./inp_files/11304.got.cif
#   From: 2010.05.17/outbox.cif.g08.bks.cpg/sg47_6_cif.got.tgz:11304.got - 2010.06.03 20:15:42.
