data_PCOD9388465
_publ_section_title
;
Structure prediction by ZEFSAII (Michael W. Deem and Ramdas Pophale) SiO2 
 PCOD9388465
Probable space group: P M M M
;
_chemical_formula_sum "Si O2"
_cell_formula_units_Z 52
_cell_length_a 8.201323
_cell_length_b 15.117094
_cell_length_c 23.761396
_cell_angle_alpha 90.000000
_cell_angle_beta 90.000000
_cell_angle_gamma 90.000000
_cell_volume 2945.941933
_symmetry_space_group_name_H-M "P M M M"
_symmetry_group_IT_number 47
_symmetry_cell_setting 'orthorhombic'
loop_
_space_group_symop_operation_xyz
x,y,z
-x,-y,z
x,-y,-z
-x,y,-z
-x,-y,-z
x,y,-z
-x,y,z
x,-y,z
loop_
_atom_site_type_symbol
_atom_site_label
_atom_site_fract_x
_atom_site_fract_y
_atom_site_fract_z
Si Si1 0.303411 0.105661 0.855461
Si Si2 0.691804 0.349294 0.561981
Si Si3 0.185096 0.902139 0.678654
Si Si4 0.000000 0.893676 0.936429
Si Si5 0.683150 0.762619 0.245693
Si Si6 0.193117 0.403225 0.313899
Si Si7 0.691352 0.136188 0.437772
O O1 0.500000 0.116329 0.868166
O O2 0.258127 0.173751 0.805087
O O3 0.169319 0.126873 0.903617
O O4 0.283909 0.000000 0.841479
O O5 0.757756 0.378300 0.500000
O O6 0.500000 0.371263 0.562126
O O7 0.761378 0.383103 0.620986
O O8 0.706109 0.242743 0.563403
O O9 0.306530 0.829697 0.701913
O O10 0.202454 0.901804 0.611928
O O11 0.000000 0.878168 0.694738
O O12 0.221729 0.000000 0.700393
O O13 0.000000 0.000000 0.939960
O O14 0.000000 0.857529 0.000000
O O15 0.500000 0.739102 0.230832
O O16 0.761091 0.673492 0.269825
O O17 0.262683 0.500000 0.299088
O O18 0.000000 0.407555 0.312546
O O19 0.737666 0.106459 0.500000
O O20 0.500000 0.114593 0.428925
#
# Coordination Sequence:
#
# PCOD9388465 Si02
#       7
#     8   8   8   4   8   8   8
#     4   9  19  34  54  84 119 157 198 234 270 314
#     4   9  18  34  55  75  94 122 163 211 269 337
#     4  11  23  34  48  73 100 129 165 209 263 318
#     4   9  18  32  54  86 123 165 202 231 265 303
#     4  11  22  37  56  76 102 139 181 223 265 312
#     4  11  24  38  53  77 105 132 167 216 278 341
#     4   9  18  33  51  69  90 120 160 206 258 317
#
# _framework density 17.651399999999999
#
# number of rings (size 3 to 8) (size 9 to 14) (size 15 to 20)
#    0.000    2.077    1.538    2.769    2.154    4.615 
#    0.000    6.154    0.000    0.000    0.000    0.000 
#    0.000    1.231    0.000    3.385    0.000    0.154 
#
# Total GULP energy -289632.375781 kJ/mol
# GULP energy per Si atom -5569.853380 kJ/mol
# Density = 1.761122 g / cm^3
# Si number density = 17.651400 Si / 1000 Ang^3
#
#
#
# Elastic Constant Matrix: (Units=GPa)
#
#
# Indices 1 2 3 4 5 6 
#
# 1 47.6397 38.0343 43.0994 0.0000 0.0000 0.0000
# 2 38.0343 86.5028 48.2127 0.0000 0.0000 0.0000
# 3 43.0994 48.2127 112.0294 0.0000 0.0000 0.0000
# 4 0.0000 0.0000 0.0000 29.0470 0.0000 0.0000
# 5 0.0000 0.0000 0.0000 0.0000 31.5359 0.0000
# 6 0.0000 0.0000 0.0000 0.0000 0.0000 17.7769
#
#
#
# Elastic Compliance Matrix: (Units=1/GPa)
#
#
# Indices 1 2 3 4 5 6 
#
# 1 0.039551 -0.011721 -0.010172 0.000000 0.000000 0.000000
# 2 -0.011721 0.018682 -0.003531 0.000000 0.000000 0.000000
# 3 -0.010172 -0.003531 0.014359 0.000000 0.000000 0.000000
# 4 0.000000 0.000000 0.000000 0.034427 0.000000 0.000000
# 5 0.000000 0.000000 0.000000 0.000000 0.031710 0.000000
# 6 0.000000 0.000000 0.000000 0.000000 0.000000 0.056253
#
#
# Mechanical properties :
#
#
# Convention : Reuss Voigt Hill
#
# Bulk Modulus (GPa) = 45.98737 56.09608 51.04172
# Shear Modulus (GPa) = 19.75697 23.46032 21.60864
#
# Velocity S-wave (km/s) = 3.34920 3.64963 3.50264
# Velocity P-wave (km/s) = 6.40827 7.04334 6.73329
#
# Compressibility (1/GPa) = 0.02174510
#
# Stress axis : x y z
#
# Youngs Moduli (GPa) = 25.28401 53.52856 69.64360
#
# Poissons Ratio (x) = 0.62740 0.70839
# Poissons Ratio (y) = 0.29635 0.24588
# Poissons Ratio (z) = 0.25718 0.18899
#
# Static dielectric constant tensor:
#      x y z
#    x 1.627300 0.000000 0.000000 
#    y 0.000000 1.642770 0.000000 
#    z 0.000000 0.000000 1.627500 
# 
# From -- ./inp_files/29598.got.cif
#   From: 2010.05.17/outbox.cif.g08.bks.cpg/sg47_15_cif.got.tgz:29598.got - 2010.06.03 20:15:42.
