data_PCOD9388403
_publ_section_title
;
Structure prediction by ZEFSAII (Michael W. Deem and Ramdas Pophale) SiO2 
 PCOD9388403
Probable space group: P M M M
;
_chemical_formula_sum "Si O2"
_cell_formula_units_Z 52
_cell_length_a 27.644689
_cell_length_b 7.777035
_cell_length_c 14.165121
_cell_angle_alpha 90.000000
_cell_angle_beta 90.000000
_cell_angle_gamma 90.000000
_cell_volume 3045.411972
_symmetry_space_group_name_H-M "P M M M"
_symmetry_group_IT_number 47
_symmetry_cell_setting 'orthorhombic'
loop_
_space_group_symop_operation_xyz
x,y,z
-x,-y,z
x,-y,-z
-x,y,-z
-x,-y,-z
x,y,-z
-x,y,z
x,-y,z
loop_
_atom_site_type_symbol
_atom_site_label
_atom_site_fract_x
_atom_site_fract_y
_atom_site_fract_z
Si Si1 0.698293 0.799552 0.104336
Si Si2 0.645220 0.792347 0.394356
Si Si3 0.947966 0.793406 0.613536
Si Si4 0.743991 0.789166 0.705255
Si Si5 0.500000 0.794552 0.107969
Si Si6 0.842659 0.789600 0.389908
Si Si7 0.601335 0.698981 0.800288
O O1 0.730151 0.726756 0.190021
O O2 0.642946 0.794341 0.140523
O O3 0.711698 0.000000 0.097557
O O4 0.702715 0.722385 0.000000
O O5 0.633935 0.730860 0.500000
O O6 0.699320 0.738721 0.362420
O O7 0.609625 0.738197 0.310195
O O8 0.644954 0.000000 0.395848
O O9 0.947476 0.768424 0.500000
O O10 0.895417 0.730109 0.646539
O O11 0.000000 0.725374 0.648643
O O12 0.948545 0.000000 0.628557
O O13 0.795876 0.732236 0.667683
O O14 0.744071 0.000000 0.705835
O O15 0.451730 0.739965 0.162398
O O16 0.500000 0.000000 0.103600
O O17 0.500000 0.727803 0.000000
O O18 0.837491 0.740830 0.500000
O O19 0.843207 0.000000 0.388172
O O20 0.611296 0.500000 0.815686
#
# Coordination Sequence:
#
# PCOD9388403 Si02
#       7
#     8   8   8   8   4   8   8
#     4   9  17  30  46  62  83 111 140 170 207 252
#     4   9  17  31  50  68  89 119 150 176 204 243
#     4   7   9  12  17  28  52  88 125 158 196 242
#     4   8  13  21  35  56  77  98 132 175 211 242
#     4  11  23  39  58  75  92 115 143 176 212 249
#     4   8  11  14  23  41  65  92 124 165 207 242
#     4  11  22  34  50  73  97 116 138 171 208 248
#
# _framework density 17.074866
#
# number of rings (size 3 to 8) (size 9 to 14) (size 15 to 20)
#    0.000    3.154    0.000    4.846    0.000    4.923 
#    0.000    0.385    0.000    2.308    0.000    0.000 
#    0.000    0.615    0.000    8.615    0.000   12.615 
#
# Total GULP energy -289553.578532 kJ/mol
# GULP energy per Si atom -5568.338049 kJ/mol
# Density = 1.703600 g / cm^3
# Si number density = 17.074866 Si / 1000 Ang^3
#
#
#
# Elastic Constant Matrix: (Units=GPa)
#
#
# Indices 1 2 3 4 5 6 
#
# 1 157.6307 -3.1173 73.1219 0.0000 0.0000 0.0000
# 2 -3.1173 26.4925 2.8356 0.0000 0.0000 0.0000
# 3 73.1219 2.8356 114.8826 0.0000 0.0000 0.0000
# 4 0.0000 0.0000 0.0000 -10.9808 0.0000 0.0000
# 5 0.0000 0.0000 0.0000 0.0000 16.3042 0.0000
# 6 0.0000 0.0000 0.0000 0.0000 0.0000 -21.9500
#
#
#
# Elastic Compliance Matrix: (Units=1/GPa)
#
#
# Indices 1 2 3 4 5 6 
#
# 1 0.009077 0.001691 -0.005819 0.000000 0.000000 0.000000
# 2 0.001691 0.038161 -0.002018 0.000000 0.000000 0.000000
# 3 -0.005819 -0.002018 0.012458 0.000000 0.000000 0.000000
# 4 0.000000 0.000000 0.000000 -0.091068 0.000000 0.000000
# 5 0.000000 0.000000 0.000000 0.000000 0.061334 0.000000
# 6 0.000000 0.000000 0.000000 0.000000 0.000000 -0.045558
#
#
# Mechanical properties :
#
#
# Convention : Reuss Voigt Hill
#
# Bulk Modulus (GPa) = 21.09541 49.40960 35.25250
# Shear Modulus (GPa) = 400.06059 11.75237 205.90648
#
# Velocity S-wave (km/s) = 15.32340 2.62636 10.99328
# Velocity P-wave (km/s) = 18.04042 6.18036 13.48432
#
# Compressibility (1/GPa) = 0.04740368
#
# Stress axis : x y z
#
# Youngs Moduli (GPa) = 110.17223 26.20445 80.26910
#
# Poissons Ratio (x) = -0.04431 0.46708
# Poissons Ratio (y) = -0.18629 0.16200
# Poissons Ratio (z) = 0.64109 0.05288
#
# Static dielectric constant tensor:
#      x y z
#    x 1.698890 0.000000 0.000000 
#    y 0.000000 1.622210 0.000000 
#    z 0.000000 0.000000 1.579440 
# 
# From -- ./inp_files/25711.got.cif
#   From: 2010.05.17/outbox.cif.g08.bks.cpg/sg47_13_cif.got.tgz:25711.got - 2010.06.03 20:15:42.
