data_PCOD9388582
_publ_section_title
;
Structure prediction by ZEFSAII (Michael W. Deem and Ramdas Pophale) SiO2 
 PCOD9388582
Probable space group: P M M M
;
_chemical_formula_sum "Si O2"
_cell_formula_units_Z 17
_cell_length_a 20.243640
_cell_length_b 7.796548
_cell_length_c 5.268690
_cell_angle_alpha 90.000000
_cell_angle_beta 90.000000
_cell_angle_gamma 90.000000
_cell_volume 831.560035
_symmetry_space_group_name_H-M "P M M M"
_symmetry_group_IT_number 47
_symmetry_cell_setting 'orthorhombic'
loop_
_space_group_symop_operation_xyz
x,y,z
-x,-y,z
x,-y,-z
-x,y,-z
-x,-y,-z
x,y,-z
-x,y,z
x,-y,z
loop_
_atom_site_type_symbol
_atom_site_label
_atom_site_fract_x
_atom_site_fract_y
_atom_site_fract_z
Si Si1 0.425616 0.796620 0.500000
Si Si2 0.806323 0.709011 0.000000
Si Si3 0.000000 0.500000 0.500000
Si Si4 0.655599 0.702605 0.000000
Si Si5 0.888016 0.802545 0.500000
O O1 0.500000 0.722194 0.500000
O O2 0.385163 0.749544 0.750345
O O3 0.431760 0.000000 0.500000
O O4 0.843685 0.774149 0.750207
O O5 0.808565 0.500000 0.000000
O O6 0.730407 0.771021 0.000000
O O7 0.942865 0.653086 0.500000
O O8 0.663017 0.500000 0.000000
O O9 0.913082 0.000000 0.500000
#
# Coordination Sequence:
#
# PCOD9388582 Si02
#       5
#     4   4   1   4   4
#     4  11  24  41  61  91 132 175 219 275 335 390
#     4  11  23  46  67  97 138 175 216 283 338 384
#     4  12  26  50  72 100 148 174 212 286 324 396
#     4  11  24  40  67  95 128 173 219 272 334 388
#     4  12  26  44  73 102 133 181 227 267 334 401
#
# _framework density 20.443504000000001
#
# number of rings (size 3 to 8) (size 9 to 14) (size 15 to 20)
#    0.000    0.706    2.353    4.588    0.000   16.000 
#    0.000    2.353    0.000    0.000    0.000    0.000 
#    0.000    0.000    0.000    0.000    0.000    0.000 
#
# Total GULP energy -94797.197801 kJ/mol
# GULP energy per Si atom -5576.305753 kJ/mol
# Density = 2.039697 g / cm^3
# Si number density = 20.443504 Si / 1000 Ang^3
#
#
#
# Elastic Constant Matrix: (Units=GPa)
#
#
# Indices 1 2 3 4 5 6 
#
# 1 232.8697 64.9189 118.7968 0.0000 0.0000 0.0000
# 2 64.9189 147.3969 37.3610 0.0000 0.0000 0.0000
# 3 118.7968 37.3610 210.4713 0.0000 0.0000 0.0000
# 4 0.0000 0.0000 0.0000 70.1160 0.0000 0.0000
# 5 0.0000 0.0000 0.0000 0.0000 -94.1382 0.0000
# 6 0.0000 0.0000 0.0000 0.0000 0.0000 63.1581
#
#
#
# Elastic Compliance Matrix: (Units=1/GPa)
#
#
# Indices 1 2 3 4 5 6 
#
# 1 0.006572 -0.002046 -0.003346 0.000000 0.000000 0.000000
# 2 -0.002046 0.007741 -0.000219 0.000000 0.000000 0.000000
# 3 -0.003346 -0.000219 0.006679 0.000000 0.000000 0.000000
# 4 0.000000 0.000000 0.000000 0.014262 0.000000 0.000000
# 5 0.000000 0.000000 0.000000 0.000000 -0.010623 0.000000
# 6 0.000000 0.000000 0.000000 0.000000 0.000000 0.015833
#
#
# Mechanical properties :
#
#
# Convention : Reuss Voigt Hill
#
# Bulk Modulus (GPa) = 102.36786 114.76572 108.56679
# Shear Modulus (GPa) = 91.00270 32.47125 61.73697
#
# Velocity S-wave (km/s) = 6.67914 3.98972 5.50131
# Velocity P-wave (km/s) = 10.47203 8.80248 9.67334
#
# Compressibility (1/GPa) = 0.00976869
#
# Stress axis : x y z
#
# Youngs Moduli (GPa) = 152.16886 129.17882 149.72873
#
# Poissons Ratio (x) = 0.26433 0.50099
# Poissons Ratio (y) = 0.31138 0.03282
# Poissons Ratio (z) = 0.50916 0.02831
#
# Static dielectric constant tensor:
#      x y z
#    x 1.741370 0.000000 0.000000 
#    y 0.000000 1.736110 0.000000 
#    z 0.000000 0.000000 1.664880 
# 
# From -- ./inp_files/70.got.cif
#   From: 2010.05.17/outbox.cif.g08.bks.cpg/sg47_1_cif.got.tgz:70.got - 2010.06.03 20:15:42.
