data_PCOD9388798
_publ_section_title
;
Structure prediction by ZEFSAII (Michael W. Deem and Ramdas Pophale) SiO2 
 PCOD9388798
Probable space group: P M M M
;
_chemical_formula_sum "Si O2"
_cell_formula_units_Z 44
_cell_length_a 7.422265
_cell_length_b 9.518791
_cell_length_c 30.064414
_cell_angle_alpha 90.000000
_cell_angle_beta 90.000000
_cell_angle_gamma 90.000000
_cell_volume 2124.080591
_symmetry_space_group_name_H-M "P M M M"
_symmetry_group_IT_number 47
_symmetry_cell_setting 'orthorhombic'
loop_
_space_group_symop_operation_xyz
x,y,z
-x,-y,z
x,-y,-z
-x,y,-z
-x,-y,-z
x,y,-z
-x,y,z
x,-y,z
loop_
_atom_site_type_symbol
_atom_site_label
_atom_site_fract_x
_atom_site_fract_y
_atom_site_fract_z
Si Si1 0.716161 0.660258 0.451368
Si Si2 0.791042 0.171256 0.730629
Si Si3 0.785270 0.841763 0.364737
Si Si4 0.220010 0.661815 0.086363
Si Si5 0.779450 0.837161 0.171945
Si Si6 0.779990 0.837811 0.000000
O O1 0.778699 0.713674 0.500000
O O2 0.500000 0.655419 0.453271
O O3 0.780980 0.500000 0.446378
O O4 0.759414 0.750625 0.408412
O O5 0.713816 0.215532 0.682731
O O6 0.715093 0.209126 0.778939
O O7 0.000000 0.216708 0.731787
O O8 0.788094 0.000000 0.729515
O O9 0.000000 0.852180 0.358299
O O10 0.715548 0.000000 0.371820
O O11 0.277639 0.500000 0.083456
O O12 0.277052 0.737674 0.131830
O O13 0.000000 0.661425 0.086282
O O14 0.276491 0.753577 0.043949
O O15 0.000000 0.836769 0.173039
O O16 0.727307 0.000000 0.164413
O O17 0.000000 0.839297 0.000000
O O18 0.721870 0.000000 0.000000
#
# Coordination Sequence:
#
# PCOD9388798 Si02
#       6
#     8   8   8   8   8   4
#     4   9  19  35  50  63  84 116 150 180 211 251
#     4   7  11  21  36  53  74  98 121 149 189 236
#     4   9  17  29  46  69  93 113 137 174 218 259
#     4   9  15  20  25  35  52  72  97 137 187 227
#     4   8  12  19  31  43  56  80 112 139 169 219
#     4   9  15  21  27  33  43  65 101 141 180 227
#
# _framework density 20.714842999999998
#
# number of rings (size 3 to 8) (size 9 to 14) (size 15 to 20)
#    0.000    3.545    0.000    3.545    0.000    4.727 
#    0.000    3.636    0.000    3.273    0.000    0.000 
#    0.000    0.000    0.000    0.000    0.000    0.000 
#
# Total GULP energy -245174.133516 kJ/mol
# GULP energy per Si atom -5572.139398 kJ/mol
# Density = 2.066770 g / cm^3
# Si number density = 20.714843 Si / 1000 Ang^3
#
#
#
# Elastic Constant Matrix: (Units=GPa)
#
#
# Indices 1 2 3 4 5 6 
#
# 1 64.2556 3.8142 8.5786 0.0000 0.0000 0.0000
# 2 3.8142 115.4824 123.2259 0.0000 0.0000 0.0000
# 3 8.5786 123.2259 275.3489 0.0000 0.0000 0.0000
# 4 0.0000 0.0000 0.0000 -30.6314 0.0000 0.0000
# 5 0.0000 0.0000 0.0000 0.0000 109.1340 0.0000
# 6 0.0000 0.0000 0.0000 0.0000 0.0000 2.8643
#
#
#
# Elastic Compliance Matrix: (Units=1/GPa)
#
#
# Indices 1 2 3 4 5 6 
#
# 1 0.015628 0.000006 -0.000490 0.000000 0.000000 0.000000
# 2 0.000006 0.016574 -0.007417 0.000000 0.000000 0.000000
# 3 -0.000490 -0.007417 0.006967 0.000000 0.000000 0.000000
# 4 0.000000 0.000000 0.000000 -0.032646 0.000000 0.000000
# 5 0.000000 0.000000 0.000000 0.000000 0.009163 0.000000
# 6 0.000000 0.000000 0.000000 0.000000 0.000000 0.349123
#
#
# Mechanical properties :
#
#
# Convention : Reuss Voigt Hill
#
# Bulk Modulus (GPa) = 42.79585 80.70271 61.74928
# Shear Modulus (GPa) = 12.87335 37.57125 25.22230
#
# Velocity S-wave (km/s) = 2.49561 4.26342 3.49319
# Velocity P-wave (km/s) = 5.38595 7.95482 6.79292
#
# Compressibility (1/GPa) = 0.02336675
#
# Stress axis : x y z
#
# Youngs Moduli (GPa) = 63.98829 60.33555 143.54322
#
# Poissons Ratio (x) = -0.00039 0.07031
# Poissons Ratio (y) = -0.00041 1.06473
# Poissons Ratio (z) = 0.03134 0.44754
#
# Static dielectric constant tensor:
#      x y z
#    x 1.816660 0.000000 0.000000 
#    y 0.000000 1.689530 0.000000 
#    z 0.000000 0.000000 1.772770 
# 
# From -- ./inp_files/2301.got.cif
#   From: 2010.05.17/outbox.cif.g08.bks.cpg/sg47_2_cif.got.tgz:2301.got - 2010.06.03 20:15:42.
