data_PCOD9388066
_publ_section_title
;
Structure prediction by ZEFSAII (Michael W. Deem and Ramdas Pophale) SiO2 
 PCOD9388066
Probable space group: P M M M
;
_chemical_formula_sum "Si O2"
_cell_formula_units_Z 64
_cell_length_a 16.441607
_cell_length_b 8.395998
_cell_length_c 21.772069
_cell_angle_alpha 90.000000
_cell_angle_beta 90.000000
_cell_angle_gamma 90.000000
_cell_volume 3005.496950
_symmetry_space_group_name_H-M "P M M M"
_symmetry_group_IT_number 47
_symmetry_cell_setting 'orthorhombic'
loop_
_space_group_symop_operation_xyz
x,y,z
-x,-y,z
x,-y,-z
-x,y,-z
-x,-y,-z
x,y,-z
-x,y,z
x,-y,z
loop_
_atom_site_type_symbol
_atom_site_label
_atom_site_fract_x
_atom_site_fract_y
_atom_site_fract_z
Si Si1 0.369880 0.817333 0.199557
Si Si2 0.596802 0.816819 0.065802
Si Si3 0.272341 0.691634 0.431990
Si Si4 0.909521 0.186288 0.409827
Si Si5 0.906333 0.809040 0.928136
Si Si6 0.092033 0.178378 0.736910
Si Si7 0.408581 0.308112 0.665434
Si Si8 0.793694 0.676408 0.823852
O O1 0.390995 0.742144 0.132874
O O2 0.397357 0.739671 0.263197
O O3 0.273369 0.802952 0.195692
O O4 0.398824 0.000000 0.199735
O O5 0.500000 0.826737 0.060891
O O6 0.629108 0.000000 0.068771
O O7 0.626776 0.747863 0.000000
O O8 0.301820 0.741672 0.500000
O O9 0.274444 0.500000 0.429151
O O10 0.176994 0.739310 0.428060
O O11 0.333695 0.750199 0.377975
O O12 0.908705 0.193471 0.335982
O O13 0.000000 0.249310 0.428913
O O14 0.907763 0.000000 0.427446
O O15 0.841566 0.724579 0.884933
O O16 0.000000 0.762816 0.914206
O O17 0.900549 0.000000 0.919382
O O18 0.891918 0.776106 0.000000
O O19 0.142488 0.313757 0.768897
O O20 0.000000 0.186144 0.759500
O O21 0.122140 0.000000 0.752271
O O22 0.500000 0.255924 0.645860
O O23 0.407093 0.500000 0.662486
O O24 0.758316 0.500000 0.828668
#
# Coordination Sequence:
#
# PCOD9388066 Si02
#       8
#     8   8   8   8   8   8   8   8
#     4  11  22  36  57  84 113 147 189 234 280 339
#     4   8  15  30  53  80 106 131 165 211 259 309
#     4  10  22  39  59  86 119 156 200 245 290 350
#     4   9  19  36  58  85 117 154 194 236 287 346
#     4   9  19  37  58  76  98 137 191 245 295 352
#     4   9  18  34  55  77 103 138 182 229 275 330
#     4  10  22  41  64  89 119 154 192 243 308 369
#     4  12  24  34  48  75 110 144 180 228 288 347
#
# _framework density 21.294315000000001
#
# number of rings (size 3 to 8) (size 9 to 14) (size 15 to 20)
#    0.000    2.250    0.000    4.500    0.000    7.500 
#    0.000    5.625    0.000    1.125    0.000    6.125 
#    0.000    0.000    0.000    0.000    0.000    0.000 
#
# Total GULP energy -356621.184894 kJ/mol
# GULP energy per Si atom -5572.206014 kJ/mol
# Density = 2.124585 g / cm^3
# Si number density = 21.294315 Si / 1000 Ang^3
#
#
#
# Elastic Constant Matrix: (Units=GPa)
#
#
# Indices 1 2 3 4 5 6 
#
# 1 106.9067 18.5666 58.2932 0.0000 0.0000 0.0000
# 2 18.5666 24.4750 18.3887 0.0000 0.0000 0.0000
# 3 58.2932 18.3887 137.2344 0.0000 0.0000 0.0000
# 4 0.0000 0.0000 0.0000 15.4075 0.0000 0.0000
# 5 0.0000 0.0000 0.0000 0.0000 -2.1114 0.0000
# 6 0.0000 0.0000 0.0000 0.0000 0.0000 31.0295
#
#
#
# Elastic Compliance Matrix: (Units=1/GPa)
#
#
# Indices 1 2 3 4 5 6 
#
# 1 0.013006 -0.006355 -0.004673 0.000000 0.000000 0.000000
# 2 -0.006355 0.048537 -0.003804 0.000000 0.000000 0.000000
# 3 -0.004673 -0.003804 0.009781 0.000000 0.000000 0.000000
# 4 0.000000 0.000000 0.000000 0.064903 0.000000 0.000000
# 5 0.000000 0.000000 0.000000 0.000000 -0.473609 0.000000
# 6 0.000000 0.000000 0.000000 0.000000 0.000000 0.032227
#
#
# Mechanical properties :
#
#
# Convention : Reuss Voigt Hill
#
# Bulk Modulus (GPa) = 24.00401 51.01259 37.50830
# Shear Modulus (GPa) = -19.11293 20.42295 0.65501
#
# Velocity S-wave (km/s) = -2.99918 3.10026 0.55522
# Velocity P-wave (km/s) = 0.83456 6.06823 4.25012
#
# Compressibility (1/GPa) = 0.04165971
#
# Stress axis : x y z
#
# Youngs Moduli (GPa) = 76.88977 20.60278 102.23433
#
# Poissons Ratio (x) = 0.13093 0.47773
# Poissons Ratio (y) = 0.48864 0.38893
# Poissons Ratio (z) = 0.35930 0.07838
#
# Static dielectric constant tensor:
#      x y z
#    x 1.775490 0.000000 0.000000 
#    y 0.000000 1.776810 0.000000 
#    z 0.000000 0.000000 1.812510 
# 
# From -- ./inp_files/32805.got.cif
#   From: 2010.05.17/outbox.cif.g08.bks.cpg/sg47_17_cif.got.tgz:32805.got - 2010.06.03 20:15:42.
