data_PCOD9388156
_publ_section_title
;
Structure prediction by ZEFSAII (Michael W. Deem and Ramdas Pophale) SiO2 
 PCOD9388156
Probable space group: P M M M
;
_chemical_formula_sum "Si O2"
_cell_formula_units_Z 49
_cell_length_a 8.282366
_cell_length_b 15.705928
_cell_length_c 18.583502
_cell_angle_alpha 90.000000
_cell_angle_beta 90.000000
_cell_angle_gamma 90.000000
_cell_volume 2417.383643
_symmetry_space_group_name_H-M "P M M M"
_symmetry_group_IT_number 47
_symmetry_cell_setting 'orthorhombic'
loop_
_space_group_symop_operation_xyz
x,y,z
-x,-y,z
x,-y,-z
-x,y,-z
-x,-y,-z
x,y,-z
-x,y,z
x,-y,z
loop_
_atom_site_type_symbol
_atom_site_label
_atom_site_fract_x
_atom_site_fract_y
_atom_site_fract_z
Si Si1 0.305219 0.905004 0.416044
Si Si2 0.500000 0.500000 0.500000
Si Si3 0.818058 0.102278 0.000000
Si Si4 0.194143 0.402262 0.919145
Si Si5 0.310563 0.724703 0.203784
Si Si6 0.307848 0.096363 0.843426
Si Si7 0.814031 0.733627 0.647814
Si Si8 0.191407 0.370119 0.500000
O O1 0.258044 0.893560 0.500000
O O2 0.500000 0.901625 0.413390
O O3 0.237304 0.830066 0.368358
O O4 0.255378 0.000000 0.393537
O O5 0.351332 0.428372 0.500000
O O6 0.725474 0.121017 0.073398
O O7 0.000000 0.138885 0.000000
O O8 0.832343 0.000000 0.000000
O O9 0.249195 0.500000 0.905644
O O10 0.242224 0.337686 0.856648
O O11 0.000000 0.404127 0.921069
O O12 0.249896 0.377235 0.000000
O O13 0.500000 0.730388 0.190019
O O14 0.242779 0.821652 0.198867
O O15 0.282300 0.695110 0.285288
O O16 0.500000 0.090636 0.831069
O O17 0.242405 0.000000 0.830337
O O18 0.794397 0.684759 0.572726
O O19 0.000000 0.729807 0.668635
O O20 0.000000 0.402222 0.500000
#
# Coordination Sequence:
#
# PCOD9388156 Si02
#       8
#     8   1   4   8   8   8   8   4
#     4   9  18  33  58  91 125 165 215 261 304 368
#     4  12  26  44  84 102 122 176 208 272 328 406
#     4   9  17  29  49  77 106 143 196 251 297 352
#     4   9  20  42  68  91 119 158 200 246 314 387
#     4  11  24  38  59  92 124 160 210 259 312 377
#     4   9  19  36  54  76 114 162 204 248 301 360
#     4  11  23  41  63  89 130 170 208 264 320 377
#     4  10  25  47  70 103 134 168 218 268 325 397
#
# _framework density 20.269849000000001
#
# number of rings (size 3 to 8) (size 9 to 14) (size 15 to 20)
#    0.000    2.204    0.816    2.327    3.429    3.918 
#    1.469    3.265    0.000    0.000    0.000    0.000 
#    0.000    0.000    0.000    0.000    0.000    0.000 
#
# Total GULP energy -272947.284725 kJ/mol
# GULP energy per Si atom -5570.352749 kJ/mol
# Density = 2.022371 g / cm^3
# Si number density = 20.269849 Si / 1000 Ang^3
#
#
#
# Elastic Constant Matrix: (Units=GPa)
#
#
# Indices 1 2 3 4 5 6 
#
# 1 41.0904 39.0420 13.4832 0.0000 0.0000 0.0000
# 2 39.0420 104.8764 65.0741 0.0000 0.0000 0.0000
# 3 13.4832 65.0741 107.0223 0.0000 0.0000 0.0000
# 4 0.0000 0.0000 0.0000 69.6986 0.0000 0.0000
# 5 0.0000 0.0000 0.0000 0.0000 20.4364 0.0000
# 6 0.0000 0.0000 0.0000 0.0000 0.0000 36.6466
#
#
#
# Elastic Compliance Matrix: (Units=1/GPa)
#
#
# Indices 1 2 3 4 5 6 
#
# 1 0.040282 -0.019024 0.006493 0.000000 0.000000 0.000000
# 2 -0.019024 0.024297 -0.012377 0.000000 0.000000 0.000000
# 3 0.006493 -0.012377 0.016051 0.000000 0.000000 0.000000
# 4 0.000000 0.000000 0.000000 0.014347 0.000000 0.000000
# 5 0.000000 0.000000 0.000000 0.000000 0.048932 0.000000
# 6 0.000000 0.000000 0.000000 0.000000 0.000000 0.027288
#
#
# Mechanical properties :
#
#
# Convention : Reuss Voigt Hill
#
# Bulk Modulus (GPa) = 32.45330 54.24307 43.34818
# Shear Modulus (GPa) = 21.61837 34.38231 28.00034
#
# Velocity S-wave (km/s) = 3.26932 4.12300 3.72072
# Velocity P-wave (km/s) = 5.50424 7.03449 6.31588
#
# Compressibility (1/GPa) = 0.03081351
#
# Stress axis : x y z
#
# Youngs Moduli (GPa) = 24.82504 41.15812 62.30002
#
# Poissons Ratio (x) = 0.78300 -0.40449
# Poissons Ratio (y) = 0.47228 0.77106
# Poissons Ratio (z) = -0.16118 0.50940
#
# Static dielectric constant tensor:
#      x y z
#    x 1.726480 0.000000 0.000000 
#    y 0.000000 1.744120 0.000000 
#    z 0.000000 0.000000 1.716800 
# 
# From -- ./inp_files/26585.got.cif
#   From: 2010.05.17/outbox.cif.g08.bks.cpg/sg47_14_cif.got.tgz:26585.got - 2010.06.03 20:15:42.
