data_PCOD9388507
_publ_section_title
;
Structure prediction by ZEFSAII (Michael W. Deem and Ramdas Pophale) SiO2 
 PCOD9388507
Probable space group: P M M M
;
_chemical_formula_sum "Si O2"
_cell_formula_units_Z 44
_cell_length_a 7.359120
_cell_length_b 15.886981
_cell_length_c 18.516516
_cell_angle_alpha 90.000000
_cell_angle_beta 90.000000
_cell_angle_gamma 90.000000
_cell_volume 2164.843648
_symmetry_space_group_name_H-M "P M M M"
_symmetry_group_IT_number 47
_symmetry_cell_setting 'orthorhombic'
loop_
_space_group_symop_operation_xyz
x,y,z
-x,-y,z
x,-y,-z
-x,y,-z
-x,-y,-z
x,y,-z
-x,y,z
x,-y,z
loop_
_atom_site_type_symbol
_atom_site_label
_atom_site_fract_x
_atom_site_fract_y
_atom_site_fract_z
Si Si1 0.215714 0.000000 0.080313
Si Si2 0.278111 0.232272 0.698394
Si Si3 0.278903 0.592770 0.239136
Si Si4 0.278736 0.650540 0.079357
Si Si5 0.712841 0.179346 0.854485
Si Si6 0.721315 0.094755 0.416416
O O1 0.267557 0.914546 0.119126
O O2 0.000000 0.000000 0.075939
O O3 0.292916 0.000000 0.000000
O O4 0.500000 0.232270 0.694772
O O5 0.222634 0.329772 0.709522
O O6 0.216300 0.190971 0.773850
O O7 0.217156 0.172085 0.633472
O O8 0.500000 0.594416 0.238335
O O9 0.220734 0.500000 0.262302
O O10 0.223302 0.607762 0.155137
O O11 0.500000 0.644356 0.077602
O O12 0.221244 0.748142 0.091302
O O13 0.217179 0.620620 0.000000
O O14 0.500000 0.198078 0.848446
O O15 0.775309 0.104939 0.500000
O O16 0.500000 0.094899 0.414872
O O17 0.776362 0.000000 0.392390
#
# Coordination Sequence:
#
# PCOD9388507 Si02
#       6
#     4   8   8   8   8   8
#     4  11  23  33  39  53  80 109 136 168 205 243
#     4   8  14  23  36  55  76  98 127 163 200 239
#     4   8  13  20  29  44  69 100 128 155 196 243
#     4   8  13  21  33  50  70  90 119 160 200 238
#     4   9  17  28  43  59  74 100 137 173 204 236
#     4   8  13  20  31  49  74 100 123 157 206 245
#
# _framework density 20.324795000000002
#
# number of rings (size 3 to 8) (size 9 to 14) (size 15 to 20)
#    0.000    3.545    0.000    3.545    1.273    1.818 
#    0.000    1.818    0.000    0.545    0.000    3.818 
#    0.000   13.091    0.000   40.000    0.000   33.455 
#
# Total GULP energy -245117.564683 kJ/mol
# GULP energy per Si atom -5570.853743 kJ/mol
# Density = 2.027853 g / cm^3
# Si number density = 20.324795 Si / 1000 Ang^3
#
#
#
# Elastic Constant Matrix: (Units=GPa)
#
#
# Indices 1 2 3 4 5 6 
#
# 1 68.1738 -5.2674 5.0718 0.0000 0.0000 0.0000
# 2 -5.2674 184.3276 86.8351 0.0000 0.0000 0.0000
# 3 5.0718 86.8351 104.6700 0.0000 0.0000 0.0000
# 4 0.0000 0.0000 0.0000 15.2893 0.0000 0.0000
# 5 0.0000 0.0000 0.0000 0.0000 0.6464 0.0000
# 6 0.0000 0.0000 0.0000 0.0000 0.0000 61.5280
#
#
#
# Elastic Compliance Matrix: (Units=1/GPa)
#
#
# Indices 1 2 3 4 5 6 
#
# 1 0.014897 0.001257 -0.001765 0.000000 0.000000 0.000000
# 2 0.001257 0.009012 -0.007537 0.000000 0.000000 0.000000
# 3 -0.001765 -0.007537 0.015892 0.000000 0.000000 0.000000
# 4 0.000000 0.000000 0.000000 0.065405 0.000000 0.000000
# 5 0.000000 0.000000 0.000000 0.000000 1.546950 0.000000
# 6 0.000000 0.000000 0.000000 0.000000 0.000000 0.016253
#
#
# Mechanical properties :
#
#
# Convention : Reuss Voigt Hill
#
# Bulk Modulus (GPa) = 42.17416 58.93893 50.55655
# Shear Modulus (GPa) = 2.95438 33.52822 18.24130
#
# Velocity S-wave (km/s) = 1.20695 4.06596 2.99906
# Velocity P-wave (km/s) = 4.76838 7.14872 6.07625
#
# Compressibility (1/GPa) = 0.02371120
#
# Stress axis : x y z
#
# Youngs Moduli (GPa) = 67.12858 110.96689 62.92408
#
# Poissons Ratio (x) = -0.13949 0.11104
# Poissons Ratio (y) = -0.08438 0.47426
# Poissons Ratio (z) = 0.11846 0.83637
#
# Static dielectric constant tensor:
#      x y z
#    x 1.776000 0.000000 0.000000 
#    y 0.000000 1.693770 0.000000 
#    z 0.000000 0.000000 1.697950 
# 
# From -- ./inp_files/26374.got.cif
#   From: 2010.05.17/outbox.cif.g08.bks.cpg/sg47_14_cif.got.tgz:26374.got - 2010.06.03 20:15:42.
