data_PCOD9388192
_publ_section_title
;
Structure prediction by ZEFSAII (Michael W. Deem and Ramdas Pophale) SiO2 
 PCOD9388192
Probable space group: P M M M
;
_chemical_formula_sum "Si O2"
_cell_formula_units_Z 52
_cell_length_a 23.858582
_cell_length_b 14.629406
_cell_length_c 8.624102
_cell_angle_alpha 90.000000
_cell_angle_beta 90.000000
_cell_angle_gamma 90.000000
_cell_volume 3010.129678
_symmetry_space_group_name_H-M "P M M M"
_symmetry_group_IT_number 47
_symmetry_cell_setting 'orthorhombic'
loop_
_space_group_symop_operation_xyz
x,y,z
-x,-y,z
x,-y,-z
-x,y,-z
-x,-y,-z
x,y,-z
-x,y,z
x,-y,z
loop_
_atom_site_type_symbol
_atom_site_label
_atom_site_fract_x
_atom_site_fract_y
_atom_site_fract_z
Si Si1 0.850193 0.103611 0.313118
Si Si2 0.887811 0.289964 0.185710
Si Si3 0.563083 0.394528 0.811153
Si Si4 0.671758 0.286053 0.185794
Si Si5 0.221079 0.393396 0.685856
Si Si6 0.718833 0.103480 0.313235
Si Si7 0.000000 0.394591 0.189130
O O1 0.853511 0.109152 0.500000
O O2 0.885285 0.185036 0.239675
O O3 0.784468 0.117194 0.271128
O O4 0.865909 0.000000 0.267570
O O5 0.833436 0.341071 0.252364
O O6 0.944018 0.341672 0.238432
O O7 0.885389 0.293534 0.000000
O O8 0.500000 0.369457 0.760846
O O9 0.573805 0.500000 0.765385
O O10 0.613023 0.329096 0.758905
O O11 0.562984 0.393210 0.000000
O O12 0.723211 0.345966 0.249478
O O13 0.682074 0.182800 0.240176
O O14 0.672975 0.289680 0.000000
O O15 0.221791 0.386951 0.500000
O O16 0.219107 0.500000 0.730882
O O17 0.715914 0.109504 0.500000
O O18 0.703309 0.000000 0.267931
O O19 0.000000 0.500000 0.240640
O O20 0.000000 0.395336 0.000000
#
# Coordination Sequence:
#
# PCOD9388192 Si02
#       7
#     8   8   8   8   8   8   4
#     4   9  18  34  55  77 105 140 172 206 255 313
#     4  11  21  35  57  81 103 133 173 218 261 304
#     4   8  15  29  48  71 103 141 175 208 251 304
#     4  11  20  30  51  82 107 130 169 219 264 306
#     4  11  23  36  50  72 106 142 171 207 258 311
#     4   9  18  33  52  73 103 142 174 204 253 315
#     4   9  20  38  56  75 104 140 173 209 258 311
#
# _framework density 17.275002000000001
#
# number of rings (size 3 to 8) (size 9 to 14) (size 15 to 20)
#    0.000    2.231    1.538    3.692    0.000    3.077 
#    0.000    3.462    0.000    7.385    0.000    8.615 
#    0.000    0.000    0.000    0.000    0.000    0.000 
#
# Total GULP energy -290184.583638 kJ/mol
# GULP energy per Si atom -5580.472762 kJ/mol
# Density = 1.723568 g / cm^3
# Si number density = 17.275002 Si / 1000 Ang^3
#
#
#
# Elastic Constant Matrix: (Units=GPa)
#
#
# Indices 1 2 3 4 5 6 
#
# 1 134.6518 97.4467 23.6430 0.0000 0.0000 0.0000
# 2 97.4467 168.8220 34.6498 0.0000 0.0000 0.0000
# 3 23.6430 34.6498 21.5915 0.0000 0.0000 0.0000
# 4 0.0000 0.0000 0.0000 28.7266 0.0000 0.0000
# 5 0.0000 0.0000 0.0000 0.0000 -5.2289 0.0000
# 6 0.0000 0.0000 0.0000 0.0000 0.0000 29.7532
#
#
#
# Elastic Compliance Matrix: (Units=1/GPa)
#
#
# Indices 1 2 3 4 5 6 
#
# 1 0.012905 -0.006783 -0.003247 0.000000 0.000000 0.000000
# 2 -0.006783 0.012398 -0.012468 0.000000 0.000000 0.000000
# 3 -0.003247 -0.012468 0.069878 0.000000 0.000000 0.000000
# 4 0.000000 0.000000 0.000000 0.034811 0.000000 0.000000
# 5 0.000000 0.000000 0.000000 0.000000 -0.191244 0.000000
# 6 0.000000 0.000000 0.000000 0.000000 0.000000 0.033610
#
#
# Mechanical properties :
#
#
# Convention : Reuss Voigt Hill
#
# Bulk Modulus (GPa) = 19.92587 70.72715 45.32651
# Shear Modulus (GPa) = 146.70855 21.93858 84.32357
#
# Velocity S-wave (km/s) = 9.22549 3.56752 6.99417
# Velocity P-wave (km/s) = 11.18209 7.61580 9.56660
#
# Compressibility (1/GPa) = 0.05018601
#
# Stress axis : x y z
#
# Youngs Moduli (GPa) = 77.48771 80.66116 14.31063
#
# Poissons Ratio (x) = 0.54711 0.04646
# Poissons Ratio (y) = 0.52558 0.17843
# Poissons Ratio (z) = 0.25157 1.00569
#
# Static dielectric constant tensor:
#      x y z
#    x 1.567310 0.000000 0.000000 
#    y 0.000000 1.587470 0.000000 
#    z 0.000000 0.000000 1.587910 
# 
# From -- ./inp_files/10996.got.cif
#   From: 2010.05.17/outbox.cif.g08.bks.cpg/sg47_6_cif.got.tgz:10996.got - 2010.06.03 20:15:42.
