data_PCOD9388006
_publ_section_title
;
Structure prediction by ZEFSAII (Michael W. Deem and Ramdas Pophale) SiO2 
 PCOD9388006
Probable space group: P M M M
;
_chemical_formula_sum "Si O2"
_cell_formula_units_Z 52
_cell_length_a 8.825239
_cell_length_b 21.895503
_cell_length_c 13.955098
_cell_angle_alpha 90.000000
_cell_angle_beta 90.000000
_cell_angle_gamma 90.000000
_cell_volume 2696.586108
_symmetry_space_group_name_H-M "P M M M"
_symmetry_group_IT_number 47
_symmetry_cell_setting 'orthorhombic'
loop_
_space_group_symop_operation_xyz
x,y,z
-x,-y,z
x,-y,-z
-x,y,-z
-x,-y,-z
x,y,-z
-x,y,z
x,-y,z
loop_
_atom_site_type_symbol
_atom_site_label
_atom_site_fract_x
_atom_site_fract_y
_atom_site_fract_z
Si Si1 0.316059 0.567176 0.305390
Si Si2 0.670437 0.000000 0.886079
Si Si3 0.316971 0.373782 0.892878
Si Si4 0.683376 0.695922 0.608626
Si Si5 0.680560 0.927469 0.390604
Si Si6 0.182002 0.254175 0.801986
Si Si7 0.179870 0.118845 0.202847
O O1 0.500000 0.565609 0.307336
O O2 0.261209 0.500000 0.334038
O O3 0.270875 0.582991 0.195776
O O4 0.273633 0.625045 0.370347
O O5 0.749683 0.061543 0.851414
O O6 0.500000 0.000000 0.846310
O O7 0.666505 0.000000 0.000000
O O8 0.500000 0.371032 0.890825
O O9 0.252955 0.307093 0.867103
O O10 0.270632 0.392757 0.000000
O O11 0.723810 0.713135 0.500000
O O12 0.500000 0.700689 0.618057
O O13 0.759653 0.733772 0.693771
O O14 0.720899 0.912639 0.500000
O O15 0.500000 0.918191 0.379623
O O16 0.769633 0.889354 0.312710
O O17 0.709618 0.000000 0.375875
O O18 0.228114 0.185849 0.832131
O O19 0.000000 0.258552 0.804204
O O20 0.000000 0.115249 0.195461
#
# Coordination Sequence:
#
# PCOD9388006 Si02
#       7
#     8   4   8   8   8   8   8
#     4   8  14  26  47  78 112 140 170 215 269 318
#     4  11  25  43  62  83 106 135 171 212 262 321
#     4   9  18  33  53  77 104 135 175 222 268 316
#     4   9  18  33  53  78 108 143 183 223 262 306
#     4   9  18  33  54  80 108 137 168 203 248 305
#     4  10  22  37  53  76 106 140 178 219 263 313
#     4  11  23  38  57  81 108 138 173 217 266 313
#
# _framework density 19.283642
#
# number of rings (size 3 to 8) (size 9 to 14) (size 15 to 20)
#    0.000    2.538    0.769    2.538    0.000    5.846 
#    0.000   10.000    0.000    7.385    0.000    8.615 
#    0.000    0.000    0.000    0.000    0.000    0.000 
#
# Total GULP energy -290091.512146 kJ/mol
# GULP energy per Si atom -5578.682926 kJ/mol
# Density = 1.923975 g / cm^3
# Si number density = 19.283642 Si / 1000 Ang^3
#
#
#
# Elastic Constant Matrix: (Units=GPa)
#
#
# Indices 1 2 3 4 5 6 
#
# 1 8.2635 6.8167 -4.4286 0.0000 0.0000 0.0000
# 2 6.8167 72.5583 -18.7097 0.0000 0.0000 0.0000
# 3 -4.4286 -18.7097 38.5208 0.0000 0.0000 0.0000
# 4 0.0000 0.0000 0.0000 3.3552 0.0000 0.0000
# 5 0.0000 0.0000 0.0000 0.0000 66.7663 0.0000
# 6 0.0000 0.0000 0.0000 0.0000 0.0000 25.7987
#
#
#
# Elastic Compliance Matrix: (Units=1/GPa)
#
#
# Indices 1 2 3 4 5 6 
#
# 1 0.134928 -0.009918 0.010695 0.000000 0.000000 0.000000
# 2 -0.009918 0.016484 0.006866 0.000000 0.000000 0.000000
# 3 0.010695 0.006866 0.030525 0.000000 0.000000 0.000000
# 4 0.000000 0.000000 0.000000 0.298044 0.000000 0.000000
# 5 0.000000 0.000000 0.000000 0.000000 0.014978 0.000000
# 6 0.000000 0.000000 0.000000 0.000000 0.000000 0.038762
#
#
# Mechanical properties :
#
#
# Convention : Reuss Voigt Hill
#
# Bulk Modulus (GPa) = 5.07042 9.63326 7.35184
# Shear Modulus (GPa) = 8.55907 28.22833 18.39370
#
# Velocity S-wave (km/s) = 2.10906 3.83018 3.09180
# Velocity P-wave (km/s) = 2.92677 4.95649 4.07018
#
# Compressibility (1/GPa) = 0.19722225
#
# Stress axis : x y z
#
# Youngs Moduli (GPa) = 7.41135 60.66361 32.76056
#
# Poissons Ratio (x) = 0.60169 -0.35037
# Poissons Ratio (y) = 0.07351 -0.22494
# Poissons Ratio (z) = -0.07926 -0.41653
#
# Static dielectric constant tensor:
#      x y z
#    x 1.651200 0.000000 0.000000 
#    y 0.000000 1.691810 0.000000 
#    z 0.000000 0.000000 1.672710 
# 
# From -- ./inp_files/11028.got.cif
#   From: 2010.05.17/outbox.cif.g08.bks.cpg/sg47_6_cif.got.tgz:11028.got - 2010.06.03 20:15:42.
