data_PCOD9388430
_publ_section_title
;
Structure prediction by ZEFSAII (Michael W. Deem and Ramdas Pophale) SiO2 
 PCOD9388430
Probable space group: P M M M
;
_chemical_formula_sum "Si O2"
_cell_formula_units_Z 40
_cell_length_a 8.733395
_cell_length_b 14.805401
_cell_length_c 16.728005
_cell_angle_alpha 90.000000
_cell_angle_beta 90.000000
_cell_angle_gamma 90.000000
_cell_volume 2162.954718
_symmetry_space_group_name_H-M "P M M M"
_symmetry_group_IT_number 47
_symmetry_cell_setting 'orthorhombic'
loop_
_space_group_symop_operation_xyz
x,y,z
-x,-y,z
x,-y,-z
-x,y,-z
-x,-y,-z
x,y,-z
-x,y,z
x,-y,z
loop_
_atom_site_type_symbol
_atom_site_label
_atom_site_fract_x
_atom_site_fract_y
_atom_site_fract_z
Si Si1 0.177608 0.739105 0.719974
Si Si2 0.317331 0.103796 0.173507
Si Si3 0.178183 0.632019 0.000000
Si Si4 0.823727 0.848926 0.000000
Si Si5 0.325039 0.601594 0.832903
Si Si6 0.316743 0.602630 0.594630
O O1 0.252980 0.828124 0.759197
O O2 0.206376 0.664666 0.788337
O O3 0.248847 0.686417 0.644052
O O4 0.000000 0.756384 0.706002
O O5 0.500000 0.114877 0.169951
O O6 0.253383 0.121830 0.083713
O O7 0.281015 0.000000 0.193983
O O8 0.271117 0.600340 0.076540
O O9 0.178441 0.740507 0.000000
O O10 0.000000 0.603353 0.000000
O O11 0.000000 0.880066 0.000000
O O12 0.500000 0.636094 0.825203
O O13 0.323139 0.500000 0.800821
O O14 0.288662 0.613559 0.500000
O O15 0.500000 0.602888 0.607625
O O16 0.261863 0.500000 0.615905
#
# Coordination Sequence:
#
# PCOD9388430 Si02
#       6
#     8   8   4   4   8   8
#     4  12  24  37  57  86 118 151 186 232 290 341
#     4  11  24  41  62  85 110 148 197 245 292 344
#     4  11  22  35  52  77 108 145 186 233 289 341
#     4  11  22  37  58  85 114 147 188 241 303 351
#     4  11  23  37  54  76 106 149 195 235 278 331
#     4   9  19  38  64  92 122 157 194 230 273 331
#
# _framework density 18.493221999999999
#
# number of rings (size 3 to 8) (size 9 to 14) (size 15 to 20)
#    0.000    1.200    2.000    5.400    0.000    9.600 
#    0.000    1.000    0.000    0.600    0.000    4.200 
#    0.000    0.000    0.000    0.000    0.000    0.000 
#
# Total GULP energy -223314.448635 kJ/mol
# GULP energy per Si atom -5582.861216 kJ/mol
# Density = 1.845113 g / cm^3
# Si number density = 18.493222 Si / 1000 Ang^3
#
#
#
# Elastic Constant Matrix: (Units=GPa)
#
#
# Indices 1 2 3 4 5 6 
#
# 1 76.5377 54.9212 44.4304 0.0000 0.0000 0.0000
# 2 54.9212 145.6947 57.9542 0.0000 0.0000 0.0000
# 3 44.4304 57.9542 115.3884 0.0000 0.0000 0.0000
# 4 0.0000 0.0000 0.0000 3.6310 0.0000 0.0000
# 5 0.0000 0.0000 0.0000 0.0000 40.2155 0.0000
# 6 0.0000 0.0000 0.0000 0.0000 0.0000 49.6081
#
#
#
# Elastic Compliance Matrix: (Units=1/GPa)
#
#
# Indices 1 2 3 4 5 6 
#
# 1 0.019876 -0.005559 -0.004861 0.000000 0.000000 0.000000
# 2 -0.005559 0.010132 -0.002948 0.000000 0.000000 0.000000
# 3 -0.004861 -0.002948 0.012019 0.000000 0.000000 0.000000
# 4 0.000000 0.000000 0.000000 0.275406 0.000000 0.000000
# 5 0.000000 0.000000 0.000000 0.000000 0.024866 0.000000
# 6 0.000000 0.000000 0.000000 0.000000 0.000000 0.020158
#
#
# Mechanical properties :
#
#
# Convention : Reuss Voigt Hill
#
# Bulk Modulus (GPa) = 65.40178 72.47027 68.93603
# Shear Modulus (GPa) = 12.68097 30.71192 21.69644
#
# Velocity S-wave (km/s) = 2.62145 4.07960 3.42893
# Velocity P-wave (km/s) = 6.67867 7.83986 7.28245
#
# Compressibility (1/GPa) = 0.01529010
#
# Stress axis : x y z
#
# Youngs Moduli (GPa) = 50.31083 98.69798 83.20076
#
# Poissons Ratio (x) = 0.54865 0.40448
# Poissons Ratio (y) = 0.27967 0.24530
# Poissons Ratio (z) = 0.24459 0.29100
#
# Static dielectric constant tensor:
#      x y z
#    x 1.637410 0.000000 0.000000 
#    y 0.000000 1.656730 0.000000 
#    z 0.000000 0.000000 1.669930 
# 
# From -- ./inp_files/20707.got.cif
#   From: 2010.05.17/outbox.cif.g08.bks.cpg/sg47_11_cif.got.tgz:20707.got - 2010.06.03 20:15:42.
