data_PCOD9388154
_publ_section_title
;
Structure prediction by ZEFSAII (Michael W. Deem and Ramdas Pophale) SiO2 
 PCOD9388154
Probable space group: P M M M
;
_chemical_formula_sum "Si O2"
_cell_formula_units_Z 33
_cell_length_a 9.553384
_cell_length_b 14.154123
_cell_length_c 12.928627
_cell_angle_alpha 90.000000
_cell_angle_beta 90.000000
_cell_angle_gamma 90.000000
_cell_volume 1748.205998
_symmetry_space_group_name_H-M "P M M M"
_symmetry_group_IT_number 47
_symmetry_cell_setting 'orthorhombic'
loop_
_space_group_symop_operation_xyz
x,y,z
-x,-y,z
x,-y,-z
-x,y,-z
-x,-y,-z
x,y,-z
-x,y,z
x,-y,z
loop_
_atom_site_type_symbol
_atom_site_label
_atom_site_fract_x
_atom_site_fract_y
_atom_site_fract_z
Si Si1 0.840728 0.114489 0.000000
Si Si2 0.836774 0.386079 0.880674
Si Si3 0.000000 0.500000 0.500000
Si Si4 0.338070 0.721217 0.293142
Si Si5 0.711419 0.395139 0.500000
Si Si6 0.168898 0.111116 0.770445
O O1 0.781583 0.138042 0.112249
O O2 0.000000 0.150692 0.000000
O O3 0.848383 0.000000 0.000000
O O4 0.825348 0.500000 0.873984
O O5 0.737186 0.338325 0.797603
O O6 0.000000 0.362278 0.859244
O O7 0.806756 0.358982 0.000000
O O8 0.876552 0.418734 0.500000
O O9 0.500000 0.739394 0.268293
O O10 0.328168 0.661715 0.397986
O O11 0.251288 0.818365 0.302813
O O12 0.647584 0.500000 0.500000
O O13 0.000000 0.123223 0.766049
O O14 0.196437 0.000000 0.753730
#
# Coordination Sequence:
#
# PCOD9388154 Si02
#       6
#     4   8   1   8   4   8
#     4   7  12  28  53  81 110 145 192 247 297 336
#     4   9  20  38  60  86 117 155 201 251 299 352
#     4   8  24  44  74  96 108 148 206 280 296 338
#     4  12  25  38  59  88 126 163 196 241 305 377
#     4  10  25  44  67  92 116 151 203 256 306 346
#     4   9  19  36  60  87 117 157 208 257 297 346
#
# _framework density 18.876494999999998
#
# number of rings (size 3 to 8) (size 9 to 14) (size 15 to 20)
#    0.364    2.061    0.000    4.000    5.091    3.394 
#    0.000    1.818    0.000    5.091    0.000    0.000 
#    0.000    0.000    0.000    0.000    0.000    0.000 
#
# Total GULP energy -183796.186367 kJ/mol
# GULP energy per Si atom -5569.581405 kJ/mol
# Density = 1.883353 g / cm^3
# Si number density = 18.876495 Si / 1000 Ang^3
#
#
#
# Elastic Constant Matrix: (Units=GPa)
#
#
# Indices 1 2 3 4 5 6 
#
# 1 106.6311 50.7729 44.8473 0.0000 0.0000 0.0000
# 2 50.7729 120.3496 65.5376 0.0000 0.0000 0.0000
# 3 44.8473 65.5376 95.4410 0.0000 0.0000 0.0000
# 4 0.0000 0.0000 0.0000 34.6027 0.0000 0.0000
# 5 0.0000 0.0000 0.0000 0.0000 -8.1563 0.0000
# 6 0.0000 0.0000 0.0000 0.0000 0.0000 -110.6229
#
#
#
# Elastic Compliance Matrix: (Units=1/GPa)
#
#
# Indices 1 2 3 4 5 6 
#
# 1 0.012459 -0.003303 -0.003586 0.000000 0.000000 0.000000
# 2 -0.003303 0.014148 -0.008163 0.000000 0.000000 0.000000
# 3 -0.003586 -0.008163 0.017768 0.000000 0.000000 0.000000
# 4 0.000000 0.000000 0.000000 0.028899 0.000000 0.000000
# 5 0.000000 0.000000 0.000000 0.000000 -0.122605 0.000000
# 6 0.000000 0.000000 0.000000 0.000000 0.000000 -0.009040
#
#
# Mechanical properties :
#
#
# Convention : Reuss Voigt Hill
#
# Bulk Modulus (GPa) = 70.07499 71.63749 70.85624
# Shear Modulus (GPa) = -212.69738 -6.08438 -109.39088
#
# Velocity S-wave (km/s) = -10.62653 -1.79729 -7.62080
# Velocity P-wave (km/s) = 10.64709 5.80741 6.31009
#
# Compressibility (1/GPa) = 0.01427043
#
# Stress axis : x y z
#
# Youngs Moduli (GPa) = 80.26086 70.68151 56.28059
#
# Poissons Ratio (x) = 0.23349 0.20183
# Poissons Ratio (y) = 0.26514 0.45941
# Poissons Ratio (z) = 0.28783 0.57696
#
# Static dielectric constant tensor:
#      x y z
#    x 1.615900 0.000000 0.000000 
#    y 0.000000 1.687240 0.000000 
#    z 0.000000 0.000000 1.666220 
# 
# From -- ./inp_files/14723.got.cif
#   From: 2010.05.17/outbox.cif.g08.bks.cpg/sg47_8_cif.got.tgz:14723.got - 2010.06.03 20:15:42.
