data_PCOD9388157
_publ_section_title
;
Structure prediction by ZEFSAII (Michael W. Deem and Ramdas Pophale) SiO2 
 PCOD9388157
Probable space group: P M M M
;
_chemical_formula_sum "Si O2"
_cell_formula_units_Z 44
_cell_length_a 17.748382
_cell_length_b 12.837027
_cell_length_c 13.831709
_cell_angle_alpha 90.000000
_cell_angle_beta 90.000000
_cell_angle_gamma 90.000000
_cell_volume 3151.367600
_symmetry_space_group_name_H-M "P M M M"
_symmetry_group_IT_number 47
_symmetry_cell_setting 'orthorhombic'
loop_
_space_group_symop_operation_xyz
x,y,z
-x,-y,z
x,-y,-z
-x,y,-z
-x,-y,-z
x,y,-z
-x,y,z
x,-y,z
loop_
_atom_site_type_symbol
_atom_site_label
_atom_site_fract_x
_atom_site_fract_y
_atom_site_fract_z
Si Si1 0.257870 0.874012 0.110247
Si Si2 0.662513 0.125147 0.390592
Si Si3 0.417177 0.874125 0.195033
Si Si4 0.181757 0.806288 0.302707
Si Si5 0.089977 0.000000 0.614587
Si Si6 0.911641 0.377384 0.385367
O O1 0.344547 0.842327 0.132752
O O2 0.205484 0.823695 0.191670
O O3 0.253984 0.000000 0.122785
O O4 0.238153 0.849522 0.000000
O O5 0.639115 0.149012 0.500000
O O6 0.602875 0.150520 0.306692
O O7 0.740974 0.179545 0.363226
O O8 0.675968 0.000000 0.384377
O O9 0.500000 0.834438 0.167632
O O10 0.419793 0.000000 0.187704
O O11 0.141639 0.697936 0.325225
O O12 0.126652 0.898450 0.337471
O O13 0.107533 0.000000 0.500000
O O14 0.000000 0.000000 0.625559
O O15 0.900257 0.356970 0.500000
O O16 0.897985 0.500000 0.368780
O O17 0.000000 0.356654 0.365054
#
# Coordination Sequence:
#
# PCOD9388157 Si02
#       6
#     8   8   8   8   4   8
#     4   9  17  29  43  59  82 114 147 180 219 253
#     4   9  15  22  34  54  83 116 141 166 207 254
#     4   8  14  23  34  53  80 111 148 177 199 239
#     4  11  17  28  43  61  85 113 143 177 210 252
#     4  11  20  26  39  65  88 107 133 167 207 251
#     4   9  18  31  46  65  88 113 139 169 210 257
#
# _framework density 13.962192
#
# number of rings (size 3 to 8) (size 9 to 14) (size 15 to 20)
#    0.000    2.636    1.818    3.818    0.000    2.182 
#    0.000    3.636    0.000    3.273    0.000    1.273 
#    0.000   11.636    0.000   46.545    0.000    1.455 
#
# Total GULP energy -245055.135087 kJ/mol
# GULP energy per Si atom -5569.434888 kJ/mol
# Density = 1.393041 g / cm^3
# Si number density = 13.962192 Si / 1000 Ang^3
#
#
#
# Elastic Constant Matrix: (Units=GPa)
#
#
# Indices 1 2 3 4 5 6 
#
# 1 77.0882 34.5588 39.1182 0.0000 0.0000 0.0000
# 2 34.5588 37.9954 28.9056 0.0000 0.0000 0.0000
# 3 39.1182 28.9056 87.7902 0.0000 0.0000 0.0000
# 4 0.0000 0.0000 0.0000 14.1493 0.0000 0.0000
# 5 0.0000 0.0000 0.0000 0.0000 7.9737 0.0000
# 6 0.0000 0.0000 0.0000 0.0000 0.0000 12.8821
#
#
#
# Elastic Compliance Matrix: (Units=1/GPa)
#
#
# Indices 1 2 3 4 5 6 
#
# 1 0.023172 -0.017640 -0.004517 0.000000 0.000000 0.000000
# 2 -0.017640 0.048543 -0.008123 0.000000 0.000000 0.000000
# 3 -0.004517 -0.008123 0.016078 0.000000 0.000000 0.000000
# 4 0.000000 0.000000 0.000000 0.070675 0.000000 0.000000
# 5 0.000000 0.000000 0.000000 0.000000 0.125412 0.000000
# 6 0.000000 0.000000 0.000000 0.000000 0.000000 0.077627
#
#
# Mechanical properties :
#
#
# Convention : Reuss Voigt Hill
#
# Bulk Modulus (GPa) = 36.71981 45.33765 41.02873
# Shear Modulus (GPa) = 11.59700 13.68711 12.64205
#
# Velocity S-wave (km/s) = 2.88514 3.13437 3.01233
# Velocity P-wave (km/s) = 6.12007 6.75583 6.44579
#
# Compressibility (1/GPa) = 0.02723326
#
# Stress axis : x y z
#
# Youngs Moduli (GPa) = 43.15466 20.60020 62.19596
#
# Poissons Ratio (x) = 0.36339 0.28095
# Poissons Ratio (y) = 0.76125 0.50522
# Poissons Ratio (z) = 0.19494 0.16734
#
# Static dielectric constant tensor:
#      x y z
#    x 1.467230 0.000000 0.000000 
#    y 0.000000 1.431970 0.000000 
#    z 0.000000 0.000000 1.465600 
# 
# From -- ./inp_files/24565.got.cif
#   From: 2010.05.17/outbox.cif.g08.bks.cpg/sg47_13_cif.got.tgz:24565.got - 2010.06.03 20:15:42.
