data_PCOD9388854
_publ_section_title
;
Structure prediction by ZEFSAII (Michael W. Deem and Ramdas Pophale) SiO2 
 PCOD9388854
Probable space group: P M M M
;
_chemical_formula_sum "Si O2"
_cell_formula_units_Z 44
_cell_length_a 32.473127
_cell_length_b 7.519507
_cell_length_c 9.078079
_cell_angle_alpha 90.000000
_cell_angle_beta 90.000000
_cell_angle_gamma 90.000000
_cell_volume 2216.702631
_symmetry_space_group_name_H-M "P M M M"
_symmetry_group_IT_number 47
_symmetry_cell_setting 'orthorhombic'
loop_
_space_group_symop_operation_xyz
x,y,z
-x,-y,z
x,-y,-z
-x,y,-z
-x,-y,-z
x,y,-z
-x,y,z
x,-y,z
loop_
_atom_site_type_symbol
_atom_site_label
_atom_site_fract_x
_atom_site_fract_y
_atom_site_fract_z
Si Si1 0.544338 0.713718 0.677804
Si Si2 0.632690 0.286372 0.329886
Si Si3 0.277795 0.787668 0.332284
Si Si4 0.953063 0.500000 0.679505
Si Si5 0.196208 0.217306 0.831295
Si Si6 0.111816 0.206814 0.677073
O O1 0.545117 0.740478 0.500000
O O2 0.500000 0.783667 0.731642
O O3 0.543444 0.500000 0.700484
O O4 0.588884 0.778405 0.734046
O O5 0.634691 0.221019 0.500000
O O6 0.629969 0.500000 0.334917
O O7 0.677114 0.244131 0.263038
O O8 0.277686 0.716399 0.500000
O O9 0.238350 0.720243 0.244426
O O10 0.273352 0.000000 0.341676
O O11 0.954506 0.500000 0.500000
O O12 0.926337 0.671419 0.723580
O O13 0.000000 0.500000 0.732448
O O14 0.154839 0.269506 0.746290
O O15 0.196894 0.000000 0.828321
O O16 0.194435 0.273508 0.000000
O O17 0.115532 0.217322 0.500000
O O18 0.105399 0.000000 0.716423
#
# Coordination Sequence:
#
# PCOD9388854 Si02
#       6
#     8   8   8   4   8   8
#     4   7   9  14  26  44  66  94 128 164 201 244
#     4   8  13  21  33  51  75 102 134 170 207 253
#     4   9  16  26  41  60  83 111 141 175 218 267
#     4   9  18  32  51  79 109 131 159 199 236 273
#     4   9  17  30  48  67  88 117 153 190 226 268
#     4   9  17  31  52  75  99 129 163 197 233 273
#
# _framework density 19.849302000000002
#
# number of rings (size 3 to 8) (size 9 to 14) (size 15 to 20)
#    0.000    3.545    0.000    2.182    0.000    2.545 
#    1.636    2.273    0.000    1.636    0.000    6.364 
#    0.000    0.727    0.000    9.091    0.000    8.364 
#
# Total GULP energy -244944.662895 kJ/mol
# GULP energy per Si atom -5566.924157 kJ/mol
# Density = 1.980412 g / cm^3
# Si number density = 19.849302 Si / 1000 Ang^3
#
#
#
# Elastic Constant Matrix: (Units=GPa)
#
#
# Indices 1 2 3 4 5 6 
#
# 1 262.1663 47.9932 44.5013 0.0000 0.0000 0.0000
# 2 47.9932 62.9887 14.4654 0.0000 0.0000 0.0000
# 3 44.5013 14.4654 16.8971 0.0000 0.0000 0.0000
# 4 0.0000 0.0000 0.0000 0.5670 0.0000 0.0000
# 5 0.0000 0.0000 0.0000 0.0000 -5.7761 0.0000
# 6 0.0000 0.0000 0.0000 0.0000 0.0000 25.1341
#
#
#
# Elastic Compliance Matrix: (Units=1/GPa)
#
#
# Indices 1 2 3 4 5 6 
#
# 1 0.006992 -0.001367 -0.017243 0.000000 0.000000 0.000000
# 2 -0.001367 0.020028 -0.013545 0.000000 0.000000 0.000000
# 3 -0.017243 -0.013545 0.116190 0.000000 0.000000 0.000000
# 4 0.000000 0.000000 0.000000 1.763562 0.000000 0.000000
# 5 0.000000 0.000000 0.000000 0.000000 -0.173128 0.000000
# 6 0.000000 0.000000 0.000000 0.000000 0.000000 0.039787
#
#
# Mechanical properties :
#
#
# Convention : Reuss Voigt Hill
#
# Bulk Modulus (GPa) = 12.67439 61.77465 37.22452
# Shear Modulus (GPa) = 2.68235 19.65784 11.17009
#
# Velocity S-wave (km/s) = 1.16374 3.15040 2.37480
# Velocity P-wave (km/s) = 2.86442 6.66504 5.12970
#
# Compressibility (1/GPa) = 0.07889929
#
# Stress axis : x y z
#
# Youngs Moduli (GPa) = 143.02927 49.92952 8.60659
#
# Poissons Ratio (x) = 0.06827 0.14840
# Poissons Ratio (y) = 0.19556 0.11658
# Poissons Ratio (z) = 2.46626 0.67630
#
# Static dielectric constant tensor:
#      x y z
#    x 1.740810 0.000000 0.000000 
#    y 0.000000 1.758040 0.000000 
#    z 0.000000 0.000000 1.653050 
# 
# From -- ./inp_files/13639.got.cif
#   From: 2010.05.17/outbox.cif.g08.bks.cpg/sg47_7_cif.got.tgz:13639.got - 2010.06.03 20:15:42.
