data_PCOD9388334
_publ_section_title
;
Structure prediction by ZEFSAII (Michael W. Deem and Ramdas Pophale) SiO2 
 PCOD9388334
Probable space group: P M M M
;
_chemical_formula_sum "Si O2"
_cell_formula_units_Z 33
_cell_length_a 20.189138
_cell_length_b 7.846572
_cell_length_c 12.291874
_cell_angle_alpha 90.000000
_cell_angle_beta 90.000000
_cell_angle_gamma 90.000000
_cell_volume 1947.223672
_symmetry_space_group_name_H-M "P M M M"
_symmetry_group_IT_number 47
_symmetry_cell_setting 'orthorhombic'
loop_
_space_group_symop_operation_xyz
x,y,z
-x,-y,z
x,-y,-z
-x,y,-z
-x,-y,-z
x,y,-z
-x,y,z
x,-y,z
loop_
_atom_site_type_symbol
_atom_site_label
_atom_site_fract_x
_atom_site_fract_y
_atom_site_fract_z
Si Si1 0.573677 0.794216 0.127404
Si Si2 0.681677 0.698943 0.700790
Si Si3 0.602061 0.184265 0.500000
Si Si4 0.075173 0.000000 0.631555
Si Si5 0.500000 0.500000 0.500000
Si Si6 0.825092 0.700333 0.369687
O O1 0.500000 0.738613 0.168558
O O2 0.635825 0.724655 0.193802
O O3 0.574924 0.000000 0.134695
O O4 0.577459 0.748630 0.000000
O O5 0.679263 0.500000 0.670545
O O6 0.647046 0.803633 0.606246
O O7 0.759297 0.742301 0.699729
O O8 0.556184 0.348723 0.500000
O O9 0.568999 0.000000 0.500000
O O10 0.116686 0.169331 0.659991
O O11 0.071611 0.000000 0.500000
O O12 0.000000 0.000000 0.673444
O O13 0.810221 0.721666 0.500000
O O14 0.841743 0.500000 0.354546
#
# Coordination Sequence:
#
# PCOD9388334 Si02
#       6
#     8   8   4   4   1   8
#     4   9  20  37  53  71  97 134 181 228 275 323
#     4  11  21  35  52  76 105 136 179 223 264 320
#     4  12  25  37  55  74 103 140 173 223 280 310
#     4   9  18  30  48  74 102 137 174 206 240 296
#     4  12  26  44  44  74 110 128 188 232 256 332
#     4   9  18  31  48  71 105 138 170 208 252 303
#
# _framework density 16.947206000000001
#
# number of rings (size 3 to 8) (size 9 to 14) (size 15 to 20)
#    0.000    2.061    2.424    1.636    5.091    1.455 
#    0.000    3.636    0.000    0.000    0.000    0.000 
#    0.000    1.939    0.000    5.333    0.000    0.242 
#
# Total GULP energy -183710.478076 kJ/mol
# GULP energy per Si atom -5566.984184 kJ/mol
# Density = 1.690863 g / cm^3
# Si number density = 16.947206 Si / 1000 Ang^3
#
#
#
# Elastic Constant Matrix: (Units=GPa)
#
#
# Indices 1 2 3 4 5 6 
#
# 1 167.3835 75.3712 37.1320 0.0000 0.0000 0.0000
# 2 75.3712 107.0966 13.5623 0.0000 0.0000 0.0000
# 3 37.1320 13.5623 36.6584 0.0000 0.0000 0.0000
# 4 0.0000 0.0000 0.0000 14.3689 0.0000 0.0000
# 5 0.0000 0.0000 0.0000 0.0000 -97.3685 0.0000
# 6 0.0000 0.0000 0.0000 0.0000 0.0000 28.5549
#
#
#
# Elastic Compliance Matrix: (Units=1/GPa)
#
#
# Indices 1 2 3 4 5 6 
#
# 1 0.010804 -0.006523 -0.008530 0.000000 0.000000 0.000000
# 2 -0.006523 0.013735 0.001526 0.000000 0.000000 0.000000
# 3 -0.008530 0.001526 0.035355 0.000000 0.000000 0.000000
# 4 0.000000 0.000000 0.000000 0.069595 0.000000 0.000000
# 5 0.000000 0.000000 0.000000 0.000000 -0.010270 0.000000
# 6 0.000000 0.000000 0.000000 0.000000 0.000000 0.035020
#
#
# Mechanical properties :
#
#
# Convention : Reuss Voigt Hill
#
# Bulk Modulus (GPa) = 30.45167 62.58552 46.51860
# Shear Modulus (GPa) = 26.00925 1.44927 13.72926
#
# Velocity S-wave (km/s) = 3.92180 0.92576 2.84935
# Velocity P-wave (km/s) = 6.20604 6.17678 6.19143
#
# Compressibility (1/GPa) = 0.03283892
#
# Stress axis : x y z
#
# Youngs Moduli (GPa) = 92.55834 72.80681 28.28476
#
# Poissons Ratio (x) = 0.47494 0.24128
# Poissons Ratio (y) = 0.60378 -0.04317
# Poissons Ratio (z) = 0.78954 -0.11111
#
# Static dielectric constant tensor:
#      x y z
#    x 1.583140 0.000000 0.000000 
#    y 0.000000 1.598630 0.000000 
#    z 0.000000 0.000000 1.559400 
# 
# From -- ./inp_files/8638.got.cif
#   From: 2010.05.17/outbox.cif.g08.bks.cpg/sg47_5_cif.got.tgz:8638.got - 2010.06.03 20:15:42.
