data_PCOD9388112
_publ_section_title
;
Structure prediction by ZEFSAII (Michael W. Deem and Ramdas Pophale) SiO2 
 PCOD9388112
Probable space group: P M M M
;
_chemical_formula_sum "Si O2"
_cell_formula_units_Z 56
_cell_length_a 21.737713
_cell_length_b 15.486938
_cell_length_c 8.437114
_cell_angle_alpha 90.000000
_cell_angle_beta 90.000000
_cell_angle_gamma 90.000000
_cell_volume 2840.359604
_symmetry_space_group_name_H-M "P M M M"
_symmetry_group_IT_number 47
_symmetry_cell_setting 'orthorhombic'
loop_
_space_group_symop_operation_xyz
x,y,z
-x,-y,z
x,-y,-z
-x,y,-z
-x,-y,-z
x,y,-z
-x,y,z
x,-y,z
loop_
_atom_site_type_symbol
_atom_site_label
_atom_site_fract_x
_atom_site_fract_y
_atom_site_fract_z
Si Si1 0.129501 0.351164 0.180676
Si Si2 0.571032 0.401967 0.690725
Si Si3 0.000000 0.603067 0.320088
Si Si4 0.331151 0.734167 0.817348
Si Si5 0.752263 0.596354 0.319179
Si Si6 0.131533 0.164581 0.312311
Si Si7 0.741415 0.902823 0.191491
Si Si8 0.000000 0.896758 0.817882
O O1 0.059913 0.367324 0.228424
O O2 0.174942 0.401721 0.296212
O O3 0.141555 0.250912 0.211438
O O4 0.140941 0.376321 0.000000
O O5 0.573191 0.404735 0.500000
O O6 0.500000 0.388524 0.738971
O O7 0.588595 0.500000 0.745874
O O8 0.613562 0.322079 0.742578
O O9 0.000000 0.500000 0.327127
O O10 0.000000 0.637883 0.500000
O O11 0.275127 0.666947 0.796959
O O12 0.304536 0.825677 0.753692
O O13 0.346705 0.748437 0.000000
O O14 0.735919 0.619186 0.500000
O O15 0.729544 0.500000 0.287645
O O16 0.132876 0.182875 0.500000
O O17 0.190677 0.106999 0.267454
O O18 0.063660 0.130480 0.266358
O O19 0.718437 0.000000 0.224172
O O20 0.748108 0.893847 0.000000
O O21 0.000000 0.000000 0.823206
O O22 0.000000 0.863362 0.000000
#
# Coordination Sequence:
#
# PCOD9388112 Si02
#       8
#     8   8   4   8   8   8   8   4
#     4  12  24  39  58  80 108 144 189 239 291 350
#     4   9  19  37  61  90 127 170 208 243 291 349
#     4  11  24  41  58  77 105 143 188 238 295 356
#     4  11  22  36  59  90 122 158 200 246 293 346
#     4  11  23  38  57  83 117 155 192 236 291 348
#     4  12  24  39  60  85 113 145 190 247 305 366
#     4  10  22  41  62  85 118 159 201 248 306 366
#     4  11  24  41  60  81 109 145 184 236 307 376
#
# _framework density 19.715813000000001
#
# number of rings (size 3 to 8) (size 9 to 14) (size 15 to 20)
#    0.000    1.143    1.429    6.000    0.000    8.857 
#    0.000    0.714    0.000    0.429    0.000    3.000 
#    0.000    0.000    0.000    0.000    0.000    0.000 
#
# Total GULP energy -312717.331006 kJ/mol
# GULP energy per Si atom -5584.238054 kJ/mol
# Density = 1.967094 g / cm^3
# Si number density = 19.715813 Si / 1000 Ang^3
#
#
#
# Elastic Constant Matrix: (Units=GPa)
#
#
# Indices 1 2 3 4 5 6 
#
# 1 126.5100 47.2603 12.6741 0.0000 0.0000 0.0000
# 2 47.2603 106.1260 18.5032 0.0000 0.0000 0.0000
# 3 12.6741 18.5032 43.6016 0.0000 0.0000 0.0000
# 4 0.0000 0.0000 0.0000 22.8159 0.0000 0.0000
# 5 0.0000 0.0000 0.0000 0.0000 31.6521 0.0000
# 6 0.0000 0.0000 0.0000 0.0000 0.0000 24.7217
#
#
#
# Elastic Compliance Matrix: (Units=1/GPa)
#
#
# Indices 1 2 3 4 5 6 
#
# 1 0.009526 -0.004060 -0.001046 0.000000 0.000000 0.000000
# 2 -0.004060 0.011906 -0.003872 0.000000 0.000000 0.000000
# 3 -0.001046 -0.003872 0.024882 0.000000 0.000000 0.000000
# 4 0.000000 0.000000 0.000000 0.043829 0.000000 0.000000
# 5 0.000000 0.000000 0.000000 0.000000 0.031594 0.000000
# 6 0.000000 0.000000 0.000000 0.000000 0.000000 0.040450
#
#
# Mechanical properties :
#
#
# Convention : Reuss Voigt Hill
#
# Bulk Modulus (GPa) = 35.26398 48.12365 41.69381
# Shear Modulus (GPa) = 26.37185 29.02458 27.69821
#
# Velocity S-wave (km/s) = 3.66129 3.84102 3.75223
# Velocity P-wave (km/s) = 5.98317 6.64326 6.32184
#
# Compressibility (1/GPa) = 0.02835755
#
# Stress axis : x y z
#
# Youngs Moduli (GPa) = 104.97691 83.99273 40.18907
#
# Poissons Ratio (x) = 0.34099 0.04204
# Poissons Ratio (y) = 0.42617 0.15563
# Poissons Ratio (z) = 0.10982 0.32525
#
# Static dielectric constant tensor:
#      x y z
#    x 1.695670 0.000000 0.000000 
#    y 0.000000 1.759750 0.000000 
#    z 0.000000 0.000000 1.681850 
# 
# From -- ./inp_files/11349.got.cif
#   From: 2010.05.17/outbox.cif.g08.bks.cpg/sg47_6_cif.got.tgz:11349.got - 2010.06.03 20:15:42.
