data_PCOD9388388
_publ_section_title
;
Structure prediction by ZEFSAII (Michael W. Deem and Ramdas Pophale) SiO2 
 PCOD9388388
Probable space group: P M M M
;
_chemical_formula_sum "Si O2"
_cell_formula_units_Z 52
_cell_length_a 9.350336
_cell_length_b 14.293219
_cell_length_c 26.808396
_cell_angle_alpha 90.000000
_cell_angle_beta 90.000000
_cell_angle_gamma 90.000000
_cell_volume 3582.845620
_symmetry_space_group_name_H-M "P M M M"
_symmetry_group_IT_number 47
_symmetry_cell_setting 'orthorhombic'
loop_
_space_group_symop_operation_xyz
x,y,z
-x,-y,z
x,-y,-z
-x,y,-z
-x,-y,-z
x,y,-z
-x,y,z
x,-y,z
loop_
_atom_site_type_symbol
_atom_site_label
_atom_site_fract_x
_atom_site_fract_y
_atom_site_fract_z
Si Si1 0.666711 0.886306 0.944554
Si Si2 0.164748 0.114044 0.153078
Si Si3 0.837343 0.386546 0.500000
Si Si4 0.671201 0.218379 0.354080
Si Si5 0.827049 0.390100 0.389836
Si Si6 0.831379 0.887294 0.557120
Si Si7 0.669858 0.110009 0.747824
O O1 0.500000 0.861034 0.938531
O O2 0.758249 0.853627 0.897568
O O3 0.672178 0.000000 0.944426
O O4 0.714923 0.856272 0.000000
O O5 0.245909 0.143124 0.203324
O O6 0.000000 0.142280 0.154033
O O7 0.169809 0.000000 0.152553
O O8 0.845789 0.500000 0.500000
O O9 0.775584 0.363198 0.446164
O O10 0.000000 0.350444 0.500000
O O11 0.500000 0.225082 0.359355
O O12 0.745814 0.319604 0.354136
O O13 0.738303 0.161391 0.400473
O O14 0.703722 0.165020 0.302591
O O15 0.798104 0.500000 0.381668
O O16 0.000000 0.378728 0.388204
O O17 0.794578 0.859301 0.500000
O O18 0.000000 0.865663 0.564702
O O19 0.816114 0.000000 0.560109
O O20 0.500000 0.117704 0.757280
O O21 0.702111 0.000000 0.740039
#
# Coordination Sequence:
#
# PCOD9388388 Si02
#       7
#     8   8   4   8   8   8   8
#     4   8  13  21  33  49  71 102 137 168 202 248
#     4   9  16  24  36  55  76  99 132 177 219 244
#     4   7  12  26  47  65  78  97 126 155 185 230
#     4  11  22  32  46  68  90 110 135 171 216 258
#     4   9  18  33  51  68  86 110 138 166 200 249
#     4   9  19  35  51  65  83 110 142 172 204 248
#     4   9  18  32  45  56  77 111 145 173 206 252
#
# _framework density 14.513604000000001
#
# number of rings (size 3 to 8) (size 9 to 14) (size 15 to 20)
#    0.000    3.000    0.000    3.231    1.077    4.923 
#    0.000    3.846    0.000    1.385    0.000    0.000 
#    0.000    0.000    0.000    0.000    0.000    0.769 
#
# Total GULP energy -289614.065826 kJ/mol
# GULP energy per Si atom -5569.501266 kJ/mol
# Density = 1.448057 g / cm^3
# Si number density = 14.513604 Si / 1000 Ang^3
#
#
#
# Elastic Constant Matrix: (Units=GPa)
#
#
# Indices 1 2 3 4 5 6 
#
# 1 61.1363 34.7622 75.9220 0.0000 0.0000 0.0000
# 2 34.7622 45.7889 47.2528 0.0000 0.0000 0.0000
# 3 75.9220 47.2528 141.0708 0.0000 0.0000 0.0000
# 4 0.0000 0.0000 0.0000 5.6083 0.0000 0.0000
# 5 0.0000 0.0000 0.0000 0.0000 2.6432 0.0000
# 6 0.0000 0.0000 0.0000 0.0000 0.0000 15.9470
#
#
#
# Elastic Compliance Matrix: (Units=1/GPa)
#
#
# Indices 1 2 3 4 5 6 
#
# 1 0.057571 -0.017930 -0.024978 0.000000 0.000000 0.000000
# 2 -0.017930 0.038961 -0.003400 0.000000 0.000000 0.000000
# 3 -0.024978 -0.003400 0.021670 0.000000 0.000000 0.000000
# 4 0.000000 0.000000 0.000000 0.178309 0.000000 0.000000
# 5 0.000000 0.000000 0.000000 0.000000 0.378328 0.000000
# 6 0.000000 0.000000 0.000000 0.000000 0.000000 0.062708
#
#
# Mechanical properties :
#
#
# Convention : Reuss Voigt Hill
#
# Bulk Modulus (GPa) = 39.08576 62.65224 50.86900
# Shear Modulus (GPa) = 5.96167 10.84364 8.40265
#
# Velocity S-wave (km/s) = 2.02893 2.73634 2.40875
# Velocity P-wave (km/s) = 5.69892 7.29692 6.54686
#
# Compressibility (1/GPa) = 0.02558476
#
# Stress axis : x y z
#
# Youngs Moduli (GPa) = 17.37000 25.66673 46.14642
#
# Poissons Ratio (x) = 0.46022 1.15263
# Poissons Ratio (y) = 0.31145 0.15692
# Poissons Ratio (z) = 0.43386 0.08728
#
# Static dielectric constant tensor:
#      x y z
#    x 1.481260 0.000000 0.000000 
#    y 0.000000 1.474870 0.000000 
#    z 0.000000 0.000000 1.485450 
# 
# From -- ./inp_files/32018.got.cif
#   From: 2010.05.17/outbox.cif.g08.bks.cpg/sg47_17_cif.got.tgz:32018.got - 2010.06.03 20:15:42.
