data_PCOD9388353
_publ_section_title
;
Structure prediction by ZEFSAII (Michael W. Deem and Ramdas Pophale) SiO2 
 PCOD9388353
Probable space group: P M M M
;
_chemical_formula_sum "Si O2"
_cell_formula_units_Z 64
_cell_length_a 9.028694
_cell_length_b 24.376243
_cell_length_c 15.225643
_cell_angle_alpha 90.000000
_cell_angle_beta 90.000000
_cell_angle_gamma 90.000000
_cell_volume 3350.945368
_symmetry_space_group_name_H-M "P M M M"
_symmetry_group_IT_number 47
_symmetry_cell_setting 'orthorhombic'
loop_
_space_group_symop_operation_xyz
x,y,z
-x,-y,z
x,-y,-z
-x,y,-z
-x,-y,-z
x,y,-z
-x,y,z
x,-y,z
loop_
_atom_site_type_symbol
_atom_site_label
_atom_site_fract_x
_atom_site_fract_y
_atom_site_fract_z
Si Si1 0.671081 0.060921 0.105955
Si Si2 0.831154 0.824951 0.145665
Si Si3 0.676724 0.288381 0.099620
Si Si4 0.176316 0.656432 0.733612
Si Si5 0.666962 0.937289 0.393963
Si Si6 0.819960 0.436384 0.400513
Si Si7 0.835456 0.166488 0.351621
Si Si8 0.669190 0.733264 0.400665
O O1 0.500000 0.066733 0.135505
O O2 0.761328 0.115097 0.130590
O O3 0.724400 0.000000 0.135204
O O4 0.669891 0.059681 0.000000
O O5 0.739542 0.773658 0.108466
O O6 0.834942 0.816952 0.250175
O O7 0.000000 0.823558 0.112363
O O8 0.500000 0.286726 0.111861
O O9 0.747792 0.326662 0.174903
O O10 0.708656 0.307444 0.000000
O O11 0.228058 0.601992 0.680341
O O12 0.218646 0.703435 0.663896
O O13 0.000000 0.653848 0.746703
O O14 0.671816 0.935530 0.500000
O O15 0.500000 0.921058 0.366899
O O16 0.787803 0.896290 0.357881
O O17 0.690543 0.000000 0.366964
O O18 0.772088 0.419753 0.500000
O O19 0.777954 0.500000 0.388277
O O20 0.000000 0.433863 0.401292
O O21 0.713583 0.203149 0.399240
O O22 0.000000 0.175361 0.387954
O O23 0.682651 0.712730 0.500000
O O24 0.500000 0.725707 0.370883
#
# Coordination Sequence:
#
# PCOD9388353 Si02
#       8
#     8   8   8   8   8   8   8   8
#     4   9  19  36  56  77 101 132 173 221 279 352
#     4  11  23  37  54  79 109 140 179 234 296 352
#     4  11  24  41  61  83 111 153 201 247 298 357
#     4  11  21  35  59  91 122 154 196 245 293 338
#     4   9  19  36  55  73  95 129 176 226 277 338
#     4   8  15  30  55  90 131 170 203 236 280 336
#     4  11  23  36  51  75 106 138 176 228 285 339
#     4  11  23  37  55  80 113 154 193 231 280 339
#
# _framework density 19.099087000000001
#
# number of rings (size 3 to 8) (size 9 to 14) (size 15 to 20)
#    0.000    1.875    1.250    4.125    0.000    8.500 
#    0.000    3.750    0.000    1.875    0.000    7.000 
#    0.000    0.000    0.000    0.000    0.000    0.000 
#
# Total GULP energy -357180.313009 kJ/mol
# GULP energy per Si atom -5580.942391 kJ/mol
# Density = 1.905562 g / cm^3
# Si number density = 19.099087 Si / 1000 Ang^3
#
#
#
# Elastic Constant Matrix: (Units=GPa)
#
#
# Indices 1 2 3 4 5 6 
#
# 1 61.0597 37.2340 40.1795 0.0000 0.0000 0.0000
# 2 37.2340 107.4017 47.6868 0.0000 0.0000 0.0000
# 3 40.1795 47.6868 104.6805 0.0000 0.0000 0.0000
# 4 0.0000 0.0000 0.0000 36.2718 0.0000 0.0000
# 5 0.0000 0.0000 0.0000 0.0000 26.1464 0.0000
# 6 0.0000 0.0000 0.0000 0.0000 0.0000 -64.2625
#
#
#
# Elastic Compliance Matrix: (Units=1/GPa)
#
#
# Indices 1 2 3 4 5 6 
#
# 1 0.024123 -0.005330 -0.006831 0.000000 0.000000 0.000000
# 2 -0.005330 0.012849 -0.003808 0.000000 0.000000 0.000000
# 3 -0.006831 -0.003808 0.013909 0.000000 0.000000 0.000000
# 4 0.000000 0.000000 0.000000 0.027570 0.000000 0.000000
# 5 0.000000 0.000000 0.000000 0.000000 0.038246 0.000000
# 6 0.000000 0.000000 0.000000 0.000000 0.000000 -0.015561
#
#
# Mechanical properties :
#
#
# Convention : Reuss Voigt Hill
#
# Bulk Modulus (GPa) = 52.78657 58.14918 55.46788
# Shear Modulus (GPa) = 35.87125 9.50058 22.68591
#
# Velocity S-wave (km/s) = 4.33848 2.23275 3.45019
# Velocity P-wave (km/s) = 7.26601 6.09582 6.70648
#
# Compressibility (1/GPa) = 0.01894421
#
# Stress axis : x y z
#
# Youngs Moduli (GPa) = 41.45497 77.82585 71.89392
#
# Poissons Ratio (x) = 0.41480 0.49111
# Poissons Ratio (y) = 0.22095 0.27375
# Poissons Ratio (z) = 0.28318 0.29633
#
# Static dielectric constant tensor:
#      x y z
#    x 1.663770 0.000000 0.000000 
#    y 0.000000 1.683620 0.000000 
#    z 0.000000 0.000000 1.689880 
# 
# From -- ./inp_files/7872.got.cif
#   From: 2010.05.17/outbox.cif.g08.bks.cpg/sg47_4_cif.got.tgz:7872.got - 2010.06.03 20:15:42.
