data_PCOD9388591
_publ_section_title
;
Structure prediction by ZEFSAII (Michael W. Deem and Ramdas Pophale) SiO2 
 PCOD9388591
Probable space group: P M M M
;
_chemical_formula_sum "Si O2"
_cell_formula_units_Z 48
_cell_length_a 8.021690
_cell_length_b 9.515193
_cell_length_c 35.594614
_cell_angle_alpha 90.000000
_cell_angle_beta 90.000000
_cell_angle_gamma 90.000000
_cell_volume 2716.863154
_symmetry_space_group_name_H-M "P M M M"
_symmetry_group_IT_number 47
_symmetry_cell_setting 'orthorhombic'
loop_
_space_group_symop_operation_xyz
x,y,z
-x,-y,z
x,-y,-z
-x,y,-z
-x,-y,-z
x,y,-z
-x,y,z
x,-y,z
loop_
_atom_site_type_symbol
_atom_site_label
_atom_site_fract_x
_atom_site_fract_y
_atom_site_fract_z
Si Si1 0.000000 0.328177 0.093449
Si Si2 0.307579 0.328714 0.768305
Si Si3 0.688662 0.671021 0.043343
Si Si4 0.198270 0.842287 0.386690
Si Si5 0.000000 0.328486 0.180084
Si Si6 0.700214 0.340814 0.315621
Si Si7 0.701079 0.338983 0.542012
O O1 0.165535 0.282228 0.071106
O O2 0.000000 0.500000 0.093137
O O3 0.000000 0.283822 0.136755
O O4 0.500000 0.283312 0.775296
O O5 0.311297 0.500000 0.768264
O O6 0.168031 0.283948 0.798092
O O7 0.252064 0.288801 0.726005
O O8 0.500000 0.715154 0.053458
O O9 0.689233 0.500000 0.043915
O O10 0.721468 0.711927 0.000000
O O11 0.252648 0.756854 0.350022
O O12 0.245508 0.760795 0.424528
O O13 0.000000 0.850711 0.385606
O O14 0.268910 0.000000 0.386628
O O15 0.000000 0.500000 0.180541
O O16 0.500000 0.349569 0.314498
O O17 0.765400 0.500000 0.321207
O O18 0.757128 0.296626 0.500000
O O19 0.500000 0.341026 0.541602
O O20 0.757069 0.500000 0.548648
#
# Coordination Sequence:
#
# PCOD9388591 Si02
#       7
#     4   8   8   8   4   8   8
#     4   9  15  20  27  42  62  85 117 158 209 270
#     4   8  15  27  41  59  81 103 134 177 220 270
#     4   8  13  20  28  37  52  80 120 164 209 258
#     4  11  24  36  47  72 106 132 155 188 232 278
#     4   9  16  23  34  53  75 101 128 162 222 284
#     4   9  18  33  53  73  90 115 155 196 231 274
#     4   9  19  37  59  79  98 124 161 199 230 269
#
# _framework density 17.667435999999999
#
# number of rings (size 3 to 8) (size 9 to 14) (size 15 to 20)
#    0.000    3.000    0.000    3.250    1.167    6.333 
#    0.000    5.833    0.000    0.000    0.000    0.000 
#    0.000    0.000    0.000    0.000    0.000    0.000 
#
# Total GULP energy -267394.161963 kJ/mol
# GULP energy per Si atom -5570.711708 kJ/mol
# Density = 1.762722 g / cm^3
# Si number density = 17.667436 Si / 1000 Ang^3
#
#
#
# Elastic Constant Matrix: (Units=GPa)
#
#
# Indices 1 2 3 4 5 6 
#
# 1 84.4546 25.1071 90.1756 0.0000 0.0000 0.0000
# 2 25.1071 34.5990 52.2170 0.0000 0.0000 0.0000
# 3 90.1756 52.2170 184.6996 0.0000 0.0000 0.0000
# 4 0.0000 0.0000 0.0000 -4.0642 0.0000 0.0000
# 5 0.0000 0.0000 0.0000 0.0000 23.4745 0.0000
# 6 0.0000 0.0000 0.0000 0.0000 0.0000 12.3015
#
#
#
# Elastic Compliance Matrix: (Units=1/GPa)
#
#
# Indices 1 2 3 4 5 6 
#
# 1 0.024740 0.000482 -0.012215 0.000000 0.000000 0.000000
# 2 0.000482 0.050421 -0.014490 0.000000 0.000000 0.000000
# 3 -0.012215 -0.014490 0.015474 0.000000 0.000000 0.000000
# 4 0.000000 0.000000 0.000000 -0.246053 0.000000 0.000000
# 5 0.000000 0.000000 0.000000 0.000000 0.042599 0.000000
# 6 0.000000 0.000000 0.000000 0.000000 0.000000 0.081291
#
#
# Mechanical properties :
#
#
# Convention : Reuss Voigt Hill
#
# Bulk Modulus (GPa) = 26.18509 70.97253 48.57881
# Shear Modulus (GPa) = 148.59105 15.42591 82.00848
#
# Velocity S-wave (km/s) = 9.18080 2.95808 6.82046
# Velocity P-wave (km/s) = 11.27989 7.20594 9.46471
#
# Compressibility (1/GPa) = 0.03818967
#
# Stress axis : x y z
#
# Youngs Moduli (GPa) = 40.42070 19.83287 64.62245
#
# Poissons Ratio (x) = -0.00956 0.78936
# Poissons Ratio (y) = -0.01949 0.93639
# Poissons Ratio (z) = 0.49374 0.28738
#
# Static dielectric constant tensor:
#      x y z
#    x 1.620140 0.000000 0.000000 
#    y 0.000000 1.275240 0.000000 
#    z 0.000000 0.000000 1.606080 
# 
# From -- ./inp_files/34048.got.cif
#   From: 2010.05.17/outbox.cif.g08.bks.cpg/sg47_18_cif.got.tgz:34048.got - 2010.06.03 20:15:42.
