data_PCOD9388618
_publ_section_title
;
Structure prediction by ZEFSAII (Michael W. Deem and Ramdas Pophale) SiO2 
 PCOD9388618
Probable space group: P M M M
;
_chemical_formula_sum "Si O2"
_cell_formula_units_Z 36
_cell_length_a 9.839131
_cell_length_b 24.338009
_cell_length_c 7.969138
_cell_angle_alpha 90.000000
_cell_angle_beta 90.000000
_cell_angle_gamma 90.000000
_cell_volume 1908.328506
_symmetry_space_group_name_H-M "P M M M"
_symmetry_group_IT_number 47
_symmetry_cell_setting 'orthorhombic'
loop_
_space_group_symop_operation_xyz
x,y,z
-x,-y,z
x,-y,-z
-x,y,-z
-x,-y,-z
x,y,-z
-x,y,z
x,-y,z
loop_
_atom_site_type_symbol
_atom_site_label
_atom_site_fract_x
_atom_site_fract_y
_atom_site_fract_z
Si Si1 0.659578 0.559272 0.798030
Si Si2 0.843719 0.776227 0.704986
Si Si3 0.154788 0.900094 0.702175
Si Si4 0.655234 0.677809 0.701211
Si Si5 0.653424 0.000000 0.800646
O O1 0.500000 0.559555 0.746981
O O2 0.716826 0.500000 0.741052
O O3 0.715877 0.617496 0.738340
O O4 0.663523 0.559548 0.000000
O O5 0.839916 0.775856 0.500000
O O6 0.807656 0.838308 0.758434
O O7 0.744971 0.728249 0.765528
O O8 0.000000 0.766034 0.753515
O O9 0.149695 0.899027 0.500000
O O10 0.000000 0.912218 0.760705
O O11 0.261009 0.946370 0.751088
O O12 0.648256 0.682765 0.500000
O O13 0.500000 0.680102 0.766982
O O14 0.500000 0.000000 0.729735
O O15 0.643468 0.000000 0.000000
#
# Coordination Sequence:
#
# PCOD9388618 Si02
#       5
#     8   8   8   8   4
#     4   8  14  25  40  58  83 116 150 182 220 266
#     4   8  15  29  48  69  93 119 146 180 223 270
#     4   9  18  34  56  77  94 120 162 201 231 274
#     4   9  16  25  41  67  92 112 141 183 225 262
#     4  11  24  37  48  70 104 133 156 189 236 282
#
# _framework density 18.864677
#
# number of rings (size 3 to 8) (size 9 to 14) (size 15 to 20)
#    0.000    3.222    0.000    2.667    0.000    4.000 
#    0.000    5.556    0.000    5.333    0.000    4.667 
#    0.000    0.000    0.000    0.000    0.000    0.000 
#
# Total GULP energy -200474.829532 kJ/mol
# GULP energy per Si atom -5568.745265 kJ/mol
# Density = 1.882174 g / cm^3
# Si number density = 18.864677 Si / 1000 Ang^3
#
#
#
# Elastic Constant Matrix: (Units=GPa)
#
#
# Indices 1 2 3 4 5 6 
#
# 1 86.7663 111.8978 8.1645 0.0000 0.0000 0.0000
# 2 111.8978 218.2340 12.3160 0.0000 0.0000 0.0000
# 3 8.1645 12.3160 12.2319 0.0000 0.0000 0.0000
# 4 0.0000 0.0000 0.0000 76.2830 0.0000 0.0000
# 5 0.0000 0.0000 0.0000 0.0000 3.6759 0.0000
# 6 0.0000 0.0000 0.0000 0.0000 0.0000 87.5728
#
#
#
# Elastic Compliance Matrix: (Units=1/GPa)
#
#
# Indices 1 2 3 4 5 6 
#
# 1 0.034370 -0.017312 -0.005510 0.000000 0.000000 0.000000
# 2 -0.017312 0.013578 -0.002116 0.000000 0.000000 0.000000
# 3 -0.005510 -0.002116 0.087562 0.000000 0.000000 0.000000
# 4 0.000000 0.000000 0.000000 0.013109 0.000000 0.000000
# 5 0.000000 0.000000 0.000000 0.000000 0.272044 0.000000
# 6 0.000000 0.000000 0.000000 0.000000 0.000000 0.011419
#
#
# Mechanical properties :
#
#
# Convention : Reuss Voigt Hill
#
# Bulk Modulus (GPa) = 11.67761 64.66539 38.17150
# Shear Modulus (GPa) = 9.79423 45.82992 27.81208
#
# Velocity S-wave (km/s) = 2.28103 4.93425 3.84382
# Velocity P-wave (km/s) = 3.62507 8.17407 6.32283
#
# Compressibility (1/GPa) = 0.08563395
#
# Stress axis : x y z
#
# Youngs Moduli (GPa) = 29.09513 73.64712 11.42042
#
# Poissons Ratio (x) = 1.27498 0.06293
# Poissons Ratio (y) = 0.50369 0.02417
# Poissons Ratio (z) = 0.16032 0.15586
#
# Static dielectric constant tensor:
#      x y z
#    x 1.648690 0.000000 0.000000 
#    y 0.000000 1.683480 0.000000 
#    z 0.000000 0.000000 1.676800 
# 
# From -- ./inp_files/1406.got.cif
#   From: 2010.05.17/outbox.cif.g08.bks.cpg/sg47_1_cif.got.tgz:1406.got - 2010.06.03 20:15:42.
