data_PCOD9388033
_publ_section_title
;
Structure prediction by ZEFSAII (Michael W. Deem and Ramdas Pophale) SiO2 
 PCOD9388033
Probable space group: P M M M
;
_chemical_formula_sum "Si O2"
_cell_formula_units_Z 37
_cell_length_a 7.796071
_cell_length_b 10.350018
_cell_length_c 23.088990
_cell_angle_alpha 90.000000
_cell_angle_beta 90.000000
_cell_angle_gamma 90.000000
_cell_volume 1863.038486
_symmetry_space_group_name_H-M "P M M M"
_symmetry_group_IT_number 47
_symmetry_cell_setting 'orthorhombic'
loop_
_space_group_symop_operation_xyz
x,y,z
-x,-y,z
x,-y,-z
-x,y,-z
-x,-y,-z
x,y,-z
-x,y,z
x,-y,z
loop_
_atom_site_type_symbol
_atom_site_label
_atom_site_fract_x
_atom_site_fract_y
_atom_site_fract_z
Si Si1 0.799239 0.645784 0.387471
Si Si2 0.209500 0.647644 0.065884
Si Si3 0.207542 0.146241 0.840018
Si Si4 0.000000 0.000000 0.500000
Si Si5 0.311264 0.790073 0.500000
Si Si6 0.703511 0.146249 0.293159
O O1 0.742929 0.500000 0.372736
O O2 0.703997 0.702394 0.442907
O O3 0.778505 0.745343 0.334677
O O4 0.000000 0.641135 0.402395
O O5 0.261892 0.500000 0.078369
O O6 0.269464 0.749429 0.113536
O O7 0.000000 0.649112 0.066495
O O8 0.261638 0.679708 0.000000
O O9 0.261390 0.174401 0.774244
O O10 0.000000 0.147096 0.841307
O O11 0.264715 0.000000 0.853858
O O12 0.847442 0.111598 0.500000
O O13 0.500000 0.851830 0.500000
O O14 0.500000 0.144274 0.302412
O O15 0.769930 0.000000 0.305351
#
# Coordination Sequence:
#
# PCOD9388033 Si02
#       6
#     8   8   8   1   4   8
#     4  11  24  43  65  91 125 162 200 248 307 365
#     4   8  14  25  43  69 100 132 170 220 277 339
#     4   9  17  30  48  73 103 137 176 225 284 340
#     4  12  26  48  66 102 136 168 208 264 302 370
#     4  12  26  44  70  99 130 169 211 256 309 365
#     4  10  22  38  57  82 113 151 196 244 293 351
#
# _framework density 19.860030999999999
#
# number of rings (size 3 to 8) (size 9 to 14) (size 15 to 20)
#    0.000    2.162    1.081    2.432    1.514    5.622 
#    0.000    4.324    0.000    0.649    0.000    4.541 
#    0.000    0.000    0.000    0.000    0.000    0.000 
#
# Total GULP energy -206326.333497 kJ/mol
# GULP energy per Si atom -5576.387392 kJ/mol
# Density = 1.981483 g / cm^3
# Si number density = 19.860031 Si / 1000 Ang^3
#
#
#
# Elastic Constant Matrix: (Units=GPa)
#
#
# Indices 1 2 3 4 5 6 
#
# 1 77.6705 31.1130 14.7649 0.0000 0.0000 0.0000
# 2 31.1130 165.5384 112.6384 0.0000 0.0000 0.0000
# 3 14.7649 112.6384 117.2235 0.0000 0.0000 0.0000
# 4 0.0000 0.0000 0.0000 -393.1201 0.0000 0.0000
# 5 0.0000 0.0000 0.0000 0.0000 80.2000 0.0000
# 6 0.0000 0.0000 0.0000 0.0000 0.0000 1.9297
#
#
#
# Elastic Compliance Matrix: (Units=1/GPa)
#
#
# Indices 1 2 3 4 5 6 
#
# 1 0.014122 -0.004171 0.002229 0.000000 0.000000 0.000000
# 2 -0.004171 0.018682 -0.017426 0.000000 0.000000 0.000000
# 3 0.002229 -0.017426 0.024994 0.000000 0.000000 0.000000
# 4 0.000000 0.000000 0.000000 -0.002544 0.000000 0.000000
# 5 0.000000 0.000000 0.000000 0.000000 0.012469 0.000000
# 6 0.000000 0.000000 0.000000 0.000000 0.000000 0.518208
#
#
# Mechanical properties :
#
#
# Convention : Reuss Voigt Hill
#
# Bulk Modulus (GPa) = 52.45860 75.27388 63.86624
# Shear Modulus (GPa) = 7.92366 -48.73702 -20.40668
#
# Velocity S-wave (km/s) = 1.99960 -4.95919 -3.20898
# Velocity P-wave (km/s) = 5.63939 2.27884 4.30092
#
# Compressibility (1/GPa) = 0.01906265
#
# Stress axis : x y z
#
# Youngs Moduli (GPa) = 70.81166 53.52685 40.00886
#
# Poissons Ratio (x) = 0.22326 -0.08919
# Poissons Ratio (y) = 0.29536 0.69720
# Poissons Ratio (z) = -0.15785 0.93277
#
# Static dielectric constant tensor:
#      x y z
#    x 1.722230 0.000000 0.000000 
#    y 0.000000 1.693460 0.000000 
#    z 0.000000 0.000000 1.658620 
# 
# From -- ./inp_files/31701.got.cif
#   From: 2010.05.17/outbox.cif.g08.bks.cpg/sg47_16_cif.got.tgz:31701.got - 2010.06.03 20:15:42.
