data_PCOD9388123
_publ_section_title
;
Structure prediction by ZEFSAII (Michael W. Deem and Ramdas Pophale) SiO2 
 PCOD9388123
Probable space group: P M M M
;
_chemical_formula_sum "Si O2"
_cell_formula_units_Z 56
_cell_length_a 14.338382
_cell_length_b 8.551038
_cell_length_c 20.655243
_cell_angle_alpha 90.000000
_cell_angle_beta 90.000000
_cell_angle_gamma 90.000000
_cell_volume 2532.499053
_symmetry_space_group_name_H-M "P M M M"
_symmetry_group_IT_number 47
_symmetry_cell_setting 'orthorhombic'
loop_
_space_group_symop_operation_xyz
x,y,z
-x,-y,z
x,-y,-z
-x,y,-z
-x,-y,-z
x,y,-z
-x,y,z
x,-y,z
loop_
_atom_site_type_symbol
_atom_site_label
_atom_site_fract_x
_atom_site_fract_y
_atom_site_fract_z
Si Si1 0.137706 0.323634 0.286452
Si Si2 0.102639 0.813064 0.850662
Si Si3 0.888206 0.820057 0.570759
Si Si4 0.389114 0.318864 0.424538
Si Si5 0.291165 0.184585 0.075387
Si Si6 0.683649 0.824108 0.304143
Si Si7 0.500000 0.319975 0.749225
Si Si8 0.500000 0.676155 0.902569
O O1 0.105034 0.500000 0.281946
O O2 0.100741 0.225040 0.226111
O O3 0.126320 0.263089 0.360146
O O4 0.247737 0.306048 0.277634
O O5 0.201372 0.754653 0.882339
O O6 0.000000 0.757187 0.876341
O O7 0.104203 0.000000 0.859500
O O8 0.854677 0.755353 0.500000
O O9 0.000000 0.823388 0.565783
O O10 0.856031 0.000000 0.575684
O O11 0.374401 0.292912 0.500000
O O12 0.500000 0.300184 0.412357
O O13 0.364968 0.500000 0.409763
O O14 0.331113 0.203260 0.380406
O O15 0.397837 0.249629 0.081365
O O16 0.299402 0.000000 0.090703
O O17 0.264636 0.203007 0.000000
O O18 0.586617 0.781141 0.273320
O O19 0.714940 0.000000 0.289745
O O20 0.500000 0.500000 0.723496
O O21 0.500000 0.329731 0.825474
O O22 0.500000 0.500000 0.928338
#
# Coordination Sequence:
#
# PCOD9388123 Si02
#       8
#     8   8   8   8   8   8   4   4
#     4  12  25  39  58  86 122 163 206 257 314 376
#     4  10  22  42  68  97 131 171 216 269 327 390
#     4   9  19  38  63  88 115 149 191 243 304 368
#     4   9  18  34  55  76 104 145 191 245 312 383
#     4  10  22  41  67 100 136 174 216 263 318 382
#     4  12  24  37  56  82 111 149 199 254 311 373
#     4  11  23  40  59  82 116 154 197 249 304 364
#     4  11  24  40  63  95 131 174 217 260 313 372
#
# _framework density 22.112545000000001
#
# number of rings (size 3 to 8) (size 9 to 14) (size 15 to 20)
#    0.000    1.571    0.714    5.357    0.000    8.857 
#    0.000    2.857    0.000    0.000    0.000    2.000 
#    0.000    0.000    0.000    0.000    0.000    0.000 
#
# Total GULP energy -312227.303101 kJ/mol
# GULP energy per Si atom -5575.487555 kJ/mol
# Density = 2.206222 g / cm^3
# Si number density = 22.112545 Si / 1000 Ang^3
#
#
#
# Elastic Constant Matrix: (Units=GPa)
#
#
# Indices 1 2 3 4 5 6 
#
# 1 158.8551 25.9055 43.8204 0.0000 0.0000 0.0000
# 2 25.9055 55.6832 18.8156 0.0000 0.0000 0.0000
# 3 43.8204 18.8156 90.3868 0.0000 0.0000 0.0000
# 4 0.0000 0.0000 0.0000 7.4859 0.0000 0.0000
# 5 0.0000 0.0000 0.0000 0.0000 34.2641 0.0000
# 6 0.0000 0.0000 0.0000 0.0000 0.0000 -57.6222
#
#
#
# Elastic Compliance Matrix: (Units=1/GPa)
#
#
# Indices 1 2 3 4 5 6 
#
# 1 0.007566 -0.002453 -0.003157 0.000000 0.000000 0.000000
# 2 -0.002453 0.020113 -0.002998 0.000000 0.000000 0.000000
# 3 -0.003157 -0.002998 0.013218 0.000000 0.000000 0.000000
# 4 0.000000 0.000000 0.000000 0.133584 0.000000 0.000000
# 5 0.000000 0.000000 0.000000 0.000000 0.029185 0.000000
# 6 0.000000 0.000000 0.000000 0.000000 0.000000 -0.017354
#
#
# Mechanical properties :
#
#
# Convention : Reuss Voigt Hill
#
# Bulk Modulus (GPa) = 42.22779 53.55644 47.89212
# Shear Modulus (GPa) = 23.64945 11.25114 17.45030
#
# Velocity S-wave (km/s) = 3.27387 2.25813 2.81224
# Velocity P-wave (km/s) = 5.78180 5.57417 5.67894
#
# Compressibility (1/GPa) = 0.02368109
#
# Stress axis : x y z
#
# Youngs Moduli (GPa) = 132.16906 49.71944 75.65253
#
# Poissons Ratio (x) = 0.12196 0.23887
# Poissons Ratio (y) = 0.32422 0.22677
# Poissons Ratio (z) = 0.41732 0.14904
#
# Static dielectric constant tensor:
#      x y z
#    x 1.679490 0.000000 0.000000 
#    y 0.000000 1.794940 0.000000 
#    z 0.000000 0.000000 1.850410 
# 
# From -- ./inp_files/31034.got.cif
#   From: 2010.05.17/outbox.cif.g08.bks.cpg/sg47_16_cif.got.tgz:31034.got - 2010.06.03 20:15:42.
