data_PCOD9388075
_publ_section_title
;
Structure prediction by ZEFSAII (Michael W. Deem and Ramdas Pophale) SiO2 
 PCOD9388075
Probable space group: P M M M
;
_chemical_formula_sum "Si O2"
_cell_formula_units_Z 48
_cell_length_a 10.100068
_cell_length_b 30.254264
_cell_length_c 9.236367
_cell_angle_alpha 90.000000
_cell_angle_beta 90.000000
_cell_angle_gamma 90.000000
_cell_volume 2822.357807
_symmetry_space_group_name_H-M "P M M M"
_symmetry_group_IT_number 47
_symmetry_cell_setting 'orthorhombic'
loop_
_space_group_symop_operation_xyz
x,y,z
-x,-y,z
x,-y,-z
-x,y,-z
-x,-y,-z
x,y,-z
-x,y,z
x,-y,z
loop_
_atom_site_type_symbol
_atom_site_label
_atom_site_fract_x
_atom_site_fract_y
_atom_site_fract_z
Si Si1 0.746545 0.594774 0.172888
Si Si2 0.160836 0.048338 0.830481
Si Si3 0.155173 0.765703 0.324562
Si Si4 0.500000 0.447351 0.666503
Si Si5 0.160983 0.135225 0.333684
Si Si6 0.000000 0.447047 0.326139
Si Si7 0.344069 0.304650 0.827429
O O1 0.625529 0.569231 0.245267
O O2 0.874848 0.576432 0.253256
O O3 0.717260 0.646678 0.196258
O O4 0.754296 0.587302 0.000000
O O5 0.209235 0.092380 0.751943
O O6 0.000000 0.048665 0.820422
O O7 0.204205 0.000000 0.773670
O O8 0.193542 0.050506 0.000000
O O9 0.161044 0.764424 0.500000
O O10 0.194016 0.815716 0.278381
O O11 0.254672 0.730666 0.256207
O O12 0.000000 0.757872 0.284940
O O13 0.500000 0.500000 0.660765
O O14 0.500000 0.430782 0.500000
O O15 0.203762 0.131820 0.500000
O O16 0.000000 0.134205 0.332931
O O17 0.000000 0.500000 0.297928
O O18 0.000000 0.441267 0.500000
O O19 0.500000 0.304323 0.785209
O O20 0.338555 0.295992 0.000000
#
# Coordination Sequence:
#
# PCOD9388075 Si02
#       7
#     8   8   8   4   8   4   8
#     4  11  23  41  62  85 114 148 184 222 266 319
#     4   8  13  20  31  51  82 120 162 205 247 296
#     4   9  19  34  52  77 105 135 174 218 263 314
#     4  11  23  39  61  89 117 145 181 223 266 315
#     4   8  14  25  39  58  89 124 161 206 251 300
#     4  11  25  43  61  87 121 149 179 223 268 313
#     4  10  22  40  57  78 108 138 173 219 264 309
#
# _framework density 17.007057
#
# number of rings (size 3 to 8) (size 9 to 14) (size 15 to 20)
#    0.000    2.500    0.833    3.000    1.167    6.333 
#    0.000    3.333    0.000    0.000    0.000    0.000 
#    0.000    0.667    0.000    7.333    0.000   12.000 
#
# Total GULP energy -267478.408216 kJ/mol
# GULP energy per Si atom -5572.466838 kJ/mol
# Density = 1.696835 g / cm^3
# Si number density = 17.007057 Si / 1000 Ang^3
#
#
#
# Elastic Constant Matrix: (Units=GPa)
#
#
# Indices 1 2 3 4 5 6 
#
# 1 111.2813 73.9739 52.7435 0.0000 0.0000 0.0000
# 2 73.9739 157.5738 83.2745 0.0000 0.0000 0.0000
# 3 52.7435 83.2745 73.8108 0.0000 0.0000 0.0000
# 4 0.0000 0.0000 0.0000 37.4760 0.0000 0.0000
# 5 0.0000 0.0000 0.0000 0.0000 21.4056 0.0000
# 6 0.0000 0.0000 0.0000 0.0000 0.0000 14.6316
#
#
#
# Elastic Compliance Matrix: (Units=1/GPa)
#
#
# Indices 1 2 3 4 5 6 
#
# 1 0.014224 -0.003235 -0.006515 0.000000 0.000000 0.000000
# 2 -0.003235 0.016453 -0.016251 0.000000 0.000000 0.000000
# 3 -0.006515 -0.016251 0.036539 0.000000 0.000000 0.000000
# 4 0.000000 0.000000 0.000000 0.026684 0.000000 0.000000
# 5 0.000000 0.000000 0.000000 0.000000 0.046717 0.000000
# 6 0.000000 0.000000 0.000000 0.000000 0.000000 0.068345
#
#
# Mechanical properties :
#
#
# Convention : Reuss Voigt Hill
#
# Bulk Modulus (GPa) = 65.72814 84.73885 75.23349
# Shear Modulus (GPa) = 18.79447 23.54759 21.17103
#
# Velocity S-wave (km/s) = 3.32791 3.72503 3.53205
# Velocity P-wave (km/s) = 7.31424 8.27254 7.80811
#
# Compressibility (1/GPa) = 0.01521418
#
# Stress axis : x y z
#
# Youngs Moduli (GPa) = 70.30201 60.77792 27.36819
#
# Poissons Ratio (x) = 0.19660 0.17830
# Poissons Ratio (y) = 0.22740 0.44477
# Poissons Ratio (z) = 0.45802 0.98773
#
# Static dielectric constant tensor:
#      x y z
#    x 1.507560 0.000000 0.000000 
#    y 0.000000 1.590100 0.000000 
#    z 0.000000 0.000000 1.568900 
# 
# From -- ./inp_files/2760.got.cif
#   From: 2010.05.17/outbox.cif.g08.bks.cpg/sg47_2_cif.got.tgz:2760.got - 2010.06.03 20:15:42.
