data_PCOD9388177
_publ_section_title
;
Structure prediction by ZEFSAII (Michael W. Deem and Ramdas Pophale) SiO2 
 PCOD9388177
Probable space group: P M M M
;
_chemical_formula_sum "Si O2"
_cell_formula_units_Z 32
_cell_length_a 17.777557
_cell_length_b 8.124933
_cell_length_c 13.297305
_cell_angle_alpha 90.000000
_cell_angle_beta 90.000000
_cell_angle_gamma 90.000000
_cell_volume 1920.682142
_symmetry_space_group_name_H-M "P M M M"
_symmetry_group_IT_number 47
_symmetry_cell_setting 'orthorhombic'
loop_
_space_group_symop_operation_xyz
x,y,z
-x,-y,z
x,-y,-z
-x,y,-z
-x,-y,-z
x,y,-z
-x,y,z
x,-y,z
loop_
_atom_site_type_symbol
_atom_site_label
_atom_site_fract_x
_atom_site_fract_y
_atom_site_fract_z
Si Si1 0.413258 0.299114 0.613352
Si Si2 0.163297 0.801103 0.115887
Si Si3 0.000000 0.808652 0.877593
Si Si4 0.320506 0.303470 0.804132
Si Si5 0.413900 0.802995 0.000000
O O1 0.392760 0.246901 0.500000
O O2 0.500000 0.250878 0.632545
O O3 0.411992 0.500000 0.613859
O O4 0.359455 0.240102 0.702197
O O5 0.235091 0.752942 0.180219
O O6 0.081333 0.737625 0.151439
O O7 0.158874 0.000000 0.113125
O O8 0.175505 0.745789 0.000000
O O9 0.000000 0.000000 0.845321
O O10 0.000000 0.808370 0.000000
O O11 0.320928 0.500000 0.800427
O O12 0.369320 0.251500 0.900769
O O13 0.500000 0.740613 0.000000
O O14 0.415723 0.000000 0.000000
#
# Coordination Sequence:
#
# PCOD9388177 Si02
#       5
#     8   8   4   8   4
#     4   8  15  29  47  65  86 115 152 191 228 265
#     4   9  16  28  45  64  91 124 154 182 217 265
#     4   7  12  24  43  63  82 117 161 185 206 255
#     4  11  20  29  46  71  95 117 147 188 230 270
#     4  11  23  35  45  60  89 128 159 181 216 269
#
# _framework density 16.660748999999999
#
# number of rings (size 3 to 8) (size 9 to 14) (size 15 to 20)
#    0.000    2.750    1.250    4.125    0.000    2.000 
#    0.000    0.625    0.000    5.250    0.000    9.625 
#    0.000    7.000    0.000    0.000    0.000    0.000 
#
# Total GULP energy -178289.205431 kJ/mol
# GULP energy per Si atom -5571.537670 kJ/mol
# Density = 1.662283 g / cm^3
# Si number density = 16.660749 Si / 1000 Ang^3
#
#
#
# Elastic Constant Matrix: (Units=GPa)
#
#
# Indices 1 2 3 4 5 6 
#
# 1 182.2578 14.1570 94.5543 0.0000 0.0000 0.0000
# 2 14.1570 15.2940 8.1557 0.0000 0.0000 0.0000
# 3 94.5543 8.1557 115.6495 0.0000 0.0000 0.0000
# 4 0.0000 0.0000 0.0000 -14.0090 0.0000 0.0000
# 5 0.0000 0.0000 0.0000 0.0000 23.5028 0.0000
# 6 0.0000 0.0000 0.0000 0.0000 0.0000 2.2132
#
#
#
# Elastic Compliance Matrix: (Units=1/GPa)
#
#
# Indices 1 2 3 4 5 6 
#
# 1 0.009887 -0.005031 -0.007729 0.000000 0.000000 0.000000
# 2 -0.005031 0.070500 -0.000859 0.000000 0.000000 0.000000
# 3 -0.007729 -0.000859 0.015027 0.000000 0.000000 0.000000
# 4 0.000000 0.000000 0.000000 -0.071383 0.000000 0.000000
# 5 0.000000 0.000000 0.000000 0.000000 0.042548 0.000000
# 6 0.000000 0.000000 0.000000 0.000000 0.000000 0.451830
#
#
# Mechanical properties :
#
#
# Convention : Reuss Voigt Hill
#
# Bulk Modulus (GPa) = 14.66772 60.77059 37.71915
# Shear Modulus (GPa) = 8.79706 15.43035 12.11371
#
# Velocity S-wave (km/s) = 2.30034 3.04657 2.69937
# Velocity P-wave (km/s) = 3.98476 6.99500 5.69246
#
# Compressibility (1/GPa) = 0.06817694
#
# Stress axis : x y z
#
# Youngs Moduli (GPa) = 101.14036 14.18445 66.54887
#
# Poissons Ratio (x) = 0.07136 0.51436
# Poissons Ratio (y) = 0.50880 0.05714
# Poissons Ratio (z) = 0.78171 0.01218
#
# Static dielectric constant tensor:
#      x y z
#    x 1.595090 0.000000 0.000000 
#    y 0.000000 1.596250 0.000000 
#    z 0.000000 0.000000 1.544010 
# 
# From -- ./inp_files/3574.got.cif
#   From: 2010.05.17/outbox.cif.g08.bks.cpg/sg47_2_cif.got.tgz:3574.got - 2010.06.03 20:15:42.
