data_PCOD9388643
_publ_section_title
;
Structure prediction by ZEFSAII (Michael W. Deem and Ramdas Pophale) SiO2 
 PCOD9388643
Probable space group: P M M M
;
_chemical_formula_sum "Si O2"
_cell_formula_units_Z 48
_cell_length_a 15.722998
_cell_length_b 17.549733
_cell_length_c 8.923717
_cell_angle_alpha 90.000000
_cell_angle_beta 90.000000
_cell_angle_gamma 90.000000
_cell_volume 2462.360647
_symmetry_space_group_name_H-M "P M M M"
_symmetry_group_IT_number 47
_symmetry_cell_setting 'orthorhombic'
loop_
_space_group_symop_operation_xyz
x,y,z
-x,-y,z
x,-y,-z
-x,y,-z
-x,-y,-z
x,y,-z
-x,y,z
x,-y,z
loop_
_atom_site_type_symbol
_atom_site_label
_atom_site_fract_x
_atom_site_fract_y
_atom_site_fract_z
Si Si1 0.000000 0.912743 0.182705
Si Si2 0.500000 0.909968 0.820247
Si Si3 0.405220 0.591326 0.172194
Si Si4 0.901807 0.411224 0.180633
Si Si5 0.181546 0.909264 0.829845
Si Si6 0.744969 0.325208 0.322456
Si Si7 0.333118 0.163047 0.677015
O O1 0.090376 0.876382 0.222648
O O2 0.000000 0.000000 0.240217
O O3 0.000000 0.915948 0.000000
O O4 0.582867 0.866369 0.759288
O O5 0.500000 0.000000 0.774287
O O6 0.500000 0.908520 0.000000
O O7 0.500000 0.618862 0.215644
O O8 0.407513 0.500000 0.170681
O O9 0.330594 0.617642 0.278763
O O10 0.388813 0.616213 0.000000
O O11 0.883940 0.500000 0.223166
O O12 0.831556 0.354833 0.247288
O O13 0.000000 0.394395 0.223700
O O14 0.897268 0.407736 0.000000
O O15 0.257263 0.893821 0.718089
O O16 0.169741 0.000000 0.841106
O O17 0.200977 0.882095 0.000000
O O18 0.758080 0.321811 0.500000
O O19 0.706512 0.243888 0.272191
O O20 0.349975 0.166873 0.500000
#
# Coordination Sequence:
#
# PCOD9388643 Si02
#       7
#     4   4   8   8   8   8   8
#     4   7  12  26  51  81 109 135 168 221 278 319
#     4  11  25  45  69  93 112 141 196 255 299 350
#     4   9  19  36  58  84 112 145 188 236 284 335
#     4   9  19  38  64  91 118 153 202 255 299 343
#     4   9  17  33  58  85 111 142 187 237 280 332
#     4  11  24  38  54  82 121 159 194 234 285 347
#     4  11  25  41  56  82 120 158 189 230 291 351
#
# _framework density 19.493490000000001
#
# number of rings (size 3 to 8) (size 9 to 14) (size 15 to 20)
#    0.000    2.333    0.000    4.250    1.167    9.000 
#    1.500    2.083    0.000    1.500    0.000    0.000 
#    0.000    0.000    0.000    0.000    0.000    0.000 
#
# Total GULP energy -267618.667888 kJ/mol
# GULP energy per Si atom -5575.388914 kJ/mol
# Density = 1.944912 g / cm^3
# Si number density = 19.493490 Si / 1000 Ang^3
#
#
#
# Elastic Constant Matrix: (Units=GPa)
#
#
# Indices 1 2 3 4 5 6 
#
# 1 163.4595 62.1460 40.6697 0.0000 0.0000 0.0000
# 2 62.1460 72.4773 33.0575 0.0000 0.0000 0.0000
# 3 40.6697 33.0575 30.1136 0.0000 0.0000 0.0000
# 4 0.0000 0.0000 0.0000 26.9528 0.0000 0.0000
# 5 0.0000 0.0000 0.0000 0.0000 171.7754 0.0000
# 6 0.0000 0.0000 0.0000 0.0000 0.0000 23.3729
#
#
#
# Elastic Compliance Matrix: (Units=1/GPa)
#
#
# Indices 1 2 3 4 5 6 
#
# 1 0.009993 -0.004833 -0.008191 0.000000 0.000000 0.000000
# 2 -0.004833 0.029970 -0.026374 0.000000 0.000000 0.000000
# 3 -0.008191 -0.026374 0.073222 0.000000 0.000000 0.000000
# 4 0.000000 0.000000 0.000000 0.037102 0.000000 0.000000
# 5 0.000000 0.000000 0.000000 0.000000 0.005822 0.000000
# 6 0.000000 0.000000 0.000000 0.000000 0.000000 0.042785
#
#
# Mechanical properties :
#
#
# Convention : Reuss Voigt Hill
#
# Bulk Modulus (GPa) = 29.07756 59.75520 44.41638
# Shear Modulus (GPa) = 17.29195 53.09870 35.19533
#
# Velocity S-wave (km/s) = 2.98159 5.22478 4.25372
# Velocity P-wave (km/s) = 5.17708 8.19257 6.85275
#
# Compressibility (1/GPa) = 0.03439078
#
# Stress axis : x y z
#
# Youngs Moduli (GPa) = 100.07020 33.36620 13.65709
#
# Poissons Ratio (x) = 0.16124 0.11186
# Poissons Ratio (y) = 0.48359 0.36019
# Poissons Ratio (z) = 0.81967 0.87999
#
# Static dielectric constant tensor:
#      x y z
#    x 1.709550 0.000000 0.000000 
#    y 0.000000 1.654060 0.000000 
#    z 0.000000 0.000000 1.666000 
# 
# From -- ./inp_files/6431.got.cif
#   From: 2010.05.17/outbox.cif.g08.bks.cpg/sg47_4_cif.got.tgz:6431.got - 2010.06.03 20:15:42.
