data_PCOD9388445
_publ_section_title
;
Structure prediction by ZEFSAII (Michael W. Deem and Ramdas Pophale) SiO2 
 PCOD9388445
Probable space group: P M M M
;
_chemical_formula_sum "Si O2"
_cell_formula_units_Z 44
_cell_length_a 17.118528
_cell_length_b 8.862430
_cell_length_c 15.123786
_cell_angle_alpha 90.000000
_cell_angle_beta 90.000000
_cell_angle_gamma 90.000000
_cell_volume 2294.456133
_symmetry_space_group_name_H-M "P M M M"
_symmetry_group_IT_number 47
_symmetry_cell_setting 'orthorhombic'
loop_
_space_group_symop_operation_xyz
x,y,z
-x,-y,z
x,-y,-z
-x,y,-z
-x,-y,-z
x,y,-z
-x,y,z
x,-y,z
loop_
_atom_site_type_symbol
_atom_site_label
_atom_site_fract_x
_atom_site_fract_y
_atom_site_fract_z
Si Si1 0.303641 0.176816 0.739143
Si Si2 0.588958 0.183679 0.898243
Si Si3 0.861445 0.322199 0.720122
Si Si4 0.593426 0.328662 0.397791
Si Si5 0.094126 0.826256 0.901452
Si Si6 0.000000 0.181145 0.395857
O O1 0.344288 0.232906 0.830092
O O2 0.226213 0.262727 0.709165
O O3 0.367689 0.206998 0.664434
O O4 0.285917 0.000000 0.748605
O O5 0.500000 0.231118 0.873500
O O6 0.588826 0.000000 0.895996
O O7 0.602991 0.228772 0.000000
O O8 0.866710 0.500000 0.707101
O O9 0.881065 0.277699 0.821252
O O10 0.923975 0.243145 0.655567
O O11 0.616286 0.309155 0.500000
O O12 0.500000 0.319534 0.393115
O O13 0.615841 0.500000 0.370589
O O14 0.000000 0.827970 0.902753
O O15 0.119844 0.000000 0.885743
O O16 0.121007 0.781560 0.000000
O O17 0.000000 0.223064 0.500000
O O18 0.000000 0.000000 0.389731
#
# Coordination Sequence:
#
# PCOD9388445 Si02
#       6
#     8   8   8   8   8   4
#     4  11  22  35  56  86 118 154 197 245 291 341
#     4   8  15  30  53  82 116 154 197 242 286 333
#     4  12  25  40  60  88 122 157 193 240 296 357
#     4   9  19  37  59  82 112 150 188 232 294 361
#     4   9  18  35  61  88 115 150 190 234 283 335
#     4  11  25  47  72  91 110 143 191 246 302 363
#
# _framework density 19.176659000000001
#
# number of rings (size 3 to 8) (size 9 to 14) (size 15 to 20)
#    0.000    2.091    0.909    4.636    0.000    4.000 
#    0.000    3.636    0.000    1.636    0.000    6.364 
#    0.000    0.000    0.000    0.000    0.000    0.000 
#
# Total GULP energy -245554.194477 kJ/mol
# GULP energy per Si atom -5580.777147 kJ/mol
# Density = 1.913301 g / cm^3
# Si number density = 19.176659 Si / 1000 Ang^3
#
#
#
# Elastic Constant Matrix: (Units=GPa)
#
#
# Indices 1 2 3 4 5 6 
#
# 1 76.6171 27.6830 49.2679 0.0000 0.0000 0.0000
# 2 27.6830 58.5065 38.9119 0.0000 0.0000 0.0000
# 3 49.2679 38.9119 95.3152 0.0000 0.0000 0.0000
# 4 0.0000 0.0000 0.0000 9.7250 0.0000 0.0000
# 5 0.0000 0.0000 0.0000 0.0000 -28.1712 0.0000
# 6 0.0000 0.0000 0.0000 0.0000 0.0000 26.9540
#
#
#
# Elastic Compliance Matrix: (Units=1/GPa)
#
#
# Indices 1 2 3 4 5 6 
#
# 1 0.020078 -0.003566 -0.008922 0.000000 0.000000 0.000000
# 2 -0.003566 0.024096 -0.007994 0.000000 0.000000 0.000000
# 3 -0.008922 -0.007994 0.018367 0.000000 0.000000 0.000000
# 4 0.000000 0.000000 0.000000 0.102828 0.000000 0.000000
# 5 0.000000 0.000000 0.000000 0.000000 -0.035497 0.000000
# 6 0.000000 0.000000 0.000000 0.000000 0.000000 0.037100
#
#
# Mechanical properties :
#
#
# Convention : Reuss Voigt Hill
#
# Bulk Modulus (GPa) = 46.34688 51.35161 48.84925
# Shear Modulus (GPa) = 23.24203 9.33995 16.29099
#
# Velocity S-wave (km/s) = 3.48515 2.20931 2.91782
# Velocity P-wave (km/s) = 6.35735 5.77446 6.07290
#
# Compressibility (1/GPa) = 0.02157642
#
# Stress axis : x y z
#
# Youngs Moduli (GPa) = 49.80637 41.50071 54.44595
#
# Poissons Ratio (x) = 0.14799 0.48578
# Poissons Ratio (y) = 0.17760 0.43523
# Poissons Ratio (z) = 0.44439 0.33175
#
# Static dielectric constant tensor:
#      x y z
#    x 1.655860 0.000000 0.000000 
#    y 0.000000 1.655760 0.000000 
#    z 0.000000 0.000000 1.672980 
# 
# From -- ./inp_files/24306.got.cif
#   From: 2010.05.17/outbox.cif.g08.bks.cpg/sg47_13_cif.got.tgz:24306.got - 2010.06.03 20:15:42.
