data_PCOD9388717
_publ_section_title
;
Structure prediction by ZEFSAII (Michael W. Deem and Ramdas Pophale) SiO2 
 PCOD9388717
Probable space group: P M M M
;
_chemical_formula_sum "Si O2"
_cell_formula_units_Z 29
_cell_length_a 7.427089
_cell_length_b 23.584090
_cell_length_c 7.314440
_cell_angle_alpha 90.000000
_cell_angle_beta 90.000000
_cell_angle_gamma 90.000000
_cell_volume 1281.205615
_symmetry_space_group_name_H-M "P M M M"
_symmetry_group_IT_number 47
_symmetry_cell_setting 'orthorhombic'
loop_
_space_group_symop_operation_xyz
x,y,z
-x,-y,z
x,-y,-z
-x,y,-z
-x,-y,-z
x,y,-z
-x,y,z
x,-y,z
loop_
_atom_site_type_symbol
_atom_site_label
_atom_site_fract_x
_atom_site_fract_y
_atom_site_fract_z
Si Si1 0.697739 0.598121 0.500000
Si Si2 0.000000 0.500000 0.500000
Si Si3 0.786562 0.183142 0.221873
Si Si4 0.216968 0.938920 0.780060
Si Si5 0.218391 0.306592 0.212129
O O1 0.500000 0.572978 0.500000
O O2 0.718711 0.640631 0.328853
O O3 0.845187 0.549883 0.500000
O O4 0.713850 0.122212 0.285573
O O5 0.717353 0.244616 0.280721
O O6 0.000000 0.182541 0.264403
O O7 0.771904 0.183599 0.000000
O O8 0.000000 0.938733 0.750867
O O9 0.284114 0.000000 0.711937
O O10 0.243765 0.939141 0.000000
O O11 0.000000 0.305466 0.221109
O O12 0.268960 0.312457 0.000000
#
# Coordination Sequence:
#
# PCOD9388717 Si02
#       5
#     4   1   8   8   8
#     4  12  25  43  69  96 124 160 197 238 289 347
#     4  12  26  52  70  94 132 158 196 236 282 350
#     4   7  10  17  34  62  96 140 189 234 287 343
#     4   7   8  10  19  43  85 133 179 229 283 337
#     4   9  17  34  60  88 122 161 201 248 298 349
#
# _framework density 22.634931000000002
#
# number of rings (size 3 to 8) (size 9 to 14) (size 15 to 20)
#    0.000    3.586    1.379    4.345    0.000    0.552 
#    0.000    1.379    0.000    1.655    0.000    0.966 
#    0.000    8.828    0.000   11.586    0.000    8.828 
#
# Total GULP energy -161455.319397 kJ/mol
# GULP energy per Si atom -5567.424807 kJ/mol
# Density = 2.258341 g / cm^3
# Si number density = 22.634931 Si / 1000 Ang^3
#
#
#
# Elastic Constant Matrix: (Units=GPa)
#
#
# Indices 1 2 3 4 5 6 
#
# 1 112.3050 65.1754 14.4634 0.0000 0.0000 0.0000
# 2 65.1754 267.3227 47.6775 0.0000 0.0000 0.0000
# 3 14.4634 47.6775 90.1243 0.0000 0.0000 0.0000
# 4 0.0000 0.0000 0.0000 -3.7238 0.0000 0.0000
# 5 0.0000 0.0000 0.0000 0.0000 2.9028 0.0000
# 6 0.0000 0.0000 0.0000 0.0000 0.0000 -67.7407
#
#
#
# Elastic Compliance Matrix: (Units=1/GPa)
#
#
# Indices 1 2 3 4 5 6 
#
# 1 0.010383 -0.002467 -0.000361 0.000000 0.000000 0.000000
# 2 -0.002467 0.004717 -0.002099 0.000000 0.000000 0.000000
# 3 -0.000361 -0.002099 0.012264 0.000000 0.000000 0.000000
# 4 0.000000 0.000000 0.000000 -0.268542 0.000000 0.000000
# 5 0.000000 0.000000 0.000000 0.000000 0.344499 0.000000
# 6 0.000000 0.000000 0.000000 0.000000 0.000000 -0.014762
#
#
# Mechanical properties :
#
#
# Convention : Reuss Voigt Hill
#
# Bulk Modulus (GPa) = 57.11445 80.48718 68.80081
# Shear Modulus (GPa) = 47.96172 9.11669 28.53920
#
# Velocity S-wave (km/s) = 4.60817 2.00909 3.55469
# Velocity P-wave (km/s) = 7.32129 6.40453 6.87820
#
# Compressibility (1/GPa) = 0.01750871
#
# Stress axis : x y z
#
# Youngs Moduli (GPa) = 96.31590 212.01404 81.53729
#
# Poissons Ratio (x) = 0.52302 0.02945
# Poissons Ratio (y) = 0.23760 0.17117
# Poissons Ratio (z) = 0.03479 0.44508
#
# Static dielectric constant tensor:
#      x y z
#    x 1.846980 0.000000 0.000000 
#    y 0.000000 1.836140 0.000000 
#    z 0.000000 0.000000 1.940440 
# 
# From -- ./inp_files/904.got.cif
#   From: 2010.05.17/outbox.cif.g08.bks.cpg/sg47_1_cif.got.tgz:904.got - 2010.06.03 20:15:42.
