data_PCOD9388841
_publ_section_title
;
Structure prediction by ZEFSAII (Michael W. Deem and Ramdas Pophale) SiO2 
 PCOD9388841
Probable space group: P M M M
;
_chemical_formula_sum "Si O2"
_cell_formula_units_Z 44
_cell_length_a 9.632594
_cell_length_b 29.810745
_cell_length_c 7.347912
_cell_angle_alpha 90.000000
_cell_angle_beta 90.000000
_cell_angle_gamma 90.000000
_cell_volume 2109.988226
_symmetry_space_group_name_H-M "P M M M"
_symmetry_group_IT_number 47
_symmetry_cell_setting 'orthorhombic'
loop_
_space_group_symop_operation_xyz
x,y,z
-x,-y,z
x,-y,-z
-x,y,-z
-x,-y,-z
x,y,-z
-x,y,z
x,-y,z
loop_
_atom_site_type_symbol
_atom_site_label
_atom_site_fract_x
_atom_site_fract_y
_atom_site_fract_z
Si Si1 0.159538 0.768277 0.722558
Si Si2 0.661499 0.853683 0.722105
Si Si3 0.840809 0.500000 0.222853
Si Si4 0.341957 0.315039 0.282971
Si Si5 0.333801 0.048218 0.718945
Si Si6 0.657914 0.583321 0.782928
O O1 0.159496 0.768227 0.500000
O O2 0.244027 0.812390 0.779938
O O3 0.240565 0.723733 0.783911
O O4 0.000000 0.768897 0.780499
O O5 0.661279 0.854105 0.500000
O O6 0.500000 0.847914 0.776168
O O7 0.714463 0.902889 0.782593
O O8 0.758505 0.455670 0.283543
O O9 0.000000 0.500000 0.281090
O O10 0.841325 0.500000 0.000000
O O11 0.350168 0.309351 0.500000
O O12 0.500000 0.310931 0.211814
O O13 0.293554 0.365881 0.250328
O O14 0.315751 0.047790 0.500000
O O15 0.500000 0.048361 0.751862
O O16 0.279374 0.000000 0.786907
O O17 0.500000 0.579219 0.711718
O O18 0.649813 0.577806 0.000000
#
# Coordination Sequence:
#
# PCOD9388841 Si02
#       6
#     8   8   4   8   8   8
#     4   9  16  24  34  49  70  96 125 158 195 233
#     4   8  12  18  29  43  59  83 117 155 192 231
#     4   9  17  29  46  67  88 110 136 163 190 226
#     4   9  17  29  44  61  81 105 133 164 197 233
#     4   7   9  13  22  37  55  75 105 148 192 228
#     4   9  17  30  48  67  85 106 133 164 196 229
#
# _framework density 20.853197999999999
#
# number of rings (size 3 to 8) (size 9 to 14) (size 15 to 20)
#    0.000    3.545    0.000    2.455    0.000    4.000 
#    0.000    0.455    0.000    3.273    0.000    3.818 
#    0.000    0.000    0.000    0.000    0.000    0.909 
#
# Total GULP energy -245306.103520 kJ/mol
# GULP energy per Si atom -5575.138716 kJ/mol
# Density = 2.080574 g / cm^3
# Si number density = 20.853198 Si / 1000 Ang^3
#
#
#
# Elastic Constant Matrix: (Units=GPa)
#
#
# Indices 1 2 3 4 5 6 
#
# 1 110.0436 135.9093 5.5316 0.0000 0.0000 0.0000
# 2 135.9093 272.1072 3.5709 0.0000 0.0000 0.0000
# 3 5.5316 3.5709 76.4442 0.0000 0.0000 0.0000
# 4 0.0000 0.0000 0.0000 18.5435 0.0000 0.0000
# 5 0.0000 0.0000 0.0000 0.0000 -12.3718 0.0000
# 6 0.0000 0.0000 0.0000 0.0000 0.0000 -122.5681
#
#
#
# Elastic Compliance Matrix: (Units=1/GPa)
#
#
# Indices 1 2 3 4 5 6 
#
# 1 0.023823 -0.011883 -0.001169 0.000000 0.000000 0.000000
# 2 -0.011883 0.009605 0.000411 0.000000 0.000000 0.000000
# 3 -0.001169 0.000411 0.013147 0.000000 0.000000 0.000000
# 4 0.000000 0.000000 0.000000 0.053927 0.000000 0.000000
# 5 0.000000 0.000000 0.000000 0.000000 -0.080829 0.000000
# 6 0.000000 0.000000 0.000000 0.000000 0.000000 -0.008159
#
#
# Mechanical properties :
#
#
# Convention : Reuss Voigt Hill
#
# Bulk Modulus (GPa) = 46.96449 83.17984 65.07217
# Shear Modulus (GPa) = 113.91379 -2.37373 55.77003
#
# Velocity S-wave (km/s) = 7.39899 -1.06807 5.17708
# Velocity P-wave (km/s) = 9.77568 6.20112 8.18589
#
# Compressibility (1/GPa) = 0.02129268
#
# Stress axis : x y z
#
# Youngs Moduli (GPa) = 41.97711 104.11280 76.06411
#
# Poissons Ratio (x) = 1.23720 0.08890
# Poissons Ratio (y) = 0.49883 -0.03128
# Poissons Ratio (z) = 0.04906 -0.04281
#
# Static dielectric constant tensor:
#      x y z
#    x 1.690240 0.000000 0.000000 
#    y 0.000000 1.755530 0.000000 
#    z 0.000000 0.000000 1.831330 
# 
# From -- ./inp_files/1998.got.cif
#   From: 2010.05.17/outbox.cif.g08.bks.cpg/sg47_1_cif.got.tgz:1998.got - 2010.06.03 20:15:42.
