data_PCOD9388514
_publ_section_title
;
Structure prediction by ZEFSAII (Michael W. Deem and Ramdas Pophale) SiO2 
 PCOD9388514
Probable space group: P M M M
;
_chemical_formula_sum "Si O2"
_cell_formula_units_Z 64
_cell_length_a 7.804298
_cell_length_b 24.510233
_cell_length_c 20.004318
_cell_angle_alpha 90.000000
_cell_angle_beta 90.000000
_cell_angle_gamma 90.000000
_cell_volume 3826.529217
_symmetry_space_group_name_H-M "P M M M"
_symmetry_group_IT_number 47
_symmetry_cell_setting 'orthorhombic'
loop_
_space_group_symop_operation_xyz
x,y,z
-x,-y,z
x,-y,-z
-x,y,-z
-x,-y,-z
x,y,-z
-x,y,z
x,-y,z
loop_
_atom_site_type_symbol
_atom_site_label
_atom_site_fract_x
_atom_site_fract_y
_atom_site_fract_z
Si Si1 0.204325 0.834574 0.705012
Si Si2 0.702184 0.939618 0.787487
Si Si3 0.209129 0.242838 0.926299
Si Si4 0.793242 0.884452 0.925932
Si Si5 0.794772 0.332405 0.655309
Si Si6 0.209763 0.225120 0.575655
Si Si7 0.209696 0.727323 0.215553
Si Si8 0.294035 0.561293 0.424320
O O1 0.239485 0.893109 0.736188
O O2 0.265906 0.819685 0.630434
O O3 0.264230 0.786017 0.754193
O O4 0.000000 0.828642 0.702943
O O5 0.500000 0.943219 0.779298
O O6 0.736141 0.919367 0.862966
O O7 0.777837 0.000000 0.777111
O O8 0.258080 0.179071 0.918036
O O9 0.267435 0.275587 0.861064
O O10 0.000000 0.243707 0.926740
O O11 0.266409 0.261031 0.000000
O O12 0.000000 0.885106 0.925704
O O13 0.735922 0.902902 0.000000
O O14 0.736185 0.283930 0.605520
O O15 0.733569 0.317226 0.729994
O O16 0.752150 0.391258 0.626624
O O17 0.000000 0.328118 0.656979
O O18 0.269459 0.217015 0.500000
O O19 0.000000 0.224935 0.573970
O O20 0.000000 0.726672 0.214346
O O21 0.232769 0.574168 0.500000
O O22 0.500000 0.559366 0.426937
O O23 0.233537 0.500000 0.407153
#
# Coordination Sequence:
#
# PCOD9388514 Si02
#       8
#     8   8   8   8   8   8   8   8
#     4   9  16  29  48  64  81 107 138 171 207 252
#     4  11  23  34  43  58  83 112 139 172 214 257
#     4   8  12  20  39  64  86 108 134 164 198 240
#     4   9  17  30  49  68  82 103 140 177 203 241
#     4   9  16  25  42  67  91 114 140 172 208 248
#     4   8  14  25  44  70  93 109 129 167 219 263
#     4   8  13  23  40  63  89 110 132 169 212 246
#     4   9  18  31  43  56  82 121 156 182 208 238
#
# _framework density 16.725339000000002
#
# number of rings (size 3 to 8) (size 9 to 14) (size 15 to 20)
#    0.000    3.125    1.250    3.375    0.000    2.500 
#    0.000    4.375    0.000    1.500    0.000    2.625 
#    0.000    0.500    0.000    6.250    0.000    1.000 
#
# Total GULP energy -356417.607632 kJ/mol
# GULP energy per Si atom -5569.025119 kJ/mol
# Density = 1.668727 g / cm^3
# Si number density = 16.725339 Si / 1000 Ang^3
#
#
#
# Elastic Constant Matrix: (Units=GPa)
#
#
# Indices 1 2 3 4 5 6 
#
# 1 14.3213 1.1020 6.2346 0.0000 0.0000 0.0000
# 2 1.1020 108.4451 86.7967 0.0000 0.0000 0.0000
# 3 6.2346 86.7967 173.9131 0.0000 0.0000 0.0000
# 4 0.0000 0.0000 0.0000 323.1420 0.0000 0.0000
# 5 0.0000 0.0000 0.0000 0.0000 -7.1299 0.0000
# 6 0.0000 0.0000 0.0000 0.0000 0.0000 20.8532
#
#
#
# Elastic Compliance Matrix: (Units=1/GPa)
#
#
# Indices 1 2 3 4 5 6 
#
# 1 0.071246 0.002198 -0.003651 0.000000 0.000000 0.000000
# 2 0.002198 0.015423 -0.007776 0.000000 0.000000 0.000000
# 3 -0.003651 -0.007776 0.009762 0.000000 0.000000 0.000000
# 4 0.000000 0.000000 0.000000 0.003095 0.000000 0.000000
# 5 0.000000 0.000000 0.000000 0.000000 -0.140254 0.000000
# 6 0.000000 0.000000 0.000000 0.000000 0.000000 0.047954
#
#
# Mechanical properties :
#
#
# Convention : Reuss Voigt Hill
#
# Bulk Modulus (GPa) = 12.82494 53.88292 33.35393
# Shear Modulus (GPa) = 96.75981 80.87614 88.81797
#
# Velocity S-wave (km/s) = 7.61432 6.96135 7.29514
# Velocity P-wave (km/s) = 9.21891 9.84379 9.53647
#
# Compressibility (1/GPa) = 0.07797308
#
# Stress axis : x y z
#
# Youngs Moduli (GPa) = 14.03578 64.84013 102.44120
#
# Poissons Ratio (x) = -0.14254 0.37404
# Poissons Ratio (y) = -0.03086 0.79657
# Poissons Ratio (z) = 0.05125 0.50419
#
# Static dielectric constant tensor:
#      x y z
#    x 1.610170 0.000000 0.000000 
#    y 0.000000 1.569150 0.000000 
#    z 0.000000 0.000000 1.595180 
# 
# From -- ./inp_files/30219.got.cif
#   From: 2010.05.17/outbox.cif.g08.bks.cpg/sg47_16_cif.got.tgz:30219.got - 2010.06.03 20:15:42.
