data_PCOD9388209
_publ_section_title
;
Structure prediction by ZEFSAII (Michael W. Deem and Ramdas Pophale) SiO2 
 PCOD9388209
Probable space group: P M M M
;
_chemical_formula_sum "Si O2"
_cell_formula_units_Z 52
_cell_length_a 12.712755
_cell_length_b 16.179681
_cell_length_c 14.456638
_cell_angle_alpha 90.000000
_cell_angle_beta 90.000000
_cell_angle_gamma 90.000000
_cell_volume 2973.561591
_symmetry_space_group_name_H-M "P M M M"
_symmetry_group_IT_number 47
_symmetry_cell_setting 'orthorhombic'
loop_
_space_group_symop_operation_xyz
x,y,z
-x,-y,z
x,-y,-z
-x,y,-z
-x,-y,-z
x,y,-z
-x,y,z
x,-y,z
loop_
_atom_site_type_symbol
_atom_site_label
_atom_site_fract_x
_atom_site_fract_y
_atom_site_fract_z
Si Si1 0.880005 0.901007 0.898554
Si Si2 0.500000 0.374081 0.893319
Si Si3 0.282732 0.371300 0.795842
Si Si4 0.500000 0.173059 0.893866
Si Si5 0.619110 0.599351 0.604167
Si Si6 0.706324 0.822253 0.783498
Si Si7 0.626182 0.096429 0.607184
Si Si8 0.873266 0.500000 0.111823
O O1 0.807162 0.870509 0.817756
O O2 0.000000 0.872453 0.888950
O O3 0.881035 0.000000 0.899522
O O4 0.840233 0.872777 0.000000
O O5 0.392862 0.400301 0.842669
O O6 0.500000 0.273590 0.891885
O O7 0.500000 0.400216 0.000000
O O8 0.300476 0.381814 0.685955
O O9 0.275288 0.273180 0.808798
O O10 0.187257 0.422068 0.841104
O O11 0.395643 0.146625 0.840156
O O12 0.500000 0.146048 0.000000
O O13 0.645156 0.628619 0.500000
O O14 0.500000 0.630252 0.626962
O O15 0.612958 0.500000 0.600234
O O16 0.681056 0.840991 0.677143
O O17 0.654090 0.110000 0.500000
O O18 0.500000 0.106062 0.615134
O O19 0.650183 0.000000 0.630249
O O20 0.000000 0.500000 0.127981
O O21 0.857162 0.500000 0.000000
#
# Coordination Sequence:
#
# PCOD9388209 Si02
#       8
#     8   4   8   4   8   8   8   4
#     4   9  19  36  56  77 102 136 182 232 275 319
#     4   9  18  31  49  76 107 141 176 216 272 331
#     4  11  21  35  56  81 112 146 181 228 279 332
#     4   9  18  30  43  72 115 144 170 214 270 331
#     4   9  17  31  53  80 110 140 172 215 266 319
#     4  11  20  32  54  82 112 147 182 223 278 331
#     4   9  18  33  53  80 118 160 194 222 261 324
#     4  11  26  45  60  77 106 147 195 240 282 334
#
# _framework density 17.487447
#
# number of rings (size 3 to 8) (size 9 to 14) (size 15 to 20)
#    0.000    2.231    2.308    2.769    0.000    3.385 
#    0.000    3.846    0.000    3.231    0.000    4.308 
#    0.000    0.000    0.000    0.000    0.000    0.000 
#
# Total GULP energy -289960.125259 kJ/mol
# GULP energy per Si atom -5576.156255 kJ/mol
# Density = 1.744764 g / cm^3
# Si number density = 17.487447 Si / 1000 Ang^3
#
#
#
# Elastic Constant Matrix: (Units=GPa)
#
#
# Indices 1 2 3 4 5 6 
#
# 1 87.9427 28.8797 52.3155 0.0000 0.0000 0.0000
# 2 28.8797 40.5162 20.9404 0.0000 0.0000 0.0000
# 3 52.3155 20.9404 107.6178 0.0000 0.0000 0.0000
# 4 0.0000 0.0000 0.0000 19.1296 0.0000 0.0000
# 5 0.0000 0.0000 0.0000 0.0000 18.6648 0.0000
# 6 0.0000 0.0000 0.0000 0.0000 0.0000 19.3510
#
#
#
# Elastic Compliance Matrix: (Units=1/GPa)
#
#
# Indices 1 2 3 4 5 6 
#
# 1 0.018898 -0.009698 -0.007300 0.000000 0.000000 0.000000
# 2 -0.009698 0.032418 -0.001594 0.000000 0.000000 0.000000
# 3 -0.007300 -0.001594 0.013151 0.000000 0.000000 0.000000
# 4 0.000000 0.000000 0.000000 0.052275 0.000000 0.000000
# 5 0.000000 0.000000 0.000000 0.000000 0.053577 0.000000
# 6 0.000000 0.000000 0.000000 0.000000 0.000000 0.051677
#
#
# Mechanical properties :
#
#
# Convention : Reuss Voigt Hill
#
# Bulk Modulus (GPa) = 36.65098 48.92753 42.78926
# Shear Modulus (GPa) = 18.63777 20.35849 19.49813
#
# Velocity S-wave (km/s) = 3.26817 3.41571 3.34275
# Velocity P-wave (km/s) = 5.93677 6.60269 6.27856
#
# Compressibility (1/GPa) = 0.02728440
#
# Stress axis : x y z
#
# Youngs Moduli (GPa) = 52.91492 30.84748 76.04053
#
# Poissons Ratio (x) = 0.29915 0.55509
# Poissons Ratio (y) = 0.51315 0.12118
# Poissons Ratio (z) = 0.38627 0.04916
#
# Static dielectric constant tensor:
#      x y z
#    x 1.566900 0.000000 0.000000 
#    y 0.000000 1.615480 0.000000 
#    z 0.000000 0.000000 1.616660 
# 
# From -- ./inp_files/22927.got.cif
#   From: 2010.05.17/outbox.cif.g08.bks.cpg/sg47_12_cif.got.tgz:22927.got - 2010.06.03 20:15:42.
