data_PCOD9388234
_publ_section_title
;
Structure prediction by ZEFSAII (Michael W. Deem and Ramdas Pophale) SiO2 
 PCOD9388234
Probable space group: P M M M
;
_chemical_formula_sum "Si O2"
_cell_formula_units_Z 52
_cell_length_a 28.985931
_cell_length_b 14.215439
_cell_length_c 7.858023
_cell_angle_alpha 90.000000
_cell_angle_beta 90.000000
_cell_angle_gamma 90.000000
_cell_volume 3237.880571
_symmetry_space_group_name_H-M "P M M M"
_symmetry_group_IT_number 47
_symmetry_cell_setting 'orthorhombic'
loop_
_space_group_symop_operation_xyz
x,y,z
-x,-y,z
x,-y,-z
-x,y,-z
-x,-y,-z
x,y,-z
-x,y,z
x,-y,z
loop_
_atom_site_type_symbol
_atom_site_label
_atom_site_fract_x
_atom_site_fract_y
_atom_site_fract_z
Si Si1 0.854716 0.296024 0.696822
Si Si2 0.281742 0.793942 0.792419
Si Si3 0.552554 0.114021 0.500000
Si Si4 0.763256 0.395310 0.800485
Si Si5 0.378366 0.112986 0.799468
Si Si6 0.948517 0.391570 0.794548
Si Si7 0.188680 0.895094 0.205639
O O1 0.844974 0.310763 0.500000
O O2 0.815905 0.358082 0.790883
O O3 0.906170 0.328941 0.735732
O O4 0.845739 0.187284 0.740206
O O5 0.268362 0.689359 0.730061
O O6 0.331448 0.834149 0.746572
O O7 0.239785 0.861888 0.738821
O O8 0.280671 0.792548 0.000000
O O9 0.500000 0.148935 0.500000
O O10 0.580969 0.139968 0.330155
O O11 0.550715 0.000000 0.500000
O O12 0.758988 0.500000 0.725754
O O13 0.751709 0.402010 0.000000
O O14 0.371034 0.000000 0.786114
O O15 0.388002 0.132554 0.000000
O O16 0.941374 0.500000 0.739639
O O17 0.000000 0.362381 0.738335
O O18 0.948465 0.391281 0.000000
O O19 0.178122 0.000000 0.266819
O O20 0.188868 0.896558 0.000000
#
# Coordination Sequence:
#
# PCOD9388234 Si02
#       7
#     8   8   4   8   8   8   8
#     4  11  21  30  43  66  96 123 144 175 222 272
#     4   8  14  26  44  66  89 113 147 187 226 267
#     4   9  18  30  42  62  91 121 157 193 227 276
#     4   9  17  30  47  64  87 122 157 186 218 262
#     4   9  16  27  44  64  89 121 153 190 234 276
#     4   9  18  33  52  70  86 109 146 188 224 263
#     4   9  17  31  50  67  86 117 155 190 220 257
#
# _framework density 16.059888999999998
#
# number of rings (size 3 to 8) (size 9 to 14) (size 15 to 20)
#    0.000    2.846    0.000    3.692    0.000    5.231 
#    5.538    2.308    0.000    0.462    0.000    3.231 
#    0.000    1.231    0.000    6.000    0.000    0.154 
#
# Total GULP energy -289701.264359 kJ/mol
# GULP energy per Si atom -5571.178161 kJ/mol
# Density = 1.602334 g / cm^3
# Si number density = 16.059889 Si / 1000 Ang^3
#
#
#
# Elastic Constant Matrix: (Units=GPa)
#
#
# Indices 1 2 3 4 5 6 
#
# 1 132.5883 60.3218 28.0911 0.0000 0.0000 0.0000
# 2 60.3218 91.7359 17.4689 0.0000 0.0000 0.0000
# 3 28.0911 17.4689 38.8766 0.0000 0.0000 0.0000
# 4 0.0000 0.0000 0.0000 -8.3951 0.0000 0.0000
# 5 0.0000 0.0000 0.0000 0.0000 68.2465 0.0000
# 6 0.0000 0.0000 0.0000 0.0000 0.0000 18.0101
#
#
#
# Elastic Compliance Matrix: (Units=1/GPa)
#
#
# Indices 1 2 3 4 5 6 
#
# 1 0.011742 -0.006676 -0.005484 0.000000 0.000000 0.000000
# 2 -0.006676 0.015717 -0.002238 0.000000 0.000000 0.000000
# 3 -0.005484 -0.002238 0.030691 0.000000 0.000000 0.000000
# 4 0.000000 0.000000 0.000000 -0.119117 0.000000 0.000000
# 5 0.000000 0.000000 0.000000 0.000000 0.014653 0.000000
# 6 0.000000 0.000000 0.000000 0.000000 0.000000 0.055525
#
#
# Mechanical properties :
#
#
# Convention : Reuss Voigt Hill
#
# Bulk Modulus (GPa) = 34.06914 52.77380 43.42147
# Shear Modulus (GPa) = 104.62174 26.06023 65.34098
#
# Velocity S-wave (km/s) = 8.07999 4.03263 6.38546
# Velocity P-wave (km/s) = 10.40712 7.39018 9.02560
#
# Compressibility (1/GPa) = 0.02935207
#
# Stress axis : x y z
#
# Youngs Moduli (GPa) = 85.16779 63.62446 32.58311
#
# Poissons Ratio (x) = 0.42479 0.17869
# Poissons Ratio (y) = 0.56862 0.07293
# Poissons Ratio (z) = 0.46707 0.14240
#
# Static dielectric constant tensor:
#      x y z
#    x 1.520510 0.000000 0.000000 
#    y 0.000000 1.546420 0.000000 
#    z 0.000000 0.000000 1.575350 
# 
# From -- ./inp_files/13389.got.cif
#   From: 2010.05.17/outbox.cif.g08.bks.cpg/sg47_7_cif.got.tgz:13389.got - 2010.06.03 20:15:42.
