data_PCOD9388241
_publ_section_title
;
Structure prediction by ZEFSAII (Michael W. Deem and Ramdas Pophale) SiO2 
 PCOD9388241
Probable space group: P M M M
;
_chemical_formula_sum "Si O2"
_cell_formula_units_Z 64
_cell_length_a 28.574706
_cell_length_b 14.550505
_cell_length_c 9.629872
_cell_angle_alpha 90.000000
_cell_angle_beta 90.000000
_cell_angle_gamma 90.000000
_cell_volume 4003.873537
_symmetry_space_group_name_H-M "P M M M"
_symmetry_group_IT_number 47
_symmetry_cell_setting 'orthorhombic'
loop_
_space_group_symop_operation_xyz
x,y,z
-x,-y,z
x,-y,-z
-x,y,-z
-x,-y,-z
x,y,-z
-x,y,z
x,-y,z
loop_
_atom_site_type_symbol
_atom_site_label
_atom_site_fract_x
_atom_site_fract_y
_atom_site_fract_z
Si Si1 0.552046 0.388455 0.661365
Si Si2 0.874556 0.890232 0.341096
Si Si3 0.734901 0.276006 0.834080
Si Si4 0.807348 0.608912 0.341047
Si Si5 0.052616 0.223654 0.164045
Si Si6 0.764175 0.892114 0.335951
Si Si7 0.919315 0.607042 0.661364
Si Si8 0.358063 0.607694 0.165248
O O1 0.558343 0.362734 0.500000
O O2 0.500000 0.357828 0.706644
O O3 0.551564 0.500000 0.666485
O O4 0.595807 0.359576 0.753884
O O5 0.884144 0.860255 0.500000
O O6 0.908630 0.838926 0.237182
O O7 0.819651 0.873309 0.313605
O O8 0.881347 0.000000 0.334041
O O9 0.777466 0.333551 0.767154
O O10 0.735907 0.177225 0.760172
O O11 0.687350 0.331721 0.803178
O O12 0.739988 0.268541 0.000000
O O13 0.795308 0.635946 0.500000
O O14 0.797793 0.500000 0.326225
O O15 0.863130 0.620819 0.325212
O O16 0.056298 0.322970 0.235904
O O17 0.000000 0.186986 0.186235
O O18 0.060915 0.230289 0.000000
O O19 0.755052 0.877060 0.500000
O O20 0.756084 0.000000 0.306848
O O21 0.931577 0.625026 0.500000
O O22 0.929332 0.500000 0.689675
O O23 0.349236 0.500000 0.200765
O O24 0.366388 0.611704 0.000000
#
# Coordination Sequence:
#
# PCOD9388241 Si02
#       8
#     8   8   8   8   8   8   8   8
#     4   8  14  25  41  61  85 116 159 208 247 275
#     4   9  19  37  59  78  94 116 149 187 225 270
#     4  11  21  30  44  69 100 129 157 192 232 275
#     4   9  18  32  49  69  93 122 156 191 227 270
#     4  11  24  37  49  71 101 126 147 178 225 277
#     4   9  19  36  55  73  93 118 151 191 232 276
#     4   9  19  36  55  72  90 117 157 198 228 261
#     4   9  18  30  41  59  93 133 167 196 228 270
#
# _framework density 15.984521000000001
#
# number of rings (size 3 to 8) (size 9 to 14) (size 15 to 20)
#    0.000    2.625    0.000    3.750    0.000    8.250 
#    0.000    7.500    0.000    0.000    0.000    0.000 
#    0.000    0.500    0.000    5.500    0.000    4.250 
#
# Total GULP energy -356998.762983 kJ/mol
# GULP energy per Si atom -5578.105672 kJ/mol
# Density = 1.594814 g / cm^3
# Si number density = 15.984521 Si / 1000 Ang^3
#
#
#
# Elastic Constant Matrix: (Units=GPa)
#
#
# Indices 1 2 3 4 5 6 
#
# 1 63.0805 46.9887 57.1380 0.0000 0.0000 0.0000
# 2 46.9887 62.5810 49.5433 0.0000 0.0000 0.0000
# 3 57.1380 49.5433 73.5711 0.0000 0.0000 0.0000
# 4 0.0000 0.0000 0.0000 15.3188 0.0000 0.0000
# 5 0.0000 0.0000 0.0000 0.0000 29.2894 0.0000
# 6 0.0000 0.0000 0.0000 0.0000 0.0000 10.8906
#
#
#
# Elastic Compliance Matrix: (Units=1/GPa)
#
#
# Indices 1 2 3 4 5 6 
#
# 1 0.061632 -0.017954 -0.035775 0.000000 0.000000 0.000000
# 2 -0.017954 0.039455 -0.012626 0.000000 0.000000 0.000000
# 3 -0.035775 -0.012626 0.049879 0.000000 0.000000 0.000000
# 4 0.000000 0.000000 0.000000 0.065279 0.000000 0.000000
# 5 0.000000 0.000000 0.000000 0.000000 0.034142 0.000000
# 6 0.000000 0.000000 0.000000 0.000000 0.000000 0.091823
#
#
# Mechanical properties :
#
#
# Convention : Reuss Voigt Hill
#
# Bulk Modulus (GPa) = 54.77603 56.28585 55.53094
# Shear Modulus (GPa) = 10.39490 14.13725 12.26608
#
# Velocity S-wave (km/s) = 2.55289 2.97717 2.77315
# Velocity P-wave (km/s) = 6.55989 6.86347 6.71340
#
# Compressibility (1/GPa) = 0.01825616
#
# Stress axis : x y z
#
# Youngs Moduli (GPa) = 16.22546 25.34503 20.04856
#
# Poissons Ratio (x) = 0.45504 0.71724
# Poissons Ratio (y) = 0.29131 0.25313
# Poissons Ratio (z) = 0.58047 0.32000
#
# Static dielectric constant tensor:
#      x y z
#    x 1.528290 0.000000 0.000000 
#    y 0.000000 1.539710 0.000000 
#    z 0.000000 0.000000 1.524150 
# 
# From -- ./inp_files/14299.got.cif
#   From: 2010.05.17/outbox.cif.g08.bks.cpg/sg47_8_cif.got.tgz:14299.got - 2010.06.03 20:15:42.
