data_PCOD9388470
_publ_section_title
;
Structure prediction by ZEFSAII (Michael W. Deem and Ramdas Pophale) SiO2 
 PCOD9388470
Probable space group: P M M M
;
_chemical_formula_sum "Si O2"
_cell_formula_units_Z 40
_cell_length_a 7.793733
_cell_length_b 10.227559
_cell_length_c 25.634847
_cell_angle_alpha 90.000000
_cell_angle_beta 90.000000
_cell_angle_gamma 90.000000
_cell_volume 2043.375805
_symmetry_space_group_name_H-M "P M M M"
_symmetry_group_IT_number 47
_symmetry_cell_setting 'orthorhombic'
loop_
_space_group_symop_operation_xyz
x,y,z
-x,-y,z
x,-y,-z
-x,y,-z
-x,-y,-z
x,y,-z
-x,y,z
x,-y,z
loop_
_atom_site_type_symbol
_atom_site_label
_atom_site_fract_x
_atom_site_fract_y
_atom_site_fract_z
Si Si1 0.293372 0.500000 0.059935
Si Si2 0.203556 0.158090 0.443984
Si Si3 0.789476 0.652195 0.762476
Si Si4 0.299099 0.000000 0.941293
Si Si5 0.199467 0.249318 0.126193
Si Si6 0.210166 0.152106 0.329362
O O1 0.500000 0.500000 0.061253
O O2 0.226921 0.374176 0.089910
O O3 0.238038 0.500000 0.000000
O O4 0.275776 0.204020 0.500000
O O5 0.270650 0.196738 0.387074
O O6 0.000000 0.189160 0.444475
O O7 0.216216 0.000000 0.443930
O O8 0.736284 0.500000 0.758095
O O9 0.726599 0.714787 0.817014
O O10 0.736781 0.746551 0.715145
O O11 0.000000 0.650453 0.763065
O O12 0.260349 0.874131 0.906442
O O13 0.500000 0.000000 0.949004
O O14 0.219109 0.000000 0.000000
O O15 0.000000 0.226495 0.135542
O O16 0.000000 0.151002 0.330426
O O17 0.261354 0.000000 0.320133
#
# Coordination Sequence:
#
# PCOD9388470 Si02
#       6
#     4   8   8   4   8   8
#     4  11  23  39  59  81 107 139 172 209 256 310
#     4   7   9  14  25  44  71 104 148 198 239 281
#     4   9  17  29  43  64  94 123 156 203 253 294
#     4  11  25  43  59  79 109 139 166 203 260 322
#     4  11  22  37  58  83 107 135 174 217 256 302
#     4   8  13  20  34  55  79 113 155 199 248 296
#
# _framework density 19.575448999999999
#
# number of rings (size 3 to 8) (size 9 to 14) (size 15 to 20)
#    0.000    2.800    1.000    3.600    1.400    4.000 
#    0.000    0.000    0.000    0.600    0.000    4.200 
#    0.000    0.000    0.000    0.000    0.000    6.000 
#
# Total GULP energy -222850.377217 kJ/mol
# GULP energy per Si atom -5571.259430 kJ/mol
# Density = 1.953089 g / cm^3
# Si number density = 19.575449 Si / 1000 Ang^3
#
#
#
# Elastic Constant Matrix: (Units=GPa)
#
#
# Indices 1 2 3 4 5 6 
#
# 1 22.9675 4.8488 7.2734 0.0000 0.0000 0.0000
# 2 4.8488 146.4993 109.0111 0.0000 0.0000 0.0000
# 3 7.2734 109.0111 245.0347 0.0000 0.0000 0.0000
# 4 0.0000 0.0000 0.0000 34.1594 0.0000 0.0000
# 5 0.0000 0.0000 0.0000 0.0000 -457.9696 0.0000
# 6 0.0000 0.0000 0.0000 0.0000 0.0000 6.0721
#
#
#
# Elastic Compliance Matrix: (Units=1/GPa)
#
#
# Indices 1 2 3 4 5 6 
#
# 1 0.044004 -0.000724 -0.000984 0.000000 0.000000 0.000000
# 2 -0.000724 0.010216 -0.004523 0.000000 0.000000 0.000000
# 3 -0.000984 -0.004523 0.006123 0.000000 0.000000 0.000000
# 4 0.000000 0.000000 0.000000 0.029275 0.000000 0.000000
# 5 0.000000 0.000000 0.000000 0.000000 -0.002184 0.000000
# 6 0.000000 0.000000 0.000000 0.000000 0.000000 0.164689
#
#
# Mechanical properties :
#
#
# Convention : Reuss Voigt Hill
#
# Bulk Modulus (GPa) = 20.88573 72.97424 46.92999
# Shear Modulus (GPa) = 17.82242 -63.98974 -23.08366
#
# Velocity S-wave (km/s) = 3.02064 -5.72361 -3.43770
# Velocity P-wave (km/s) = 4.78102 2.51402 2.87558
#
# Compressibility (1/GPa) = 0.04787957
#
# Stress axis : x y z
#
# Youngs Moduli (GPa) = 22.72506 97.88804 163.32971
#
# Poissons Ratio (x) = 0.07090 0.16071
# Poissons Ratio (y) = 0.01646 0.73879
# Poissons Ratio (z) = 0.02236 0.44278
#
# Static dielectric constant tensor:
#      x y z
#    x 1.719080 0.000000 0.000000 
#    y 0.000000 1.667790 0.000000 
#    z 0.000000 0.000000 1.747870 
# 
# From -- ./inp_files/33016.got.cif
#   From: 2010.05.17/outbox.cif.g08.bks.cpg/sg47_17_cif.got.tgz:33016.got - 2010.06.03 20:15:42.
