data_PCOD9388595
_publ_section_title
;
Structure prediction by ZEFSAII (Michael W. Deem and Ramdas Pophale) SiO2 
 PCOD9388595
Probable space group: P M M M
;
_chemical_formula_sum "Si O2"
_cell_formula_units_Z 40
_cell_length_a 9.450172
_cell_length_b 7.446632
_cell_length_c 27.237541
_cell_angle_alpha 90.000000
_cell_angle_beta 90.000000
_cell_angle_gamma 90.000000
_cell_volume 1916.758961
_symmetry_space_group_name_H-M "P M M M"
_symmetry_group_IT_number 47
_symmetry_cell_setting 'orthorhombic'
loop_
_space_group_symop_operation_xyz
x,y,z
-x,-y,z
x,-y,-z
-x,y,-z
-x,-y,-z
x,y,-z
-x,y,z
x,-y,z
loop_
_atom_site_type_symbol
_atom_site_label
_atom_site_fract_x
_atom_site_fract_y
_atom_site_fract_z
Si Si1 0.663087 0.219373 0.000000
Si Si2 0.157677 0.712492 0.500000
Si Si3 0.664051 0.219870 0.191051
Si Si4 0.340007 0.785609 0.595935
Si Si5 0.837229 0.219365 0.904127
Si Si6 0.327550 0.208053 0.701634
O O1 0.746505 0.276022 0.951264
O O2 0.500000 0.277164 0.000000
O O3 0.662241 0.000000 0.000000
O O4 0.145732 0.500000 0.500000
O O5 0.242870 0.758414 0.549112
O O6 0.000000 0.791025 0.500000
O O7 0.500000 0.271717 0.183167
O O8 0.761850 0.276540 0.146186
O O9 0.711790 0.283963 0.245153
O O10 0.664899 0.000000 0.192352
O O11 0.500000 0.717958 0.586799
O O12 0.285494 0.714164 0.648669
O O13 0.351061 0.000000 0.602567
O O14 0.000000 0.276611 0.907261
O O15 0.836988 0.000000 0.904150
O O16 0.500000 0.209807 0.700949
O O17 0.280900 0.000000 0.702498
#
# Coordination Sequence:
#
# PCOD9388595 Si02
#       6
#     4   4   8   8   8   8
#     4   9  15  21  27  33  43  67 107 149 188 233
#     4  11  24  37  46  62  92 125 152 179 214 258
#     4   8  12  19  31  45  62  85 110 137 177 231
#     4   9  17  31  52  74  91 110 142 183 223 263
#     4   9  15  20  25  35  53  76 104 143 188 228
#     4   7  11  21  38  59  79  96 118 154 199 244
#
# _framework density 20.868562000000001
#
# number of rings (size 3 to 8) (size 9 to 14) (size 15 to 20)
#    0.000    3.400    0.000    3.900    0.000    6.000 
#    0.000    1.000    0.000    3.600    0.000    0.000 
#    0.000    0.000    0.000    0.000    0.000    0.000 
#
# Total GULP energy -222981.287000 kJ/mol
# GULP energy per Si atom -5574.532175 kJ/mol
# Density = 2.082106 g / cm^3
# Si number density = 20.868562 Si / 1000 Ang^3
#
#
#
# Elastic Constant Matrix: (Units=GPa)
#
#
# Indices 1 2 3 4 5 6 
#
# 1 138.7824 4.4468 130.9963 0.0000 0.0000 0.0000
# 2 4.4468 63.1348 8.1395 0.0000 0.0000 0.0000
# 3 130.9963 8.1395 272.3990 0.0000 0.0000 0.0000
# 4 0.0000 0.0000 0.0000 -41.8541 0.0000 0.0000
# 5 0.0000 0.0000 0.0000 0.0000 -8.9023 0.0000
# 6 0.0000 0.0000 0.0000 0.0000 0.0000 2.4803
#
#
#
# Elastic Compliance Matrix: (Units=1/GPa)
#
#
# Indices 1 2 3 4 5 6 
#
# 1 0.013196 -0.000112 -0.006342 0.000000 0.000000 0.000000
# 2 -0.000112 0.015901 -0.000421 0.000000 0.000000 0.000000
# 3 -0.006342 -0.000421 0.006734 0.000000 0.000000 0.000000
# 4 0.000000 0.000000 0.000000 -0.023893 0.000000 0.000000
# 5 0.000000 0.000000 0.000000 0.000000 -0.112330 0.000000
# 6 0.000000 0.000000 0.000000 0.000000 0.000000 0.403171
#
#
# Mechanical properties :
#
#
# Convention : Reuss Voigt Hill
#
# Bulk Modulus (GPa) = 45.29072 84.60906 64.94989
# Shear Modulus (GPa) = 15.43733 12.39368 13.91551
#
# Velocity S-wave (km/s) = 2.72277 2.43963 2.58508
# Velocity P-wave (km/s) = 5.62446 6.96904 6.33254
#
# Compressibility (1/GPa) = 0.02207958
#
# Stress axis : x y z
#
# Youngs Moduli (GPa) = 75.78198 62.88787 148.50532
#
# Poissons Ratio (x) = 0.00703 0.94189
# Poissons Ratio (y) = 0.00847 0.06258
# Poissons Ratio (z) = 0.48065 0.02650
#
# Static dielectric constant tensor:
#      x y z
#    x 1.705540 0.000000 0.000000 
#    y 0.000000 1.789890 0.000000 
#    z 0.000000 0.000000 1.785740 
# 
# From -- ./inp_files/33074.got.cif
#   From: 2010.05.17/outbox.cif.g08.bks.cpg/sg47_17_cif.got.tgz:33074.got - 2010.06.03 20:15:42.
