data_PCOD9388340
_publ_section_title
;
Structure prediction by ZEFSAII (Michael W. Deem and Ramdas Pophale) SiO2 
 PCOD9388340
Probable space group: P M M M
;
_chemical_formula_sum "Si O2"
_cell_formula_units_Z 28
_cell_length_a 11.877803
_cell_length_b 17.199161
_cell_length_c 7.791567
_cell_angle_alpha 90.000000
_cell_angle_beta 90.000000
_cell_angle_gamma 90.000000
_cell_volume 1591.725557
_symmetry_space_group_name_H-M "P M M M"
_symmetry_group_IT_number 47
_symmetry_cell_setting 'orthorhombic'
loop_
_space_group_symop_operation_xyz
x,y,z
-x,-y,z
x,-y,-z
-x,y,-z
-x,-y,-z
x,y,-z
-x,y,z
x,-y,z
loop_
_atom_site_type_symbol
_atom_site_label
_atom_site_fract_x
_atom_site_fract_y
_atom_site_fract_z
Si Si1 0.365463 0.090854 0.000000
Si Si2 0.000000 0.907196 0.797614
Si Si3 0.136636 0.500000 0.800517
Si Si4 0.131709 0.329734 0.791059
Si Si5 0.232972 0.831028 0.691987
O O1 0.314101 0.133123 0.834393
O O2 0.500000 0.094384 0.000000
O O3 0.330191 0.000000 0.000000
O O4 0.112154 0.872696 0.715599
O O5 0.000000 0.000000 0.784375
O O6 0.000000 0.885426 0.000000
O O7 0.168435 0.415665 0.728727
O O8 0.000000 0.500000 0.800021
O O9 0.172328 0.500000 0.000000
O O10 0.206955 0.259691 0.724425
O O11 0.000000 0.317467 0.742841
O O12 0.134517 0.329422 0.000000
O O13 0.275216 0.843615 0.500000
#
# Coordination Sequence:
#
# PCOD9388340 Si02
#       5
#     4   4   4   8   8
#     4  11  26  47  65  80 103 141 192 245 290 334
#     4  11  21  35  55  81 115 150 182 221 278 343
#     4   7  12  22  43  73 109 155 193 218 255 312
#     4   9  15  28  49  78 117 155 188 222 264 324
#     4  12  23  36  58  87 116 148 184 227 283 340
#
# _framework density 17.590972000000001
#
# number of rings (size 3 to 8) (size 9 to 14) (size 15 to 20)
#    0.000    1.857    4.286    3.000    0.000    3.429 
#    0.000    2.143    0.000    2.571    0.000    2.000 
#    0.000    2.286    0.000    0.000    0.000    0.000 
#
# Total GULP energy -156282.585275 kJ/mol
# GULP energy per Si atom -5581.520903 kJ/mol
# Density = 1.755093 g / cm^3
# Si number density = 17.590972 Si / 1000 Ang^3
#
#
#
# Elastic Constant Matrix: (Units=GPa)
#
#
# Indices 1 2 3 4 5 6 
#
# 1 47.2884 40.0065 30.3222 0.0000 0.0000 0.0000
# 2 40.0065 147.0891 58.5773 0.0000 0.0000 0.0000
# 3 30.3222 58.5773 113.4936 0.0000 0.0000 0.0000
# 4 0.0000 0.0000 0.0000 -17.7570 0.0000 0.0000
# 5 0.0000 0.0000 0.0000 0.0000 0.3168 0.0000
# 6 0.0000 0.0000 0.0000 0.0000 0.0000 -0.4263
#
#
#
# Elastic Compliance Matrix: (Units=1/GPa)
#
#
# Indices 1 2 3 4 5 6 
#
# 1 0.029316 -0.006110 -0.004679 0.000000 0.000000 0.000000
# 2 -0.006110 0.009831 -0.003442 0.000000 0.000000 0.000000
# 3 -0.004679 -0.003442 0.011837 0.000000 0.000000 0.000000
# 4 0.000000 0.000000 0.000000 -0.056316 0.000000 0.000000
# 5 0.000000 0.000000 0.000000 0.000000 3.157019 0.000000
# 6 0.000000 0.000000 0.000000 0.000000 0.000000 -2.345905
#
#
# Mechanical properties :
#
#
# Convention : Reuss Voigt Hill
#
# Bulk Modulus (GPa) = 44.39820 62.85368 53.62594
# Shear Modulus (GPa) = 5.93999 8.35769 7.14884
#
# Velocity S-wave (km/s) = 1.83958 2.18207 2.01810
# Velocity P-wave (km/s) = 5.45949 6.49283 5.99845
#
# Compressibility (1/GPa) = 0.02252343
#
# Stress axis : x y z
#
# Youngs Moduli (GPa) = 34.11054 101.71718 84.47794
#
# Poissons Ratio (x) = 0.62154 0.39525
# Poissons Ratio (y) = 0.20843 0.29074
# Poissons Ratio (z) = 0.15959 0.35007
#
# Static dielectric constant tensor:
#      x y z
#    x 1.545090 0.000000 0.000000 
#    y 0.000000 1.639350 0.000000 
#    z 0.000000 0.000000 1.632650 
# 
# From -- ./inp_files/3533.got.cif
#   From: 2010.05.17/outbox.cif.g08.bks.cpg/sg47_2_cif.got.tgz:3533.got - 2010.06.03 20:15:42.
