data_PCOD9388296
_publ_section_title
;
Structure prediction by ZEFSAII (Michael W. Deem and Ramdas Pophale) SiO2 
 PCOD9388296
Probable space group: P M M M
;
_chemical_formula_sum "Si O2"
_cell_formula_units_Z 52
_cell_length_a 15.016449
_cell_length_b 23.848131
_cell_length_c 8.778227
_cell_angle_alpha 90.000000
_cell_angle_beta 90.000000
_cell_angle_gamma 90.000000
_cell_volume 3143.608116
_symmetry_space_group_name_H-M "P M M M"
_symmetry_group_IT_number 47
_symmetry_cell_setting 'orthorhombic'
loop_
_space_group_symop_operation_xyz
x,y,z
-x,-y,z
x,-y,-z
-x,y,-z
-x,-y,-z
x,y,-z
-x,y,z
x,-y,z
loop_
_atom_site_type_symbol
_atom_site_label
_atom_site_fract_x
_atom_site_fract_y
_atom_site_fract_z
Si Si1 0.285112 0.395542 0.183216
Si Si2 0.101137 0.433477 0.316738
Si Si3 0.902888 0.932107 0.823901
Si Si4 0.394929 0.500000 0.683147
Si Si5 0.603376 0.286619 0.183374
Si Si6 0.604322 0.832149 0.682973
Si Si7 0.281416 0.936187 0.317799
O O1 0.183775 0.401906 0.240838
O O2 0.344049 0.445945 0.251501
O O3 0.332800 0.337520 0.229773
O O4 0.286360 0.399395 0.000000
O O5 0.107216 0.427831 0.500000
O O6 0.110538 0.500000 0.282092
O O7 0.000000 0.416735 0.271467
O O8 0.818330 0.917592 0.724054
O O9 0.000000 0.912065 0.771032
O O10 0.905986 0.000000 0.823193
O O11 0.890455 0.915045 0.000000
O O12 0.500000 0.500000 0.724280
O O13 0.388105 0.500000 0.500000
O O14 0.500000 0.295962 0.233023
O O15 0.634415 0.226664 0.246416
O O16 0.602847 0.284448 0.000000
O O17 0.614902 0.829108 0.500000
O O18 0.500000 0.837519 0.717119
O O19 0.653608 0.887811 0.739923
O O20 0.290659 0.938958 0.500000
O O21 0.296512 0.000000 0.259208
#
# Coordination Sequence:
#
# PCOD9388296 Si02
#       7
#     8   8   8   4   8   8   8
#     4  11  21  33  52  77 102 129 162 204 250 291
#     4   9  18  33  52  74 103 136 167 201 242 290
#     4   8  14  25  41  62  89 120 152 185 224 274
#     4  11  23  35  48  71 104 137 165 196 238 289
#     4   9  19  35  52  70  95 128 163 199 242 290
#     4   9  18  32  49  69  93 124 163 200 234 281
#     4   9  17  28  44  69  98 124 152 192 242 289
#
# _framework density 16.541502999999999
#
# number of rings (size 3 to 8) (size 9 to 14) (size 15 to 20)
#    0.000    2.692    0.769    2.077    0.000    4.000 
#    0.000    5.385    0.000    0.923    0.000    4.308 
#    0.000    0.000    0.000    0.000    0.000    0.000 
#
# Total GULP energy -289654.018408 kJ/mol
# GULP energy per Si atom -5570.269585 kJ/mol
# Density = 1.650385 g / cm^3
# Si number density = 16.541503 Si / 1000 Ang^3
#
#
#
# Elastic Constant Matrix: (Units=GPa)
#
#
# Indices 1 2 3 4 5 6 
#
# 1 117.2531 82.3398 30.4291 0.0000 0.0000 0.0000
# 2 82.3398 124.6863 28.0257 0.0000 0.0000 0.0000
# 3 30.4291 28.0257 15.3465 0.0000 0.0000 0.0000
# 4 0.0000 0.0000 0.0000 20.0517 0.0000 0.0000
# 5 0.0000 0.0000 0.0000 0.0000 23.7624 0.0000
# 6 0.0000 0.0000 0.0000 0.0000 0.0000 6.4362
#
#
#
# Elastic Compliance Matrix: (Units=1/GPa)
#
#
# Indices 1 2 3 4 5 6 
#
# 1 0.021200 -0.007721 -0.027936 0.000000 0.000000 0.000000
# 2 -0.007721 0.016416 -0.014670 0.000000 0.000000 0.000000
# 3 -0.027936 -0.014670 0.147343 0.000000 0.000000 0.000000
# 4 0.000000 0.000000 0.000000 0.049871 0.000000 0.000000
# 5 0.000000 0.000000 0.000000 0.000000 0.042083 0.000000
# 6 0.000000 0.000000 0.000000 0.000000 0.000000 0.155372
#
#
# Mechanical properties :
#
#
# Convention : Reuss Voigt Hill
#
# Bulk Modulus (GPa) = 11.86158 59.87500 35.86829
# Shear Modulus (GPa) = 8.91197 17.81615 13.36406
#
# Velocity S-wave (km/s) = 2.32365 3.28542 2.84546
# Velocity P-wave (km/s) = 3.79282 7.11810 5.70319
#
# Compressibility (1/GPa) = 0.08430578
#
# Stress axis : x y z
#
# Youngs Moduli (GPa) = 47.16885 60.91496 6.78686
#
# Poissons Ratio (x) = 0.47033 0.18960
# Poissons Ratio (y) = 0.36419 0.09956
# Poissons Ratio (z) = 1.31771 0.89363
#
# Static dielectric constant tensor:
#      x y z
#    x 1.568350 0.000000 0.000000 
#    y 0.000000 1.546680 0.000000 
#    z 0.000000 0.000000 1.561660 
# 
# From -- ./inp_files/7073.got.cif
#   From: 2010.05.17/outbox.cif.g08.bks.cpg/sg47_4_cif.got.tgz:7073.got - 2010.06.03 20:15:42.
