data_PCOD9388776
_publ_section_title
;
Structure prediction by ZEFSAII (Michael W. Deem and Ramdas Pophale) SiO2 
 PCOD9388776
Probable space group: P M M M
;
_chemical_formula_sum "Si O2"
_cell_formula_units_Z 40
_cell_length_a 7.382244
_cell_length_b 27.418664
_cell_length_c 9.282844
_cell_angle_alpha 90.000000
_cell_angle_beta 90.000000
_cell_angle_gamma 90.000000
_cell_volume 1878.952223
_symmetry_space_group_name_H-M "P M M M"
_symmetry_group_IT_number 47
_symmetry_cell_setting 'orthorhombic'
loop_
_space_group_symop_operation_xyz
x,y,z
-x,-y,z
x,-y,-z
-x,y,-z
-x,-y,-z
x,y,-z
-x,y,z
x,-y,z
loop_
_atom_site_type_symbol
_atom_site_label
_atom_site_fract_x
_atom_site_fract_y
_atom_site_fract_z
Si Si1 0.284903 0.788538 0.164353
Si Si2 0.784436 0.000000 0.175180
Si Si3 0.721065 0.403038 0.165807
Si Si4 0.721160 0.500000 0.334048
Si Si5 0.278464 0.306108 0.665461
Si Si6 0.782537 0.104645 0.166074
O O1 0.500000 0.781783 0.153150
O O2 0.216417 0.743649 0.258309
O O3 0.258383 0.842495 0.230206
O O4 0.211722 0.787801 0.000000
O O5 0.715161 0.052751 0.227237
O O6 0.000000 0.000000 0.203569
O O7 0.763226 0.000000 0.000000
O O8 0.500000 0.403132 0.165841
O O9 0.778627 0.451245 0.251262
O O10 0.777939 0.353678 0.245554
O O11 0.778856 0.404026 0.000000
O O12 0.500000 0.500000 0.333872
O O13 0.778603 0.500000 0.500000
O O14 0.221145 0.308840 0.500000
O O15 0.500000 0.305900 0.665506
O O16 0.000000 0.101180 0.161310
O O17 0.716507 0.107200 0.000000
#
# Coordination Sequence:
#
# PCOD9388776 Si02
#       6
#     8   4   8   4   8   8
#     4   9  16  25  37  55  78 101 127 162 200 234
#     4   7  10  18  33  53  76 101 128 156 188 231
#     4   9  15  22  32  46  65  91 125 164 202 237
#     4   9  15  21  29  43  65  93 126 163 200 239
#     4   9  16  25  36  49  67  95 129 160 193 238
#     4   8  13  22  37  56  78 104 131 158 192 236
#
# _framework density 21.288461000000002
#
# number of rings (size 3 to 8) (size 9 to 14) (size 15 to 20)
#    0.000    3.400    0.000    2.700    0.000    6.000 
#    0.000    0.500    0.000    3.600    0.000    0.700 
#    0.000    5.600    0.000    0.900    0.000   19.600 
#
# Total GULP energy -223000.260725 kJ/mol
# GULP energy per Si atom -5575.006518 kJ/mol
# Density = 2.124001 g / cm^3
# Si number density = 21.288461 Si / 1000 Ang^3
#
#
#
# Elastic Constant Matrix: (Units=GPa)
#
#
# Indices 1 2 3 4 5 6 
#
# 1 73.7000 4.3377 4.7605 0.0000 0.0000 0.0000
# 2 4.3377 283.9973 118.0797 0.0000 0.0000 0.0000
# 3 4.7605 118.0797 128.7393 0.0000 0.0000 0.0000
# 4 0.0000 0.0000 0.0000 -10.1879 0.0000 0.0000
# 5 0.0000 0.0000 0.0000 0.0000 -8.1330 0.0000
# 6 0.0000 0.0000 0.0000 0.0000 0.0000 17.5181
#
#
#
# Elastic Compliance Matrix: (Units=1/GPa)
#
#
# Indices 1 2 3 4 5 6 
#
# 1 0.013601 0.000002 -0.000505 0.000000 0.000000 0.000000
# 2 0.000002 0.005692 -0.005221 0.000000 0.000000 0.000000
# 3 -0.000505 -0.005221 0.012575 0.000000 0.000000 0.000000
# 4 0.000000 0.000000 0.000000 -0.098156 0.000000 0.000000
# 5 0.000000 0.000000 0.000000 0.000000 -0.122956 0.000000
# 6 0.000000 0.000000 0.000000 0.000000 0.000000 0.057084
#
#
# Mechanical properties :
#
#
# Convention : Reuss Voigt Hill
#
# Bulk Modulus (GPa) = 48.96980 82.31025 65.64002
# Shear Modulus (GPa) = -43.89555 23.79001 -10.05277
#
# Velocity S-wave (km/s) = -4.54579 3.34654 -2.17541
# Velocity P-wave (km/s) = 2.12116 7.32671 4.95890
#
# Compressibility (1/GPa) = 0.02042075
#
# Stress axis : x y z
#
# Youngs Moduli (GPa) = 73.52396 175.69456 79.52568
#
# Poissons Ratio (x) = -0.00039 0.04016
# Poissons Ratio (y) = -0.00016 0.41516
# Poissons Ratio (z) = 0.03713 0.91721
#
# Static dielectric constant tensor:
#      x y z
#    x 1.840850 0.000000 0.000000 
#    y 0.000000 1.789780 0.000000 
#    z 0.000000 0.000000 1.708520 
# 
# From -- ./inp_files/4040.got.cif
#   From: 2010.05.17/outbox.cif.g08.bks.cpg/sg47_3_cif.got.tgz:4040.got - 2010.06.03 20:15:42.
