data_PCOD9388583
_publ_section_title
;
Structure prediction by ZEFSAII (Michael W. Deem and Ramdas Pophale) SiO2 
 PCOD9388583
Probable space group: P M M M
;
_chemical_formula_sum "Si O2"
_cell_formula_units_Z 40
_cell_length_a 7.993566
_cell_length_b 30.840677
_cell_length_c 7.793773
_cell_angle_alpha 90.000000
_cell_angle_beta 90.000000
_cell_angle_gamma 90.000000
_cell_volume 1921.375376
_symmetry_space_group_name_H-M "P M M M"
_symmetry_group_IT_number 47
_symmetry_cell_setting 'orthorhombic'
loop_
_space_group_symop_operation_xyz
x,y,z
-x,-y,z
x,-y,-z
-x,y,-z
-x,-y,-z
x,y,-z
-x,y,z
x,-y,z
loop_
_atom_site_type_symbol
_atom_site_label
_atom_site_fract_x
_atom_site_fract_y
_atom_site_fract_z
Si Si1 0.185349 0.594177 0.790205
Si Si2 0.305499 0.500000 0.209258
Si Si3 0.201230 0.905138 0.189077
Si Si4 0.806617 0.811268 0.788790
Si Si5 0.500000 0.348558 0.789836
Si Si6 0.699778 0.000000 0.311436
Si Si7 0.500000 0.248959 0.209601
O O1 0.220821 0.544717 0.735171
O O2 0.334927 0.625394 0.734348
O O3 0.000000 0.607882 0.736329
O O4 0.188161 0.594087 0.000000
O O5 0.500000 0.500000 0.259386
O O6 0.300856 0.500000 0.000000
O O7 0.245181 0.859493 0.277104
O O8 0.000000 0.903887 0.183649
O O9 0.247494 0.953511 0.241013
O O10 0.274691 0.901058 0.000000
O O11 0.667715 0.776552 0.736953
O O12 0.000000 0.802365 0.738361
O O13 0.808216 0.812608 0.000000
O O14 0.500000 0.298772 0.734187
O O15 0.500000 0.348809 0.000000
O O16 0.500000 0.000000 0.311465
O O17 0.772380 0.000000 0.500000
O O18 0.500000 0.248888 0.000000
#
# Coordination Sequence:
#
# PCOD9388583 Si02
#       7
#     8   4   8   8   4   4   4
#     4   9  15  21  28  37  51  74 103 136 177 225
#     4   9  13  19  29  36  47  67  98 141 177 216
#     4   9  18  33  52  71  89 114 152 189 217 257
#     4   8  15  27  42  61  80  97 127 169 203 240
#     4   9  16  23  28  41  61  80 105 136 177 239
#     4  11  24  35  44  68 102 127 148 177 218 270
#     4   9  16  24  37  53  71  95 118 148 201 251
#
# _framework density 20.81842
#
# number of rings (size 3 to 8) (size 9 to 14) (size 15 to 20)
#    0.000    3.000    1.000    2.100    1.400    4.400 
#    0.000    4.000    0.000    0.000    0.000    0.000 
#    0.000    0.000    0.000    0.000    0.000    0.000 
#
# Total GULP energy -222836.540413 kJ/mol
# GULP energy per Si atom -5570.913510 kJ/mol
# Density = 2.077104 g / cm^3
# Si number density = 20.818420 Si / 1000 Ang^3
#
#
#
# Elastic Constant Matrix: (Units=GPa)
#
#
# Indices 1 2 3 4 5 6 
#
# 1 153.2346 115.5401 4.9719 0.0000 0.0000 0.0000
# 2 115.5401 224.7198 11.2739 0.0000 0.0000 0.0000
# 3 4.9719 11.2739 15.7441 0.0000 0.0000 0.0000
# 4 0.0000 0.0000 0.0000 -29.3699 0.0000 0.0000
# 5 0.0000 0.0000 0.0000 0.0000 3.8754 0.0000
# 6 0.0000 0.0000 0.0000 0.0000 0.0000 14.2813
#
#
#
# Elastic Compliance Matrix: (Units=1/GPa)
#
#
# Indices 1 2 3 4 5 6 
#
# 1 0.010663 -0.005511 0.000579 0.000000 0.000000 0.000000
# 2 -0.005511 0.007464 -0.003605 0.000000 0.000000 0.000000
# 3 0.000579 -0.003605 0.065914 0.000000 0.000000 0.000000
# 4 0.000000 0.000000 0.000000 -0.034048 0.000000 0.000000
# 5 0.000000 0.000000 0.000000 0.000000 0.258036 0.000000
# 6 0.000000 0.000000 0.000000 0.000000 0.000000 0.070022
#
#
# Mechanical properties :
#
#
# Convention : Reuss Voigt Hill
#
# Bulk Modulus (GPa) = 14.93255 73.03004 43.98129
# Shear Modulus (GPa) = 11.97759 15.21819 13.59789
#
# Velocity S-wave (km/s) = 2.40122 2.70663 2.55848
# Velocity P-wave (km/s) = 3.85696 6.70250 5.46807
#
# Compressibility (1/GPa) = 0.06696781
#
# Stress axis : x y z
#
# Youngs Moduli (GPa) = 93.78462 133.96771 15.17128
#
# Poissons Ratio (x) = 0.73834 -0.00879
# Poissons Ratio (y) = 0.51688 0.05469
# Poissons Ratio (z) = -0.05433 0.48291
#
# Static dielectric constant tensor:
#      x y z
#    x 1.718820 0.000000 0.000000 
#    y 0.000000 1.954040 0.000000 
#    z 0.000000 0.000000 1.781870 
# 
# From -- ./inp_files/1914.got.cif
#   From: 2010.05.17/outbox.cif.g08.bks.cpg/sg47_1_cif.got.tgz:1914.got - 2010.06.03 20:15:42.
