data_PCOD9388559
_publ_section_title
;
Structure prediction by ZEFSAII (Michael W. Deem and Ramdas Pophale) SiO2 
 PCOD9388559
Probable space group: P M M M
;
_chemical_formula_sum "Si O2"
_cell_formula_units_Z 33
_cell_length_a 23.643423
_cell_length_b 8.345240
_cell_length_c 7.971199
_cell_angle_alpha 90.000000
_cell_angle_beta 90.000000
_cell_angle_gamma 90.000000
_cell_volume 1572.797588
_symmetry_space_group_name_H-M "P M M M"
_symmetry_group_IT_number 47
_symmetry_cell_setting 'orthorhombic'
loop_
_space_group_symop_operation_xyz
x,y,z
-x,-y,z
x,-y,-z
-x,y,-z
-x,-y,-z
x,y,-z
-x,y,z
x,-y,z
loop_
_atom_site_type_symbol
_atom_site_label
_atom_site_fract_x
_atom_site_fract_y
_atom_site_fract_z
Si Si1 0.763690 0.178572 0.697342
Si Si2 0.879065 0.681102 0.800521
Si Si3 0.591766 0.000000 0.307693
Si Si4 0.000000 0.816591 0.701065
Si Si5 0.500000 0.000000 0.000000
Si Si6 0.346037 0.321137 0.803775
O O1 0.751175 0.184841 0.500000
O O2 0.829624 0.213651 0.722000
O O3 0.721606 0.300698 0.786600
O O4 0.751528 0.000000 0.761632
O O5 0.871528 0.500000 0.739219
O O6 0.942465 0.735442 0.761410
O O7 0.871373 0.685456 0.000000
O O8 0.627334 0.834135 0.286289
O O9 0.569446 0.000000 0.500000
O O10 0.548591 0.000000 0.151457
O O11 0.000000 0.813763 0.500000
O O12 0.000000 0.000000 0.759646
O O13 0.362278 0.500000 0.741618
O O14 0.361650 0.312788 0.000000
#
# Coordination Sequence:
#
# PCOD9388559 Si02
#       6
#     8   8   4   4   1   8
#     4  11  23  38  60  94 132 171 221 278 339 408
#     4  11  24  40  58  84 117 158 209 265 329 403
#     4  12  25  47  77 110 147 194 243 292 351 411
#     4  11  24  41  60  82 110 149 202 263 328 400
#     4  12  26  52  78 110 156 194 242 298 342 410
#     4  11  23  42  70 104 145 190 236 292 355 418
#
# _framework density 20.981721
#
# number of rings (size 3 to 8) (size 9 to 14) (size 15 to 20)
#    0.000    0.848    2.424    4.545    0.000   13.576 
#    0.000    1.212    0.000    1.455    0.000    0.000 
#    0.000    0.000    0.000    0.000    0.000    0.000 
#
# Total GULP energy -184163.018216 kJ/mol
# GULP energy per Si atom -5580.697522 kJ/mol
# Density = 2.093397 g / cm^3
# Si number density = 20.981721 Si / 1000 Ang^3
#
#
#
# Elastic Constant Matrix: (Units=GPa)
#
#
# Indices 1 2 3 4 5 6 
#
# 1 97.7332 31.3397 22.0845 0.0000 0.0000 0.0000
# 2 31.3397 141.4053 28.7501 0.0000 0.0000 0.0000
# 3 22.0845 28.7501 83.8590 0.0000 0.0000 0.0000
# 4 0.0000 0.0000 0.0000 25.7658 0.0000 0.0000
# 5 0.0000 0.0000 0.0000 0.0000 75.6893 0.0000
# 6 0.0000 0.0000 0.0000 0.0000 0.0000 -31.5781
#
#
#
# Elastic Compliance Matrix: (Units=1/GPa)
#
#
# Indices 1 2 3 4 5 6 
#
# 1 0.011413 -0.002062 -0.002299 0.000000 0.000000 0.000000
# 2 -0.002062 0.007974 -0.002191 0.000000 0.000000 0.000000
# 3 -0.002299 -0.002191 0.013281 0.000000 0.000000 0.000000
# 4 0.000000 0.000000 0.000000 0.038811 0.000000 0.000000
# 5 0.000000 0.000000 0.000000 0.000000 0.013212 0.000000
# 6 0.000000 0.000000 0.000000 0.000000 0.000000 -0.031667
#
#
# Mechanical properties :
#
#
# Convention : Reuss Voigt Hill
#
# Bulk Modulus (GPa) = 51.11127 54.14955 52.63041
# Shear Modulus (GPa) = 68.82469 30.03027 49.42748
#
# Velocity S-wave (km/s) = 5.73354 3.78730 4.85886
# Velocity P-wave (km/s) = 8.26099 6.70737 7.52439
#
# Compressibility (1/GPa) = 0.01956516
#
# Stress axis : x y z
#
# Youngs Moduli (GPa) = 87.62274 125.40258 75.29420
#
# Poissons Ratio (x) = 0.25858 0.17307
# Poissons Ratio (y) = 0.18068 0.16496
# Poissons Ratio (z) = 0.20141 0.27474
#
# Static dielectric constant tensor:
#      x y z
#    x 1.795200 0.000000 0.000000 
#    y 0.000000 1.770520 0.000000 
#    z 0.000000 0.000000 1.745200 
# 
# From -- ./inp_files/10467.got.cif
#   From: 2010.05.17/outbox.cif.g08.bks.cpg/sg47_6_cif.got.tgz:10467.got - 2010.06.03 20:15:42.
