data_PCOD9388092
_publ_section_title
;
Structure prediction by ZEFSAII (Michael W. Deem and Ramdas Pophale) SiO2 
 PCOD9388092
Probable space group: P M M M
;
_chemical_formula_sum "Si O2"
_cell_formula_units_Z 40
_cell_length_a 20.382893
_cell_length_b 8.643359
_cell_length_c 12.120906
_cell_angle_alpha 90.000000
_cell_angle_beta 90.000000
_cell_angle_gamma 90.000000
_cell_volume 2135.420755
_symmetry_space_group_name_H-M "P M M M"
_symmetry_group_IT_number 47
_symmetry_cell_setting 'orthorhombic'
loop_
_space_group_symop_operation_xyz
x,y,z
-x,-y,z
x,-y,-z
-x,y,-z
-x,-y,-z
x,y,-z
-x,y,z
x,-y,z
loop_
_atom_site_type_symbol
_atom_site_label
_atom_site_fract_x
_atom_site_fract_y
_atom_site_fract_z
Si Si1 0.374448 0.313483 0.244324
Si Si2 0.135684 0.815435 0.788350
Si Si3 0.000000 0.684755 0.870817
Si Si4 0.636604 0.678771 0.000000
Si Si5 0.206024 0.321252 0.000000
Si Si6 0.500000 0.184649 0.630325
Si Si7 0.248165 0.812819 0.627584
O O1 0.371618 0.500000 0.240762
O O2 0.383091 0.253856 0.118341
O O3 0.435484 0.257254 0.315751
O O4 0.307289 0.254056 0.299301
O O5 0.178809 0.763223 0.892833
O O6 0.178377 0.768364 0.681723
O O7 0.064747 0.742377 0.808327
O O8 0.128700 0.000000 0.787209
O O9 0.000000 0.500000 0.873982
O O10 0.000000 0.739528 0.000000
O O11 0.715649 0.678299 0.000000
O O12 0.613377 0.500000 0.000000
O O13 0.182951 0.500000 0.000000
O O14 0.500000 0.214476 0.500000
O O15 0.500000 0.000000 0.647226
O O16 0.253867 0.764496 0.500000
O O17 0.252630 0.000000 0.631439
#
# Coordination Sequence:
#
# PCOD9388092 Si02
#       7
#     8   8   4   4   4   4   8
#     4  11  22  39  63  90 118 152 195 238 285 344
#     4  11  22  36  58  87 116 151 195 239 282 342
#     4  11  23  37  56  83 117 155 188 233 297 350
#     4   9  20  36  57  88 124 153 179 231 296 343
#     4  11  19  34  57  84 121 155 184 230 295 346
#     4  11  25  44  61  82 118 159 196 241 294 339
#     4  10  22  40  60  85 118 154 192 237 289 339
#
# _framework density 18.731670000000001
#
# number of rings (size 3 to 8) (size 9 to 14) (size 15 to 20)
#    0.000    1.400    3.000    2.700    0.000    5.200 
#    0.000    4.500    0.000    3.000    0.000    0.000 
#    0.000    0.000    0.000    0.000    0.000    0.000 
#
# Total GULP energy -223419.612961 kJ/mol
# GULP energy per Si atom -5585.490324 kJ/mol
# Density = 1.868904 g / cm^3
# Si number density = 18.731670 Si / 1000 Ang^3
#
#
#
# Elastic Constant Matrix: (Units=GPa)
#
#
# Indices 1 2 3 4 5 6 
#
# 1 109.6907 35.0442 56.3804 0.0000 0.0000 0.0000
# 2 35.0442 38.2111 39.7124 0.0000 0.0000 0.0000
# 3 56.3804 39.7124 150.9692 0.0000 0.0000 0.0000
# 4 0.0000 0.0000 0.0000 22.1377 0.0000 0.0000
# 5 0.0000 0.0000 0.0000 0.0000 24.5475 0.0000
# 6 0.0000 0.0000 0.0000 0.0000 0.0000 20.0037
#
#
#
# Elastic Compliance Matrix: (Units=1/GPa)
#
#
# Indices 1 2 3 4 5 6 
#
# 1 0.013528 -0.009849 -0.002461 0.000000 0.000000 0.000000
# 2 -0.009849 0.043187 -0.007682 0.000000 0.000000 0.000000
# 3 -0.002461 -0.007682 0.009564 0.000000 0.000000 0.000000
# 4 0.000000 0.000000 0.000000 0.045172 0.000000 0.000000
# 5 0.000000 0.000000 0.000000 0.000000 0.040737 0.000000
# 6 0.000000 0.000000 0.000000 0.000000 0.000000 0.049991
#
#
# Mechanical properties :
#
#
# Convention : Reuss Voigt Hill
#
# Bulk Modulus (GPa) = 38.03134 62.34944 50.19039
# Shear Modulus (GPa) = 19.92596 24.52004 22.22300
#
# Velocity S-wave (km/s) = 3.26507 3.62196 3.44813
# Velocity P-wave (km/s) = 5.87891 7.13087 6.53494
#
# Compressibility (1/GPa) = 0.02629410
#
# Stress axis : x y z
#
# Youngs Moduli (GPa) = 73.91940 23.15512 104.55959
#
# Poissons Ratio (x) = 0.22805 0.25737
# Poissons Ratio (y) = 0.72802 0.80325
# Poissons Ratio (z) = 0.18195 0.17788
#
# Static dielectric constant tensor:
#      x y z
#    x 1.623910 0.000000 0.000000 
#    y 0.000000 1.642030 0.000000 
#    z 0.000000 0.000000 1.662490 
# 
# From -- ./inp_files/18998.got.cif
#   From: 2010.05.17/outbox.cif.g08.bks.cpg/sg47_10_cif.got.tgz:18998.got - 2010.06.03 20:15:42.
