data_PCOD9388376
_publ_section_title
;
Structure prediction by ZEFSAII (Michael W. Deem and Ramdas Pophale) SiO2 
 PCOD9388376
Probable space group: P M M M
;
_chemical_formula_sum "Si O2"
_cell_formula_units_Z 25
_cell_length_a 10.628509
_cell_length_b 7.809703
_cell_length_c 15.218774
_cell_angle_alpha 90.000000
_cell_angle_beta 90.000000
_cell_angle_gamma 90.000000
_cell_volume 1263.241924
_symmetry_space_group_name_H-M "P M M M"
_symmetry_group_IT_number 47
_symmetry_cell_setting 'orthorhombic'
loop_
_space_group_symop_operation_xyz
x,y,z
-x,-y,z
x,-y,-z
-x,y,-z
-x,-y,-z
x,y,-z
-x,y,z
x,-y,z
loop_
_atom_site_type_symbol
_atom_site_label
_atom_site_fract_x
_atom_site_fract_y
_atom_site_fract_z
Si Si1 0.500000 0.000000 0.500000
Si Si2 0.500000 0.688012 0.639179
Si Si3 0.000000 0.790847 0.397315
Si Si4 0.148363 0.706484 0.096627
Si Si5 0.243234 0.799935 0.715157
O O1 0.500000 0.848234 0.574542
O O2 0.500000 0.500000 0.597732
O O3 0.372052 0.705170 0.694387
O O4 0.874930 0.736328 0.344082
O O5 0.000000 0.738083 0.500000
O O6 0.000000 0.000000 0.396599
O O7 0.159245 0.500000 0.101123
O O8 0.210948 0.783029 0.182493
O O9 0.000000 0.747810 0.100591
O O10 0.195310 0.761174 0.000000
O O11 0.259070 0.000000 0.692807
#
# Coordination Sequence:
#
# PCOD9388376 Si02
#       5
#     1   4   4   8   8
#     4  12  26  52  68  96 126 172 226 274 312 390
#     4  12  27  45  70  95 130 175 217 266 328 386
#     4   9  20  34  58  87 124 166 206 260 329 378
#     4   9  18  34  58  89 127 170 216 268 325 387
#     4  11  21  39  63  93 130 168 212 272 320 386
#
# _framework density 19.79035
#
# number of rings (size 3 to 8) (size 9 to 14) (size 15 to 20)
#    0.000    1.760    3.200    2.160    2.240    0.640 
#    0.000    2.400    0.000    8.640    0.000    0.000 
#    0.000    0.000    0.000    0.000    0.000    0.000 
#
# Total GULP energy -139290.744311 kJ/mol
# GULP energy per Si atom -5571.629772 kJ/mol
# Density = 1.974531 g / cm^3
# Si number density = 19.790350 Si / 1000 Ang^3
#
#
#
# Elastic Constant Matrix: (Units=GPa)
#
#
# Indices 1 2 3 4 5 6 
#
# 1 138.1528 28.9897 77.2157 0.0000 0.0000 0.0000
# 2 28.9897 87.2769 26.9254 0.0000 0.0000 0.0000
# 3 77.2157 26.9254 161.8648 0.0000 0.0000 0.0000
# 4 0.0000 0.0000 0.0000 43.8162 0.0000 0.0000
# 5 0.0000 0.0000 0.0000 0.0000 -167.5232 0.0000
# 6 0.0000 0.0000 0.0000 0.0000 0.0000 -1.0492
#
#
#
# Elastic Compliance Matrix: (Units=1/GPa)
#
#
# Indices 1 2 3 4 5 6 
#
# 1 0.010186 -0.001986 -0.004529 0.000000 0.000000 0.000000
# 2 -0.001986 0.012465 -0.001126 0.000000 0.000000 0.000000
# 3 -0.004529 -0.001126 0.008526 0.000000 0.000000 0.000000
# 4 0.000000 0.000000 0.000000 0.022823 0.000000 0.000000
# 5 0.000000 0.000000 0.000000 0.000000 -0.005969 0.000000
# 6 0.000000 0.000000 0.000000 0.000000 0.000000 -0.953070
#
#
# Mechanical properties :
#
#
# Convention : Reuss Voigt Hill
#
# Bulk Modulus (GPa) = 62.91364 72.61735 67.76549
# Shear Modulus (GPa) = -5.65318 -8.00700 -6.83009
#
# Velocity S-wave (km/s) = -1.69196 -2.01363 -1.85976
# Velocity P-wave (km/s) = 5.29548 5.60060 5.45017
#
# Compressibility (1/GPa) = 0.01589480
#
# Stress axis : x y z
#
# Youngs Moduli (GPa) = 98.16971 80.22523 117.29169
#
# Poissons Ratio (x) = 0.15935 0.53120
# Poissons Ratio (y) = 0.19500 0.13206
# Poissons Ratio (z) = 0.44460 0.09033
#
# Static dielectric constant tensor:
#      x y z
#    x 1.683260 0.000000 0.000000 
#    y 0.000000 1.721910 0.000000 
#    z 0.000000 0.000000 1.674930 
# 
# From -- ./inp_files/22248.got.cif
#   From: 2010.05.17/outbox.cif.g08.bks.cpg/sg47_12_cif.got.tgz:22248.got - 2010.06.03 20:15:42.
