data_PCOD9388338
_publ_section_title
;
Structure prediction by ZEFSAII (Michael W. Deem and Ramdas Pophale) SiO2 
 PCOD9388338
Probable space group: P M M M
;
_chemical_formula_sum "Si O2"
_cell_formula_units_Z 40
_cell_length_a 11.229504
_cell_length_b 7.653123
_cell_length_c 23.364541
_cell_angle_alpha 90.000000
_cell_angle_beta 90.000000
_cell_angle_gamma 90.000000
_cell_volume 2007.966769
_symmetry_space_group_name_H-M "P M M M"
_symmetry_group_IT_number 47
_symmetry_cell_setting 'orthorhombic'
loop_
_space_group_symop_operation_xyz
x,y,z
-x,-y,z
x,-y,-z
-x,y,-z
-x,-y,-z
x,y,-z
-x,y,z
x,-y,z
loop_
_atom_site_type_symbol
_atom_site_label
_atom_site_fract_x
_atom_site_fract_y
_atom_site_fract_z
Si Si1 0.248390 0.299853 0.114864
Si Si2 0.366256 0.212936 0.433230
Si Si3 0.500000 0.789229 0.932971
Si Si4 0.131727 0.207305 0.230516
Si Si5 0.859449 0.296111 0.000000
Si Si6 0.862472 0.213695 0.640112
O O1 0.208446 0.500000 0.116377
O O2 0.385233 0.281929 0.098938
O O3 0.218852 0.233662 0.177711
O O4 0.184700 0.214818 0.059514
O O5 0.355520 0.261856 0.500000
O O6 0.500000 0.267822 0.413363
O O7 0.248958 0.272196 0.398702
O O8 0.366125 0.000000 0.430778
O O9 0.500000 0.000000 0.931103
O O10 0.500000 0.737210 0.000000
O O11 0.160705 0.272397 0.294239
O O12 0.000000 0.274633 0.214325
O O13 0.122828 0.000000 0.237626
O O14 0.815841 0.500000 0.000000
O O15 0.000000 0.297296 0.000000
O O16 0.000000 0.265240 0.625137
O O17 0.862334 0.000000 0.637938
#
# Coordination Sequence:
#
# PCOD9388338 Si02
#       6
#     8   8   4   8   4   8
#     4  11  21  35  55  75 100 130 165 206 249 296
#     4   8  13  21  34  55  85 120 159 204 251 298
#     4  11  23  39  57  75 101 131 162 199 248 305
#     4   9  18  33  50  70 100 133 165 205 253 302
#     4   9  18  31  49  74  98 121 154 197 246 297
#     4   8  14  25  40  58  86 125 163 200 247 302
#
# _framework density 19.920649999999998
#
# number of rings (size 3 to 8) (size 9 to 14) (size 15 to 20)
#    0.000    2.800    1.000    3.300    0.000    2.000 
#    1.800    2.000    0.000    2.400    0.000    0.000 
#    0.000    0.800    0.000    6.600    0.000    8.000 
#
# Total GULP energy -222802.473343 kJ/mol
# GULP energy per Si atom -5570.061834 kJ/mol
# Density = 1.987531 g / cm^3
# Si number density = 19.920650 Si / 1000 Ang^3
#
#
#
# Elastic Constant Matrix: (Units=GPa)
#
#
# Indices 1 2 3 4 5 6 
#
# 1 155.2130 -6.4134 108.7977 0.0000 0.0000 0.0000
# 2 -6.4134 34.5022 4.9668 0.0000 0.0000 0.0000
# 3 108.7977 4.9668 132.9610 0.0000 0.0000 0.0000
# 4 0.0000 0.0000 0.0000 14.5770 0.0000 0.0000
# 5 0.0000 0.0000 0.0000 0.0000 29.4484 0.0000
# 6 0.0000 0.0000 0.0000 0.0000 0.0000 -82.6803
#
#
#
# Elastic Compliance Matrix: (Units=1/GPa)
#
#
# Indices 1 2 3 4 5 6 
#
# 1 0.015876 0.004847 -0.013172 0.000000 0.000000 0.000000
# 2 0.004847 0.030620 -0.005110 0.000000 0.000000 0.000000
# 3 -0.013172 -0.005110 0.018490 0.000000 0.000000 0.000000
# 4 0.000000 0.000000 0.000000 0.068601 0.000000 0.000000
# 5 0.000000 0.000000 0.000000 0.000000 0.033958 0.000000
# 6 0.000000 0.000000 0.000000 0.000000 0.000000 -0.012095
#
#
# Mechanical properties :
#
#
# Convention : Reuss Voigt Hill
#
# Bulk Modulus (GPa) = 26.23518 59.70870 42.97194
# Shear Modulus (GPa) = 25.63769 6.62404 16.13086
#
# Velocity S-wave (km/s) = 3.59136 1.82549 2.84871
# Velocity P-wave (km/s) = 5.51322 5.87210 5.69549
#
# Compressibility (1/GPa) = 0.03811676
#
# Stress axis : x y z
#
# Youngs Moduli (GPa) = 62.98837 32.65799 54.08332
#
# Poissons Ratio (x) = -0.15830 0.71238
# Poissons Ratio (y) = -0.30532 0.27638
# Poissons Ratio (z) = 0.82967 0.16689
#
# Static dielectric constant tensor:
#      x y z
#    x 1.684400 0.000000 0.000000 
#    y 0.000000 1.762610 0.000000 
#    z 0.000000 0.000000 1.714990 
# 
# From -- ./inp_files/4081.got.cif
#   From: 2010.05.17/outbox.cif.g08.bks.cpg/sg47_3_cif.got.tgz:4081.got - 2010.06.03 20:15:42.
