data_PCOD9388081
_publ_section_title
;
Structure prediction by ZEFSAII (Michael W. Deem and Ramdas Pophale) SiO2 
 PCOD9388081
Probable space group: P M M M
;
_chemical_formula_sum "Si O2"
_cell_formula_units_Z 40
_cell_length_a 15.019693
_cell_length_b 8.254190
_cell_length_c 16.816894
_cell_angle_alpha 90.000000
_cell_angle_beta 90.000000
_cell_angle_gamma 90.000000
_cell_volume 2084.881156
_symmetry_space_group_name_H-M "P M M M"
_symmetry_group_IT_number 47
_symmetry_cell_setting 'orthorhombic'
loop_
_space_group_symop_operation_xyz
x,y,z
-x,-y,z
x,-y,-z
-x,y,-z
-x,-y,-z
x,y,-z
-x,y,z
x,-y,z
loop_
_atom_site_type_symbol
_atom_site_label
_atom_site_fract_x
_atom_site_fract_y
_atom_site_fract_z
Si Si1 0.670732 0.190806 0.500000
Si Si2 0.759906 0.683385 0.219445
Si Si3 0.132687 0.688394 0.500000
Si Si4 0.900254 0.814625 0.329526
Si Si5 0.397897 0.695912 0.329626
Si Si6 0.899440 0.194720 0.091370
O O1 0.760897 0.293986 0.500000
O O2 0.621538 0.232220 0.417279
O O3 0.692660 0.000000 0.500000
O O4 0.738606 0.500000 0.196706
O O5 0.831713 0.693153 0.290351
O O6 0.671435 0.754695 0.261699
O O7 0.817057 0.758352 0.147495
O O8 0.107213 0.500000 0.500000
O O9 0.099215 0.778838 0.577751
O O10 0.000000 0.796422 0.297979
O O11 0.871439 0.000000 0.313976
O O12 0.500000 0.730170 0.308175
O O13 0.386801 0.500000 0.335966
O O14 0.000000 0.252946 0.114387
O O15 0.903643 0.000000 0.092624
O O16 0.884742 0.246743 0.000000
#
# Coordination Sequence:
#
# PCOD9388081 Si02
#       6
#     4   8   4   8   8   8
#     4  12  23  36  57  82 108 142 189 241 290 337
#     4  11  22  35  56  84 112 143 182 229 276 327
#     4  12  23  36  53  74 104 144 187 231 276 323
#     4  11  23  37  53  75 107 147 185 224 274 329
#     4  10  22  40  59  79 109 149 188 232 288 340
#     4   9  19  37  60  85 115 151 185 219 269 332
#
# _framework density 19.185748
#
# number of rings (size 3 to 8) (size 9 to 14) (size 15 to 20)
#    0.000    1.400    2.000    4.800    0.000    8.400 
#    0.000    1.000    0.000    0.600    0.000    4.200 
#    0.000    0.000    0.000    0.000    0.000    0.000 
#
# Total GULP energy -223198.642391 kJ/mol
# GULP energy per Si atom -5579.966060 kJ/mol
# Density = 1.914208 g / cm^3
# Si number density = 19.185748 Si / 1000 Ang^3
#
#
#
# Elastic Constant Matrix: (Units=GPa)
#
#
# Indices 1 2 3 4 5 6 
#
# 1 134.4985 22.5198 61.7852 0.0000 0.0000 0.0000
# 2 22.5198 36.2076 8.5987 0.0000 0.0000 0.0000
# 3 61.7852 8.5987 132.0493 0.0000 0.0000 0.0000
# 4 0.0000 0.0000 0.0000 29.1290 0.0000 0.0000
# 5 0.0000 0.0000 0.0000 0.0000 -4.1031 0.0000
# 6 0.0000 0.0000 0.0000 0.0000 0.0000 20.7816
#
#
#
# Elastic Compliance Matrix: (Units=1/GPa)
#
#
# Indices 1 2 3 4 5 6 
#
# 1 0.010418 -0.005405 -0.004522 0.000000 0.000000 0.000000
# 2 -0.005405 0.030857 0.000520 0.000000 0.000000 0.000000
# 3 -0.004522 0.000520 0.009655 0.000000 0.000000 0.000000
# 4 0.000000 0.000000 0.000000 0.034330 0.000000 0.000000
# 5 0.000000 0.000000 0.000000 0.000000 -0.243716 0.000000
# 6 0.000000 0.000000 0.000000 0.000000 0.000000 0.048120
#
#
# Mechanical properties :
#
#
# Convention : Reuss Voigt Hill
#
# Bulk Modulus (GPa) = 31.13921 54.28477 42.71199
# Shear Modulus (GPa) = -61.86830 23.15160 -19.35835
#
# Velocity S-wave (km/s) = -5.68481 3.47754 -3.17992
# Velocity P-wave (km/s) = 5.17916 6.66934 2.97123
#
# Compressibility (1/GPa) = 0.03211385
#
# Stress axis : x y z
#
# Youngs Moduli (GPa) = 95.99219 32.40755 103.57275
#
# Poissons Ratio (x) = 0.17517 0.46839
# Poissons Ratio (y) = 0.51887 -0.05384
# Poissons Ratio (z) = 0.43411 -0.01685
#
# Static dielectric constant tensor:
#      x y z
#    x 1.683880 0.000000 0.000000 
#    y 0.000000 1.671460 0.000000 
#    z 0.000000 0.000000 1.683720 
# 
# From -- ./inp_files/20690.got.cif
#   From: 2010.05.17/outbox.cif.g08.bks.cpg/sg47_11_cif.got.tgz:20690.got - 2010.06.03 20:15:42.
