data_PCOD9388696
_publ_section_title
;
Structure prediction by ZEFSAII (Michael W. Deem and Ramdas Pophale) SiO2 
 PCOD9388696
Probable space group: P M M M
;
_chemical_formula_sum "Si O2"
_cell_formula_units_Z 56
_cell_length_a 20.380065
_cell_length_b 9.597510
_cell_length_c 15.237436
_cell_angle_alpha 90.000000
_cell_angle_beta 90.000000
_cell_angle_gamma 90.000000
_cell_volume 2980.410142
_symmetry_space_group_name_H-M "P M M M"
_symmetry_group_IT_number 47
_symmetry_cell_setting 'orthorhombic'
loop_
_space_group_symop_operation_xyz
x,y,z
-x,-y,z
x,-y,-z
-x,y,-z
-x,-y,-z
x,y,-z
-x,y,z
x,-y,z
loop_
_atom_site_type_symbol
_atom_site_label
_atom_site_fract_x
_atom_site_fract_y
_atom_site_fract_z
Si Si1 0.428255 0.340979 0.855444
Si Si2 0.303288 0.844541 0.895322
Si Si3 0.155950 0.832267 0.104695
Si Si4 0.155950 0.167733 0.395305
Si Si5 0.428255 0.340979 0.644556
Si Si6 0.303288 0.155459 0.395322
Si Si7 0.078583 0.664394 0.250000
O O1 0.500000 0.287687 0.885911
O O2 0.421266 0.500000 0.887049
O O3 0.365044 0.251942 0.878032
O O4 0.430751 0.345302 0.750000
O O5 0.230925 0.796966 0.866622
O O6 0.315309 0.000000 0.859861
O O7 0.297025 0.855186 0.000000
O O8 0.107733 0.743647 0.165081
O O9 0.148057 0.000000 0.117052
O O10 0.148057 0.805271 0.000000
O O11 0.148057 0.194729 0.500000
O O12 0.230925 0.203034 0.366622
O O13 0.107733 0.256353 0.334919
O O14 0.148057 0.000000 0.382948
O O15 0.500000 0.287687 0.614089
O O16 0.421266 0.500000 0.612951
O O17 0.365044 0.251942 0.621968
O O18 0.297025 0.144814 0.500000
O O19 0.315309 0.000000 0.359861
O O20 0.096395 0.500000 0.250000
O O21 0.000000 0.674396 0.250000
#
# Coordination Sequence:
#
# PCOD9388696 Si02
#       7
#     8   8   8   8   8   8   8
#     4   9  19  34  49  70 104 143 182 224 270 323
#     4   9  19  35  54  78 106 136 176 227 278 325
#     4   9  20  40  63  87 117 153 194 239 285 338
#     4   9  20  40  63  87 117 153 194 239 285 338
#     4   9  19  34  49  70 104 143 182 224 270 323
#     4   9  19  35  54  78 106 136 176 227 278 325
#     4  11  25  41  59  89 124 155 188 229 283 344
#
# _framework density 18.789359999999999
#
# number of rings (size 3 to 8) (size 9 to 14) (size 15 to 20)
#    0.000    2.714    0.000    3.000    2.000    5.714 
#    0.000   10.000    0.000    0.000    0.000    0.000 
#    0.000    0.000    0.000    0.000    0.000    0.000 
#
# Total GULP energy -312170.365878 kJ/mol
# GULP energy per Si atom -5574.470819 kJ/mol
# Density = 1.874659 g / cm^3
# Si number density = 18.789360 Si / 1000 Ang^3
#
#
#
# Elastic Constant Matrix: (Units=GPa)
#
#
# Indices 1 2 3 4 5 6 
#
# 1 154.2483 89.1509 48.8805 0.0000 0.0000 0.0000
# 2 89.1509 81.8246 41.1769 0.0000 0.0000 0.0000
# 3 48.8805 41.1769 74.9665 0.0000 0.0000 0.0000
# 4 0.0000 0.0000 0.0000 26.3918 0.0000 0.0000
# 5 0.0000 0.0000 0.0000 0.0000 41.2850 0.0000
# 6 0.0000 0.0000 0.0000 0.0000 0.0000 37.5495
#
#
#
# Elastic Compliance Matrix: (Units=1/GPa)
#
#
# Indices 1 2 3 4 5 6 
#
# 1 0.017600 -0.018520 -0.001303 0.000000 0.000000 0.000000
# 2 -0.018520 0.036378 -0.007906 0.000000 0.000000 0.000000
# 3 -0.001303 -0.007906 0.018531 0.000000 0.000000 0.000000
# 4 0.000000 0.000000 0.000000 0.037891 0.000000 0.000000
# 5 0.000000 0.000000 0.000000 0.000000 0.024222 0.000000
# 6 0.000000 0.000000 0.000000 0.000000 0.000000 0.026632
#
#
# Mechanical properties :
#
#
# Convention : Reuss Voigt Hill
#
# Bulk Modulus (GPa) = 58.64609 74.38400 66.51504
# Shear Modulus (GPa) = 22.48243 29.83399 26.15821
#
# Velocity S-wave (km/s) = 3.46287 3.98906 3.73524
# Velocity P-wave (km/s) = 6.87523 7.80328 7.35391
#
# Compressibility (1/GPa) = 0.01705143
#
# Stress axis : x y z
#
# Youngs Moduli (GPa) = 56.81753 27.48902 53.96241
#
# Poissons Ratio (x) = 0.50910 0.07033
# Poissons Ratio (y) = 1.05227 0.42661
# Poissons Ratio (z) = 0.07405 0.21732
#
# Static dielectric constant tensor:
#      x y z
#    x 1.664470 0.000000 0.000000 
#    y 0.000000 1.645840 0.000000 
#    z 0.000000 0.000000 1.680230 
# 
# From -- ./inp_files/25150.got.cif
#   From: 2010.05.17/outbox.cif.g08.bks.cpg/sg47_13_cif.got.tgz:25150.got - 2010.06.03 20:15:42.
