data_PCOD9388544
_publ_section_title
;
Structure prediction by ZEFSAII (Michael W. Deem and Ramdas Pophale) SiO2 
 PCOD9388544
Probable space group: P M M M
;
_chemical_formula_sum "Si O2"
_cell_formula_units_Z 36
_cell_length_a 22.295857
_cell_length_b 12.116306
_cell_length_c 8.403421
_cell_angle_alpha 90.000000
_cell_angle_beta 90.000000
_cell_angle_gamma 90.000000
_cell_volume 2270.128939
_symmetry_space_group_name_H-M "P M M M"
_symmetry_group_IT_number 47
_symmetry_cell_setting 'orthorhombic'
loop_
_space_group_symop_operation_xyz
x,y,z
-x,-y,z
x,-y,-z
-x,y,-z
-x,-y,-z
x,y,-z
-x,y,z
x,-y,z
loop_
_atom_site_type_symbol
_atom_site_label
_atom_site_fract_x
_atom_site_fract_y
_atom_site_fract_z
Si Si1 0.930766 0.500000 0.689955
Si Si2 0.360576 0.133529 0.681491
Si Si3 0.569908 0.134443 0.000000
Si Si4 0.111752 0.732810 0.812291
Si Si5 0.779676 0.873463 0.310199
Si Si6 0.000000 0.125706 0.309591
O O1 0.933448 0.500000 0.500000
O O2 0.897778 0.389383 0.744497
O O3 0.000000 0.500000 0.750296
O O4 0.375965 0.172028 0.500000
O O5 0.398675 0.171699 0.834611
O O6 0.290192 0.155834 0.712317
O O7 0.366261 0.000000 0.676228
O O8 0.500000 0.164547 0.000000
O O9 0.573635 0.000000 0.000000
O O10 0.174526 0.789053 0.767386
O O11 0.058766 0.809607 0.745307
O O12 0.105576 0.727353 0.000000
O O13 0.790461 0.873704 0.500000
O O14 0.789080 0.000000 0.253022
O O15 0.000000 0.123315 0.500000
O O16 0.000000 0.000000 0.249577
#
# Coordination Sequence:
#
# PCOD9388544 Si02
#       6
#     4   8   4   8   8   4
#     4  11  23  41  61  71  88 126 164 195 242 309
#     4   8  15  27  42  61  90 128 167 206 244 287
#     4   9  16  24  38  62  92 128 169 206 240 284
#     4  12  24  35  53  77  98 121 156 206 255 297
#     4   9  18  33  51  71  97 131 169 204 245 299
#     4  11  23  38  53  70  97 129 161 197 240 295
#
# _framework density 15.858131
#
# number of rings (size 3 to 8) (size 9 to 14) (size 15 to 20)
#    0.000    2.111    1.111    4.667    1.556    4.889 
#    0.000    2.222    0.000    0.000    0.000    0.000 
#    0.000    0.000    0.000    2.000    0.000   12.889 
#
# Total GULP energy -200745.501592 kJ/mol
# GULP energy per Si atom -5576.263933 kJ/mol
# Density = 1.582204 g / cm^3
# Si number density = 15.858131 Si / 1000 Ang^3
#
#
#
# Elastic Constant Matrix: (Units=GPa)
#
#
# Indices 1 2 3 4 5 6 
#
# 1 81.5928 43.9299 69.6410 0.0000 0.0000 0.0000
# 2 43.9299 88.6322 41.8737 0.0000 0.0000 0.0000
# 3 69.6410 41.8737 112.4501 0.0000 0.0000 0.0000
# 4 0.0000 0.0000 0.0000 21.0777 0.0000 0.0000
# 5 0.0000 0.0000 0.0000 0.0000 30.3019 0.0000
# 6 0.0000 0.0000 0.0000 0.0000 0.0000 -2.4318
#
#
#
# Elastic Compliance Matrix: (Units=1/GPa)
#
#
# Indices 1 2 3 4 5 6 
#
# 1 0.029387 -0.007241 -0.015503 0.000000 0.000000 0.000000
# 2 -0.007241 0.015475 -0.001278 0.000000 0.000000 0.000000
# 3 -0.015503 -0.001278 0.018970 0.000000 0.000000 0.000000
# 4 0.000000 0.000000 0.000000 0.047443 0.000000 0.000000
# 5 0.000000 0.000000 0.000000 0.000000 0.033001 0.000000
# 6 0.000000 0.000000 0.000000 0.000000 0.000000 -0.411212
#
#
# Mechanical properties :
#
#
# Convention : Reuss Voigt Hill
#
# Bulk Modulus (GPa) = 63.34118 65.95159 64.64639
# Shear Modulus (GPa) = -23.40513 18.27160 -2.56677
#
# Velocity S-wave (km/s) = -3.84592 3.39808 -1.27362
# Velocity P-wave (km/s) = 4.50640 7.55478 6.22022
#
# Compressibility (1/GPa) = 0.01578752
#
# Stress axis : x y z
#
# Youngs Moduli (GPa) = 34.02912 64.61852 52.71515
#
# Poissons Ratio (x) = 0.46790 0.81724
# Poissons Ratio (y) = 0.24640 0.06739
# Poissons Ratio (z) = 0.52755 0.08260
#
# Static dielectric constant tensor:
#      x y z
#    x 1.523620 0.000000 0.000000 
#    y 0.000000 1.505650 0.000000 
#    z 0.000000 0.000000 1.548620 
# 
# From -- ./inp_files/10604.got.cif
#   From: 2010.05.17/outbox.cif.g08.bks.cpg/sg47_6_cif.got.tgz:10604.got - 2010.06.03 20:15:42.
