data_PCOD9388260
_publ_section_title
;
Structure prediction by ZEFSAII (Michael W. Deem and Ramdas Pophale) SiO2 
 PCOD9388260
Probable space group: P M M M
;
_chemical_formula_sum "Si O2"
_cell_formula_units_Z 52
_cell_length_a 23.961042
_cell_length_b 7.812295
_cell_length_c 14.992545
_cell_angle_alpha 90.000000
_cell_angle_beta 90.000000
_cell_angle_gamma 90.000000
_cell_volume 2806.465422
_symmetry_space_group_name_H-M "P M M M"
_symmetry_group_IT_number 47
_symmetry_cell_setting 'orthorhombic'
loop_
_space_group_symop_operation_xyz
x,y,z
-x,-y,z
x,-y,-z
-x,y,-z
-x,-y,-z
x,y,-z
-x,y,z
x,-y,z
loop_
_atom_site_type_symbol
_atom_site_label
_atom_site_fract_x
_atom_site_fract_y
_atom_site_fract_z
Si Si1 0.270377 0.795982 0.100828
Si Si2 0.353811 0.810208 0.246197
Si Si3 0.932283 0.000000 0.399143
Si Si4 0.141718 0.706653 0.900815
Si Si5 0.562531 0.705084 0.398078
Si Si6 0.066708 0.298774 0.265935
Si Si7 0.566150 0.702847 0.900223
O O1 0.305102 0.724353 0.185436
O O2 0.204640 0.769208 0.115083
O O3 0.281905 0.000000 0.098102
O O4 0.283152 0.728006 0.000000
O O5 0.385510 0.742761 0.333589
O O6 0.403068 0.809215 0.173530
O O7 0.333926 0.000000 0.269197
O O8 0.916546 0.170477 0.344898
O O9 0.911116 0.000000 0.500000
O O10 0.000000 0.000000 0.402682
O O11 0.143299 0.500000 0.901833
O O12 0.099549 0.755271 0.822878
O O13 0.124661 0.765051 0.000000
O O14 0.570684 0.766734 0.500000
O O15 0.500000 0.765306 0.367755
O O16 0.559033 0.500000 0.400888
O O17 0.078344 0.500000 0.284711
O O18 0.000000 0.283690 0.252396
O O19 0.500000 0.723842 0.895075
O O20 0.577535 0.500000 0.886404
O O21 0.584149 0.749602 0.000000
#
# Coordination Sequence:
#
# PCOD9388260 Si02
#       7
#     8   8   4   8   8   8   8
#     4   9  19  34  49  68  98 135 170 204 244 293
#     4  11  21  31  47  72  98 124 156 198 247 295
#     4   9  18  32  51  77 107 141 182 222 264 319
#     4   9  18  32  51  76 104 137 176 215 258 309
#     4   9  19  36  55  73  94 122 158 201 250 305
#     4   9  18  32  51  79 113 144 178 226 276 323
#     4   9  18  31  45  63  90 124 158 190 228 279
#
# _framework density 18.528645000000001
#
# number of rings (size 3 to 8) (size 9 to 14) (size 15 to 20)
#    0.000    2.692    0.000    2.308    1.077    5.538 
#    0.000    6.154    0.000    2.308    0.000    0.000 
#    0.000    0.000    0.000    0.000    0.000    0.000 
#
# Total GULP energy -289611.815954 kJ/mol
# GULP energy per Si atom -5569.457999 kJ/mol
# Density = 1.848647 g / cm^3
# Si number density = 18.528645 Si / 1000 Ang^3
#
#
#
# Elastic Constant Matrix: (Units=GPa)
#
#
# Indices 1 2 3 4 5 6 
#
# 1 58.5131 22.5508 62.7770 0.0000 0.0000 0.0000
# 2 22.5508 36.9062 42.4802 0.0000 0.0000 0.0000
# 3 62.7770 42.4802 142.7217 0.0000 0.0000 0.0000
# 4 0.0000 0.0000 0.0000 21.1658 0.0000 0.0000
# 5 0.0000 0.0000 0.0000 0.0000 31.1144 0.0000
# 6 0.0000 0.0000 0.0000 0.0000 0.0000 21.2552
#
#
#
# Elastic Compliance Matrix: (Units=1/GPa)
#
#
# Indices 1 2 3 4 5 6 
#
# 1 0.033020 -0.005261 -0.012958 0.000000 0.000000 0.000000
# 2 -0.005261 0.042055 -0.010203 0.000000 0.000000 0.000000
# 3 -0.012958 -0.010203 0.015743 0.000000 0.000000 0.000000
# 4 0.000000 0.000000 0.000000 0.047246 0.000000 0.000000
# 5 0.000000 0.000000 0.000000 0.000000 0.032139 0.000000
# 6 0.000000 0.000000 0.000000 0.000000 0.000000 0.047047
#
#
# Mechanical properties :
#
#
# Convention : Reuss Voigt Hill
#
# Bulk Modulus (GPa) = 29.43489 54.86189 42.14839
# Shear Modulus (GPa) = 17.51800 22.06261 19.79030
#
# Velocity S-wave (km/s) = 3.07816 3.45444 3.27171
# Velocity P-wave (km/s) = 5.34360 6.75162 6.08845
#
# Compressibility (1/GPa) = 0.03397329
#
# Stress axis : x y z
#
# Youngs Moduli (GPa) = 30.28434 23.77861 63.51882
#
# Poissons Ratio (x) = 0.12510 0.82310
# Poissons Ratio (y) = 0.15933 0.64810
# Poissons Ratio (z) = 0.39243 0.24262
#
# Static dielectric constant tensor:
#      x y z
#    x 1.635440 0.000000 0.000000 
#    y 0.000000 1.690100 0.000000 
#    z 0.000000 0.000000 1.658690 
# 
# From -- ./inp_files/25006.got.cif
#   From: 2010.05.17/outbox.cif.g08.bks.cpg/sg47_13_cif.got.tgz:25006.got - 2010.06.03 20:15:42.
