data_PCOD9388146
_publ_section_title
;
Structure prediction by ZEFSAII (Michael W. Deem and Ramdas Pophale) SiO2 
 PCOD9388146
Probable space group: P M M M
;
_chemical_formula_sum "Si O2"
_cell_formula_units_Z 29
_cell_length_a 14.501435
_cell_length_b 10.326531
_cell_length_c 11.371562
_cell_angle_alpha 90.000000
_cell_angle_beta 90.000000
_cell_angle_gamma 90.000000
_cell_volume 1702.885929
_symmetry_space_group_name_H-M "P M M M"
_symmetry_group_IT_number 47
_symmetry_cell_setting 'orthorhombic'
loop_
_space_group_symop_operation_xyz
x,y,z
-x,-y,z
x,-y,-z
-x,y,-z
-x,-y,-z
x,y,-z
-x,y,z
x,-y,z
loop_
_atom_site_type_symbol
_atom_site_label
_atom_site_fract_x
_atom_site_fract_y
_atom_site_fract_z
Si Si1 0.106240 0.500000 0.358915
Si Si2 0.210601 0.748269 0.256110
Si Si3 0.000000 0.500000 0.000000
Si Si4 0.395516 0.152434 0.641273
Si Si5 0.110906 0.000000 0.640078
Si Si6 0.189915 0.354614 0.000000
O O1 0.104373 0.500000 0.500000
O O2 0.158936 0.625343 0.312320
O O3 0.000000 0.500000 0.314408
O O4 0.314366 0.765386 0.302392
O O5 0.154477 0.874160 0.298916
O O6 0.212252 0.723715 0.117253
O O7 0.081652 0.389429 0.000000
O O8 0.389502 0.162828 0.500000
O O9 0.500000 0.188263 0.675937
O O10 0.381935 0.000000 0.670133
O O11 0.134046 0.000000 0.500000
O O12 0.000000 0.000000 0.649944
O O13 0.234701 0.500000 0.000000
#
# Coordination Sequence:
#
# PCOD9388146 Si02
#       6
#     4   8   1   8   4   4
#     4  11  23  36  58  87 117 161 203 240 306 372
#     4  12  22  39  61  86 124 159 204 252 299 360
#     4   8  20  44  60  78 108 168 228 254 268 334
#     4   9  18  36  63  92 122 158 197 245 310 371
#     4  11  24  37  56  90 127 155 191 254 323 367
#     4  10  24  39  61  83 116 166 214 247 291 346
#
# _framework density 17.029914000000002
#
# number of rings (size 3 to 8) (size 9 to 14) (size 15 to 20)
#    0.414    1.103    2.759    4.138    5.793    2.759 
#    0.000    2.069    0.000    4.966    0.000    0.000 
#    0.000    0.000    0.000    0.000    0.000    0.000 
#
# Total GULP energy -161598.268379 kJ/mol
# GULP energy per Si atom -5572.354082 kJ/mol
# Density = 1.699115 g / cm^3
# Si number density = 17.029914 Si / 1000 Ang^3
#
#
#
# Elastic Constant Matrix: (Units=GPa)
#
#
# Indices 1 2 3 4 5 6 
#
# 1 163.3917 73.6394 59.7455 0.0000 0.0000 0.0000
# 2 73.6394 139.3484 64.4607 0.0000 0.0000 0.0000
# 3 59.7455 64.4607 111.4714 0.0000 0.0000 0.0000
# 4 0.0000 0.0000 0.0000 22.2785 0.0000 0.0000
# 5 0.0000 0.0000 0.0000 0.0000 -9.8398 0.0000
# 6 0.0000 0.0000 0.0000 0.0000 0.0000 30.1112
#
#
#
# Elastic Compliance Matrix: (Units=1/GPa)
#
#
# Indices 1 2 3 4 5 6 
#
# 1 0.008591 -0.003290 -0.002702 0.000000 0.000000 0.000000
# 2 -0.003290 0.011057 -0.004631 0.000000 0.000000 0.000000
# 3 -0.002702 -0.004631 0.013097 0.000000 0.000000 0.000000
# 4 0.000000 0.000000 0.000000 0.044886 0.000000 0.000000
# 5 0.000000 0.000000 0.000000 0.000000 -0.101628 0.000000
# 6 0.000000 0.000000 0.000000 0.000000 0.000000 0.033210
#
#
# Mechanical properties :
#
#
# Convention : Reuss Voigt Hill
#
# Bulk Modulus (GPa) = 86.95958 89.98918 88.47438
# Shear Modulus (GPa) = 145.80662 22.93438 84.37050
#
# Velocity S-wave (km/s) = 9.26303 3.67374 7.04628
# Velocity P-wave (km/s) = 12.86774 8.42328 10.87498
#
# Compressibility (1/GPa) = 0.01149960
#
# Stress axis : x y z
#
# Youngs Moduli (GPa) = 116.39966 90.44103 76.35456
#
# Poissons Ratio (x) = 0.29756 0.20631
# Poissons Ratio (y) = 0.38297 0.35356
# Poissons Ratio (z) = 0.31451 0.41879
#
# Static dielectric constant tensor:
#      x y z
#    x 1.570850 0.000000 0.000000 
#    y 0.000000 1.570300 0.000000 
#    z 0.000000 0.000000 1.578270 
# 
# From -- ./inp_files/17048.got.cif
#   From: 2010.05.17/outbox.cif.g08.bks.cpg/sg47_9_cif.got.tgz:17048.got - 2010.06.03 20:15:42.
