data_PCOD9388004
_publ_section_title
;
Structure prediction by ZEFSAII (Michael W. Deem and Ramdas Pophale) SiO2 
 PCOD9388004
Probable space group: P M M M
;
_chemical_formula_sum "Si O2"
_cell_formula_units_Z 60
_cell_length_a 13.001047
_cell_length_b 20.961765
_cell_length_c 12.976364
_cell_angle_alpha 90.000000
_cell_angle_beta 90.000000
_cell_angle_gamma 90.000000
_cell_volume 3536.382197
_symmetry_space_group_name_H-M "P M M M"
_symmetry_group_IT_number 47
_symmetry_cell_setting 'orthorhombic'
loop_
_space_group_symop_operation_xyz
x,y,z
-x,-y,z
x,-y,-z
-x,y,-z
-x,-y,-z
x,y,-z
-x,y,z
x,-y,z
loop_
_atom_site_type_symbol
_atom_site_label
_atom_site_fract_x
_atom_site_fract_y
_atom_site_fract_z
Si Si1 0.388504 0.076391 0.615947
Si Si2 0.622257 0.778813 0.877147
Si Si3 0.376971 0.429228 0.379627
Si Si4 0.877642 0.573193 0.877032
Si Si5 0.877215 0.000000 0.878458
Si Si6 0.255513 0.326627 0.748458
Si Si7 0.121642 0.774150 0.622269
Si Si8 0.778465 0.875962 0.771879
O O1 0.375199 0.100768 0.500000
O O2 0.500000 0.098588 0.654452
O O3 0.298054 0.096158 0.687542
O O4 0.391169 0.000000 0.611265
O O5 0.500000 0.789117 0.851238
O O6 0.670890 0.718791 0.816578
O O7 0.702271 0.835241 0.845909
O O8 0.626856 0.769360 0.000000
O O9 0.350289 0.423743 0.500000
O O10 0.500000 0.425518 0.371757
O O11 0.345357 0.500000 0.344113
O O12 0.325170 0.374195 0.316321
O O13 0.848700 0.500000 0.847772
O O14 0.817048 0.628614 0.818534
O O15 0.000000 0.579626 0.858430
O O16 0.861060 0.578959 0.000000
O O17 0.832542 0.064915 0.828615
O O18 0.000000 0.000000 0.865275
O O19 0.853295 0.000000 0.000000
O O20 0.188397 0.283465 0.670111
O O21 0.147043 0.786656 0.500000
O O22 0.146122 0.831331 0.703529
O O23 0.000000 0.760381 0.625839
#
# Coordination Sequence:
#
# PCOD9388004 Si02
#       8
#     8   8   8   8   4   8   8   8
#     4   9  17  30  51  80 109 131 157 197 241 290
#     4  10  22  37  52  75 106 137 172 214 253 297
#     4   9  18  32  50  75 105 133 166 210 257 307
#     4   9  18  32  50  75 105 135 174 223 266 305
#     4  11  24  40  58  81 104 126 164 217 262 302
#     4  11  19  32  55  75 100 138 179 210 256 307
#     4  10  22  37  52  75 106 137 172 214 253 297
#     4  11  20  37  59  77 101 136 172 202 252 313
#
# _framework density 16.966491999999999
#
# number of rings (size 3 to 8) (size 9 to 14) (size 15 to 20)
#    0.000    2.067    0.667    4.800    0.000    0.000 
#    0.000    0.000    0.000   16.000    0.000   11.200 
#    0.000    0.000    0.000    0.000    0.000    0.000 
#
# Total GULP energy -334322.581334 kJ/mol
# GULP energy per Si atom -5572.043022 kJ/mol
# Density = 1.692788 g / cm^3
# Si number density = 16.966492 Si / 1000 Ang^3
#
#
#
# Elastic Constant Matrix: (Units=GPa)
#
#
# Indices 1 2 3 4 5 6 
#
# 1 73.7152 47.1991 56.2163 0.0000 0.0000 0.0000
# 2 47.1991 121.8279 61.6599 0.0000 0.0000 0.0000
# 3 56.2163 61.6599 87.4550 0.0000 0.0000 0.0000
# 4 0.0000 0.0000 0.0000 41.7066 0.0000 0.0000
# 5 0.0000 0.0000 0.0000 0.0000 34.0959 0.0000
# 6 0.0000 0.0000 0.0000 0.0000 0.0000 40.5997
#
#
#
# Elastic Compliance Matrix: (Units=1/GPa)
#
#
# Indices 1 2 3 4 5 6 
#
# 1 0.027138 -0.002620 -0.015597 0.000000 0.000000 0.000000
# 2 -0.002620 0.013015 -0.007492 0.000000 0.000000 0.000000
# 3 -0.015597 -0.007492 0.026743 0.000000 0.000000 0.000000
# 4 0.000000 0.000000 0.000000 0.023977 0.000000 0.000000
# 5 0.000000 0.000000 0.000000 0.000000 0.029329 0.000000
# 6 0.000000 0.000000 0.000000 0.000000 0.000000 0.024631
#
#
# Mechanical properties :
#
#
# Convention : Reuss Voigt Hill
#
# Bulk Modulus (GPa) = 64.61099 68.12763 66.36931
# Shear Modulus (GPa) = 24.82491 31.14198 27.98345
#
# Velocity S-wave (km/s) = 3.82929 4.28892 4.06561
# Velocity P-wave (km/s) = 7.59707 8.04785 7.82571
#
# Compressibility (1/GPa) = 0.01547724
#
# Stress axis : x y z
#
# Youngs Moduli (GPa) = 36.84905 76.83237 37.39309
#
# Poissons Ratio (x) = 0.20128 0.58323
# Poissons Ratio (y) = 0.09653 0.28017
# Poissons Ratio (z) = 0.57474 0.57566
#
# Static dielectric constant tensor:
#      x y z
#    x 1.561180 0.000000 0.000000 
#    y 0.000000 1.036860 0.000000 
#    z 0.000000 0.000000 1.560410 
# 
# From -- ./inp_files/16610.got.cif
#   From: 2010.05.17/outbox.cif.g08.bks.cpg/sg47_9_cif.got.tgz:16610.got - 2010.06.03 20:15:42.
