data_PCOD9388531
_publ_section_title
;
Structure prediction by ZEFSAII (Michael W. Deem and Ramdas Pophale) SiO2 
 PCOD9388531
Probable space group: P M M M
;
_chemical_formula_sum "Si O2"
_cell_formula_units_Z 40
_cell_length_a 8.363501
_cell_length_b 13.227033
_cell_length_c 24.231130
_cell_angle_alpha 90.000000
_cell_angle_beta 90.000000
_cell_angle_gamma 90.000000
_cell_volume 2680.551885
_symmetry_space_group_name_H-M "P M M M"
_symmetry_group_IT_number 47
_symmetry_cell_setting 'orthorhombic'
loop_
_space_group_symop_operation_xyz
x,y,z
-x,-y,z
x,-y,-z
-x,y,-z
-x,-y,-z
x,y,-z
-x,y,z
x,-y,z
loop_
_atom_site_type_symbol
_atom_site_label
_atom_site_fract_x
_atom_site_fract_y
_atom_site_fract_z
Si Si1 0.190826 0.500000 0.437011
Si Si2 0.500000 0.623112 0.064070
Si Si3 0.688367 0.305219 0.370191
Si Si4 0.192951 0.114478 0.563324
Si Si5 0.184101 0.622975 0.131221
Si Si6 0.191464 0.616067 0.742220
O O1 0.253599 0.500000 0.500000
O O2 0.241506 0.599975 0.404130
O O3 0.000000 0.500000 0.439564
O O4 0.500000 0.500000 0.066374
O O5 0.333920 0.655713 0.093584
O O6 0.500000 0.652777 0.000000
O O7 0.500000 0.310692 0.374944
O O8 0.747317 0.200938 0.396449
O O9 0.737211 0.317989 0.306504
O O10 0.243683 0.135452 0.500000
O O11 0.000000 0.115648 0.563771
O O12 0.244454 0.000000 0.577426
O O13 0.180037 0.500000 0.129475
O O14 0.220546 0.649996 0.194973
O O15 0.000000 0.655360 0.117429
O O16 0.250509 0.500000 0.736401
O O17 0.000000 0.613678 0.735345
#
# Coordination Sequence:
#
# PCOD9388531 Si02
#       6
#     4   4   8   8   8   8
#     4  11  23  37  49  61  87 123 151 182 225 278
#     4   9  16  24  36  56  80 110 147 190 227 263
#     4  12  23  31  46  72  94 115 143 186 238 282
#     4   9  19  37  57  70  83 112 152 187 223 277
#     4   8  15  26  39  55  77 111 148 188 229 265
#     4   9  17  30  46  61  84 117 153 187 221 269
#
# _framework density 14.922302
#
# number of rings (size 3 to 8) (size 9 to 14) (size 15 to 20)
#    0.000    2.400    1.000    4.500    1.400    4.400 
#    0.000    3.000    0.000    0.000    0.000    0.000 
#    0.000    0.000    0.000    0.000    0.000    2.000 
#
# Total GULP energy -222908.309970 kJ/mol
# GULP energy per Si atom -5572.707749 kJ/mol
# Density = 1.488834 g / cm^3
# Si number density = 14.922302 Si / 1000 Ang^3
#
#
#
# Elastic Constant Matrix: (Units=GPa)
#
#
# Indices 1 2 3 4 5 6 
#
# 1 83.3234 32.8624 70.1111 0.0000 0.0000 0.0000
# 2 32.8624 59.2918 47.8071 0.0000 0.0000 0.0000
# 3 70.1111 47.8071 108.5226 0.0000 0.0000 0.0000
# 4 0.0000 0.0000 0.0000 14.6474 0.0000 0.0000
# 5 0.0000 0.0000 0.0000 0.0000 31.3400 0.0000
# 6 0.0000 0.0000 0.0000 0.0000 0.0000 57.4636
#
#
#
# Elastic Compliance Matrix: (Units=1/GPa)
#
#
# Indices 1 2 3 4 5 6 
#
# 1 0.026367 -0.001363 -0.016434 0.000000 0.000000 0.000000
# 2 -0.001363 0.026227 -0.010673 0.000000 0.000000 0.000000
# 3 -0.016434 -0.010673 0.024534 0.000000 0.000000 0.000000
# 4 0.000000 0.000000 0.000000 0.068271 0.000000 0.000000
# 5 0.000000 0.000000 0.000000 0.000000 0.031908 0.000000
# 6 0.000000 0.000000 0.000000 0.000000 0.000000 0.017402
#
#
# Mechanical properties :
#
#
# Convention : Reuss Voigt Hill
#
# Bulk Modulus (GPa) = 49.53600 61.41101 55.47350
# Shear Modulus (GPa) = 19.35143 27.38068 23.36605
#
# Velocity S-wave (km/s) = 3.60504 4.28820 3.96137
# Velocity P-wave (km/s) = 7.11311 8.10934 7.62751
#
# Compressibility (1/GPa) = 0.02018734
#
# Stress axis : x y z
#
# Youngs Moduli (GPa) = 37.92596 38.12880 40.76056
#
# Poissons Ratio (x) = 0.05198 0.66986
# Poissons Ratio (y) = 0.05170 0.43503
# Poissons Ratio (z) = 0.62327 0.40694
#
# Static dielectric constant tensor:
#      x y z
#    x 1.512250 0.000000 0.000000 
#    y 0.000000 1.619320 0.000000 
#    z 0.000000 0.000000 1.504340 
# 
# From -- ./inp_files/4115.got.cif
#   From: 2010.05.17/outbox.cif.g08.bks.cpg/sg47_3_cif.got.tgz:4115.got - 2010.06.03 20:15:42.
