data_PCOD9388659
_publ_section_title
;
Structure prediction by ZEFSAII (Michael W. Deem and Ramdas Pophale) SiO2 
 PCOD9388659
Probable space group: P M M M
;
_chemical_formula_sum "Si O2"
_cell_formula_units_Z 64
_cell_length_a 15.395780
_cell_length_b 8.997564
_cell_length_c 23.995215
_cell_angle_alpha 90.000000
_cell_angle_beta 90.000000
_cell_angle_gamma 90.000000
_cell_volume 3323.925541
_symmetry_space_group_name_H-M "P M M M"
_symmetry_group_IT_number 47
_symmetry_cell_setting 'orthorhombic'
loop_
_space_group_symop_operation_xyz
x,y,z
-x,-y,z
x,-y,-z
-x,y,-z
-x,-y,-z
x,y,-z
-x,y,z
x,-y,z
loop_
_atom_site_type_symbol
_atom_site_label
_atom_site_fract_x
_atom_site_fract_y
_atom_site_fract_z
Si Si1 0.221077 0.818166 0.561258
Si Si2 0.602600 0.322351 0.156524
Si Si3 0.898926 0.661078 0.780586
Si Si4 0.274848 0.176935 0.062470
Si Si5 0.160870 0.830546 0.321790
Si Si6 0.357088 0.171664 0.725792
Si Si7 0.407347 0.181179 0.395737
Si Si8 0.898222 0.681364 0.900753
O O1 0.191689 0.771322 0.500000
O O2 0.168018 0.769069 0.615638
O O3 0.320942 0.771821 0.572127
O O4 0.219995 0.000000 0.562692
O O5 0.500000 0.289382 0.147211
O O6 0.614265 0.500000 0.154961
O O7 0.663846 0.248633 0.109705
O O8 0.627227 0.262664 0.218263
O O9 0.855435 0.500000 0.775027
O O10 0.893239 0.742799 0.722804
O O11 0.869567 0.733654 0.838149
O O12 0.000000 0.641977 0.792773
O O13 0.178219 0.248430 0.063370
O O14 0.268025 0.000000 0.072034
O O15 0.311106 0.201098 0.000000
O O16 0.256853 0.829922 0.294111
O O17 0.130762 0.000000 0.325275
O O18 0.402841 0.227236 0.669169
O O19 0.383351 0.000000 0.735867
O O20 0.500000 0.226237 0.420112
O O21 0.404222 0.000000 0.395041
O O22 0.894348 0.500000 0.901868
O O23 0.000000 0.720857 0.912874
#
# Coordination Sequence:
#
# PCOD9388659 Si02
#       8
#     8   8   8   8   8   8   8   8
#     4   8  14  24  37  56  86 123 161 201 241 280
#     4  11  24  39  56  79 105 136 178 226 271 315
#     4   9  18  32  50  74 102 128 155 191 239 294
#     4  11  25  42  59  81 109 142 180 219 258 304
#     4   9  17  28  45  71  98 126 163 203 245 296
#     4   9  17  30  49  73 101 130 160 200 253 309
#     4   8  13  21  36  61  91 122 156 193 236 289
#     4   9  19  37  61  88 116 144 172 205 252 311
#
# _framework density 19.254342999999999
#
# number of rings (size 3 to 8) (size 9 to 14) (size 15 to 20)
#    0.000    2.750    0.000    4.125    0.000    6.750 
#    0.000    5.000    0.000    0.750    0.000    2.625 
#    0.000    0.000    0.000   13.250    0.000   10.000 
#
# Total GULP energy -356332.231764 kJ/mol
# GULP energy per Si atom -5567.691121 kJ/mol
# Density = 1.921052 g / cm^3
# Si number density = 19.254343 Si / 1000 Ang^3
#
#
#
# Elastic Constant Matrix: (Units=GPa)
#
#
# Indices 1 2 3 4 5 6 
#
# 1 32.9722 15.8326 27.1350 0.0000 0.0000 0.0000
# 2 15.8326 30.5704 31.5988 0.0000 0.0000 0.0000
# 3 27.1350 31.5988 127.9651 0.0000 0.0000 0.0000
# 4 0.0000 0.0000 0.0000 -36.5565 0.0000 0.0000
# 5 0.0000 0.0000 0.0000 0.0000 5.4521 0.0000
# 6 0.0000 0.0000 0.0000 0.0000 0.0000 18.9289
#
#
#
# Elastic Compliance Matrix: (Units=1/GPa)
#
#
# Indices 1 2 3 4 5 6 
#
# 1 0.042453 -0.017028 -0.004797 0.000000 0.000000 0.000000
# 2 -0.017028 0.050752 -0.008922 0.000000 0.000000 0.000000
# 3 -0.004797 -0.008922 0.011035 0.000000 0.000000 0.000000
# 4 0.000000 0.000000 0.000000 -0.027355 0.000000 0.000000
# 5 0.000000 0.000000 0.000000 0.000000 0.183414 0.000000
# 6 0.000000 0.000000 0.000000 0.000000 0.000000 0.052829
#
#
# Mechanical properties :
#
#
# Convention : Reuss Voigt Hill
#
# Bulk Modulus (GPa) = 23.39388 37.84894 30.62141
# Shear Modulus (GPa) = 12.85771 5.36100 9.10935
#
# Velocity S-wave (km/s) = 2.58695 1.67043 2.17746
# Velocity P-wave (km/s) = 4.59341 4.83947 4.71804
#
# Compressibility (1/GPa) = 0.04274621
#
# Stress axis : x y z
#
# Youngs Moduli (GPa) = 23.55531 19.70361 90.62117
#
# Poissons Ratio (x) = 0.33551 0.43475
# Poissons Ratio (y) = 0.40110 0.80848
# Poissons Ratio (z) = 0.11300 0.17579
#
# Static dielectric constant tensor:
#      x y z
#    x 1.739250 0.000000 0.000000 
#    y 0.000000 1.676710 0.000000 
#    z 0.000000 0.000000 1.691570 
# 
# From -- ./inp_files/32778.got.cif
#   From: 2010.05.17/outbox.cif.g08.bks.cpg/sg47_17_cif.got.tgz:32778.got - 2010.06.03 20:15:42.
