data_PCOD9388208
_publ_section_title
;
Structure prediction by ZEFSAII (Michael W. Deem and Ramdas Pophale) SiO2 
 PCOD9388208
Probable space group: P M M M
;
_chemical_formula_sum "Si O2"
_cell_formula_units_Z 52
_cell_length_a 8.573166
_cell_length_b 28.263294
_cell_length_c 12.284577
_cell_angle_alpha 90.000000
_cell_angle_beta 90.000000
_cell_angle_gamma 90.000000
_cell_volume 2976.625623
_symmetry_space_group_name_H-M "P M M M"
_symmetry_group_IT_number 47
_symmetry_cell_setting 'orthorhombic'
loop_
_space_group_symop_operation_xyz
x,y,z
-x,-y,z
x,-y,-z
-x,y,-z
-x,-y,-z
x,y,-z
-x,y,z
x,-y,z
loop_
_atom_site_type_symbol
_atom_site_label
_atom_site_fract_x
_atom_site_fract_y
_atom_site_fract_z
Si Si1 0.312714 0.910282 0.269509
Si Si2 0.811074 0.175364 0.127340
Si Si3 0.313638 0.554487 0.000000
Si Si4 0.184660 0.382480 0.803836
Si Si5 0.188679 0.281636 0.872782
Si Si6 0.684405 0.447170 0.629604
Si Si7 0.812811 0.055453 0.500000
Si Si8 0.689902 0.000000 0.124938
O O1 0.500000 0.910509 0.274935
O O2 0.256038 0.862889 0.209966
O O3 0.247725 0.919636 0.390197
O O4 0.261236 0.953801 0.191944
O O5 0.758024 0.228830 0.156808
O O6 0.000000 0.173871 0.131298
O O7 0.767237 0.166382 0.000000
O O8 0.258295 0.583914 0.104546
O O9 0.255834 0.500000 0.000000
O O10 0.500000 0.552809 0.000000
O O11 0.244418 0.328477 0.811406
O O12 0.222840 0.406797 0.690212
O O13 0.000000 0.381308 0.823567
O O14 0.000000 0.280191 0.863773
O O15 0.225400 0.288906 0.000000
O O16 0.701767 0.444780 0.500000
O O17 0.500000 0.442753 0.654469
O O18 0.733878 0.500000 0.665494
O O19 0.000000 0.056257 0.500000
O O20 0.761726 0.000000 0.500000
O O21 0.500000 0.000000 0.122203
O O22 0.744553 0.000000 0.000000
#
# Coordination Sequence:
#
# PCOD9388208 Si02
#       8
#     8   8   4   8   8   8   4   4
#     4  11  21  35  56  81 113 146 181 224 270 317
#     4   9  18  34  57  81 108 143 182 220 263 316
#     4  11  23  35  47  71 111 151 179 208 261 328
#     4  11  20  32  54  80 105 134 175 224 266 310
#     4   8  15  31  53  76 105 141 175 211 261 319
#     4   9  19  36  54  71  98 138 176 211 261 323
#     4  11  23  39  59  81 109 145 189 229 264 319
#     4   9  18  31  49  76 112 149 174 203 260 321
#
# _framework density 17.469446999999999
#
# number of rings (size 3 to 8) (size 9 to 14) (size 15 to 20)
#    0.000    2.231    1.538    3.692    0.000    4.308 
#    0.000    2.308    1.692    1.846    0.000    0.000 
#    0.000    0.000    0.000    0.000    0.000    0.000 
#
# Total GULP energy -290047.168036 kJ/mol
# GULP energy per Si atom -5577.830155 kJ/mol
# Density = 1.742969 g / cm^3
# Si number density = 17.469447 Si / 1000 Ang^3
#
#
#
# Elastic Constant Matrix: (Units=GPa)
#
#
# Indices 1 2 3 4 5 6 
#
# 1 28.2304 34.5437 26.8023 0.0000 0.0000 0.0000
# 2 34.5437 174.9099 77.1929 0.0000 0.0000 0.0000
# 3 26.8023 77.1929 97.1576 0.0000 0.0000 0.0000
# 4 0.0000 0.0000 0.0000 17.2675 0.0000 0.0000
# 5 0.0000 0.0000 0.0000 0.0000 26.7592 0.0000
# 6 0.0000 0.0000 0.0000 0.0000 0.0000 1.5223
#
#
#
# Elastic Compliance Matrix: (Units=1/GPa)
#
#
# Indices 1 2 3 4 5 6 
#
# 1 0.051837 -0.006047 -0.009496 0.000000 0.000000 0.000000
# 2 -0.006047 0.009510 -0.005888 0.000000 0.000000 0.000000
# 3 -0.009496 -0.005888 0.017590 0.000000 0.000000 0.000000
# 4 0.000000 0.000000 0.000000 0.057912 0.000000 0.000000
# 5 0.000000 0.000000 0.000000 0.000000 0.037370 0.000000
# 6 0.000000 0.000000 0.000000 0.000000 0.000000 0.656921
#
#
# Mechanical properties :
#
#
# Convention : Reuss Voigt Hill
#
# Bulk Modulus (GPa) = 27.71881 64.15286 45.93584
# Shear Modulus (GPa) = 5.64318 19.89374 12.76846
#
# Velocity S-wave (km/s) = 1.79926 3.37823 2.70645
# Velocity P-wave (km/s) = 4.49643 7.21244 6.00987
#
# Compressibility (1/GPa) = 0.03607658
#
# Stress axis : x y z
#
# Youngs Moduli (GPa) = 19.29119 105.15483 56.85108
#
# Poissons Ratio (x) = 0.63585 0.53984
# Poissons Ratio (y) = 0.11665 0.33471
# Poissons Ratio (z) = 0.18318 0.61910
#
# Static dielectric constant tensor:
#      x y z
#    x 1.599720 0.000000 0.000000 
#    y 0.000000 1.609620 0.000000 
#    z 0.000000 0.000000 1.576900 
# 
# From -- ./inp_files/15494.got.cif
#   From: 2010.05.17/outbox.cif.g08.bks.cpg/sg47_8_cif.got.tgz:15494.got - 2010.06.03 20:15:42.
