data_PCOD9388837
_publ_section_title
;
Structure prediction by ZEFSAII (Michael W. Deem and Ramdas Pophale) SiO2 
 PCOD9388837
Probable space group: P M M M
;
_chemical_formula_sum "Si O2"
_cell_formula_units_Z 44
_cell_length_a 7.408638
_cell_length_b 32.434659
_cell_length_c 8.007227
_cell_angle_alpha 90.000000
_cell_angle_beta 90.000000
_cell_angle_gamma 90.000000
_cell_volume 1924.109801
_symmetry_space_group_name_H-M "P M M M"
_symmetry_group_IT_number 47
_symmetry_cell_setting 'orthorhombic'
loop_
_space_group_symop_operation_xyz
x,y,z
-x,-y,z
x,-y,-z
-x,y,-z
-x,-y,-z
x,y,-z
-x,y,z
x,-y,z
loop_
_atom_site_type_symbol
_atom_site_label
_atom_site_fract_x
_atom_site_fract_y
_atom_site_fract_z
Si Si1 0.290273 0.100223 0.188980
Si Si2 0.780292 0.455656 0.801661
Si Si3 0.793399 0.279836 0.697866
Si Si4 0.721460 0.047772 0.500000
Si Si5 0.209623 0.632744 0.200887
Si Si6 0.206564 0.807546 0.200332
O O1 0.500000 0.089098 0.173707
O O2 0.214365 0.071247 0.333343
O O3 0.283698 0.148013 0.246376
O O4 0.212388 0.097470 0.000000
O O5 0.721454 0.500000 0.730482
O O6 0.715976 0.411231 0.736040
O O7 0.000000 0.454722 0.790710
O O8 0.737139 0.456600 0.000000
O O9 0.803908 0.281461 0.500000
O O10 0.709140 0.323067 0.754147
O O11 0.710017 0.235783 0.743936
O O12 0.000000 0.279009 0.769680
O O13 0.500000 0.049813 0.500000
O O14 0.771760 0.000000 0.500000
O O15 0.000000 0.634460 0.258849
O O16 0.209234 0.630155 0.000000
O O17 0.000000 0.807762 0.262422
O O18 0.207988 0.806601 0.000000
#
# Coordination Sequence:
#
# PCOD9388837 Si02
#       6
#     8   8   8   4   8   8
#     4   9  18  32  50  72  96 121 150 185 222 259
#     4   7   9  13  22  36  51  70 104 150 195 237
#     4   9  16  23  32  49  72  98 129 166 206 248
#     4   9  18  32  51  75  99 123 153 187 220 257
#     4   8  12  18  28  40  57  83 115 155 200 243
#     4   9  17  29  45  64  86 114 147 181 217 258
#
# _framework density 22.867718
#
# number of rings (size 3 to 8) (size 9 to 14) (size 15 to 20)
#    0.000    3.545    0.000    2.182    1.273    2.545 
#    0.000    1.818    0.000    1.636    0.000    6.364 
#    0.000    0.000    0.000    0.000    0.000    0.909 
#
# Total GULP energy -245078.833622 kJ/mol
# GULP energy per Si atom -5569.973491 kJ/mol
# Density = 2.281567 g / cm^3
# Si number density = 22.867718 Si / 1000 Ang^3
#
#
#
# Elastic Constant Matrix: (Units=GPa)
#
#
# Indices 1 2 3 4 5 6 
#
# 1 71.8536 9.1387 6.9576 0.0000 0.0000 0.0000
# 2 9.1387 263.1769 87.1069 0.0000 0.0000 0.0000
# 3 6.9576 87.1069 58.5196 0.0000 0.0000 0.0000
# 4 0.0000 0.0000 0.0000 106.3785 0.0000 0.0000
# 5 0.0000 0.0000 0.0000 0.0000 -62.2717 0.0000
# 6 0.0000 0.0000 0.0000 0.0000 0.0000 7.2495
#
#
#
# Elastic Compliance Matrix: (Units=1/GPa)
#
#
# Indices 1 2 3 4 5 6 
#
# 1 0.014081 0.000128 -0.001865 0.000000 0.000000 0.000000
# 2 0.000128 0.007491 -0.011165 0.000000 0.000000 0.000000
# 3 -0.001865 -0.011165 0.033930 0.000000 0.000000 0.000000
# 4 0.000000 0.000000 0.000000 0.009400 0.000000 0.000000
# 5 0.000000 0.000000 0.000000 0.000000 -0.016059 0.000000
# 6 0.000000 0.000000 0.000000 0.000000 0.000000 0.137941
#
#
# Mechanical properties :
#
#
# Convention : Reuss Voigt Hill
#
# Bulk Modulus (GPa) = 33.67292 66.66185 50.16739
# Shear Modulus (GPa) = 22.47305 29.62771 26.05038
#
# Velocity S-wave (km/s) = 3.13827 3.60337 3.37883
# Velocity P-wave (km/s) = 5.28098 6.82105 6.09981
#
# Compressibility (1/GPa) = 0.02969745
#
# Stress axis : x y z
#
# Youngs Moduli (GPa) = 71.01530 133.49670 29.47256
#
# Poissons Ratio (x) = -0.01715 0.05498
# Poissons Ratio (y) = -0.00912 0.32907
# Poissons Ratio (z) = 0.13247 1.49055
#
# Static dielectric constant tensor:
#      x y z
#    x 1.956520 0.000000 0.000000 
#    y 0.000000 1.893830 0.000000 
#    z 0.000000 0.000000 1.822630 
# 
# From -- ./inp_files/2155.got.cif
#   From: 2010.05.17/outbox.cif.g08.bks.cpg/sg47_2_cif.got.tgz:2155.got - 2010.06.03 20:15:42.
