data_PCOD9388896
_publ_section_title
;
Structure prediction by ZEFSAII (Michael W. Deem and Ramdas Pophale) SiO2 
 PCOD9388896
Probable space group: P M M M
;
_chemical_formula_sum "Si O2"
_cell_formula_units_Z 44
_cell_length_a 8.136857
_cell_length_b 32.251335
_cell_length_c 7.367959
_cell_angle_alpha 90.000000
_cell_angle_beta 90.000000
_cell_angle_gamma 90.000000
_cell_volume 1933.532964
_symmetry_space_group_name_H-M "P M M M"
_symmetry_group_IT_number 47
_symmetry_cell_setting 'orthorhombic'
loop_
_space_group_symop_operation_xyz
x,y,z
-x,-y,z
x,-y,-z
-x,y,-z
-x,-y,-z
x,y,-z
-x,y,z
x,-y,z
loop_
_atom_site_type_symbol
_atom_site_label
_atom_site_fract_x
_atom_site_fract_y
_atom_site_fract_z
Si Si1 0.181898 0.099711 0.778375
Si Si2 0.314898 0.632882 0.283260
Si Si3 0.194542 0.455624 0.281527
Si Si4 0.310310 0.278004 0.216769
Si Si5 0.500000 0.952253 0.778437
Si Si6 0.693929 0.811712 0.220455
O O1 0.335161 0.071656 0.720247
O O2 0.213908 0.147116 0.719032
O O3 0.000000 0.085827 0.722353
O O4 0.184055 0.099518 0.000000
O O5 0.319603 0.628655 0.500000
O O6 0.500000 0.637345 0.212600
O O7 0.251428 0.588969 0.211835
O O8 0.229488 0.677366 0.253282
O O9 0.221642 0.455580 0.500000
O O10 0.264014 0.500000 0.215073
O O11 0.000000 0.456782 0.251760
O O12 0.500000 0.279555 0.285665
O O13 0.242178 0.233612 0.280245
O O14 0.318086 0.275236 0.000000
O O15 0.500000 0.000000 0.722069
O O16 0.500000 0.951505 0.000000
O O17 0.500000 0.814778 0.267487
O O18 0.701285 0.812313 0.000000
#
# Coordination Sequence:
#
# PCOD9388896 Si02
#       6
#     8   8   8   8   4   8
#     4   9  15  22  33  48  66  90 124 167 207 241
#     4   9  16  25  39  61  84 101 124 163 204 237
#     4   8  14  25  40  56  74  99 130 159 190 235
#     4   8  14  24  39  57  77 105 135 160 194 242
#     4   9  16  24  32  44  66  96 129 165 206 251
#     4   8  12  21  36  49  63  88 124 160 191 228
#
# _framework density 22.756269
#
# number of rings (size 3 to 8) (size 9 to 14) (size 15 to 20)
#    0.000    3.545    0.909    1.636    0.000    0.727 
#    0.000    4.545    0.000    2.182    0.000    3.818 
#    0.000    0.000    0.000    0.000    0.000    1.818 
#
# Total GULP energy -245098.505506 kJ/mol
# GULP energy per Si atom -5570.420580 kJ/mol
# Density = 2.270447 g / cm^3
# Si number density = 22.756269 Si / 1000 Ang^3
#
#
#
# Elastic Constant Matrix: (Units=GPa)
#
#
# Indices 1 2 3 4 5 6 
#
# 1 84.5193 92.5376 5.9667 0.0000 0.0000 0.0000
# 2 92.5376 251.5823 5.0929 0.0000 0.0000 0.0000
# 3 5.9667 5.0929 77.5492 0.0000 0.0000 0.0000
# 4 0.0000 0.0000 0.0000 9.0469 0.0000 0.0000
# 5 0.0000 0.0000 0.0000 0.0000 -17.6218 0.0000
# 6 0.0000 0.0000 0.0000 0.0000 0.0000 -68.1992
#
#
#
# Elastic Compliance Matrix: (Units=1/GPa)
#
#
# Indices 1 2 3 4 5 6 
#
# 1 0.019894 -0.007296 -0.001052 0.000000 0.000000 0.000000
# 2 -0.007296 0.006656 0.000124 0.000000 0.000000 0.000000
# 3 -0.001052 0.000124 0.012968 0.000000 0.000000 0.000000
# 4 0.000000 0.000000 0.000000 0.110535 0.000000 0.000000
# 5 0.000000 0.000000 0.000000 0.000000 -0.056748 0.000000
# 6 0.000000 0.000000 0.000000 0.000000 0.000000 -0.014663
#
#
# Mechanical properties :
#
#
# Convention : Reuss Voigt Hill
#
# Bulk Modulus (GPa) = 43.34433 68.98281 56.16357
# Shear Modulus (GPa) = 48.64777 5.31542 26.98160
#
# Velocity S-wave (km/s) = 4.62862 1.52999 3.44710
# Velocity P-wave (km/s) = 6.90319 5.78798 6.37004
#
# Compressibility (1/GPa) = 0.02307107
#
# Stress axis : x y z
#
# Youngs Moduli (GPa) = 50.26553 150.23878 77.11421
#
# Poissons Ratio (x) = 1.09619 0.08109
# Poissons Ratio (y) = 0.36675 -0.00958
# Poissons Ratio (z) = 0.05286 -0.01867
#
# Static dielectric constant tensor:
#      x y z
#    x 1.819640 0.000000 0.000000 
#    y 0.000000 1.951210 0.000000 
#    z 0.000000 0.000000 1.956730 
# 
# From -- ./inp_files/15614.got.cif
#   From: 2010.05.17/outbox.cif.g08.bks.cpg/sg47_8_cif.got.tgz:15614.got - 2010.06.03 20:15:42.
