data_PCOD9388694
_publ_section_title
;
Structure prediction by ZEFSAII (Michael W. Deem and Ramdas Pophale) SiO2 
 PCOD9388694
Probable space group: P M M M
;
_chemical_formula_sum "Si O2"
_cell_formula_units_Z 40
_cell_length_a 28.250003
_cell_length_b 7.417559
_cell_length_c 9.730054
_cell_angle_alpha 90.000000
_cell_angle_beta 90.000000
_cell_angle_gamma 90.000000
_cell_volume 2038.894518
_symmetry_space_group_name_H-M "P M M M"
_symmetry_group_IT_number 47
_symmetry_cell_setting 'orthorhombic'
loop_
_space_group_symop_operation_xyz
x,y,z
-x,-y,z
x,-y,-z
-x,y,-z
-x,-y,-z
x,y,-z
-x,y,z
x,-y,z
loop_
_atom_site_type_symbol
_atom_site_label
_atom_site_fract_x
_atom_site_fract_y
_atom_site_fract_z
Si Si1 0.000000 0.220942 0.341866
Si Si2 0.278913 0.280395 0.656617
Si Si3 0.386917 0.715594 0.336770
Si Si4 0.806591 0.283937 0.844073
Si Si5 0.556646 0.000000 0.838001
Si Si6 0.912861 0.214804 0.843034
O O1 0.046401 0.281073 0.258119
O O2 0.000000 0.278821 0.500000
O O3 0.000000 0.000000 0.343162
O O4 0.271029 0.222558 0.500000
O O5 0.278249 0.500000 0.656717
O O6 0.332478 0.231796 0.696652
O O7 0.236754 0.216093 0.753250
O O8 0.394174 0.752580 0.500000
O O9 0.391902 0.500000 0.318124
O O10 0.421592 0.828201 0.241077
O O11 0.801957 0.500000 0.849644
O O12 0.859514 0.246899 0.791631
O O13 0.804224 0.214266 0.000000
O O14 0.500000 0.000000 0.826885
O O15 0.569087 0.000000 0.000000
O O16 0.919134 0.000000 0.852135
O O17 0.916633 0.285974 0.000000
#
# Coordination Sequence:
#
# PCOD9388694 Si02
#       6
#     4   8   8   8   4   8
#     4   9  17  29  46  65  84 110 150 199 244 290
#     4   8  15  30  52  76 102 133 169 210 258 311
#     4   9  19  38  63  87 113 151 198 241 283 338
#     4   9  17  29  46  69  97 128 160 196 243 301
#     4  11  25  41  57  85 123 157 191 238 293 342
#     4   9  17  30  46  63  86 118 155 194 238 291
#
# _framework density 19.618473999999999
#
# number of rings (size 3 to 8) (size 9 to 14) (size 15 to 20)
#    0.000    3.000    0.000    1.800    0.000    4.400 
#    1.800    4.500    0.000    3.000    0.000    0.000 
#    0.000    0.000    0.000    0.000    0.000    0.000 
#
# Total GULP energy -223164.779140 kJ/mol
# GULP energy per Si atom -5579.119478 kJ/mol
# Density = 1.957382 g / cm^3
# Si number density = 19.618474 Si / 1000 Ang^3
#
#
#
# Elastic Constant Matrix: (Units=GPa)
#
#
# Indices 1 2 3 4 5 6 
#
# 1 171.5311 33.7796 114.1912 0.0000 0.0000 0.0000
# 2 33.7796 76.5069 34.5586 0.0000 0.0000 0.0000
# 3 114.1912 34.5586 112.6842 0.0000 0.0000 0.0000
# 4 0.0000 0.0000 0.0000 9.6285 0.0000 0.0000
# 5 0.0000 0.0000 0.0000 0.0000 39.0653 0.0000
# 6 0.0000 0.0000 0.0000 0.0000 0.0000 23.8529
#
#
#
# Elastic Compliance Matrix: (Units=1/GPa)
#
#
# Indices 1 2 3 4 5 6 
#
# 1 0.017925 0.000338 -0.018268 0.000000 0.000000 0.000000
# 2 0.000338 0.015179 -0.004997 0.000000 0.000000 0.000000
# 3 -0.018268 -0.004997 0.028919 0.000000 0.000000 0.000000
# 4 0.000000 0.000000 0.000000 0.103858 0.000000 0.000000
# 5 0.000000 0.000000 0.000000 0.000000 0.025598 0.000000
# 6 0.000000 0.000000 0.000000 0.000000 0.000000 0.041924
#
#
# Mechanical properties :
#
#
# Convention : Reuss Voigt Hill
#
# Bulk Modulus (GPa) = 61.85207 80.64231 71.24719
# Shear Modulus (GPa) = 17.56563 26.38886 21.97724
#
# Velocity S-wave (km/s) = 2.99551 3.67154 3.35062
# Velocity P-wave (km/s) = 6.60000 7.69208 7.16687
#
# Compressibility (1/GPa) = 0.01616761
#
# Stress axis : x y z
#
# Youngs Moduli (GPa) = 55.78926 65.88067 34.57921
#
# Poissons Ratio (x) = -0.02224 0.63169
# Poissons Ratio (y) = -0.01883 0.17280
# Poissons Ratio (z) = 1.01915 0.32922
#
# Static dielectric constant tensor:
#      x y z
#    x 1.665410 0.000000 0.000000 
#    y 0.000000 1.736300 0.000000 
#    z 0.000000 0.000000 1.667170 
# 
# From -- ./inp_files/12992.got.cif
#   From: 2010.05.17/outbox.cif.g08.bks.cpg/sg47_7_cif.got.tgz:12992.got - 2010.06.03 20:15:42.
