data_PCOD9388253
_publ_section_title
;
Structure prediction by ZEFSAII (Michael W. Deem and Ramdas Pophale) SiO2 
 PCOD9388253
Probable space group: P M M M
;
_chemical_formula_sum "Si O2"
_cell_formula_units_Z 52
_cell_length_a 7.781238
_cell_length_b 18.746205
_cell_length_c 18.075257
_cell_angle_alpha 90.000000
_cell_angle_beta 90.000000
_cell_angle_gamma 90.000000
_cell_volume 2636.613928
_symmetry_space_group_name_H-M "P M M M"
_symmetry_group_IT_number 47
_symmetry_cell_setting 'orthorhombic'
loop_
_space_group_symop_operation_xyz
x,y,z
-x,-y,z
x,-y,-z
-x,y,-z
-x,-y,-z
x,y,-z
-x,y,z
x,-y,z
loop_
_atom_site_type_symbol
_atom_site_label
_atom_site_fract_x
_atom_site_fract_y
_atom_site_fract_z
Si Si1 0.293423 0.345179 0.084734
Si Si2 0.289070 0.079726 0.259743
Si Si3 0.198906 0.274522 0.656695
Si Si4 0.295131 0.865605 0.419176
Si Si5 0.302472 0.778856 0.811978
Si Si6 0.204175 0.500000 0.084564
Si Si7 0.707619 0.421183 0.586400
O O1 0.500000 0.339495 0.082856
O O2 0.224601 0.278147 0.131241
O O3 0.255912 0.423713 0.117798
O O4 0.228796 0.343907 0.000000
O O5 0.500000 0.083195 0.260566
O O6 0.231762 0.096303 0.344241
O O7 0.227671 0.142925 0.205718
O O8 0.239076 0.000000 0.238529
O O9 0.262938 0.218277 0.595400
O O10 0.299917 0.258577 0.731751
O O11 0.220610 0.354947 0.630744
O O12 0.000000 0.259112 0.671274
O O13 0.225737 0.886581 0.500000
O O14 0.500000 0.877780 0.420980
O O15 0.500000 0.790469 0.835369
O O16 0.000000 0.500000 0.080428
O O17 0.276947 0.500000 0.000000
O O18 0.755816 0.414613 0.500000
O O19 0.500000 0.418219 0.589897
O O20 0.761616 0.500000 0.612288
#
# Coordination Sequence:
#
# PCOD9388253 Si02
#       7
#     8   8   8   8   8   4   8
#     4   9  17  31  52  75  98 127 164 199 231 278
#     4   8  14  26  46  71  96 123 159 201 239 279
#     4  11  21  31  45  66  93 122 155 196 240 284
#     4   9  17  29  46  67  91 122 159 197 239 288
#     4   9  18  33  51  70  94 126 161 194 235 287
#     4   9  17  29  47  73 103 129 152 185 232 279
#     4   9  18  33  51  67  85 116 158 199 238 282
#
# _framework density 19.722265
#
# number of rings (size 3 to 8) (size 9 to 14) (size 15 to 20)
#    0.000    2.846    0.000    3.462    0.000    4.615 
#    1.385    2.308    0.000    7.846    0.000    7.538 
#    0.000    0.000    0.000    9.385    0.000   10.154 
#
# Total GULP energy -289785.989626 kJ/mol
# GULP energy per Si atom -5572.807493 kJ/mol
# Density = 1.967738 g / cm^3
# Si number density = 19.722265 Si / 1000 Ang^3
#
#
#
# Elastic Constant Matrix: (Units=GPa)
#
#
# Indices 1 2 3 4 5 6 
#
# 1 31.5510 -0.8321 2.3148 0.0000 0.0000 0.0000
# 2 -0.8321 179.3833 58.3964 0.0000 0.0000 0.0000
# 3 2.3148 58.3964 52.4372 0.0000 0.0000 0.0000
# 4 0.0000 0.0000 0.0000 41.3462 0.0000 0.0000
# 5 0.0000 0.0000 0.0000 0.0000 -4.3372 0.0000
# 6 0.0000 0.0000 0.0000 0.0000 0.0000 -24.4410
#
#
#
# Elastic Compliance Matrix: (Units=1/GPa)
#
#
# Indices 1 2 3 4 5 6 
#
# 1 0.031901 0.000951 -0.002468 0.000000 0.000000 0.000000
# 2 0.000951 0.008773 -0.009812 0.000000 0.000000 0.000000
# 3 -0.002468 -0.009812 0.030107 0.000000 0.000000 0.000000
# 4 0.000000 0.000000 0.000000 0.024186 0.000000 0.000000
# 5 0.000000 0.000000 0.000000 0.000000 -0.230566 0.000000
# 6 0.000000 0.000000 0.000000 0.000000 0.000000 -0.040915
#
#
# Mechanical properties :
#
#
# Convention : Reuss Voigt Hill
#
# Bulk Modulus (GPa) = 20.77986 42.56998 31.67492
# Shear Modulus (GPa) = -36.28068 16.07977 -10.10045
#
# Velocity S-wave (km/s) = -4.29369 2.85846 -2.26549
# Velocity P-wave (km/s) = 3.74458 5.70316 3.04172
#
# Compressibility (1/GPa) = 0.04812353
#
# Stress axis : x y z
#
# Youngs Moduli (GPa) = 31.34717 113.98075 33.21493
#
# Poissons Ratio (x) = -0.10843 0.08196
# Poissons Ratio (y) = -0.02982 0.32592
# Poissons Ratio (z) = 0.07735 1.11843
#
# Static dielectric constant tensor:
#      x y z
#    x 1.711890 0.000000 0.000000 
#    y 0.000000 1.720070 0.000000 
#    z 0.000000 0.000000 1.701250 
# 
# From -- ./inp_files/9563.got.cif
#   From: 2010.05.17/outbox.cif.g08.bks.cpg/sg47_5_cif.got.tgz:9563.got - 2010.06.03 20:15:42.
