data_PCOD9388613
_publ_section_title
;
Structure prediction by ZEFSAII (Michael W. Deem and Ramdas Pophale) SiO2 
 PCOD9388613
Probable space group: P M M M
;
_chemical_formula_sum "Si O2"
_cell_formula_units_Z 40
_cell_length_a 7.933157
_cell_length_b 9.299767
_cell_length_c 29.112082
_cell_angle_alpha 90.000000
_cell_angle_beta 90.000000
_cell_angle_gamma 90.000000
_cell_volume 2147.787858
_symmetry_space_group_name_H-M "P M M M"
_symmetry_group_IT_number 47
_symmetry_cell_setting 'orthorhombic'
loop_
_space_group_symop_operation_xyz
x,y,z
-x,-y,z
x,-y,-z
-x,y,-z
-x,-y,-z
x,y,-z
-x,y,z
x,-y,z
loop_
_atom_site_type_symbol
_atom_site_label
_atom_site_fract_x
_atom_site_fract_y
_atom_site_fract_z
Si Si1 0.296873 0.834594 0.909787
Si Si2 0.802456 0.326950 0.619163
Si Si3 0.297735 0.168641 0.189925
Si Si4 0.201367 0.163982 0.288789
Si Si5 0.799676 0.660602 0.000000
Si Si6 0.500000 0.674995 0.447456
O O1 0.500000 0.839652 0.907998
O O2 0.238784 0.775531 0.859871
O O3 0.237573 0.000000 0.914696
O O4 0.249842 0.743964 0.953957
O O5 0.796278 0.500000 0.623351
O O6 0.746498 0.255880 0.667239
O O7 0.669251 0.282652 0.580070
O O8 0.000000 0.288837 0.609888
O O9 0.500000 0.173726 0.190047
O O10 0.241316 0.229541 0.238778
O O11 0.246217 0.000000 0.190379
O O12 0.000000 0.154589 0.291320
O O13 0.270349 0.000000 0.290944
O O14 0.726545 0.500000 0.000000
O O15 0.000000 0.651267 0.000000
O O16 0.500000 0.500000 0.448369
O O17 0.500000 0.725627 0.500000
#
# Coordination Sequence:
#
# PCOD9388613 Si02
#       6
#     8   8   8   8   4   4
#     4   9  18  34  55  76  96 121 159 204 246 291
#     4   9  18  32  49  71 100 131 164 206 253 296
#     4   8  15  28  47  72  98 122 153 196 240 284
#     4   9  17  29  47  72 100 131 164 195 235 289
#     4  11  24  37  48  68  98 129 162 201 246 296
#     4   9  18  32  51  75  99 127 169 214 251 292
#
# _framework density 18.623813999999999
#
# number of rings (size 3 to 8) (size 9 to 14) (size 15 to 20)
#    0.000    3.000    0.000    1.800    1.400    3.600 
#    0.000    5.000    0.000    4.800    0.000    2.800 
#    0.000    0.000    0.000    0.000    0.000    0.000 
#
# Total GULP energy -222714.719377 kJ/mol
# GULP energy per Si atom -5567.867984 kJ/mol
# Density = 1.858142 g / cm^3
# Si number density = 18.623814 Si / 1000 Ang^3
#
#
#
# Elastic Constant Matrix: (Units=GPa)
#
#
# Indices 1 2 3 4 5 6 
#
# 1 50.3869 20.2848 60.2698 0.0000 0.0000 0.0000
# 2 20.2848 33.4650 54.0516 0.0000 0.0000 0.0000
# 3 60.2698 54.0516 229.8275 0.0000 0.0000 0.0000
# 4 0.0000 0.0000 0.0000 33.8386 0.0000 0.0000
# 5 0.0000 0.0000 0.0000 0.0000 104.4547 0.0000
# 6 0.0000 0.0000 0.0000 0.0000 0.0000 13.1857
#
#
#
# Elastic Compliance Matrix: (Units=1/GPa)
#
#
# Indices 1 2 3 4 5 6 
#
# 1 0.030504 -0.008981 -0.005887 0.000000 0.000000 0.000000
# 2 -0.008981 0.050830 -0.009599 0.000000 0.000000 0.000000
# 3 -0.005887 -0.009599 0.008152 0.000000 0.000000 0.000000
# 4 0.000000 0.000000 0.000000 0.029552 0.000000 0.000000
# 5 0.000000 0.000000 0.000000 0.000000 0.009574 0.000000
# 6 0.000000 0.000000 0.000000 0.000000 0.000000 0.075840
#
#
# Mechanical properties :
#
#
# Convention : Reuss Voigt Hill
#
# Bulk Modulus (GPa) = 24.66000 64.76576 44.71288
# Shear Modulus (GPa) = 18.73330 42.23401 30.48365
#
# Velocity S-wave (km/s) = 3.17500 4.76725 4.05014
# Velocity P-wave (km/s) = 5.16824 8.07177 6.77732
#
# Compressibility (1/GPa) = 0.04055151
#
# Stress axis : x y z
#
# Youngs Moduli (GPa) = 32.78268 19.67331 122.66220
#
# Poissons Ratio (x) = 0.17669 0.72212
# Poissons Ratio (y) = 0.29443 1.17746
# Poissons Ratio (z) = 0.19299 0.18885
#
# Static dielectric constant tensor:
#      x y z
#    x 1.665110 0.000000 0.000000 
#    y 0.000000 1.647420 0.000000 
#    z 0.000000 0.000000 1.671550 
# 
# From -- ./inp_files/33069.got.cif
#   From: 2010.05.17/outbox.cif.g08.bks.cpg/sg47_17_cif.got.tgz:33069.got - 2010.06.03 20:15:42.
