data_PCOD9388358
_publ_section_title
;
Structure prediction by ZEFSAII (Michael W. Deem and Ramdas Pophale) SiO2 
 PCOD9388358
Probable space group: P M M M
;
_chemical_formula_sum "Si O2"
_cell_formula_units_Z 40
_cell_length_a 10.589447
_cell_length_b 7.929091
_cell_length_c 24.879510
_cell_angle_alpha 90.000000
_cell_angle_beta 90.000000
_cell_angle_gamma 90.000000
_cell_volume 2089.000317
_symmetry_space_group_name_H-M "P M M M"
_symmetry_group_IT_number 47
_symmetry_cell_setting 'orthorhombic'
loop_
_space_group_symop_operation_xyz
x,y,z
-x,-y,z
x,-y,-z
-x,y,-z
-x,-y,-z
x,y,-z
-x,y,z
x,-y,z
loop_
_atom_site_type_symbol
_atom_site_label
_atom_site_fract_x
_atom_site_fract_y
_atom_site_fract_z
Si Si1 0.751016 0.300111 0.376669
Si Si2 0.356621 0.794062 0.061758
Si Si3 0.500000 0.800243 0.560654
Si Si4 0.000000 0.706804 0.437783
Si Si5 0.855333 0.793856 0.854944
Si Si6 0.143027 0.202713 0.733015
O O1 0.757826 0.500000 0.379907
O O2 0.624293 0.247332 0.406335
O O3 0.874609 0.231774 0.407558
O O4 0.763376 0.252686 0.314266
O O5 0.500000 0.742577 0.076090
O O6 0.249106 0.735391 0.102709
O O7 0.355302 0.000000 0.062527
O O8 0.332167 0.743296 0.000000
O O9 0.500000 0.726584 0.500000
O O10 0.500000 0.000000 0.555677
O O11 0.000000 0.500000 0.436604
O O12 0.000000 0.756802 0.500000
O O13 0.826152 0.740860 0.793611
O O14 0.000000 0.743270 0.867389
O O15 0.854137 0.000000 0.855665
O O16 0.000000 0.263700 0.720156
O O17 0.138688 0.000000 0.734373
#
# Coordination Sequence:
#
# PCOD9388358 Si02
#       6
#     8   8   4   4   8   8
#     4  11  21  36  58  81 107 139 174 214 259 308
#     4   8  13  21  33  52  82 118 157 204 254 301
#     4  11  25  43  59  79 109 141 172 209 258 313
#     4   9  18  32  53  81 105 127 164 209 252 302
#     4   8  14  24  38  57  84 123 164 200 246 302
#     4   9  17  31  50  72 103 137 170 213 261 309
#
# _framework density 19.147915999999999
#
# number of rings (size 3 to 8) (size 9 to 14) (size 15 to 20)
#    0.000    2.800    1.000    3.300    0.000    2.000 
#    1.800    2.000    0.000    2.400    0.000    0.000 
#    0.000    0.800    0.000    6.600    0.000    8.000 
#
# Total GULP energy -223078.083646 kJ/mol
# GULP energy per Si atom -5576.952091 kJ/mol
# Density = 1.910433 g / cm^3
# Si number density = 19.147916 Si / 1000 Ang^3
#
#
#
# Elastic Constant Matrix: (Units=GPa)
#
#
# Indices 1 2 3 4 5 6 
#
# 1 175.8570 11.2231 135.5280 0.0000 0.0000 0.0000
# 2 11.2231 19.5474 11.4406 0.0000 0.0000 0.0000
# 3 135.5280 11.4406 177.8145 0.0000 0.0000 0.0000
# 4 0.0000 0.0000 0.0000 -9.8108 0.0000 0.0000
# 5 0.0000 0.0000 0.0000 0.0000 41.1530 0.0000
# 6 0.0000 0.0000 0.0000 0.0000 0.0000 -1.3631
#
#
#
# Elastic Compliance Matrix: (Units=1/GPa)
#
#
# Indices 1 2 3 4 5 6 
#
# 1 0.013845 -0.001842 -0.010434 0.000000 0.000000 0.000000
# 2 -0.001842 0.053405 -0.002032 0.000000 0.000000 0.000000
# 3 -0.010434 -0.002032 0.013707 0.000000 0.000000 0.000000
# 4 0.000000 0.000000 0.000000 -0.101928 0.000000 0.000000
# 5 0.000000 0.000000 0.000000 0.000000 0.024300 0.000000
# 6 0.000000 0.000000 0.000000 0.000000 0.000000 -0.733639
#
#
# Mechanical properties :
#
#
# Convention : Reuss Voigt Hill
#
# Bulk Modulus (GPa) = 19.10560 76.62247 47.86403
# Shear Modulus (GPa) = -7.30731 20.33095 6.51182
#
# Velocity S-wave (km/s) = -1.95564 3.26204 1.84613
# Velocity P-wave (km/s) = 2.21364 7.36823 5.44017
#
# Compressibility (1/GPa) = 0.05234068
#
# Stress axis : x y z
#
# Youngs Moduli (GPa) = 72.22600 18.72491 72.95305
#
# Poissons Ratio (x) = 0.03450 0.76121
# Poissons Ratio (y) = 0.13307 0.14822
# Poissons Ratio (z) = 0.75363 0.03804
#
# Static dielectric constant tensor:
#      x y z
#    x 1.620370 0.000000 0.000000 
#    y 0.000000 1.683870 0.000000 
#    z 0.000000 0.000000 1.672890 
# 
# From -- ./inp_files/33083.got.cif
#   From: 2010.05.17/outbox.cif.g08.bks.cpg/sg47_17_cif.got.tgz:33083.got - 2010.06.03 20:15:42.
