data_PCOD9388800
_publ_section_title
;
Structure prediction by ZEFSAII (Michael W. Deem and Ramdas Pophale) SiO2 
 PCOD9388800
Probable space group: P M M M
;
_chemical_formula_sum "Si O2"
_cell_formula_units_Z 60
_cell_length_a 16.131449
_cell_length_b 7.510692
_cell_length_c 24.269354
_cell_angle_alpha 90.000000
_cell_angle_beta 90.000000
_cell_angle_gamma 90.000000
_cell_volume 2940.434764
_symmetry_space_group_name_H-M "P M M M"
_symmetry_group_IT_number 47
_symmetry_cell_setting 'orthorhombic'
loop_
_space_group_symop_operation_xyz
x,y,z
-x,-y,z
x,-y,-z
-x,y,-z
-x,-y,-z
x,y,-z
-x,y,z
x,-y,z
loop_
_atom_site_type_symbol
_atom_site_label
_atom_site_fract_x
_atom_site_fract_y
_atom_site_fract_z
Si Si1 0.677199 0.785880 0.675187
Si Si2 0.500000 0.207350 0.067158
Si Si3 0.851162 0.701785 0.729410
Si Si4 0.588895 0.288632 0.219902
Si Si5 0.265827 0.209743 0.439275
Si Si6 0.909799 0.284010 0.385472
Si Si7 0.681213 0.213986 0.062523
Si Si8 0.239656 0.713100 0.170358
O O1 0.757984 0.701234 0.704133
O O2 0.601439 0.740023 0.714712
O O3 0.679717 0.722637 0.612103
O O4 0.688229 0.000000 0.675741
O O5 0.590260 0.284462 0.082371
O O6 0.500000 0.000000 0.083334
O O7 0.500000 0.212029 0.000000
O O8 0.882745 0.500000 0.736429
O O9 0.900776 0.781915 0.677976
O O10 0.834136 0.781584 0.790078
O O11 0.500000 0.216245 0.201523
O O12 0.588622 0.500000 0.209851
O O13 0.671936 0.213036 0.192355
O O14 0.277710 0.287931 0.500000
O O15 0.169877 0.227157 0.420271
O O16 0.283507 0.000000 0.442883
O O17 0.906558 0.500000 0.383617
O O18 0.000000 0.231457 0.407434
O O19 0.753583 0.256329 0.105468
O O20 0.673516 0.000000 0.060407
O O21 0.695619 0.276343 0.000000
O O22 0.239024 0.500000 0.178918
#
# Coordination Sequence:
#
# PCOD9388800 Si02
#       8
#     8   4   8   8   8   8   8   8
#     4   9  16  27  44  63  80 102 139 179 207 240
#     4   7  12  24  37  47  65  97 131 159 192 233
#     4   8  15  29  44  58  82 113 137 163 208 253
#     4   9  18  31  44  59  82 109 134 168 219 266
#     4   9  18  31  45  62  87 118 145 168 201 246
#     4   9  17  29  46  67  89 113 142 173 201 235
#     4   9  17  28  40  54  76 107 139 170 206 244
#     4   9  17  27  41  59  79 105 136 168 202 247
#
# _framework density 20.405145999999998
#
# number of rings (size 3 to 8) (size 9 to 14) (size 15 to 20)
#    0.000    3.267    0.000    2.000    0.933    4.000 
#    0.000    1.333    0.000    1.600    0.000    2.800 
#    0.000    0.533    0.000    6.667    0.000    1.067 
#
# Total GULP energy -334022.617590 kJ/mol
# GULP energy per Si atom -5567.043626 kJ/mol
# Density = 2.035870 g / cm^3
# Si number density = 20.405146 Si / 1000 Ang^3
#
#
#
# Elastic Constant Matrix: (Units=GPa)
#
#
# Indices 1 2 3 4 5 6 
#
# 1 10.2433 -3.8041 -5.4028 0.0000 0.0000 0.0000
# 2 -3.8041 63.7432 -1.5213 0.0000 0.0000 0.0000
# 3 -5.4028 -1.5213 114.4756 0.0000 0.0000 0.0000
# 4 0.0000 0.0000 0.0000 18.6088 0.0000 0.0000
# 5 0.0000 0.0000 0.0000 0.0000 16.1640 0.0000
# 6 0.0000 0.0000 0.0000 0.0000 0.0000 6.8028
#
#
#
# Elastic Compliance Matrix: (Units=1/GPa)
#
#
# Indices 1 2 3 4 5 6 
#
# 1 0.102538 0.006237 0.004922 0.000000 0.000000 0.000000
# 2 0.006237 0.016072 0.000508 0.000000 0.000000 0.000000
# 3 0.004922 0.000508 0.008975 0.000000 0.000000 0.000000
# 4 0.000000 0.000000 0.000000 0.053738 0.000000 0.000000
# 5 0.000000 0.000000 0.000000 0.000000 0.061866 0.000000
# 6 0.000000 0.000000 0.000000 0.000000 0.000000 0.146999
#
#
# Mechanical properties :
#
#
# Convention : Reuss Voigt Hill
#
# Bulk Modulus (GPa) = 6.62609 18.55616 12.59113
# Shear Modulus (GPa) = 11.98582 21.59446 16.79014
#
# Velocity S-wave (km/s) = 2.42625 3.25666 2.87163
# Velocity P-wave (km/s) = 3.33215 4.82231 4.14475
#
# Compressibility (1/GPa) = 0.15091866
#
# Stress axis : x y z
#
# Youngs Moduli (GPa) = 9.75251 62.21890 111.42622
#
# Poissons Ratio (x) = -0.38805 -0.54847
# Poissons Ratio (y) = -0.06082 -0.05660
# Poissons Ratio (z) = -0.04800 -0.03160
#
# Static dielectric constant tensor:
#      x y z
#    x 1.722080 0.000000 0.000000 
#    y 0.000000 1.783090 0.000000 
#    z 0.000000 0.000000 1.827400 
# 
# From -- ./inp_files/32929.got.cif
#   From: 2010.05.17/outbox.cif.g08.bks.cpg/sg47_17_cif.got.tgz:32929.got - 2010.06.03 20:15:42.
