data_PCOD9388683
_publ_section_title
;
Structure prediction by ZEFSAII (Michael W. Deem and Ramdas Pophale) SiO2 
 PCOD9388683
Probable space group: P M M M
;
_chemical_formula_sum "Si O2"
_cell_formula_units_Z 36
_cell_length_a 26.400321
_cell_length_b 7.522867
_cell_length_c 9.459119
_cell_angle_alpha 90.000000
_cell_angle_beta 90.000000
_cell_angle_gamma 90.000000
_cell_volume 1878.638768
_symmetry_space_group_name_H-M "P M M M"
_symmetry_group_IT_number 47
_symmetry_cell_setting 'orthorhombic'
loop_
_space_group_symop_operation_xyz
x,y,z
-x,-y,z
x,-y,-z
-x,y,-z
-x,-y,-z
x,y,-z
-x,y,z
x,-y,z
loop_
_atom_site_type_symbol
_atom_site_label
_atom_site_fract_x
_atom_site_fract_y
_atom_site_fract_z
Si Si1 0.939585 0.500000 0.332473
Si Si2 0.345485 0.212422 0.159608
Si Si3 0.762894 0.207457 0.171678
Si Si4 0.124564 0.786223 0.830664
Si Si5 0.444662 0.713564 0.661540
O O1 0.928441 0.500000 0.500000
O O2 0.915135 0.671787 0.256869
O O3 0.000000 0.500000 0.314248
O O4 0.291533 0.282485 0.219018
O O5 0.395538 0.241049 0.249311
O O6 0.338678 0.000000 0.150043
O O7 0.352864 0.281066 0.000000
O O8 0.818315 0.277085 0.210240
O O9 0.764599 0.000000 0.212947
O O10 0.760682 0.214495 0.000000
O O11 0.120616 0.000000 0.808041
O O12 0.118761 0.757446 0.000000
O O13 0.439447 0.776976 0.500000
O O14 0.500000 0.775027 0.715934
O O15 0.446555 0.500000 0.657540
#
# Coordination Sequence:
#
# PCOD9388683 Si02
#       5
#     4   8   8   8   8
#     4  11  25  41  55  79 119 159 190 225 274 331
#     4   9  17  30  50  76 102 125 155 201 256 312
#     4   7  12  27  51  77 104 131 160 202 259 315
#     4   9  18  36  63  88 110 144 190 236 279 324
#     4   9  19  35  49  61  87 130 173 210 250 298
#
# _framework density 19.162813
#
# number of rings (size 3 to 8) (size 9 to 14) (size 15 to 20)
#    0.000    3.222    0.000    3.667    0.000    3.556 
#    2.000    6.667    0.000    4.000    0.000    0.000 
#    0.000    0.000    0.000    0.000    0.000    0.000 
#
# Total GULP energy -200420.798443 kJ/mol
# GULP energy per Si atom -5567.244401 kJ/mol
# Density = 1.911920 g / cm^3
# Si number density = 19.162813 Si / 1000 Ang^3
#
#
#
# Elastic Constant Matrix: (Units=GPa)
#
#
# Indices 1 2 3 4 5 6 
#
# 1 200.2984 47.0210 85.4859 0.0000 0.0000 0.0000
# 2 47.0210 71.5020 30.0936 0.0000 0.0000 0.0000
# 3 85.4859 30.0936 61.2915 0.0000 0.0000 0.0000
# 4 0.0000 0.0000 0.0000 19.2926 0.0000 0.0000
# 5 0.0000 0.0000 0.0000 0.0000 326.7782 0.0000
# 6 0.0000 0.0000 0.0000 0.0000 0.0000 34.8560
#
#
#
# Elastic Compliance Matrix: (Units=1/GPa)
#
#
# Indices 1 2 3 4 5 6 
#
# 1 0.012404 -0.001104 -0.016759 0.000000 0.000000 0.000000
# 2 -0.001104 0.017727 -0.007164 0.000000 0.000000 0.000000
# 3 -0.016759 -0.007164 0.043207 0.000000 0.000000 0.000000
# 4 0.000000 0.000000 0.000000 0.051833 0.000000 0.000000
# 5 0.000000 0.000000 0.000000 0.000000 0.003060 0.000000
# 6 0.000000 0.000000 0.000000 0.000000 0.000000 0.028689
#
#
# Mechanical properties :
#
#
# Convention : Reuss Voigt Hill
#
# Bulk Modulus (GPa) = 42.94664 73.14366 58.04515
# Shear Modulus (GPa) = 23.28448 87.55147 55.41798
#
# Velocity S-wave (km/s) = 3.48959 6.76664 5.38352
# Velocity P-wave (km/s) = 6.22065 9.96505 8.30659
#
# Compressibility (1/GPa) = 0.02328471
#
# Stress axis : x y z
#
# Youngs Moduli (GPa) = 80.61834 56.41191 23.14446
#
# Poissons Ratio (x) = 0.06227 0.38787
# Poissons Ratio (y) = 0.08899 0.16581
# Poissons Ratio (z) = 1.35105 0.40414
#
# Static dielectric constant tensor:
#      x y z
#    x 1.716020 0.000000 0.000000 
#    y 0.000000 1.714890 0.000000 
#    z 0.000000 0.000000 1.636240 
# 
# From -- ./inp_files/12054.got.cif
#   From: 2010.05.17/outbox.cif.g08.bks.cpg/sg47_7_cif.got.tgz:12054.got - 2010.06.03 20:15:42.
