data_PCOD9388083
_publ_section_title
;
Structure prediction by ZEFSAII (Michael W. Deem and Ramdas Pophale) SiO2 
 PCOD9388083
Probable space group: P M M M
;
_chemical_formula_sum "Si O2"
_cell_formula_units_Z 64
_cell_length_a 27.266560
_cell_length_b 7.971885
_cell_length_c 14.724884
_cell_angle_alpha 90.000000
_cell_angle_beta 90.000000
_cell_angle_gamma 90.000000
_cell_volume 3200.687378
_symmetry_space_group_name_H-M "P M M M"
_symmetry_group_IT_number 47
_symmetry_cell_setting 'orthorhombic'
loop_
_space_group_symop_operation_xyz
x,y,z
-x,-y,z
x,-y,-z
-x,y,-z
-x,-y,-z
x,y,-z
-x,y,z
x,-y,z
loop_
_atom_site_type_symbol
_atom_site_label
_atom_site_fract_x
_atom_site_fract_y
_atom_site_fract_z
Si Si1 0.744989 0.799204 0.395927
Si Si2 0.350344 0.793426 0.714789
Si Si3 0.096843 0.296440 0.896135
Si Si4 0.204574 0.308820 0.889685
Si Si5 0.688726 0.197455 0.101249
Si Si6 0.850917 0.301335 0.396671
Si Si7 0.053116 0.198830 0.287050
Si Si8 0.445186 0.795376 0.394989
O O1 0.743734 0.734482 0.500000
O O2 0.698164 0.738000 0.339923
O O3 0.798989 0.761114 0.357204
O O4 0.740602 0.000000 0.399919
O O5 0.344675 0.734445 0.818339
O O6 0.400144 0.738450 0.666406
O O7 0.350102 0.000000 0.714804
O O8 0.098717 0.500000 0.896761
O O9 0.151378 0.237064 0.865946
O O10 0.059894 0.239058 0.819368
O O11 0.086807 0.242861 0.000000
O O12 0.208253 0.500000 0.855770
O O13 0.254595 0.215532 0.867647
O O14 0.202791 0.315286 0.000000
O O15 0.678707 0.000000 0.094005
O O16 0.683818 0.271950 0.000000
O O17 0.855491 0.232352 0.500000
O O18 0.846387 0.500000 0.401965
O O19 0.899533 0.264017 0.340139
O O20 0.000000 0.266304 0.317998
O O21 0.052833 0.000000 0.298837
O O22 0.437641 0.746116 0.500000
O O23 0.500000 0.741966 0.366973
O O24 0.444892 0.000000 0.393538
#
# Coordination Sequence:
#
# PCOD9388083 Si02
#       8
#     8   8   8   8   8   8   8   8
#     4   9  17  30  49  73 100 127 155 193 246 306
#     4   9  16  25  40  64  94 129 165 201 244 294
#     4   9  19  36  57  80 106 137 171 209 255 305
#     4   8  15  29  47  67  92 122 158 199 240 283
#     4   9  17  27  39  60  93 130 164 197 235 283
#     4  10  22  40  60  80 103 132 166 208 259 314
#     4  11  25  41  57  79 105 134 171 214 257 306
#     4   8  13  22  38  61  90 125 165 208 251 294
#
# _framework density 19.995705000000001
#
# number of rings (size 3 to 8) (size 9 to 14) (size 15 to 20)
#    0.000    2.875    0.000    2.250    1.750    4.500 
#    0.000    3.750    0.000    0.375    0.000    2.625 
#    0.000    2.000    0.000   12.000    0.000   11.500 
#
# Total GULP energy -356911.787306 kJ/mol
# GULP energy per Si atom -5576.746677 kJ/mol
# Density = 1.995019 g / cm^3
# Si number density = 19.995705 Si / 1000 Ang^3
#
#
#
# Elastic Constant Matrix: (Units=GPa)
#
#
# Indices 1 2 3 4 5 6 
#
# 1 165.7511 5.0736 81.6787 0.0000 0.0000 0.0000
# 2 5.0736 15.1734 4.6185 0.0000 0.0000 0.0000
# 3 81.6787 4.6185 83.8546 0.0000 0.0000 0.0000
# 4 0.0000 0.0000 0.0000 10.4258 0.0000 0.0000
# 5 0.0000 0.0000 0.0000 0.0000 33.1210 0.0000
# 6 0.0000 0.0000 0.0000 0.0000 0.0000 -115.5655
#
#
#
# Elastic Compliance Matrix: (Units=1/GPa)
#
#
# Indices 1 2 3 4 5 6 
#
# 1 0.011605 -0.000447 -0.011279 0.000000 0.000000 0.000000
# 2 -0.000447 0.067046 -0.003257 0.000000 0.000000 0.000000
# 3 -0.011279 -0.003257 0.023091 0.000000 0.000000 0.000000
# 4 0.000000 0.000000 0.000000 0.095916 0.000000 0.000000
# 5 0.000000 0.000000 0.000000 0.000000 0.030192 0.000000
# 6 0.000000 0.000000 0.000000 0.000000 0.000000 -0.008653
#
#
# Mechanical properties :
#
#
# Convention : Reuss Voigt Hill
#
# Bulk Modulus (GPa) = 13.93242 49.72454 31.82848
# Shear Modulus (GPa) = 18.30899 -2.84320 7.73289
#
# Velocity S-wave (km/s) = 3.02925 -1.19373 1.96867
# Velocity P-wave (km/s) = 4.38383 4.79808 4.59563
#
# Compressibility (1/GPa) = 0.07177502
#
# Stress axis : x y z
#
# Youngs Moduli (GPa) = 86.16971 14.91517 43.30624
#
# Poissons Ratio (x) = 0.00667 0.48846
# Poissons Ratio (y) = 0.03854 0.14105
# Poissons Ratio (z) = 0.97193 0.04858
#
# Static dielectric constant tensor:
#      x y z
#    x 1.711900 0.000000 0.000000 
#    y 0.000000 1.712090 0.000000 
#    z 0.000000 0.000000 1.744340 
# 
# From -- ./inp_files/25595.got.cif
#   From: 2010.05.17/outbox.cif.g08.bks.cpg/sg47_13_cif.got.tgz:25595.got - 2010.06.03 20:15:42.
