data_PCOD9388573
_publ_section_title
;
Structure prediction by ZEFSAII (Michael W. Deem and Ramdas Pophale) SiO2 
 PCOD9388573
Probable space group: P M M M
;
_chemical_formula_sum "Si O2"
_cell_formula_units_Z 37
_cell_length_a 7.793115
_cell_length_b 18.263273
_cell_length_c 12.555369
_cell_angle_alpha 90.000000
_cell_angle_beta 90.000000
_cell_angle_gamma 90.000000
_cell_volume 1786.977882
_symmetry_space_group_name_H-M "P M M M"
_symmetry_group_IT_number 47
_symmetry_cell_setting 'orthorhombic'
loop_
_space_group_symop_operation_xyz
x,y,z
-x,-y,z
x,-y,-z
-x,y,-z
-x,-y,-z
x,y,-z
-x,y,z
x,-y,z
loop_
_atom_site_type_symbol
_atom_site_label
_atom_site_fract_x
_atom_site_fract_y
_atom_site_fract_z
Si Si1 0.310460 0.879594 0.500000
Si Si2 0.703435 0.361885 0.234016
Si Si3 0.794312 0.416202 0.000000
Si Si4 0.790803 0.081205 0.122022
Si Si5 0.201680 0.198746 0.708305
Si Si6 0.000000 0.000000 0.500000
Si Si7 0.290034 0.500000 0.624314
O O1 0.500000 0.913795 0.500000
O O2 0.293112 0.827846 0.397463
O O3 0.153103 0.936512 0.500000
O O4 0.500000 0.357669 0.249130
O O5 0.777972 0.283702 0.265882
O O6 0.766850 0.428350 0.309258
O O7 0.737915 0.379082 0.110028
O O8 0.730143 0.500000 0.000000
O O9 0.000000 0.417039 0.000000
O O10 0.733533 0.147302 0.195558
O O11 0.000000 0.082033 0.120474
O O12 0.740628 0.000000 0.161861
O O13 0.733884 0.088720 0.000000
O O14 0.000000 0.182997 0.694980
O O15 0.500000 0.500000 0.625025
O O16 0.237140 0.500000 0.500000
#
# Coordination Sequence:
#
# PCOD9388573 Si02
#       7
#     4   8   4   8   8   1   4
#     4  12  27  47  73 105 140 184 234 286 346 418
#     4  11  23  40  65  95 130 174 223 279 345 419
#     4  11  23  41  65  93 128 169 226 291 359 425
#     4   8  16  32  57  87 121 166 215 262 321 390
#     4  11  23  40  65  96 139 178 221 277 341 404
#     4  12  26  52  76 106 138 182 234 292 360 404
#     4   9  20  39  63  90 122 169 221 274 341 416
#
# _framework density 20.705348000000001
#
# number of rings (size 3 to 8) (size 9 to 14) (size 15 to 20)
#    0.000    1.730    2.162    2.432    4.541    0.432 
#    0.000    0.000    0.000    2.595    0.000    6.054 
#    0.000    0.000    0.000    0.000    0.000    0.000 
#
# Total GULP energy -206470.891420 kJ/mol
# GULP energy per Si atom -5580.294363 kJ/mol
# Density = 2.065822 g / cm^3
# Si number density = 20.705348 Si / 1000 Ang^3
#
#
#
# Elastic Constant Matrix: (Units=GPa)
#
#
# Indices 1 2 3 4 5 6 
#
# 1 75.4853 16.1357 12.9704 0.0000 0.0000 0.0000
# 2 16.1357 181.2409 96.4555 0.0000 0.0000 0.0000
# 3 12.9704 96.4555 146.1484 0.0000 0.0000 0.0000
# 4 0.0000 0.0000 0.0000 10.9686 0.0000 0.0000
# 5 0.0000 0.0000 0.0000 0.0000 0.0131 0.0000
# 6 0.0000 0.0000 0.0000 0.0000 0.0000 13.2725
#
#
#
# Elastic Compliance Matrix: (Units=1/GPa)
#
#
# Indices 1 2 3 4 5 6 
#
# 1 0.013542 -0.000872 -0.000626 0.000000 0.000000 0.000000
# 2 -0.000872 0.008561 -0.005573 0.000000 0.000000 0.000000
# 3 -0.000626 -0.005573 0.010576 0.000000 0.000000 0.000000
# 4 0.000000 0.000000 0.000000 0.091169 0.000000 0.000000
# 5 0.000000 0.000000 0.000000 0.000000 76.186661 0.000000
# 6 0.000000 0.000000 0.000000 0.000000 0.000000 0.075344
#
#
# Mechanical properties :
#
#
# Convention : Reuss Voigt Hill
#
# Bulk Modulus (GPa) = 53.94849 72.66641 63.30745
# Shear Modulus (GPa) = 0.06544 23.33839 11.70191
#
# Velocity S-wave (km/s) = 0.17797 3.36097 2.37990
# Velocity P-wave (km/s) = 5.11411 7.08754 6.18010
#
# Compressibility (1/GPa) = 0.01853620
#
# Stress axis : x y z
#
# Youngs Moduli (GPa) = 73.84609 116.80988 94.55584
#
# Poissons Ratio (x) = 0.10191 0.05919
# Poissons Ratio (y) = 0.06443 0.52693
# Poissons Ratio (z) = 0.04623 0.65094
#
# Static dielectric constant tensor:
#      x y z
#    x 1.767350 0.000000 0.000000 
#    y 0.000000 1.706550 0.000000 
#    z 0.000000 0.000000 1.731160 
# 
# From -- ./inp_files/14948.got.cif
#   From: 2010.05.17/outbox.cif.g08.bks.cpg/sg47_8_cif.got.tgz:14948.got - 2010.06.03 20:15:42.
