data_PCOD9388913
_publ_section_title
;
Structure prediction by ZEFSAII (Michael W. Deem and Ramdas Pophale) SiO2 
 PCOD9388913
Probable space group: P M M M
;
_chemical_formula_sum "Si O2"
_cell_formula_units_Z 44
_cell_length_a 19.985473
_cell_length_b 7.323953
_cell_length_c 14.550525
_cell_angle_alpha 90.000000
_cell_angle_beta 90.000000
_cell_angle_gamma 90.000000
_cell_volume 2129.799120
_symmetry_space_group_name_H-M "P M M M"
_symmetry_group_IT_number 47
_symmetry_cell_setting 'orthorhombic'
loop_
_space_group_symop_operation_xyz
x,y,z
-x,-y,z
x,-y,-z
-x,y,-z
-x,-y,-z
x,y,-z
-x,y,z
x,-y,z
loop_
_atom_site_type_symbol
_atom_site_label
_atom_site_fract_x
_atom_site_fract_y
_atom_site_fract_z
Si Si1 0.077111 0.717576 0.500000
Si Si2 0.075680 0.212723 0.295853
Si Si3 0.302589 0.222082 0.603367
Si Si4 0.331784 0.222418 0.103812
Si Si5 0.210831 0.777116 0.227022
Si Si6 0.423855 0.777648 0.272953
O O1 0.078413 0.500000 0.500000
O O2 0.102983 0.778306 0.598904
O O3 0.000000 0.782389 0.500000
O O4 0.134462 0.288042 0.231898
O O5 0.000000 0.291184 0.293195
O O6 0.069079 0.000000 0.273535
O O7 0.290099 0.285236 0.500000
O O8 0.248882 0.279041 0.679566
O O9 0.374996 0.275835 0.643718
O O10 0.301142 0.000000 0.602013
O O11 0.259349 0.277429 0.143990
O O12 0.387385 0.278588 0.178297
O O13 0.332629 0.000000 0.103361
O O14 0.343233 0.283664 0.000000
O O15 0.209425 0.000000 0.226712
O O16 0.500000 0.715516 0.280129
O O17 0.424728 0.000000 0.272468
#
# Coordination Sequence:
#
# PCOD9388913 Si02
#       6
#     4   8   8   8   8   8
#     4   9  17  27  37  53  79 105 126 151 188 230
#     4   9  16  25  38  55  74  98 130 163 189 214
#     4   8  13  19  26  37  55  81 111 144 184 221
#     4   8  13  21  31  42  59  85 115 148 190 233
#     4   8  14  22  32  47  65  86 117 156 190 221
#     4   8  13  19  25  36  54  77 113 155 184 213
#
# _framework density 20.659226
#
# number of rings (size 3 to 8) (size 9 to 14) (size 15 to 20)
#    0.000    3.727    0.000    2.455    1.273    1.818 
#    0.000    3.636    0.000    0.545    0.000    3.818 
#    0.000    0.727    0.000    4.545    0.000   33.818 
#
# Total GULP energy -245215.426970 kJ/mol
# GULP energy per Si atom -5573.077886 kJ/mol
# Density = 2.061220 g / cm^3
# Si number density = 20.659226 Si / 1000 Ang^3
#
#
#
# Elastic Constant Matrix: (Units=GPa)
#
#
# Indices 1 2 3 4 5 6 
#
# 1 91.4332 3.9155 -10.5939 0.0000 0.0000 0.0000
# 2 3.9155 82.0425 -0.4500 0.0000 0.0000 0.0000
# 3 -10.5939 -0.4500 53.7142 0.0000 0.0000 0.0000
# 4 0.0000 0.0000 0.0000 -60.0708 0.0000 0.0000
# 5 0.0000 0.0000 0.0000 0.0000 6.5356 0.0000
# 6 0.0000 0.0000 0.0000 0.0000 0.0000 -18.3889
#
#
#
# Elastic Compliance Matrix: (Units=1/GPa)
#
#
# Indices 1 2 3 4 5 6 
#
# 1 0.011215 -0.000523 0.002208 0.000000 0.000000 0.000000
# 2 -0.000523 0.012214 -0.000001 0.000000 0.000000 0.000000
# 3 0.002208 -0.000001 0.019052 0.000000 0.000000 0.000000
# 4 0.000000 0.000000 0.000000 -0.016647 0.000000 0.000000
# 5 0.000000 0.000000 0.000000 0.000000 0.153009 0.000000
# 6 0.000000 0.000000 0.000000 0.000000 0.000000 -0.054381
#
#
# Mechanical properties :
#
#
# Convention : Reuss Voigt Hill
#
# Bulk Modulus (GPa) = 21.81100 23.65924 22.73512
# Shear Modulus (GPa) = 36.66263 1.23639 18.94951
#
# Velocity S-wave (km/s) = 4.21721 0.77445 3.03189
# Velocity P-wave (km/s) = 5.85608 3.50381 4.82547
#
# Compressibility (1/GPa) = 0.04584842
#
# Stress axis : x y z
#
# Youngs Moduli (GPa) = 89.16530 81.87486 52.48674
#
# Poissons Ratio (x) = 0.04283 -0.11587
# Poissons Ratio (y) = 0.04665 0.00005
# Poissons Ratio (z) = -0.19684 0.00007
#
# Static dielectric constant tensor:
#      x y z
#    x 1.753160 0.000000 0.000000 
#    y 0.000000 1.781380 0.000000 
#    z 0.000000 0.000000 1.706020 
# 
# From -- ./inp_files/10883.got.cif
#   From: 2010.05.17/outbox.cif.g08.bks.cpg/sg47_6_cif.got.tgz:10883.got - 2010.06.03 20:15:42.
