data_PCOD9388730
_publ_section_title
;
Structure prediction by ZEFSAII (Michael W. Deem and Ramdas Pophale) SiO2 
 PCOD9388730
Probable space group: P M M M
;
_chemical_formula_sum "Si O2"
_cell_formula_units_Z 40
_cell_length_a 9.385147
_cell_length_b 29.106011
_cell_length_c 7.302318
_cell_angle_alpha 90.000000
_cell_angle_beta 90.000000
_cell_angle_gamma 90.000000
_cell_volume 1994.731795
_symmetry_space_group_name_H-M "P M M M"
_symmetry_group_IT_number 47
_symmetry_cell_setting 'orthorhombic'
loop_
_space_group_symop_operation_xyz
x,y,z
-x,-y,z
x,-y,-z
-x,y,-z
-x,-y,-z
x,y,-z
-x,y,z
x,-y,z
loop_
_atom_site_type_symbol
_atom_site_label
_atom_site_fract_x
_atom_site_fract_y
_atom_site_fract_z
Si Si1 0.668509 0.128629 0.717302
Si Si2 0.672894 0.947972 0.000000
Si Si3 0.163836 0.219895 0.723099
Si Si4 0.826753 0.500000 0.713707
Si Si5 0.336237 0.690059 0.276550
Si Si6 0.165381 0.399761 0.723758
O O1 0.686697 0.122556 0.500000
O O2 0.500000 0.136791 0.751624
O O3 0.756559 0.173221 0.777227
O O4 0.712544 0.083007 0.825501
O O5 0.500000 0.950761 0.000000
O O6 0.727658 0.000000 0.000000
O O7 0.164742 0.220328 0.500000
O O8 0.248555 0.265189 0.782096
O O9 0.000000 0.220822 0.781581
O O10 0.785541 0.500000 0.500000
O O11 0.783540 0.549812 0.787631
O O12 0.000000 0.500000 0.721378
O O13 0.334975 0.690056 0.500000
O O14 0.500000 0.692327 0.219147
O O15 0.260093 0.643061 0.218372
O O16 0.166516 0.400896 0.500000
O O17 0.000000 0.393326 0.776689
#
# Coordination Sequence:
#
# PCOD9388730 Si02
#       6
#     8   4   8   4   8   8
#     4   9  17  30  49  72  98 128 161 198 238 278
#     4   9  18  32  51  77 105 131 163 200 235 276
#     4   9  16  26  41  60  82 110 145 185 230 281
#     4   7  10  16  25  35  49  77 121 170 217 268
#     4   9  15  21  30  47  71  97 129 174 227 280
#     4   8  12  18  27  38  55  84 125 172 221 273
#
# _framework density 20.052821000000002
#
# number of rings (size 3 to 8) (size 9 to 14) (size 15 to 20)
#    0.000    3.400    0.000    2.400    0.000    5.200 
#    0.000    3.000    0.000    4.200    0.000    2.800 
#    0.000    0.000    0.000    0.000    0.000    1.000 
#
# Total GULP energy -223139.477571 kJ/mol
# GULP energy per Si atom -5578.486939 kJ/mol
# Density = 2.000718 g / cm^3
# Si number density = 20.052821 Si / 1000 Ang^3
#
#
#
# Elastic Constant Matrix: (Units=GPa)
#
#
# Indices 1 2 3 4 5 6 
#
# 1 110.7748 112.4896 23.9904 0.0000 0.0000 0.0000
# 2 112.4896 258.4336 39.9482 0.0000 0.0000 0.0000
# 3 23.9904 39.9482 81.5749 0.0000 0.0000 0.0000
# 4 0.0000 0.0000 0.0000 4513.4973 0.0000 0.0000
# 5 0.0000 0.0000 0.0000 0.0000 -10.9874 0.0000
# 6 0.0000 0.0000 0.0000 0.0000 0.0000 38.1410
#
#
#
# Elastic Compliance Matrix: (Units=1/GPa)
#
#
# Indices 1 2 3 4 5 6 
#
# 1 0.016331 -0.006887 -0.001430 0.000000 0.000000 0.000000
# 2 -0.006887 0.007091 -0.001447 0.000000 0.000000 0.000000
# 3 -0.001430 -0.001447 0.013388 0.000000 0.000000 0.000000
# 4 0.000000 0.000000 0.000000 0.000222 0.000000 0.000000
# 5 0.000000 0.000000 0.000000 0.000000 -0.091013 0.000000
# 6 0.000000 0.000000 0.000000 0.000000 0.000000 0.026219
#
#
# Mechanical properties :
#
#
# Convention : Reuss Voigt Hill
#
# Bulk Modulus (GPa) = 57.86672 89.29331 73.58001
# Shear Modulus (GPa) = -2020.98702 926.42051 -547.28325
#
# Velocity S-wave (km/s) = -31.78081 21.51727 -16.53824
# Velocity P-wave (km/s) = 36.30115 25.72839 18.10833
#
# Compressibility (1/GPa) = 0.01728109
#
# Stress axis : x y z
#
# Youngs Moduli (GPa) = 61.23282 141.02196 74.69466
#
# Poissons Ratio (x) = 0.97129 0.10681
# Poissons Ratio (y) = 0.42174 0.10809
# Poissons Ratio (z) = 0.08756 0.20407
#
# Static dielectric constant tensor:
#      x y z
#    x 1.663030 0.000000 0.000000 
#    y 0.000000 1.686470 0.000000 
#    z 0.000000 0.000000 1.932880 
# 
# From -- ./inp_files/1778.got.cif
#   From: 2010.05.17/outbox.cif.g08.bks.cpg/sg47_1_cif.got.tgz:1778.got - 2010.06.03 20:15:42.
