data_PCOD9388634
_publ_section_title
;
Structure prediction by ZEFSAII (Michael W. Deem and Ramdas Pophale) SiO2 
 PCOD9388634
Probable space group: P M M M
;
_chemical_formula_sum "Si O2"
_cell_formula_units_Z 40
_cell_length_a 28.238498
_cell_length_b 9.621839
_cell_length_c 7.787284
_cell_angle_alpha 90.000000
_cell_angle_beta 90.000000
_cell_angle_gamma 90.000000
_cell_volume 2115.853978
_symmetry_space_group_name_H-M "P M M M"
_symmetry_group_IT_number 47
_symmetry_cell_setting 'orthorhombic'
loop_
_space_group_symop_operation_xyz
x,y,z
-x,-y,z
x,-y,-z
-x,y,-z
-x,-y,-z
x,y,-z
-x,y,z
x,-y,z
loop_
_atom_site_type_symbol
_atom_site_label
_atom_site_fract_x
_atom_site_fract_y
_atom_site_fract_z
Si Si1 0.443215 0.336048 0.000000
Si Si2 0.194327 0.658237 0.793493
Si Si3 0.000000 0.155376 0.296666
Si Si4 0.609431 0.167711 0.294774
Si Si5 0.283357 0.155015 0.294648
Si Si6 0.089703 0.658853 0.206478
O O1 0.423450 0.255983 0.168339
O O2 0.429479 0.500000 0.000000
O O3 0.500000 0.329149 0.000000
O O4 0.200406 0.500000 0.732306
O O5 0.239230 0.748912 0.746048
O O6 0.142059 0.706148 0.733648
O O7 0.192660 0.655338 0.000000
O O8 0.953131 0.240977 0.250383
O O9 0.000000 0.143093 0.500000
O O10 0.000000 0.000000 0.220630
O O11 0.602848 0.196070 0.500000
O O12 0.663956 0.201357 0.242825
O O13 0.603341 0.000000 0.272820
O O14 0.286265 0.145405 0.500000
O O15 0.275191 0.000000 0.224555
O O16 0.081728 0.500000 0.268153
O O17 0.091342 0.652128 0.000000
#
# Coordination Sequence:
#
# PCOD9388634 Si02
#       6
#     4   8   4   8   8   8
#     4  11  25  41  59  89 125 159 197 246 305 358
#     4   9  19  34  52  78 109 138 173 217 264 319
#     4  11  24  37  50  74 104 131 166 217 272 322
#     4   9  20  40  63  87 118 158 204 249 293 349
#     4   9  19  35  54  79 111 145 181 223 272 323
#     4   9  19  37  57  75  99 134 175 217 262 317
#
# _framework density 18.904896000000001
#
# number of rings (size 3 to 8) (size 9 to 14) (size 15 to 20)
#    0.000    2.600    0.000    3.300    1.400    7.200 
#    0.000   10.000    0.000    0.000    0.000    0.000 
#    0.000    0.000    0.000    0.000    0.000    0.000 
#
# Total GULP energy -223000.431741 kJ/mol
# GULP energy per Si atom -5575.010794 kJ/mol
# Density = 1.886187 g / cm^3
# Si number density = 18.904896 Si / 1000 Ang^3
#
#
#
# Elastic Constant Matrix: (Units=GPa)
#
#
# Indices 1 2 3 4 5 6 
#
# 1 164.7874 98.6694 44.7756 0.0000 0.0000 0.0000
# 2 98.6694 97.6157 38.2684 0.0000 0.0000 0.0000
# 3 44.7756 38.2684 59.8041 0.0000 0.0000 0.0000
# 4 0.0000 0.0000 0.0000 26.7564 0.0000 0.0000
# 5 0.0000 0.0000 0.0000 0.0000 54.8296 0.0000
# 6 0.0000 0.0000 0.0000 0.0000 0.0000 46.9002
#
#
#
# Elastic Compliance Matrix: (Units=1/GPa)
#
#
# Indices 1 2 3 4 5 6 
#
# 1 0.015570 -0.014908 -0.002118 0.000000 0.000000 0.000000
# 2 -0.014908 0.027949 -0.006722 0.000000 0.000000 0.000000
# 3 -0.002118 -0.006722 0.022609 0.000000 0.000000 0.000000
# 4 0.000000 0.000000 0.000000 0.037374 0.000000 0.000000
# 5 0.000000 0.000000 0.000000 0.000000 0.018238 0.000000
# 6 0.000000 0.000000 0.000000 0.000000 0.000000 0.021322
#
#
# Mechanical properties :
#
#
# Convention : Reuss Voigt Hill
#
# Bulk Modulus (GPa) = 53.67502 76.18154 64.92828
# Shear Modulus (GPa) = 25.41038 35.06350 30.23694
#
# Velocity S-wave (km/s) = 3.67020 4.31133 4.00362
# Velocity P-wave (km/s) = 6.81280 8.07268 7.46935
#
# Compressibility (1/GPa) = 0.01863064
#
# Stress axis : x y z
#
# Youngs Moduli (GPa) = 64.22408 35.77970 44.23078
#
# Poissons Ratio (x) = 0.53341 0.09368
# Poissons Ratio (y) = 0.95747 0.29734
# Poissons Ratio (z) = 0.13603 0.24053
#
# Static dielectric constant tensor:
#      x y z
#    x 1.670400 0.000000 0.000000 
#    y 0.000000 1.666220 0.000000 
#    z 0.000000 0.000000 1.684660 
# 
# From -- ./inp_files/12993.got.cif
#   From: 2010.05.17/outbox.cif.g08.bks.cpg/sg47_7_cif.got.tgz:12993.got - 2010.06.03 20:15:42.
