data_PCOD9388422
_publ_section_title
;
Structure prediction by ZEFSAII (Michael W. Deem and Ramdas Pophale) SiO2 
 PCOD9388422
Probable space group: P M M M
;
_chemical_formula_sum "Si O2"
_cell_formula_units_Z 56
_cell_length_a 14.153669
_cell_length_b 10.061192
_cell_length_c 21.635719
_cell_angle_alpha 90.000000
_cell_angle_beta 90.000000
_cell_angle_gamma 90.000000
_cell_volume 3080.986561
_symmetry_space_group_name_H-M "P M M M"
_symmetry_group_IT_number 47
_symmetry_cell_setting 'orthorhombic'
loop_
_space_group_symop_operation_xyz
x,y,z
-x,-y,z
x,-y,-z
-x,y,-z
-x,-y,-z
x,y,-z
-x,y,z
x,-y,z
loop_
_atom_site_type_symbol
_atom_site_label
_atom_site_fract_x
_atom_site_fract_y
_atom_site_fract_z
Si Si1 0.295241 0.252475 0.360674
Si Si2 0.113373 0.847374 0.163098
Si Si3 0.388667 0.500000 0.425958
Si Si4 0.109648 0.158625 0.308546
Si Si5 0.222733 0.656983 0.930197
Si Si6 0.611343 0.153876 0.098468
Si Si7 0.612130 0.850240 0.754470
Si Si8 0.388200 0.000000 0.425902
O O1 0.334301 0.375515 0.397959
O O2 0.183550 0.235428 0.351146
O O3 0.337397 0.249774 0.291229
O O4 0.338760 0.126570 0.395971
O O5 0.132692 0.821498 0.235669
O O6 0.160887 0.739919 0.118740
O O7 0.000000 0.843994 0.155871
O O8 0.144691 0.000000 0.149367
O O9 0.500000 0.500000 0.408378
O O10 0.384917 0.500000 0.500000
O O11 0.000000 0.194613 0.318027
O O12 0.118906 0.000000 0.319545
O O13 0.231506 0.500000 0.914943
O O14 0.322656 0.734549 0.930314
O O15 0.183065 0.666094 0.000000
O O16 0.500000 0.171659 0.085481
O O17 0.625618 0.167315 0.172608
O O18 0.634928 0.000000 0.081691
O O19 0.500000 0.845489 0.743247
O O20 0.645942 0.000000 0.739311
O O21 0.500000 0.000000 0.411081
O O22 0.378898 0.000000 0.500000
#
# Coordination Sequence:
#
# PCOD9388422 Si02
#       8
#     8   8   4   8   8   8   8   4
#     4  12  20  35  60  83 113 157 193 235 287 338
#     4   9  19  38  64  89 113 142 181 232 287 340
#     4  11  26  44  57  77 119 165 199 236 282 332
#     4   9  18  36  63  95 122 144 181 239 299 348
#     4  11  24  38  52  75 113 156 192 230 281 341
#     4   9  19  36  57  80 108 144 189 241 290 338
#     4   9  16  29  53  84 111 134 174 235 296 347
#     4  11  22  34  55  87 115 147 199 244 274 328
#
# _framework density 18.175996000000001
#
# number of rings (size 3 to 8) (size 9 to 14) (size 15 to 20)
#    0.000    2.000    1.429    4.714    0.000    5.714 
#    5.143    3.214    0.000    2.571    0.000    0.000 
#    0.000    0.000    0.000    0.000    0.000    0.000 
#
# Total GULP energy -312606.485674 kJ/mol
# GULP energy per Si atom -5582.258673 kJ/mol
# Density = 1.813463 g / cm^3
# Si number density = 18.175996 Si / 1000 Ang^3
#
#
#
# Elastic Constant Matrix: (Units=GPa)
#
#
# Indices 1 2 3 4 5 6 
#
# 1 114.0078 68.5225 60.7906 0.0000 0.0000 0.0000
# 2 68.5225 134.8683 53.8600 0.0000 0.0000 0.0000
# 3 60.7906 53.8600 71.0026 0.0000 0.0000 0.0000
# 4 0.0000 0.0000 0.0000 53.6559 0.0000 0.0000
# 5 0.0000 0.0000 0.0000 0.0000 19.9531 0.0000
# 6 0.0000 0.0000 0.0000 0.0000 0.0000 16.8477
#
#
#
# Elastic Compliance Matrix: (Units=1/GPa)
#
#
# Indices 1 2 3 4 5 6 
#
# 1 0.017662 -0.004210 -0.011928 0.000000 0.000000 0.000000
# 2 -0.004210 0.011640 -0.005226 0.000000 0.000000 0.000000
# 3 -0.011928 -0.005226 0.028261 0.000000 0.000000 0.000000
# 4 0.000000 0.000000 0.000000 0.018637 0.000000 0.000000
# 5 0.000000 0.000000 0.000000 0.000000 0.050118 0.000000
# 6 0.000000 0.000000 0.000000 0.000000 0.000000 0.059355
#
#
# Mechanical properties :
#
#
# Convention : Reuss Voigt Hill
#
# Bulk Modulus (GPa) = 67.40588 76.24722 71.82655
# Shear Modulus (GPa) = 21.42745 27.20503 24.31624
#
# Velocity S-wave (km/s) = 3.43722 3.87299 3.66159
# Velocity P-wave (km/s) = 7.27449 7.87658 7.58152
#
# Compressibility (1/GPa) = 0.01483550
#
# Stress axis : x y z
#
# Youngs Moduli (GPa) = 56.61892 85.90744 35.38501
#
# Poissons Ratio (x) = 0.36167 0.42208
# Poissons Ratio (y) = 0.23836 0.18491
# Poissons Ratio (z) = 0.67536 0.44892
#
# Static dielectric constant tensor:
#      x y z
#    x 1.647320 0.000000 0.000000 
#    y 0.000000 1.589120 0.000000 
#    z 0.000000 0.000000 1.634450 
# 
# From -- ./inp_files/31037.got.cif
#   From: 2010.05.17/outbox.cif.g08.bks.cpg/sg47_16_cif.got.tgz:31037.got - 2010.06.03 20:15:42.
