data_PCOD9388919
_publ_section_title
;
Structure prediction by ZEFSAII (Michael W. Deem and Ramdas Pophale) SiO2 
 PCOD9388919
Probable space group: P M M M
;
_chemical_formula_sum "Si O2"
_cell_formula_units_Z 52
_cell_length_a 9.493322
_cell_length_b 7.337420
_cell_length_c 35.234905
_cell_angle_alpha 90.000000
_cell_angle_beta 90.000000
_cell_angle_gamma 90.000000
_cell_volume 2454.339833
_symmetry_space_group_name_H-M "P M M M"
_symmetry_group_IT_number 47
_symmetry_cell_setting 'orthorhombic'
loop_
_space_group_symop_operation_xyz
x,y,z
-x,-y,z
x,-y,-z
-x,y,-z
-x,-y,-z
x,y,-z
-x,y,z
x,-y,z
loop_
_atom_site_type_symbol
_atom_site_label
_atom_site_fract_x
_atom_site_fract_y
_atom_site_fract_z
Si Si1 0.162176 0.222559 0.311080
Si Si2 0.337517 0.218317 0.845101
Si Si3 0.660442 0.284889 0.071704
Si Si4 0.338181 0.222516 0.384787
Si Si5 0.837551 0.778166 0.457340
Si Si6 0.161645 0.723373 0.000000
Si Si7 0.664518 0.222024 0.237769
O O1 0.248111 0.279370 0.348302
O O2 0.241645 0.282479 0.272930
O O3 0.000000 0.280099 0.312292
O O4 0.162483 0.000000 0.310950
O O5 0.500000 0.283374 0.846523
O O6 0.275530 0.264267 0.886083
O O7 0.281879 0.279619 0.804082
O O8 0.340118 0.000000 0.843594
O O9 0.500000 0.209809 0.071347
O O10 0.647775 0.500000 0.065281
O O11 0.755734 0.214859 0.037601
O O12 0.500000 0.280298 0.382266
O O13 0.263577 0.281963 0.423653
O O14 0.337901 0.000000 0.384882
O O15 0.797391 0.721048 0.500000
O O16 0.000000 0.724363 0.450494
O O17 0.835998 0.000000 0.457211
O O18 0.160918 0.500000 0.000000
O O19 0.000000 0.781193 0.000000
O O20 0.500000 0.275033 0.241826
O O21 0.665477 0.000000 0.238361
#
# Coordination Sequence:
#
# PCOD9388919 Si02
#       7
#     8   8   8   8   8   4   8
#     4   9  15  21  29  41  57  76  99 129 165 204
#     4   8  14  25  41  60  81 104 128 155 191 233
#     4   9  16  27  45  66  83 101 131 167 194 220
#     4   9  15  20  26  36  49  66  91 124 161 203
#     4   8  13  20  27  33  43  61  85 116 159 209
#     4   9  17  29  44  61  82 108 134 159 192 232
#     4   8  13  22  35  48  63  85 111 136 165 207
#
# _framework density 21.186959999999999
#
# number of rings (size 3 to 8) (size 9 to 14) (size 15 to 20)
#    0.000    3.462    0.000    2.538    0.000    4.923 
#    0.000    2.692    0.000    3.692    0.000    0.000 
#    0.000    0.000    0.000    0.000    0.000    0.000 
#
# Total GULP energy -290017.109364 kJ/mol
# GULP energy per Si atom -5577.252103 kJ/mol
# Density = 2.113874 g / cm^3
# Si number density = 21.186960 Si / 1000 Ang^3
#
#
#
# Elastic Constant Matrix: (Units=GPa)
#
#
# Indices 1 2 3 4 5 6 
#
# 1 140.8804 5.1022 139.2430 0.0000 0.0000 0.0000
# 2 5.1022 79.9648 4.5281 0.0000 0.0000 0.0000
# 3 139.2430 4.5281 262.4588 0.0000 0.0000 0.0000
# 4 0.0000 0.0000 0.0000 10.2448 0.0000 0.0000
# 5 0.0000 0.0000 0.0000 0.0000 -20.7925 0.0000
# 6 0.0000 0.0000 0.0000 0.0000 0.0000 -11.8647
#
#
#
# Elastic Compliance Matrix: (Units=1/GPa)
#
#
# Indices 1 2 3 4 5 6 
#
# 1 0.014944 -0.000505 -0.007920 0.000000 0.000000 0.000000
# 2 -0.000505 0.012535 0.000052 0.000000 0.000000 0.000000
# 3 -0.007920 0.000052 0.008011 0.000000 0.000000 0.000000
# 4 0.000000 0.000000 0.000000 0.097610 0.000000 0.000000
# 5 0.000000 0.000000 0.000000 0.000000 -0.048094 0.000000
# 6 0.000000 0.000000 0.000000 0.000000 0.000000 -0.084283
#
#
# Mechanical properties :
#
#
# Convention : Reuss Voigt Hill
#
# Bulk Modulus (GPa) = 53.35106 86.78341 70.06724
# Shear Modulus (GPa) = 210.82849 17.81290 114.32070
#
# Velocity S-wave (km/s) = 9.98622 2.90271 7.35358
# Velocity P-wave (km/s) = 12.57783 7.23077 10.25880
#
# Compressibility (1/GPa) = 0.01874377
#
# Stress axis : x y z
#
# Youngs Moduli (GPa) = 66.91611 79.77789 124.83078
#
# Poissons Ratio (x) = 0.04029 0.98861
# Poissons Ratio (y) = 0.03380 -0.00645
# Poissons Ratio (z) = 0.52995 -0.00412
#
# Static dielectric constant tensor:
#      x y z
#    x 1.706520 0.000000 0.000000 
#    y 0.000000 1.855780 0.000000 
#    z 0.000000 0.000000 1.762600 
# 
# From -- ./inp_files/34303.got.cif
#   From: 2010.05.17/outbox.cif.g08.bks.cpg/sg47_18_cif.got.tgz:34303.got - 2010.06.03 20:15:42.
