data_PCOD9388516
_publ_section_title
;
Structure prediction by ZEFSAII (Michael W. Deem and Ramdas Pophale) SiO2 
 PCOD9388516
Probable space group: P M M M
;
_chemical_formula_sum "Si O2"
_cell_formula_units_Z 32
_cell_length_a 25.908366
_cell_length_b 7.612676
_cell_length_c 7.487023
_cell_angle_alpha 90.000000
_cell_angle_beta 90.000000
_cell_angle_gamma 90.000000
_cell_volume 1476.680491
_symmetry_space_group_name_H-M "P M M M"
_symmetry_group_IT_number 47
_symmetry_cell_setting 'orthorhombic'
loop_
_space_group_symop_operation_xyz
x,y,z
-x,-y,z
x,-y,-z
-x,y,-z
-x,-y,-z
x,y,-z
-x,y,z
x,-y,z
loop_
_atom_site_type_symbol
_atom_site_label
_atom_site_fract_x
_atom_site_fract_y
_atom_site_fract_z
Si Si1 0.442113 0.298678 0.217612
Si Si2 0.167004 0.301099 0.713711
Si Si3 0.944495 0.286148 0.710553
Si Si4 0.364261 0.000000 0.780775
Si Si5 0.752358 0.000000 0.789547
O O1 0.500000 0.242981 0.272106
O O2 0.434277 0.500000 0.273314
O O3 0.397223 0.169149 0.276103
O O4 0.442063 0.297024 0.000000
O O5 0.160655 0.312789 0.500000
O O6 0.176184 0.500000 0.779946
O O7 0.111383 0.231850 0.783351
O O8 0.213702 0.170101 0.744623
O O9 0.945685 0.239211 0.500000
O O10 0.943565 0.500000 0.720266
O O11 0.000000 0.228702 0.786576
O O12 0.305552 0.000000 0.714968
O O13 0.363834 0.000000 0.000000
O O14 0.746224 0.000000 0.000000
#
# Coordination Sequence:
#
# PCOD9388516 Si02
#       5
#     8   8   8   4   4
#     4   8  13  22  38  59  82 111 148 189 233 279
#     4   9  18  34  55  74  94 125 164 207 251 291
#     4   7  10  20  43  73  95 110 141 196 255 299
#     4   9  17  27  38  56  87 126 160 187 222 274
#     4  11  23  34  46  69 102 139 172 199 232 282
#
# _framework density 21.670227000000001
#
# number of rings (size 3 to 8) (size 9 to 14) (size 15 to 20)
#    0.000    3.500    0.000    3.750    0.000    3.000 
#    0.000    3.125    0.000    4.500    0.000    3.500 
#    0.000    8.000    0.000   22.000    0.000   18.000 
#
# Total GULP energy -178406.504123 kJ/mol
# GULP energy per Si atom -5575.203254 kJ/mol
# Density = 2.162090 g / cm^3
# Si number density = 21.670227 Si / 1000 Ang^3
#
#
#
# Elastic Constant Matrix: (Units=GPa)
#
#
# Indices 1 2 3 4 5 6 
#
# 1 275.2515 120.0777 10.0159 0.0000 0.0000 0.0000
# 2 120.0777 112.5005 2.5070 0.0000 0.0000 0.0000
# 3 10.0159 2.5070 59.0698 0.0000 0.0000 0.0000
# 4 0.0000 0.0000 0.0000 9.3058 0.0000 0.0000
# 5 0.0000 0.0000 0.0000 0.0000 12.4183 0.0000
# 6 0.0000 0.0000 0.0000 0.0000 0.0000 0.0354
#
#
#
# Elastic Compliance Matrix: (Units=1/GPa)
#
#
# Indices 1 2 3 4 5 6 
#
# 1 0.006841 -0.007283 -0.000851 0.000000 0.000000 0.000000
# 2 -0.007283 0.016651 0.000528 0.000000 0.000000 0.000000
# 3 -0.000851 0.000528 0.017051 0.000000 0.000000 0.000000
# 4 0.000000 0.000000 0.000000 0.107460 0.000000 0.000000
# 5 0.000000 0.000000 0.000000 0.000000 0.080527 0.000000
# 6 0.000000 0.000000 0.000000 0.000000 0.000000 28.220053
#
#
# Mechanical properties :
#
#
# Convention : Reuss Voigt Hill
#
# Bulk Modulus (GPa) = 39.47662 79.11367 59.29514
# Shear Modulus (GPa) = 0.17561 25.29999 12.73780
#
# Velocity S-wave (km/s) = 0.28498 3.42058 2.42709
# Velocity P-wave (km/s) = 4.28542 7.22411 5.93938
#
# Compressibility (1/GPa) = 0.02533145
#
# Stress axis : x y z
#
# Youngs Moduli (GPa) = 146.17335 60.05790 58.64768
#
# Poissons Ratio (x) = 0.43740 0.04990
# Poissons Ratio (y) = 1.06458 -0.03098
# Poissons Ratio (z) = 0.12438 -0.03173
#
# Static dielectric constant tensor:
#      x y z
#    x 1.810700 0.000000 0.000000 
#    y 0.000000 1.746620 0.000000 
#    z 0.000000 0.000000 1.880300 
# 
# From -- ./inp_files/12020.got.cif
#   From: 2010.05.17/outbox.cif.g08.bks.cpg/sg47_7_cif.got.tgz:12020.got - 2010.06.03 20:15:42.
