data_PCOD9388851
_publ_section_title
;
Structure prediction by ZEFSAII (Michael W. Deem and Ramdas Pophale) SiO2 
 PCOD9388851
Probable space group: P M M M
;
_chemical_formula_sum "Si O2"
_cell_formula_units_Z 52
_cell_length_a 24.278405
_cell_length_b 15.673136
_cell_length_c 7.419258
_cell_angle_alpha 90.000000
_cell_angle_beta 90.000000
_cell_angle_gamma 90.000000
_cell_volume 2823.166731
_symmetry_space_group_name_H-M "P M M M"
_symmetry_group_IT_number 47
_symmetry_cell_setting 'orthorhombic'
loop_
_space_group_symop_operation_xyz
x,y,z
-x,-y,z
x,-y,-z
-x,y,-z
-x,-y,-z
x,y,-z
-x,y,z
x,-y,z
loop_
_atom_site_type_symbol
_atom_site_label
_atom_site_fract_x
_atom_site_fract_y
_atom_site_fract_z
Si Si1 0.180659 0.900311 0.279194
Si Si2 0.601530 0.182112 0.719911
Si Si3 0.434661 0.000000 0.292494
Si Si4 0.059132 0.102243 0.283952
Si Si5 0.682657 0.406248 0.782978
Si Si6 0.440149 0.363475 0.208909
Si Si7 0.723737 0.774563 0.287364
O O1 0.180004 0.900816 0.500000
O O2 0.119507 0.871117 0.218841
O O3 0.226986 0.833536 0.216946
O O4 0.190292 0.000000 0.227039
O O5 0.598921 0.184104 0.500000
O O6 0.564746 0.260880 0.782844
O O7 0.663838 0.198237 0.781978
O O8 0.583972 0.089545 0.785613
O O9 0.500000 0.000000 0.296780
O O10 0.413694 0.000000 0.500000
O O11 0.058747 0.116021 0.500000
O O12 0.000000 0.135369 0.214382
O O13 0.058748 0.000000 0.256295
O O14 0.701444 0.500000 0.725417
O O15 0.619316 0.392771 0.715286
O O16 0.722280 0.327752 0.733958
O O17 0.679354 0.404852 0.000000
O O18 0.500000 0.389015 0.286085
O O19 0.440567 0.390683 0.000000
O O20 0.722870 0.791540 0.500000
#
# Coordination Sequence:
#
# PCOD9388851 Si02
#       7
#     8   8   4   8   8   8   8
#     4   8  13  20  33  55  83 113 141 166 191 224
#     4   9  17  27  39  54  74 101 129 157 189 226
#     4   9  16  24  35  51  69  93 128 162 184 211
#     4   7   9  14  25  44  74 111 143 165 187 218
#     4   9  18  32  47  60  76 100 127 157 198 246
#     4   9  17  29  44  60  76  92 115 152 196 240
#     4   9  17  27  41  61  82 104 130 163 198 229
#
# _framework density 18.419032000000001
#
# number of rings (size 3 to 8) (size 9 to 14) (size 15 to 20)
#    0.000    3.462    0.000    1.846    1.077    1.538 
#    0.000    1.923    0.000    1.846    0.000    4.308 
#    0.000    1.231    0.000   11.538    0.000    4.615 
#
# Total GULP energy -289480.777653 kJ/mol
# GULP energy per Si atom -5566.938032 kJ/mol
# Density = 1.837711 g / cm^3
# Si number density = 18.419032 Si / 1000 Ang^3
#
#
#
# Elastic Constant Matrix: (Units=GPa)
#
#
# Indices 1 2 3 4 5 6 
#
# 1 122.1400 45.9481 4.9212 0.0000 0.0000 0.0000
# 2 45.9481 103.8672 -5.2521 0.0000 0.0000 0.0000
# 3 4.9212 -5.2521 57.5091 0.0000 0.0000 0.0000
# 4 0.0000 0.0000 0.0000 13.6324 0.0000 0.0000
# 5 0.0000 0.0000 0.0000 0.0000 8.7939 0.0000
# 6 0.0000 0.0000 0.0000 0.0000 0.0000 -4.0118
#
#
#
# Elastic Compliance Matrix: (Units=1/GPa)
#
#
# Indices 1 2 3 4 5 6 
#
# 1 0.009911 -0.004448 -0.001254 0.000000 0.000000 0.000000
# 2 -0.004448 0.011668 0.001446 0.000000 0.000000 0.000000
# 3 -0.001254 0.001446 0.017628 0.000000 0.000000 0.000000
# 4 0.000000 0.000000 0.000000 0.073355 0.000000 0.000000
# 5 0.000000 0.000000 0.000000 0.000000 0.113715 0.000000
# 6 0.000000 0.000000 0.000000 0.000000 0.000000 -0.249266
#
#
# Mechanical properties :
#
#
# Convention : Reuss Voigt Hill
#
# Bulk Modulus (GPa) = 32.57789 41.63897 37.10843
# Shear Modulus (GPa) = -1177.78107 19.54284 -579.11912
#
# Velocity S-wave (km/s) = -25.31452 3.26085 -17.75094
# Velocity P-wave (km/s) = 28.92591 6.06903 19.99844
#
# Compressibility (1/GPa) = 0.03069567
#
# Stress axis : x y z
#
# Youngs Moduli (GPa) = 100.89691 85.70143 56.72800
#
# Poissons Ratio (x) = 0.38119 0.07115
# Poissons Ratio (y) = 0.44877 -0.08204
# Poissons Ratio (z) = 0.12656 -0.12394
#
# Static dielectric constant tensor:
#      x y z
#    x 1.655560 0.000000 0.000000 
#    y 0.000000 1.647260 0.000000 
#    z 0.000000 0.000000 1.731450 
# 
# From -- ./inp_files/7669.got.cif
#   From: 2010.05.17/outbox.cif.g08.bks.cpg/sg47_4_cif.got.tgz:7669.got - 2010.06.03 20:15:42.
