data_PCOD9388085
_publ_section_title
;
Structure prediction by ZEFSAII (Michael W. Deem and Ramdas Pophale) SiO2 
 PCOD9388085
Probable space group: P M M M
;
_chemical_formula_sum "Si O2"
_cell_formula_units_Z 48
_cell_length_a 20.384369
_cell_length_b 8.713587
_cell_length_c 15.187695
_cell_angle_alpha 90.000000
_cell_angle_beta 90.000000
_cell_angle_gamma 90.000000
_cell_volume 2697.653159
_symmetry_space_group_name_H-M "P M M M"
_symmetry_group_IT_number 47
_symmetry_cell_setting 'orthorhombic'
loop_
_space_group_symop_operation_xyz
x,y,z
-x,-y,z
x,-y,-z
-x,y,-z
-x,-y,-z
x,y,-z
-x,y,z
x,-y,z
loop_
_atom_site_type_symbol
_atom_site_label
_atom_site_fract_x
_atom_site_fract_y
_atom_site_fract_z
Si Si1 0.282963 0.822401 0.902123
Si Si2 0.076429 0.500000 0.103189
Si Si3 0.694213 0.681702 0.711919
Si Si4 0.132832 0.831453 0.152012
Si Si5 0.828276 0.826508 0.645002
Si Si6 0.076927 0.683874 0.500000
Si Si7 0.575308 0.815349 0.397294
O O1 0.305493 0.736989 0.813766
O O2 0.203974 0.825133 0.893922
O O3 0.304934 0.000000 0.896476
O O4 0.300748 0.762594 0.000000
O O5 0.101407 0.665834 0.135157
O O6 0.000000 0.500000 0.121384
O O7 0.089936 0.500000 0.000000
O O8 0.699683 0.500000 0.710513
O O9 0.757241 0.749344 0.659523
O O10 0.628659 0.737628 0.664103
O O11 0.143385 0.835609 0.256609
O O12 0.102847 0.000000 0.126773
O O13 0.880446 0.741601 0.583195
O O14 0.818758 0.000000 0.611799
O O15 0.075786 0.500000 0.500000
O O16 0.000000 0.736432 0.500000
O O17 0.586747 0.776111 0.500000
O O18 0.500000 0.773586 0.375810
O O19 0.580829 0.000000 0.389644
#
# Coordination Sequence:
#
# PCOD9388085 Si02
#       7
#     8   4   8   8   8   4   8
#     4   9  18  34  57  83 110 143 186 235 285 340
#     4  11  24  36  52  79 107 141 180 224 287 355
#     4  11  22  34  55  88 122 152 187 236 290 341
#     4   9  20  38  58  80 106 140 184 234 286 341
#     4  10  22  40  60  81 109 147 192 237 280 336
#     4  11  25  41  59  85 114 145 184 235 295 355
#     4   9  19  37  60  84 113 154 200 239 279 333
#
# _framework density 17.793243
#
# number of rings (size 3 to 8) (size 9 to 14) (size 15 to 20)
#    0.000    2.167    0.000    4.250    7.000    3.667 
#    0.000    3.333    0.000    0.500    0.000    3.500 
#    0.000    0.000    0.000    0.000    0.000    0.000 
#
# Total GULP energy -267450.714788 kJ/mol
# GULP energy per Si atom -5571.889891 kJ/mol
# Density = 1.775274 g / cm^3
# Si number density = 17.793243 Si / 1000 Ang^3
#
#
#
# Elastic Constant Matrix: (Units=GPa)
#
#
# Indices 1 2 3 4 5 6 
#
# 1 106.0748 75.9652 71.5646 0.0000 0.0000 0.0000
# 2 75.9652 142.8777 53.6582 0.0000 0.0000 0.0000
# 3 71.5646 53.6582 112.2504 0.0000 0.0000 0.0000
# 4 0.0000 0.0000 0.0000 26.2410 0.0000 0.0000
# 5 0.0000 0.0000 0.0000 0.0000 19.1681 0.0000
# 6 0.0000 0.0000 0.0000 0.0000 0.0000 28.3964
#
#
#
# Elastic Compliance Matrix: (Units=1/GPa)
#
#
# Indices 1 2 3 4 5 6 
#
# 1 0.021941 -0.007815 -0.010253 0.000000 0.000000 0.000000
# 2 -0.007815 0.011314 -0.000426 0.000000 0.000000 0.000000
# 3 -0.010253 -0.000426 0.015649 0.000000 0.000000 0.000000
# 4 0.000000 0.000000 0.000000 0.038108 0.000000 0.000000
# 5 0.000000 0.000000 0.000000 0.000000 0.052170 0.000000
# 6 0.000000 0.000000 0.000000 0.000000 0.000000 0.035216
#
#
# Mechanical properties :
#
#
# Convention : Reuss Voigt Hill
#
# Bulk Modulus (GPa) = 83.91645 84.84209 84.37927
# Shear Modulus (GPa) = 23.21717 25.42877 24.32297
#
# Velocity S-wave (km/s) = 3.61616 3.78448 3.70128
# Velocity P-wave (km/s) = 8.04362 8.17815 8.11116
#
# Compressibility (1/GPa) = 0.01191661
#
# Stress axis : x y z
#
# Youngs Moduli (GPa) = 45.57614 88.38486 63.90302
#
# Poissons Ratio (x) = 0.69076 0.65518
# Poissons Ratio (y) = 0.35619 0.02721
# Poissons Ratio (z) = 0.46728 0.03763
#
# Static dielectric constant tensor:
#      x y z
#    x 1.588830 0.000000 0.000000 
#    y 0.000000 1.727670 0.000000 
#    z 0.000000 0.000000 1.622200 
# 
# From -- ./inp_files/21043.got.cif
#   From: 2010.05.17/outbox.cif.g08.bks.cpg/sg47_11_cif.got.tgz:21043.got - 2010.06.03 20:15:42.
