data_PCOD9388173
_publ_section_title
;
Structure prediction by ZEFSAII (Michael W. Deem and Ramdas Pophale) SiO2 
 PCOD9388173
Probable space group: P M M M
;
_chemical_formula_sum "Si O2"
_cell_formula_units_Z 40
_cell_length_a 14.930954
_cell_length_b 7.940109
_cell_length_c 23.169991
_cell_angle_alpha 90.000000
_cell_angle_beta 90.000000
_cell_angle_gamma 90.000000
_cell_volume 2746.881263
_symmetry_space_group_name_H-M "P M M M"
_symmetry_group_IT_number 47
_symmetry_cell_setting 'orthorhombic'
loop_
_space_group_symop_operation_xyz
x,y,z
-x,-y,z
x,-y,-z
-x,y,-z
-x,-y,-z
x,y,-z
-x,y,z
x,-y,z
loop_
_atom_site_type_symbol
_atom_site_label
_atom_site_fract_x
_atom_site_fract_y
_atom_site_fract_z
Si Si1 0.601297 0.701756 0.223706
Si Si2 0.714206 0.799725 0.886905
Si Si3 0.609209 0.000000 0.433475
Si Si4 0.397827 0.298566 0.000000
Si Si5 0.900609 0.794504 0.932565
Si Si6 0.391051 0.305744 0.647660
O O1 0.500000 0.767696 0.213162
O O2 0.594669 0.500000 0.227298
O O3 0.665921 0.742635 0.171197
O O4 0.633023 0.754218 0.287529
O O5 0.654836 0.755205 0.942741
O O6 0.814929 0.732804 0.897167
O O7 0.720338 0.000000 0.884576
O O8 0.637646 0.168512 0.399317
O O9 0.500000 0.000000 0.433037
O O10 0.637888 0.000000 0.500000
O O11 0.401649 0.500000 0.000000
O O12 0.500000 0.233360 0.000000
O O13 0.000000 0.738795 0.914084
O O14 0.900687 0.000000 0.930879
O O15 0.888612 0.748584 0.000000
O O16 0.500000 0.309884 0.647336
O O17 0.361543 0.500000 0.637878
#
# Coordination Sequence:
#
# PCOD9388173 Si02
#       6
#     8   8   4   4   8   8
#     4   9  18  31  43  56  79 113 143 166 203 252
#     4  11  20  29  45  66  78  94 133 176 210 246
#     4   9  16  24  38  60  82 105 138 179 216 243
#     4  11  23  35  42  51  78 112 131 159 212 261
#     4   8  14  27  45  61  78  98 121 158 210 261
#     4   8  15  27  40  54  77 109 143 175 207 246
#
# _framework density 14.561968999999999
#
# number of rings (size 3 to 8) (size 9 to 14) (size 15 to 20)
#    0.000    2.800    1.000    3.300    1.400    4.000 
#    0.000    2.000    0.000    3.000    0.000    0.000 
#    0.000    0.000    0.000    0.000    0.000    2.000 
#
# Total GULP energy -222787.544188 kJ/mol
# GULP energy per Si atom -5569.688605 kJ/mol
# Density = 1.452882 g / cm^3
# Si number density = 14.561969 Si / 1000 Ang^3
#
#
#
# Elastic Constant Matrix: (Units=GPa)
#
#
# Indices 1 2 3 4 5 6 
#
# 1 82.5670 14.7828 54.4857 0.0000 0.0000 0.0000
# 2 14.7828 38.4798 41.9122 0.0000 0.0000 0.0000
# 3 54.4857 41.9122 134.4152 0.0000 0.0000 0.0000
# 4 0.0000 0.0000 0.0000 29.1343 0.0000 0.0000
# 5 0.0000 0.0000 0.0000 0.0000 1.6994 0.0000
# 6 0.0000 0.0000 0.0000 0.0000 0.0000 -410.6329
#
#
#
# Elastic Compliance Matrix: (Units=1/GPa)
#
#
# Indices 1 2 3 4 5 6 
#
# 1 0.016587 0.001440 -0.007173 0.000000 0.000000 0.000000
# 2 0.001440 0.039478 -0.012894 0.000000 0.000000 0.000000
# 3 -0.007173 -0.012894 0.014367 0.000000 0.000000 0.000000
# 4 0.000000 0.000000 0.000000 0.034324 0.000000 0.000000
# 5 0.000000 0.000000 0.000000 0.000000 0.588433 0.000000
# 6 0.000000 0.000000 0.000000 0.000000 0.000000 -0.002435
#
#
# Mechanical properties :
#
#
# Convention : Reuss Voigt Hill
#
# Bulk Modulus (GPa) = 30.13824 53.09148 41.61486
# Shear Modulus (GPa) = 6.76531 -66.34108 -29.78789
#
# Velocity S-wave (km/s) = 2.15777 -6.75697 -4.52773
# Velocity P-wave (km/s) = 5.19128 4.93330 1.14280
#
# Compressibility (1/GPa) = 0.03318044
#
# Stress axis : x y z
#
# Youngs Moduli (GPa) = 60.28945 25.33057 69.60205
#
# Poissons Ratio (x) = -0.03648 0.49922
# Poissons Ratio (y) = -0.08683 0.89741
# Poissons Ratio (z) = 0.43243 0.32660
#
# Static dielectric constant tensor:
#      x y z
#    x 1.489420 0.000000 0.000000 
#    y 0.000000 1.522830 0.000000 
#    z 0.000000 0.000000 1.457250 
# 
# From -- ./inp_files/10816.got.cif
#   From: 2010.05.17/outbox.cif.g08.bks.cpg/sg47_6_cif.got.tgz:10816.got - 2010.06.03 20:15:42.
