data_PCOD9388754
_publ_section_title
;
Structure prediction by ZEFSAII (Michael W. Deem and Ramdas Pophale) SiO2 
 PCOD9388754
Probable space group: P M M M
;
_chemical_formula_sum "Si O2"
_cell_formula_units_Z 52
_cell_length_a 7.598906
_cell_length_b 14.162511
_cell_length_c 27.944772
_cell_angle_alpha 90.000000
_cell_angle_beta 90.000000
_cell_angle_gamma 90.000000
_cell_volume 3007.404900
_symmetry_space_group_name_H-M "P M M M"
_symmetry_group_IT_number 47
_symmetry_cell_setting 'orthorhombic'
loop_
_space_group_symop_operation_xyz
x,y,z
-x,-y,z
x,-y,-z
-x,y,-z
-x,-y,-z
x,y,-z
-x,y,z
x,-y,z
loop_
_atom_site_type_symbol
_atom_site_label
_atom_site_fract_x
_atom_site_fract_y
_atom_site_fract_z
Si Si1 0.713118 0.296751 0.196415
Si Si2 0.209819 0.385407 0.500000
Si Si3 0.291477 0.103846 0.151121
Si Si4 0.211811 0.391124 0.602798
Si Si5 0.790427 0.395683 0.098318
Si Si6 0.710321 0.392036 0.707084
Si Si7 0.786754 0.799147 0.053380
O O1 0.500000 0.292880 0.197474
O O2 0.779714 0.193262 0.180786
O O3 0.761192 0.368364 0.153754
O O4 0.776782 0.333115 0.247704
O O5 0.230277 0.500000 0.500000
O O6 0.277548 0.351322 0.551768
O O7 0.000000 0.367263 0.500000
O O8 0.500000 0.100293 0.160747
O O9 0.269128 0.130923 0.095449
O O10 0.217326 0.000000 0.161029
O O11 0.275807 0.500000 0.605024
O O12 0.256056 0.349360 0.654467
O O13 0.000000 0.393706 0.599925
O O14 0.718654 0.500000 0.087788
O O15 0.723564 0.306191 0.068083
O O16 0.000000 0.399119 0.090056
O O17 0.500000 0.398010 0.712217
O O18 0.780239 0.500000 0.708449
O O19 0.000000 0.797714 0.053732
O O20 0.728482 0.823938 0.000000
#
# Coordination Sequence:
#
# PCOD9388754 Si02
#       7
#     8   4   8   8   8   8   8
#     4   9  17  29  43  57  76 102 128 156 192 232
#     4   7  10  18  31  45  63  91 128 163 188 210
#     4   9  18  32  48  63  77  96 125 159 193 229
#     4   8  13  21  33  48  67  95 130 162 187 211
#     4   9  17  28  42  60  80 102 129 158 184 214
#     4   9  16  24  34  51  75 100 125 152 183 220
#     4   9  18  31  45  62  83 104 125 150 184 227
#
# _framework density 17.290655000000001
#
# number of rings (size 3 to 8) (size 9 to 14) (size 15 to 20)
#    0.000    3.308    0.000    1.385    0.000    2.769 
#    0.000    5.000    0.000    2.308    0.000    4.308 
#    0.000    0.000    0.000    0.692    0.000   16.077 
#
# Total GULP energy -289486.436671 kJ/mol
# GULP energy per Si atom -5567.046859 kJ/mol
# Density = 1.725130 g / cm^3
# Si number density = 17.290655 Si / 1000 Ang^3
#
#
#
# Elastic Constant Matrix: (Units=GPa)
#
#
# Indices 1 2 3 4 5 6 
#
# 1 35.8803 1.3948 -6.1816 0.0000 0.0000 0.0000
# 2 1.3948 59.5898 9.7829 0.0000 0.0000 0.0000
# 3 -6.1816 9.7829 104.4625 0.0000 0.0000 0.0000
# 4 0.0000 0.0000 0.0000 8.0257 0.0000 0.0000
# 5 0.0000 0.0000 0.0000 0.0000 18.9642 0.0000
# 6 0.0000 0.0000 0.0000 0.0000 0.0000 8.1849
#
#
#
# Elastic Compliance Matrix: (Units=1/GPa)
#
#
# Indices 1 2 3 4 5 6 
#
# 1 0.028210 -0.000949 0.001758 0.000000 0.000000 0.000000
# 2 -0.000949 0.017075 -0.001655 0.000000 0.000000 0.000000
# 3 0.001758 -0.001655 0.009832 0.000000 0.000000 0.000000
# 4 0.000000 0.000000 0.000000 0.124600 0.000000 0.000000
# 5 0.000000 0.000000 0.000000 0.000000 0.052731 0.000000
# 6 0.000000 0.000000 0.000000 0.000000 0.000000 0.122176
#
#
# Mechanical properties :
#
#
# Convention : Reuss Voigt Hill
#
# Bulk Modulus (GPa) = 18.71765 23.32497 21.02131
# Shear Modulus (GPa) = 13.36452 20.03071 16.69762
#
# Velocity S-wave (km/s) = 2.78318 3.40732 3.11095
# Velocity P-wave (km/s) = 4.60184 5.38507 5.00879
#
# Compressibility (1/GPa) = 0.05342552
#
# Stress axis : x y z
#
# Youngs Moduli (GPa) = 35.44808 58.56391 101.71004
#
# Poissons Ratio (x) = 0.05557 -0.17883
# Poissons Ratio (y) = 0.03364 0.16836
# Poissons Ratio (z) = -0.06233 0.09694
#
# Static dielectric constant tensor:
#      x y z
#    x 1.656780 0.000000 0.000000 
#    y 0.000000 1.583080 0.000000 
#    z 0.000000 0.000000 1.625590 
# 
# From -- ./inp_files/8021.got.cif
#   From: 2010.05.17/outbox.cif.g08.bks.cpg/sg47_5_cif.got.tgz:8021.got - 2010.06.03 20:15:42.
