data_PCOD9388889
_publ_section_title
;
Structure prediction by ZEFSAII (Michael W. Deem and Ramdas Pophale) SiO2 
 PCOD9388889
Probable space group: P M M M
;
_chemical_formula_sum "Si O2"
_cell_formula_units_Z 60
_cell_length_a 19.732484
_cell_length_b 7.420012
_cell_length_c 21.892975
_cell_angle_alpha 90.000000
_cell_angle_beta 90.000000
_cell_angle_gamma 90.000000
_cell_volume 3205.465803
_symmetry_space_group_name_H-M "P M M M"
_symmetry_group_IT_number 47
_symmetry_cell_setting 'orthorhombic'
loop_
_space_group_symop_operation_xyz
x,y,z
-x,-y,z
x,-y,-z
-x,y,-z
-x,-y,-z
x,y,-z
-x,y,z
x,-y,z
loop_
_atom_site_type_symbol
_atom_site_label
_atom_site_fract_x
_atom_site_fract_y
_atom_site_fract_z
Si Si1 0.075228 0.219049 0.132678
Si Si2 0.709030 0.212788 0.185760
Si Si3 0.219483 0.217072 0.690128
Si Si4 0.576322 0.717074 0.748562
Si Si5 0.646998 0.713212 0.624635
Si Si6 0.075444 0.219438 0.724984
Si Si7 0.212031 0.220552 0.068564
Si Si8 0.579028 0.720723 0.500000
O O1 0.085485 0.270240 0.203711
O O2 0.137114 0.276608 0.090679
O O3 0.000000 0.277730 0.113738
O O4 0.075413 0.000000 0.132090
O O5 0.748237 0.284791 0.245711
O O6 0.629927 0.237137 0.198992
O O7 0.736829 0.282012 0.121625
O O8 0.723653 0.000000 0.185518
O O9 0.273164 0.263306 0.637559
O O10 0.141588 0.278723 0.687623
O O11 0.218237 0.000000 0.692646
O O12 0.500000 0.781734 0.757668
O O13 0.574366 0.500000 0.745090
O O14 0.607728 0.785334 0.684420
O O15 0.633967 0.500000 0.623954
O O16 0.617396 0.782999 0.561154
O O17 0.000000 0.279431 0.706094
O O18 0.074503 0.000000 0.723688
O O19 0.212844 0.000000 0.067558
O O20 0.226993 0.280807 0.000000
O O21 0.580190 0.500000 0.500000
O O22 0.500000 0.773017 0.500000
#
# Coordination Sequence:
#
# PCOD9388889 Si02
#       8
#     8   8   8   8   8   8   8   4
#     4   8  12  18  29  48  76 108 139 168 200 240
#     4   9  16  26  40  59  82 107 134 165 204 247
#     4   9  15  25  41  60  84 112 141 172 205 240
#     4   9  17  29  45  64  83 102 128 164 202 237
#     4   9  17  28  44  66  88 110 135 163 194 234
#     4   8  12  19  34  55  79 108 140 172 205 241
#     4   9  15  22  33  51  78 110 139 167 203 246
#     4   9  16  28  47  67  88 115 142 162 187 235
#
# _framework density 18.718028
#
# number of rings (size 3 to 8) (size 9 to 14) (size 15 to 20)
#    0.000    3.267    1.333    1.200    0.000    2.133 
#    0.000    1.667    0.000    2.800    0.000    3.267 
#    0.000    4.267    0.000    1.200    0.000    1.333 
#
# Total GULP energy -334403.546690 kJ/mol
# GULP energy per Si atom -5573.392445 kJ/mol
# Density = 1.867542 g / cm^3
# Si number density = 18.718028 Si / 1000 Ang^3
#
#
#
# Elastic Constant Matrix: (Units=GPa)
#
#
# Indices 1 2 3 4 5 6 
#
# 1 160.4445 -5.7111 96.2440 0.0000 0.0000 0.0000
# 2 -5.7111 57.0192 4.9679 0.0000 0.0000 0.0000
# 3 96.2440 4.9679 124.6771 0.0000 0.0000 0.0000
# 4 0.0000 0.0000 0.0000 3.6049 0.0000 0.0000
# 5 0.0000 0.0000 0.0000 0.0000 27.6548 0.0000
# 6 0.0000 0.0000 0.0000 0.0000 0.0000 21.6361
#
#
#
# Elastic Compliance Matrix: (Units=1/GPa)
#
#
# Indices 1 2 3 4 5 6 
#
# 1 0.011828 0.001987 -0.009210 0.000000 0.000000 0.000000
# 2 0.001987 0.017933 -0.002248 0.000000 0.000000 0.000000
# 3 -0.009210 -0.002248 0.015220 0.000000 0.000000 0.000000
# 4 0.000000 0.000000 0.000000 0.277402 0.000000 0.000000
# 5 0.000000 0.000000 0.000000 0.000000 0.036160 0.000000
# 6 0.000000 0.000000 0.000000 0.000000 0.000000 0.046219
#
#
# Mechanical properties :
#
#
# Convention : Reuss Voigt Hill
#
# Bulk Modulus (GPa) = 38.40488 59.23802 48.82145
# Shear Modulus (GPa) = 11.56381 27.02182 19.29282
#
# Velocity S-wave (km/s) = 2.48824 3.80363 3.21395
# Velocity P-wave (km/s) = 5.36817 7.14188 6.31758
#
# Compressibility (1/GPa) = 0.02603836
#
# Stress axis : x y z
#
# Youngs Moduli (GPa) = 84.54556 55.76344 65.70424
#
# Poissons Ratio (x) = -0.11081 0.60512
# Poissons Ratio (y) = -0.16800 0.14774
# Poissons Ratio (z) = 0.77864 0.12538
#
# Static dielectric constant tensor:
#      x y z
#    x 1.662480 0.000000 0.000000 
#    y 0.000000 1.747760 0.000000 
#    z 0.000000 0.000000 1.622410 
# 
# From -- ./inp_files/31186.got.cif
#   From: 2010.05.17/outbox.cif.g08.bks.cpg/sg47_16_cif.got.tgz:31186.got - 2010.06.03 20:15:42.
