data_PCOD9388129
_publ_section_title
;
Structure prediction by ZEFSAII (Michael W. Deem and Ramdas Pophale) SiO2 
 PCOD9388129
Probable space group: P M M M
;
_chemical_formula_sum "Si O2"
_cell_formula_units_Z 56
_cell_length_a 9.053233
_cell_length_b 21.905983
_cell_length_c 14.278595
_cell_angle_alpha 90.000000
_cell_angle_beta 90.000000
_cell_angle_gamma 90.000000
_cell_volume 2831.730506
_symmetry_space_group_name_H-M "P M M M"
_symmetry_group_IT_number 47
_symmetry_cell_setting 'orthorhombic'
loop_
_space_group_symop_operation_xyz
x,y,z
-x,-y,z
x,-y,-z
-x,y,-z
-x,-y,-z
x,y,-z
-x,y,z
x,-y,z
loop_
_atom_site_type_symbol
_atom_site_label
_atom_site_fract_x
_atom_site_fract_y
_atom_site_fract_z
Si Si1 0.825748 0.931499 0.387298
Si Si2 0.167654 0.500000 0.886267
Si Si3 0.167980 0.000000 0.886410
Si Si4 0.179166 0.865198 0.109152
Si Si5 0.677001 0.374025 0.893453
Si Si6 0.677145 0.182569 0.286960
Si Si7 0.323195 0.683812 0.704711
Si Si8 0.825816 0.567278 0.387538
O O1 0.811624 0.929799 0.500000
O O2 0.739477 0.875224 0.343055
O O3 0.000000 0.925344 0.364847
O O4 0.778963 0.000000 0.356193
O O5 0.250844 0.562155 0.861872
O O6 0.000000 0.500000 0.851417
O O7 0.163877 0.500000 0.000000
O O8 0.232170 0.065923 0.863570
O O9 0.000000 0.000000 0.850147
O O10 0.159011 0.000000 0.000000
O O11 0.256273 0.821734 0.182711
O O12 0.000000 0.863918 0.117370
O O13 0.214178 0.854080 0.000000
O O14 0.500000 0.381781 0.895123
O O15 0.713041 0.324535 0.814950
O O16 0.725128 0.359824 0.000000
O O17 0.500000 0.180216 0.283735
O O18 0.722284 0.248685 0.327977
O O19 0.500000 0.679730 0.695032
O O20 0.253252 0.626228 0.653299
O O21 0.810829 0.568152 0.500000
O O22 0.771886 0.500000 0.354855
O O23 0.000000 0.570803 0.365887
#
# Coordination Sequence:
#
# PCOD9388129 Si02
#       8
#     8   4   4   8   8   8   8   8
#     4   9  20  41  67  90 111 143 191 241 288 345
#     4   9  17  29  47  75 106 133 170 227 287 328
#     4   7  12  26  49  75 100 131 178 233 281 322
#     4   9  18  34  56  81 111 152 200 244 285 334
#     4   9  18  34  54  74 103 148 195 231 266 318
#     4  11  24  38  54  84 124 159 190 233 291 346
#     4  10  23  39  55  81 116 156 197 231 272 333
#     4   9  20  40  64  89 115 143 179 230 293 348
#
# _framework density 19.775894000000001
#
# number of rings (size 3 to 8) (size 9 to 14) (size 15 to 20)
#    0.000    2.714    0.000    2.357    2.000    5.143 
#    0.000    5.714    0.000    3.000    0.000    0.000 
#    0.000    0.000    0.000    0.000    0.000    0.000 
#
# Total GULP energy -312360.927278 kJ/mol
# GULP energy per Si atom -5577.873701 kJ/mol
# Density = 1.973088 g / cm^3
# Si number density = 19.775894 Si / 1000 Ang^3
#
#
#
# Elastic Constant Matrix: (Units=GPa)
#
#
# Indices 1 2 3 4 5 6 
#
# 1 30.8772 55.5431 29.9377 0.0000 0.0000 0.0000
# 2 55.5431 183.8654 56.9443 0.0000 0.0000 0.0000
# 3 29.9377 56.9443 57.9456 0.0000 0.0000 0.0000
# 4 0.0000 0.0000 0.0000 20.5425 0.0000 0.0000
# 5 0.0000 0.0000 0.0000 0.0000 -348.5111 0.0000
# 6 0.0000 0.0000 0.0000 0.0000 0.0000 12.7195
#
#
#
# Elastic Compliance Matrix: (Units=1/GPa)
#
#
# Indices 1 2 3 4 5 6 
#
# 1 0.099259 -0.020272 -0.031360 0.000000 0.000000 0.000000
# 2 -0.020272 0.011959 -0.001278 0.000000 0.000000 0.000000
# 3 -0.031360 -0.001278 0.034716 0.000000 0.000000 0.000000
# 4 0.000000 0.000000 0.000000 0.048680 0.000000 0.000000
# 5 0.000000 0.000000 0.000000 0.000000 -0.002869 0.000000
# 6 0.000000 0.000000 0.000000 0.000000 0.000000 0.078619
#
#
# Mechanical properties :
#
#
# Convention : Reuss Voigt Hill
#
# Bulk Modulus (GPa) = 24.93022 61.94871 43.43947
# Shear Modulus (GPa) = 12.83512 -54.36561 -20.76525
#
# Velocity S-wave (km/s) = 2.55037 -5.24886 -3.24393
# Velocity P-wave (km/s) = 4.61587 2.31099 2.82538
#
# Compressibility (1/GPa) = 0.04011195
#
# Stress axis : x y z
#
# Youngs Moduli (GPa) = 10.07464 83.62181 28.80500
#
# Poissons Ratio (x) = 1.69520 0.90334
# Poissons Ratio (y) = 0.20424 0.03682
# Poissons Ratio (z) = 0.31595 0.10689
#
# Static dielectric constant tensor:
#      x y z
#    x 1.656160 0.000000 0.000000 
#    y 0.000000 1.706970 0.000000 
#    z 0.000000 0.000000 1.733520 
# 
# From -- ./inp_files/21595.got.cif
#   From: 2010.05.17/outbox.cif.g08.bks.cpg/sg47_11_cif.got.tgz:21595.got - 2010.06.03 20:15:42.
