data_PCOD9388426
_publ_section_title
;
Structure prediction by ZEFSAII (Michael W. Deem and Ramdas Pophale) SiO2 
 PCOD9388426
Probable space group: P M M M
;
_chemical_formula_sum "Si O2"
_cell_formula_units_Z 40
_cell_length_a 21.648385
_cell_length_b 11.619265
_cell_length_c 10.196189
_cell_angle_alpha 90.000000
_cell_angle_beta 90.000000
_cell_angle_gamma 90.000000
_cell_volume 2564.732273
_symmetry_space_group_name_H-M "P M M M"
_symmetry_group_IT_number 47
_symmetry_cell_setting 'orthorhombic'
loop_
_space_group_symop_operation_xyz
x,y,z
-x,-y,z
x,-y,-z
-x,y,-z
-x,-y,-z
x,y,-z
-x,y,z
x,-y,z
loop_
_atom_site_type_symbol
_atom_site_label
_atom_site_fract_x
_atom_site_fract_y
_atom_site_fract_z
Si Si1 0.425878 0.364189 0.500000
Si Si2 0.106900 0.860246 0.350586
Si Si3 0.572250 0.362449 0.000000
Si Si4 0.628641 0.762104 0.247747
Si Si5 0.573796 0.000000 0.846660
Si Si6 0.750613 0.864307 0.656774
Si Si7 0.000000 0.859551 0.152255
O O1 0.410705 0.500000 0.500000
O O2 0.500000 0.354024 0.500000
O O3 0.398223 0.301080 0.374236
O O4 0.090928 0.822771 0.500000
O O5 0.178096 0.830065 0.322137
O O6 0.059468 0.823024 0.238208
O O7 0.104824 0.000000 0.353537
O O8 0.607788 0.313745 0.874884
O O9 0.571637 0.500000 0.000000
O O10 0.500000 0.322771 0.000000
O O11 0.701062 0.787642 0.267545
O O12 0.598229 0.886758 0.224761
O O13 0.500000 0.000000 0.845673
O O14 0.594053 0.000000 0.000000
O O15 0.738755 0.856122 0.500000
O O16 0.743872 0.000000 0.691969
O O17 0.000000 0.000000 0.149905
O O18 0.000000 0.822102 0.000000
#
# Coordination Sequence:
#
# PCOD9388426 Si02
#       7
#     4   8   4   8   4   8   4
#     4  11  24  39  55  77 101 129 171 220 268 315
#     4   8  14  25  42  58  86 129 170 195 226 285
#     4  11  24  41  57  71  93 133 177 214 260 317
#     4  12  21  36  56  76 102 132 166 215 263 313
#     4  11  22  35  51  75 103 130 165 210 261 317
#     4   9  17  31  47  71 101 132 163 200 250 308
#     4   9  15  23  35  61  91 123 166 211 236 257
#
# _framework density 15.596170000000001
#
# number of rings (size 3 to 8) (size 9 to 14) (size 15 to 20)
#    0.000    2.000    3.000    3.900    0.000    3.200 
#    1.800    1.000    0.000    0.000    0.000    0.000 
#    0.000    0.000    0.000    5.400    0.000    0.700 
#
# Total GULP energy -223002.505507 kJ/mol
# GULP energy per Si atom -5575.062638 kJ/mol
# Density = 1.556067 g / cm^3
# Si number density = 15.596170 Si / 1000 Ang^3
#
#
#
# Elastic Constant Matrix: (Units=GPa)
#
#
# Indices 1 2 3 4 5 6 
#
# 1 124.8329 34.5768 81.8375 0.0000 0.0000 0.0000
# 2 34.5768 64.8392 46.7840 0.0000 0.0000 0.0000
# 3 81.8375 46.7840 145.8140 0.0000 0.0000 0.0000
# 4 0.0000 0.0000 0.0000 27.3072 0.0000 0.0000
# 5 0.0000 0.0000 0.0000 0.0000 23.4997 0.0000
# 6 0.0000 0.0000 0.0000 0.0000 0.0000 -4.2254
#
#
#
# Elastic Compliance Matrix: (Units=1/GPa)
#
#
# Indices 1 2 3 4 5 6 
#
# 1 0.012901 -0.002154 -0.006550 0.000000 0.000000 0.000000
# 2 -0.002154 0.020428 -0.005345 0.000000 0.000000 0.000000
# 3 -0.006550 -0.005345 0.012249 0.000000 0.000000 0.000000
# 4 0.000000 0.000000 0.000000 0.036620 0.000000 0.000000
# 5 0.000000 0.000000 0.000000 0.000000 0.042554 0.000000
# 6 0.000000 0.000000 0.000000 0.000000 0.000000 -0.236662
#
#
# Mechanical properties :
#
#
# Convention : Reuss Voigt Hill
#
# Bulk Modulus (GPa) = 57.20675 73.54252 65.37464
# Shear Modulus (GPa) = -64.11564 20.80215 -21.65675
#
# Velocity S-wave (km/s) = -6.41865 3.65608 -3.73043
# Velocity P-wave (km/s) = 4.26292 8.06717 4.84286
#
# Compressibility (1/GPa) = 0.01748045
#
# Stress axis : x y z
#
# Youngs Moduli (GPa) = 77.51286 48.95148 81.63891
#
# Poissons Ratio (x) = 0.10544 0.53470
# Poissons Ratio (y) = 0.16696 0.43640
# Poissons Ratio (z) = 0.50768 0.26167
#
# Static dielectric constant tensor:
#      x y z
#    x 1.525280 0.000000 0.000000 
#    y 0.000000 1.493310 0.000000 
#    z 0.000000 0.000000 1.417320 
# 
# From -- ./inp_files/10757.got.cif
#   From: 2010.05.17/outbox.cif.g08.bks.cpg/sg47_6_cif.got.tgz:10757.got - 2010.06.03 20:15:42.
