data_PCOD9388658
_publ_section_title
;
Structure prediction by ZEFSAII (Michael W. Deem and Ramdas Pophale) SiO2 
 PCOD9388658
Probable space group: P M M M
;
_chemical_formula_sum "Si O2"
_cell_formula_units_Z 44
_cell_length_a 29.766090
_cell_length_b 9.345777
_cell_length_c 8.754686
_cell_angle_alpha 90.000000
_cell_angle_beta 90.000000
_cell_angle_gamma 90.000000
_cell_volume 2435.441929
_symmetry_space_group_name_H-M "P M M M"
_symmetry_group_IT_number 47
_symmetry_cell_setting 'orthorhombic'
loop_
_space_group_symop_operation_xyz
x,y,z
-x,-y,z
x,-y,-z
-x,y,-z
-x,-y,-z
x,y,-z
-x,y,z
x,-y,z
loop_
_atom_site_type_symbol
_atom_site_label
_atom_site_fract_x
_atom_site_fract_y
_atom_site_fract_z
Si Si1 0.170534 0.331549 0.314889
Si Si2 0.450591 0.833001 0.813990
Si Si3 0.729944 0.673820 0.677799
Si Si4 0.000000 0.667444 0.683455
Si Si5 0.085593 0.167387 0.816804
Si Si6 0.636961 0.665866 0.183810
O O1 0.169086 0.323040 0.500000
O O2 0.164668 0.500000 0.275533
O O3 0.220609 0.282826 0.265349
O O4 0.131339 0.238007 0.243695
O O5 0.500000 0.779434 0.764576
O O6 0.406921 0.748949 0.759176
O O7 0.447258 0.000000 0.773434
O O8 0.450312 0.825607 0.000000
O O9 0.726476 0.712469 0.500000
O O10 0.730457 0.500000 0.686894
O O11 0.685083 0.724072 0.761545
O O12 0.043887 0.746328 0.747125
O O13 0.000000 0.500000 0.727624
O O14 0.000000 0.674839 0.500000
O O15 0.083050 0.000000 0.773877
O O16 0.083872 0.177052 0.000000
O O17 0.633703 0.500000 0.231691
O O18 0.636710 0.669674 0.000000
#
# Coordination Sequence:
#
# PCOD9388658 Si02
#       6
#     8   8   8   4   8   8
#     4   9  18  34  56  79 101 131 174 214 247 293
#     4   8  14  25  40  58  83 116 150 184 229 284
#     4   8  15  29  48  69  95 126 157 192 236 286
#     4  11  24  41  62  86 108 135 176 217 250 294
#     4  11  24  39  55  80 113 143 171 207 253 300
#     4   9  16  25  41  67  92 113 146 193 237 276
#
# _framework density 18.066537
#
# number of rings (size 3 to 8) (size 9 to 14) (size 15 to 20)
#    0.000    2.818    0.000    3.273    0.000    6.909 
#    0.000    4.545    0.000    4.364    0.000    3.818 
#    0.000    0.000    0.000    0.000    0.000    0.000 
#
# Total GULP energy -245225.671096 kJ/mol
# GULP energy per Si atom -5573.310707 kJ/mol
# Density = 1.802542 g / cm^3
# Si number density = 18.066537 Si / 1000 Ang^3
#
#
#
# Elastic Constant Matrix: (Units=GPa)
#
#
# Indices 1 2 3 4 5 6 
#
# 1 226.4337 92.6809 40.9795 0.0000 0.0000 0.0000
# 2 92.6809 87.2158 31.6029 0.0000 0.0000 0.0000
# 3 40.9795 31.6029 16.4550 0.0000 0.0000 0.0000
# 4 0.0000 0.0000 0.0000 17.8953 0.0000 0.0000
# 5 0.0000 0.0000 0.0000 0.0000 36.2632 0.0000
# 6 0.0000 0.0000 0.0000 0.0000 0.0000 -37.0417
#
#
#
# Elastic Compliance Matrix: (Units=1/GPa)
#
#
# Indices 1 2 3 4 5 6 
#
# 1 0.008546 -0.004504 -0.012633 0.000000 0.000000 0.000000
# 2 -0.004504 0.040081 -0.065761 0.000000 0.000000 0.000000
# 3 -0.012633 -0.065761 0.218533 0.000000 0.000000 0.000000
# 4 0.000000 0.000000 0.000000 0.055880 0.000000 0.000000
# 5 0.000000 0.000000 0.000000 0.000000 0.027576 0.000000
# 6 0.000000 0.000000 0.000000 0.000000 0.000000 -0.026997
#
#
# Mechanical properties :
#
#
# Convention : Reuss Voigt Hill
#
# Bulk Modulus (GPa) = 9.86555 73.40345 41.63450
# Shear Modulus (GPa) = 9.55649 14.41278 11.98464
#
# Velocity S-wave (km/s) = 2.30241 2.82753 2.57837
# Velocity P-wave (km/s) = 3.54128 7.16782 5.65324
#
# Compressibility (1/GPa) = 0.10136287
#
# Stress axis : x y z
#
# Youngs Moduli (GPa) = 117.01197 24.94948 4.57597
#
# Poissons Ratio (x) = 0.11237 0.05781
# Poissons Ratio (y) = 0.52703 0.30092
# Poissons Ratio (z) = 1.47821 1.64071
#
# Static dielectric constant tensor:
#      x y z
#    x 1.632610 0.000000 0.000000 
#    y 0.000000 1.605570 0.000000 
#    z 0.000000 0.000000 1.615290 
# 
# From -- ./inp_files/13623.got.cif
#   From: 2010.05.17/outbox.cif.g08.bks.cpg/sg47_7_cif.got.tgz:13623.got - 2010.06.03 20:15:42.
