data_PCOD9388616
_publ_section_title
;
Structure prediction by ZEFSAII (Michael W. Deem and Ramdas Pophale) SiO2 
 PCOD9388616
Probable space group: P M M M
;
_chemical_formula_sum "Si O2"
_cell_formula_units_Z 44
_cell_length_a 7.770503
_cell_length_b 29.725100
_cell_length_c 9.660542
_cell_angle_alpha 90.000000
_cell_angle_beta 90.000000
_cell_angle_gamma 90.000000
_cell_volume 2231.382125
_symmetry_space_group_name_H-M "P M M M"
_symmetry_group_IT_number 47
_symmetry_cell_setting 'orthorhombic'
loop_
_space_group_symop_operation_xyz
x,y,z
-x,-y,z
x,-y,-z
-x,y,-z
-x,-y,-z
x,y,-z
-x,y,z
x,-y,z
loop_
_atom_site_type_symbol
_atom_site_label
_atom_site_fract_x
_atom_site_fract_y
_atom_site_fract_z
Si Si1 0.706427 0.280586 0.342955
Si Si2 0.288932 0.085106 0.339663
Si Si3 0.301087 0.816586 0.668512
Si Si4 0.796065 0.365064 0.155196
Si Si5 0.707396 0.550595 0.342707
Si Si6 0.289421 0.000000 0.159167
O O1 0.769683 0.289444 0.500000
O O2 0.500000 0.275328 0.352497
O O3 0.775327 0.231907 0.292356
O O4 0.738817 0.322128 0.243593
O O5 0.239203 0.077450 0.500000
O O6 0.500000 0.086444 0.338873
O O7 0.226625 0.134740 0.293691
O O8 0.234418 0.044538 0.241791
O O9 0.303013 0.816201 0.500000
O O10 0.500000 0.817111 0.716368
O O11 0.756743 0.410790 0.236988
O O12 0.000000 0.361849 0.144703
O O13 0.721875 0.365369 0.000000
O O14 0.766685 0.560658 0.500000
O O15 0.500000 0.549558 0.346717
O O16 0.766577 0.500000 0.306167
O O17 0.500000 0.000000 0.160037
O O18 0.233992 0.000000 0.000000
#
# Coordination Sequence:
#
# PCOD9388616 Si02
#       6
#     8   8   8   8   8   4
#     4   9  17  31  52  74  93 117 155 202 246 286
#     4   8  12  19  31  45  64  95 134 171 211 264
#     4   7  11  21  38  59  79 100 134 183 231 272
#     4  11  24  37  48  69 103 137 165 194 230 275
#     4   9  19  37  60  83 103 124 156 198 239 279
#     4   9  15  19  23  37  65  99 134 173 214 255
#
# _framework density 19.718720000000001
#
# number of rings (size 3 to 8) (size 9 to 14) (size 15 to 20)
#    0.000    3.182    0.000    4.091    0.000    6.182 
#    0.000    3.636    0.000    3.273    0.000    0.000 
#    0.000    0.000    0.000    0.818    0.000   18.000 
#
# Total GULP energy -245164.239416 kJ/mol
# GULP energy per Si atom -5571.914532 kJ/mol
# Density = 1.967384 g / cm^3
# Si number density = 19.718720 Si / 1000 Ang^3
#
#
#
# Elastic Constant Matrix: (Units=GPa)
#
#
# Indices 1 2 3 4 5 6 
#
# 1 27.6847 8.1574 6.3161 0.0000 0.0000 0.0000
# 2 8.1574 227.2365 125.6487 0.0000 0.0000 0.0000
# 3 6.3161 125.6487 124.4659 0.0000 0.0000 0.0000
# 4 0.0000 0.0000 0.0000 -7.0042 0.0000 0.0000
# 5 0.0000 0.0000 0.0000 0.0000 13.3945 0.0000
# 6 0.0000 0.0000 0.0000 0.0000 0.0000 -46.0049
#
#
#
# Elastic Compliance Matrix: (Units=1/GPa)
#
#
# Indices 1 2 3 4 5 6 
#
# 1 0.036586 -0.000649 -0.001201 0.000000 0.000000 0.000000
# 2 -0.000649 0.009972 -0.010034 0.000000 0.000000 0.000000
# 3 -0.001201 -0.010034 0.018225 0.000000 0.000000 0.000000
# 4 0.000000 0.000000 0.000000 -0.142772 0.000000 0.000000
# 5 0.000000 0.000000 0.000000 0.000000 0.074657 0.000000
# 6 0.000000 0.000000 0.000000 0.000000 0.000000 -0.021737
#
#
# Mechanical properties :
#
#
# Convention : Reuss Voigt Hill
#
# Bulk Modulus (GPa) = 24.38173 73.29238 48.83705
# Shear Modulus (GPa) = 404.12074 8.02808 206.07441
#
# Velocity S-wave (km/s) = 14.33135 2.01994 10.23396
# Velocity P-wave (km/s) = 16.91868 6.53374 12.82442
#
# Compressibility (1/GPa) = 0.04101431
#
# Stress axis : x y z
#
# Youngs Moduli (GPa) = 27.33262 100.27780 54.87042
#
# Poissons Ratio (x) = 0.06510 0.06591
# Poissons Ratio (y) = 0.01774 0.55058
# Poissons Ratio (z) = 0.03283 1.00620
#
# Static dielectric constant tensor:
#      x y z
#    x 1.731170 0.000000 0.000000 
#    y 0.000000 1.728120 0.000000 
#    z 0.000000 0.000000 1.702950 
# 
# From -- ./inp_files/2144.got.cif
#   From: 2010.05.17/outbox.cif.g08.bks.cpg/sg47_2_cif.got.tgz:2144.got - 2010.06.03 20:15:42.
