data_PCOD9388009
_publ_section_title
;
Structure prediction by ZEFSAII (Michael W. Deem and Ramdas Pophale) SiO2 
 PCOD9388009
Probable space group: P M M M
;
_chemical_formula_sum "Si O2"
_cell_formula_units_Z 44
_cell_length_a 10.675911
_cell_length_b 23.422378
_cell_length_c 9.720892
_cell_angle_alpha 90.000000
_cell_angle_beta 90.000000
_cell_angle_gamma 90.000000
_cell_volume 2430.759816
_symmetry_space_group_name_H-M "P M M M"
_symmetry_group_IT_number 47
_symmetry_cell_setting 'orthorhombic'
loop_
_space_group_symop_operation_xyz
x,y,z
-x,-y,z
x,-y,-z
-x,y,-z
-x,-y,-z
x,y,-z
-x,y,z
x,-y,z
loop_
_atom_site_type_symbol
_atom_site_label
_atom_site_fract_x
_atom_site_fract_y
_atom_site_fract_z
Si Si1 0.641452 0.373786 0.661402
Si Si2 0.139053 0.181197 0.162353
Si Si3 0.641684 0.236298 0.338886
Si Si4 0.500000 0.069204 0.655879
Si Si5 0.857830 0.568541 0.162271
Si Si6 0.262397 0.934206 0.839887
O O1 0.656755 0.388162 0.500000
O O2 0.500000 0.391419 0.703223
O O3 0.646947 0.305068 0.672413
O O4 0.750178 0.401718 0.750491
O O5 0.249812 0.209888 0.247142
O O6 0.155415 0.112785 0.176208
O O7 0.000000 0.198720 0.207363
O O8 0.152186 0.194408 0.000000
O O9 0.658922 0.221889 0.500000
O O10 0.500000 0.218365 0.298741
O O11 0.500000 0.091272 0.500000
O O12 0.623900 0.083582 0.741079
O O13 0.500000 0.000000 0.649306
O O14 0.849225 0.500000 0.177548
O O15 0.000000 0.585515 0.202862
O O16 0.843395 0.581444 0.000000
O O17 0.226757 0.000000 0.810878
O O18 0.304082 0.932221 0.000000
#
# Coordination Sequence:
#
# PCOD9388009 Si02
#       6
#     8   8   8   4   8   8
#     4   9  19  36  56  79 107 138 177 224 269 314
#     4  10  22  37  53  78 108 136 172 217 263 315
#     4   9  20  39  59  78 103 138 178 219 266 318
#     4   9  17  29  47  73 101 127 161 205 248 295
#     4   9  19  35  53  77 112 150 184 218 259 309
#     4   9  18  33  52  73 101 136 170 207 256 313
#
# _framework density 18.101337000000001
#
# number of rings (size 3 to 8) (size 9 to 14) (size 15 to 20)
#    0.000    2.818    0.000    1.909    1.273    5.818 
#    0.000   10.000    0.000    0.000    0.000    3.818 
#    0.000    0.000    0.000    0.000    0.000    0.000 
#
# Total GULP energy -245376.257356 kJ/mol
# GULP energy per Si atom -5576.733122 kJ/mol
# Density = 1.806014 g / cm^3
# Si number density = 18.101337 Si / 1000 Ang^3
#
#
#
# Elastic Constant Matrix: (Units=GPa)
#
#
# Indices 1 2 3 4 5 6 
#
# 1 187.6809 58.6110 93.1773 0.0000 0.0000 0.0000
# 2 58.6110 37.2123 38.6593 0.0000 0.0000 0.0000
# 3 93.1773 38.6593 72.6110 0.0000 0.0000 0.0000
# 4 0.0000 0.0000 0.0000 48.4948 0.0000 0.0000
# 5 0.0000 0.0000 0.0000 0.0000 28.1691 0.0000
# 6 0.0000 0.0000 0.0000 0.0000 0.0000 16.1604
#
#
#
# Elastic Compliance Matrix: (Units=1/GPa)
#
#
# Indices 1 2 3 4 5 6 
#
# 1 0.015813 -0.008560 -0.015734 0.000000 0.000000 0.000000
# 2 -0.008560 0.064768 -0.023499 0.000000 0.000000 0.000000
# 3 -0.015734 -0.023499 0.046474 0.000000 0.000000 0.000000
# 4 0.000000 0.000000 0.000000 0.020621 0.000000 0.000000
# 5 0.000000 0.000000 0.000000 0.000000 0.035500 0.000000
# 6 0.000000 0.000000 0.000000 0.000000 0.000000 0.061880
#
#
# Mechanical properties :
#
#
# Convention : Reuss Voigt Hill
#
# Bulk Modulus (GPa) = 31.77787 75.37771 53.57779
# Shear Modulus (GPa) = 14.23963 25.70196 19.97079
#
# Velocity S-wave (km/s) = 2.80779 3.77223 3.32517
# Velocity P-wave (km/s) = 5.30144 7.79137 6.66373
#
# Compressibility (1/GPa) = 0.03146844
#
# Stress axis : x y z
#
# Youngs Moduli (GPa) = 63.23924 15.43966 21.51719
#
# Poissons Ratio (x) = 0.13216 0.33856
# Poissons Ratio (y) = 0.54132 0.50564
# Poissons Ratio (z) = 0.99503 0.36282
#
# Static dielectric constant tensor:
#      x y z
#    x 1.600810 0.000000 0.000000 
#    y 0.000000 1.637930 0.000000 
#    z 0.000000 0.000000 1.599830 
# 
# From -- ./inp_files/15288.got.cif
#   From: 2010.05.17/outbox.cif.g08.bks.cpg/sg47_8_cif.got.tgz:15288.got - 2010.06.03 20:15:42.
