data_PCOD9388254
_publ_section_title
;
Structure prediction by ZEFSAII (Michael W. Deem and Ramdas Pophale) SiO2 
 PCOD9388254
Probable space group: P M M M
;
_chemical_formula_sum "Si O2"
_cell_formula_units_Z 52
_cell_length_a 8.663576
_cell_length_b 19.173424
_cell_length_c 19.501461
_cell_angle_alpha 90.000000
_cell_angle_beta 90.000000
_cell_angle_gamma 90.000000
_cell_volume 3239.395799
_symmetry_space_group_name_H-M "P M M M"
_symmetry_group_IT_number 47
_symmetry_cell_setting 'orthorhombic'
loop_
_space_group_symop_operation_xyz
x,y,z
-x,-y,z
x,-y,-z
-x,y,-z
-x,-y,-z
x,y,-z
-x,y,z
x,-y,z
loop_
_atom_site_type_symbol
_atom_site_label
_atom_site_fract_x
_atom_site_fract_y
_atom_site_fract_z
Si Si1 0.687225 0.576777 0.294814
Si Si2 0.313427 0.715193 0.786840
Si Si3 0.686509 0.336043 0.421790
Si Si4 0.685983 0.648732 0.921894
Si Si5 0.314000 0.081171 0.578494
Si Si6 0.823842 0.500000 0.083309
Si Si7 0.183188 0.206011 0.336427
O O1 0.500000 0.574645 0.290250
O O2 0.745979 0.500000 0.276597
O O3 0.735426 0.641754 0.248205
O O4 0.727223 0.599370 0.372409
O O5 0.500000 0.719790 0.782868
O O6 0.267121 0.706414 0.866106
O O7 0.244345 0.775465 0.739571
O O8 0.738194 0.343169 0.500000
O O9 0.500000 0.330510 0.421326
O O10 0.751007 0.266637 0.386135
O O11 0.500000 0.647163 0.922998
O O12 0.740371 0.571953 0.898026
O O13 0.740748 0.660543 0.000000
O O14 0.268506 0.099792 0.500000
O O15 0.500000 0.086828 0.581867
O O16 0.240970 0.133234 0.632829
O O17 0.273701 0.000000 0.589556
O O18 0.000000 0.500000 0.107320
O O19 0.824191 0.500000 0.000000
O O20 0.000000 0.208794 0.336722
#
# Coordination Sequence:
#
# PCOD9388254 Si02
#       7
#     8   8   8   8   8   4   8
#     4   8  14  24  39  59  79 102 140 186 227 267
#     4   9  18  31  47  63  85 118 153 189 231 279
#     4   9  17  29  44  60  80 111 150 189 230 273
#     4   9  17  29  46  67  88 112 150 199 241 277
#     4   9  18  33  53  75  98 125 155 185 219 262
#     4   9  17  27  39  59  89 121 146 175 228 293
#     4  11  21  31  45  66  94 122 151 185 222 267
#
# _framework density 16.052375999999999
#
# number of rings (size 3 to 8) (size 9 to 14) (size 15 to 20)
#    0.000    2.846    0.000    3.462    1.077    4.615 
#    0.000    2.308    0.000    4.154    0.000    4.308 
#    0.000    0.615    0.000    7.077    0.000    2.000 
#
# Total GULP energy -289750.315331 kJ/mol
# GULP energy per Si atom -5572.121449 kJ/mol
# Density = 1.601584 g / cm^3
# Si number density = 16.052376 Si / 1000 Ang^3
#
#
#
# Elastic Constant Matrix: (Units=GPa)
#
#
# Indices 1 2 3 4 5 6 
#
# 1 14.2839 17.0140 21.7936 0.0000 0.0000 0.0000
# 2 17.0140 69.7024 42.1723 0.0000 0.0000 0.0000
# 3 21.7936 42.1723 104.2971 0.0000 0.0000 0.0000
# 4 0.0000 0.0000 0.0000 25.8885 0.0000 0.0000
# 5 0.0000 0.0000 0.0000 0.0000 6.5184 0.0000
# 6 0.0000 0.0000 0.0000 0.0000 0.0000 -11.2738
#
#
#
# Elastic Compliance Matrix: (Units=1/GPa)
#
#
# Indices 1 2 3 4 5 6 
#
# 1 0.118311 -0.018431 -0.017270 0.000000 0.000000 0.000000
# 2 -0.018431 0.021864 -0.004990 0.000000 0.000000 0.000000
# 3 -0.017270 -0.004990 0.015214 0.000000 0.000000 0.000000
# 4 0.000000 0.000000 0.000000 0.038627 0.000000 0.000000
# 5 0.000000 0.000000 0.000000 0.000000 0.153411 0.000000
# 6 0.000000 0.000000 0.000000 0.000000 0.000000 -0.088702
#
#
# Mechanical properties :
#
#
# Convention : Reuss Voigt Hill
#
# Bulk Modulus (GPa) = 13.51162 38.91590 26.21376
# Shear Modulus (GPa) = 13.70704 11.38021 12.54362
#
# Velocity S-wave (km/s) = 2.92532 2.66549 2.79842
# Velocity P-wave (km/s) = 4.45482 5.81109 5.17756
#
# Compressibility (1/GPa) = 0.07401037
#
# Stress axis : x y z
#
# Youngs Moduli (GPa) = 8.45227 45.73642 65.72833
#
# Poissons Ratio (x) = 0.84295 1.13510
# Poissons Ratio (y) = 0.15578 0.32796
# Poissons Ratio (z) = 0.14597 0.22821
#
# Static dielectric constant tensor:
#      x y z
#    x 1.541310 0.000000 0.000000 
#    y 0.000000 1.517840 0.000000 
#    z 0.000000 0.000000 1.578180 
# 
# From -- ./inp_files/29901.got.cif
#   From: 2010.05.17/outbox.cif.g08.bks.cpg/sg47_15_cif.got.tgz:29901.got - 2010.06.03 20:15:42.
