data_PCOD9388441
_publ_section_title
;
Structure prediction by ZEFSAII (Michael W. Deem and Ramdas Pophale) SiO2 
 PCOD9388441
Probable space group: P M M M
;
_chemical_formula_sum "Si O2"
_cell_formula_units_Z 32
_cell_length_a 8.464021
_cell_length_b 10.980616
_cell_length_c 17.759296
_cell_angle_alpha 90.000000
_cell_angle_beta 90.000000
_cell_angle_gamma 90.000000
_cell_volume 1650.551890
_symmetry_space_group_name_H-M "P M M M"
_symmetry_group_IT_number 47
_symmetry_cell_setting 'orthorhombic'
loop_
_space_group_symop_operation_xyz
x,y,z
-x,-y,z
x,-y,-z
-x,y,-z
-x,-y,-z
x,y,-z
-x,y,z
x,-y,z
loop_
_atom_site_type_symbol
_atom_site_label
_atom_site_fract_x
_atom_site_fract_y
_atom_site_fract_z
Si Si1 0.806720 0.360773 0.807970
Si Si2 0.324132 0.357204 0.500000
Si Si3 0.312459 0.000000 0.587881
Si Si4 0.192350 0.863776 0.912193
Si Si5 0.812600 0.249531 0.350414
O O1 0.755777 0.500000 0.824419
O O2 0.754462 0.253100 0.864427
O O3 0.756498 0.318747 0.724396
O O4 0.000000 0.362401 0.809750
O O5 0.341365 0.500000 0.500000
O O6 0.500000 0.298731 0.500000
O O7 0.232947 0.321049 0.574659
O O8 0.257084 0.882954 0.634027
O O9 0.500000 0.000000 0.583180
O O10 0.251952 0.000000 0.500000
O O11 0.000000 0.863815 0.909095
O O12 0.242603 0.000000 0.885958
O O13 0.236510 0.851713 0.000000
O O14 0.000000 0.238144 0.343823
#
# Coordination Sequence:
#
# PCOD9388441 Si02
#       5
#     8   4   4   8   8
#     4   9  18  30  45  71 106 139 175 221 267 314
#     4  11  23  38  55  74 103 145 185 223 272 325
#     4  11  23  39  57  77 105 136 175 225 276 330
#     4   8  14  25  42  65  98 142 182 213 255 316
#     4  11  22  35  55  79 105 137 179 226 275 324
#
# _framework density 19.387454999999999
#
# number of rings (size 3 to 8) (size 9 to 14) (size 15 to 20)
#    0.000    2.250    1.250    3.000    1.750    3.000 
#    0.000    2.500    0.000    0.000    0.000    0.000 
#    0.000    5.000    0.000   12.250    0.000   13.000 
#
# Total GULP energy -178453.425126 kJ/mol
# GULP energy per Si atom -5576.669535 kJ/mol
# Density = 1.934333 g / cm^3
# Si number density = 19.387455 Si / 1000 Ang^3
#
#
#
# Elastic Constant Matrix: (Units=GPa)
#
#
# Indices 1 2 3 4 5 6 
#
# 1 17.4673 14.7366 4.9840 0.0000 0.0000 0.0000
# 2 14.7366 209.0047 95.2923 0.0000 0.0000 0.0000
# 3 4.9840 95.2923 114.2062 0.0000 0.0000 0.0000
# 4 0.0000 0.0000 0.0000 -19.3573 0.0000 0.0000
# 5 0.0000 0.0000 0.0000 0.0000 12.9876 0.0000
# 6 0.0000 0.0000 0.0000 0.0000 0.0000 12.6148
#
#
#
# Elastic Compliance Matrix: (Units=1/GPa)
#
#
# Indices 1 2 3 4 5 6 
#
# 1 0.061029 -0.004985 0.001496 0.000000 0.000000 0.000000
# 2 -0.004985 0.008130 -0.006566 0.000000 0.000000 0.000000
# 3 0.001496 -0.006566 0.014169 0.000000 0.000000 0.000000
# 4 0.000000 0.000000 0.000000 -0.051660 0.000000 0.000000
# 5 0.000000 0.000000 0.000000 0.000000 0.076997 0.000000
# 6 0.000000 0.000000 0.000000 0.000000 0.000000 0.079272
#
#
# Mechanical properties :
#
#
# Convention : Reuss Voigt Hill
#
# Bulk Modulus (GPa) = 15.81821 63.41157 39.61489
# Shear Modulus (GPa) = 21.82282 16.29338 19.05810
#
# Velocity S-wave (km/s) = 3.35866 2.90212 3.13870
# Velocity P-wave (km/s) = 4.81845 6.63388 5.79766
#
# Compressibility (1/GPa) = 0.06321827
#
# Stress axis : x y z
#
# Youngs Moduli (GPa) = 16.38570 123.00724 70.57605
#
# Poissons Ratio (x) = 0.61323 -0.10561
# Poissons Ratio (y) = 0.08169 0.46338
# Poissons Ratio (z) = -0.02452 0.80763
#
# Static dielectric constant tensor:
#      x y z
#    x 1.662480 0.000000 0.000000 
#    y 0.000000 1.761070 0.000000 
#    z 0.000000 0.000000 1.688880 
# 
# From -- ./inp_files/20410.got.cif
#   From: 2010.05.17/outbox.cif.g08.bks.cpg/sg47_11_cif.got.tgz:20410.got - 2010.06.03 20:15:42.
