data_PCOD9388310
_publ_section_title
;
Structure prediction by ZEFSAII (Michael W. Deem and Ramdas Pophale) SiO2 
 PCOD9388310
Probable space group: P M M M
;
_chemical_formula_sum "Si O2"
_cell_formula_units_Z 56
_cell_length_a 8.407694
_cell_length_b 22.990072
_cell_length_c 14.937469
_cell_angle_alpha 90.000000
_cell_angle_beta 90.000000
_cell_angle_gamma 90.000000
_cell_volume 2887.315521
_symmetry_space_group_name_H-M "P M M M"
_symmetry_group_IT_number 47
_symmetry_cell_setting 'orthorhombic'
loop_
_space_group_symop_operation_xyz
x,y,z
-x,-y,z
x,-y,-z
-x,y,-z
-x,-y,-z
x,y,-z
-x,y,z
x,-y,z
loop_
_atom_site_type_symbol
_atom_site_label
_atom_site_fract_x
_atom_site_fract_y
_atom_site_fract_z
Si Si1 0.808990 0.282830 0.104303
Si Si2 0.808108 0.851296 0.898786
Si Si3 0.190463 0.000000 0.396817
Si Si4 0.688792 0.608629 0.786967
Si Si5 0.690418 0.890635 0.283480
Si Si6 0.693301 0.217388 0.601539
Si Si7 0.305686 0.350973 0.600301
Si Si8 0.810962 0.500000 0.101167
O O1 0.758394 0.215926 0.118803
O O2 0.727952 0.329484 0.167856
O O3 0.000000 0.285905 0.116203
O O4 0.775857 0.296906 0.000000
O O5 0.745476 0.891005 0.819139
O O6 0.000000 0.851982 0.897899
O O7 0.756891 0.866635 0.000000
O O8 0.248464 0.056390 0.343017
O O9 0.248385 0.000000 0.500000
O O10 0.000000 0.000000 0.398450
O O11 0.500000 0.600692 0.785443
O O12 0.747546 0.610942 0.684231
O O13 0.760490 0.557248 0.845390
O O14 0.500000 0.890846 0.286000
O O15 0.750015 0.830356 0.328442
O O16 0.738605 0.200763 0.500000
O O17 0.500000 0.217855 0.604650
O O18 0.744311 0.283858 0.616599
O O19 0.254957 0.367959 0.500000
O O20 0.500000 0.351132 0.600170
O O21 0.000000 0.500000 0.094929
O O22 0.744354 0.500000 0.000000
#
# Coordination Sequence:
#
# PCOD9388310 Si02
#       8
#     8   8   4   8   8   8   8   4
#     4   9  18  33  53  78 111 150 183 212 259 323
#     4   9  19  36  56  79 111 150 187 221 263 323
#     4  11  25  43  60  79 108 147 187 224 266 325
#     4  11  21  33  54  82 107 134 175 227 272 307
#     4  11  21  34  56  84 112 142 181 232 282 321
#     4   8  14  26  47  77 111 142 169 203 255 316
#     4   8  15  29  49  76 110 141 167 201 253 316
#     4  11  25  43  58  71  96 138 179 213 262 331
#
# _framework density 19.395178000000001
#
# number of rings (size 3 to 8) (size 9 to 14) (size 15 to 20)
#    0.000    2.429    0.000    4.714    0.000    5.714 
#    0.000    2.143    0.000    6.000    0.000    8.000 
#    0.000    0.000    0.000    0.000    0.000    0.000 
#
# Total GULP energy -312543.358999 kJ/mol
# GULP energy per Si atom -5581.131411 kJ/mol
# Density = 1.935103 g / cm^3
# Si number density = 19.395178 Si / 1000 Ang^3
#
#
#
# Elastic Constant Matrix: (Units=GPa)
#
#
# Indices 1 2 3 4 5 6 
#
# 1 23.5011 17.3771 29.7820 0.0000 0.0000 0.0000
# 2 17.3771 59.2148 87.2258 0.0000 0.0000 0.0000
# 3 29.7820 87.2258 186.6956 0.0000 0.0000 0.0000
# 4 0.0000 0.0000 0.0000 28.8600 0.0000 0.0000
# 5 0.0000 0.0000 0.0000 0.0000 -2.7133 0.0000
# 6 0.0000 0.0000 0.0000 0.0000 0.0000 73.3352
#
#
#
# Elastic Compliance Matrix: (Units=1/GPa)
#
#
# Indices 1 2 3 4 5 6 
#
# 1 0.055246 -0.010362 -0.003972 0.000000 0.000000 0.000000
# 2 -0.010362 0.056108 -0.024561 0.000000 0.000000 0.000000
# 3 -0.003972 -0.024561 0.017465 0.000000 0.000000 0.000000
# 4 0.000000 0.000000 0.000000 0.034650 0.000000 0.000000
# 5 0.000000 0.000000 0.000000 0.000000 -0.368559 0.000000
# 6 0.000000 0.000000 0.000000 0.000000 0.000000 0.013636
#
#
# Mechanical properties :
#
#
# Convention : Reuss Voigt Hill
#
# Bulk Modulus (GPa) = 19.59642 59.79793 39.69717
# Shear Modulus (GPa) = -51.73114 28.89817 -11.41648
#
# Velocity S-wave (km/s) = -5.17011 3.86420 -2.42879
# Velocity P-wave (km/s) = 5.05118 7.12795 3.55621
#
# Compressibility (1/GPa) = 0.05102974
#
# Stress axis : x y z
#
# Youngs Moduli (GPa) = 18.10078 17.82273 57.25685
#
# Poissons Ratio (x) = 0.18467 0.22742
# Poissons Ratio (y) = 0.18755 1.40630
# Poissons Ratio (z) = 0.07189 0.43775
#
# Static dielectric constant tensor:
#      x y z
#    x 1.667590 0.000000 0.000000 
#    y 0.000000 1.653780 0.000000 
#    z 0.000000 0.000000 1.699840 
# 
# From -- ./inp_files/21686.got.cif
#   From: 2010.05.17/outbox.cif.g08.bks.cpg/sg47_11_cif.got.tgz:21686.got - 2010.06.03 20:15:42.
