data_PCOD9388612
_publ_section_title
;
Structure prediction by ZEFSAII (Michael W. Deem and Ramdas Pophale) SiO2 
 PCOD9388612
Probable space group: P M M M
;
_chemical_formula_sum "Si O2"
_cell_formula_units_Z 44
_cell_length_a 29.027486
_cell_length_b 10.103277
_cell_length_c 7.788850
_cell_angle_alpha 90.000000
_cell_angle_beta 90.000000
_cell_angle_gamma 90.000000
_cell_volume 2284.257316
_symmetry_space_group_name_H-M "P M M M"
_symmetry_group_IT_number 47
_symmetry_cell_setting 'orthorhombic'
loop_
_space_group_symop_operation_xyz
x,y,z
-x,-y,z
x,-y,-z
-x,y,-z
-x,-y,-z
x,y,-z
-x,y,z
x,-y,z
loop_
_atom_site_type_symbol
_atom_site_label
_atom_site_fract_x
_atom_site_fract_y
_atom_site_fract_z
Si Si1 0.948551 0.650110 0.706386
Si Si2 0.500000 0.850016 0.296701
Si Si3 0.235267 0.847166 0.209670
Si Si4 0.685322 0.651308 0.209645
Si Si5 0.132267 0.850244 0.206065
Si Si6 0.580877 0.649702 0.793505
O O1 0.950345 0.645170 0.500000
O O2 0.939447 0.500000 0.767975
O O3 0.908361 0.750489 0.751761
O O4 0.000000 0.689368 0.766940
O O5 0.500000 0.862490 0.500000
O O6 0.455622 0.761976 0.250214
O O7 0.500000 0.000000 0.223226
O O8 0.275772 0.751883 0.270943
O O9 0.183507 0.808783 0.265634
O O10 0.242816 0.000000 0.258654
O O11 0.235813 0.842999 0.000000
O O12 0.695783 0.500000 0.258360
O O13 0.632955 0.680933 0.265546
O O14 0.685241 0.655900 0.000000
O O15 0.123307 0.000000 0.269536
O O16 0.134841 0.857121 0.000000
O O17 0.568524 0.500000 0.732718
O O18 0.582196 0.642573 0.000000
#
# Coordination Sequence:
#
# PCOD9388612 Si02
#       6
#     8   4   8   8   8   8
#     4   9  19  35  51  67  90 121 158 200 243 285
#     4  11  24  37  48  68  98 129 162 199 238 282
#     4   8  14  25  41  64  96 128 153 181 223 274
#     4   8  14  25  43  69  97 121 149 188 230 272
#     4   9  18  31  47  71 101 128 156 192 232 277
#     4   9  18  33  53  76  99 123 156 198 239 280
#
# _framework density 19.262278999999999
#
# number of rings (size 3 to 8) (size 9 to 14) (size 15 to 20)
#    0.000    3.182    0.000    3.273    0.000    5.091 
#    0.000    6.364    0.000    1.091    0.000    0.000 
#    0.000    0.000    0.000    0.000    0.000    0.000 
#
# Total GULP energy -245230.343037 kJ/mol
# GULP energy per Si atom -5573.416887 kJ/mol
# Density = 1.921844 g / cm^3
# Si number density = 19.262279 Si / 1000 Ang^3
#
#
#
# Elastic Constant Matrix: (Units=GPa)
#
#
# Indices 1 2 3 4 5 6 
#
# 1 206.0422 155.5166 10.5941 0.0000 0.0000 0.0000
# 2 155.5166 156.2020 8.8796 0.0000 0.0000 0.0000
# 3 10.5941 8.8796 23.0926 0.0000 0.0000 0.0000
# 4 0.0000 0.0000 0.0000 28.7610 0.0000 0.0000
# 5 0.0000 0.0000 0.0000 0.0000 129.2169 0.0000
# 6 0.0000 0.0000 0.0000 0.0000 0.0000 57.8901
#
#
#
# Elastic Compliance Matrix: (Units=1/GPa)
#
#
# Indices 1 2 3 4 5 6 
#
# 1 0.019580 -0.019408 -0.001520 0.000000 0.000000 0.000000
# 2 -0.019408 0.025782 -0.001010 0.000000 0.000000 0.000000
# 3 -0.001520 -0.001010 0.044390 0.000000 0.000000 0.000000
# 4 0.000000 0.000000 0.000000 0.034769 0.000000 0.000000
# 5 0.000000 0.000000 0.000000 0.000000 0.007739 0.000000
# 6 0.000000 0.000000 0.000000 0.000000 0.000000 0.017274
#
#
# Mechanical properties :
#
#
# Convention : Reuss Voigt Hill
#
# Bulk Modulus (GPa) = 21.79786 81.70191 51.74989
# Shear Modulus (GPa) = 23.95755 57.19671 40.57713
#
# Velocity S-wave (km/s) = 3.53052 5.45510 4.59471
# Velocity P-wave (km/s) = 5.28775 9.06560 7.42110
#
# Compressibility (1/GPa) = 0.04587606
#
# Stress axis : x y z
#
# Youngs Moduli (GPa) = 51.07186 38.78651 22.52776
#
# Poissons Ratio (x) = 0.75277 0.03424
# Poissons Ratio (y) = 0.99120 0.02276
# Poissons Ratio (z) = 0.07763 0.03918
#
# Static dielectric constant tensor:
#      x y z
#    x 1.670910 0.000000 0.000000 
#    y 0.000000 1.663180 0.000000 
#    z 0.000000 0.000000 1.712910 
# 
# From -- ./inp_files/13570.got.cif
#   From: 2010.05.17/outbox.cif.g08.bks.cpg/sg47_7_cif.got.tgz:13570.got - 2010.06.03 20:15:42.
