data_PCOD9388090
_publ_section_title
;
Structure prediction by ZEFSAII (Michael W. Deem and Ramdas Pophale) SiO2 
 PCOD9388090
Probable space group: P M M M
;
_chemical_formula_sum "Si O2"
_cell_formula_units_Z 48
_cell_length_a 21.078559
_cell_length_b 8.076640
_cell_length_c 14.749684
_cell_angle_alpha 90.000000
_cell_angle_beta 90.000000
_cell_angle_gamma 90.000000
_cell_volume 2511.044211
_symmetry_space_group_name_H-M "P M M M"
_symmetry_group_IT_number 47
_symmetry_cell_setting 'orthorhombic'
loop_
_space_group_symop_operation_xyz
x,y,z
-x,-y,z
x,-y,-z
-x,y,-z
-x,-y,-z
x,y,-z
-x,y,z
x,-y,z
loop_
_atom_site_type_symbol
_atom_site_label
_atom_site_fract_x
_atom_site_fract_y
_atom_site_fract_z
Si Si1 0.311776 0.695336 0.684386
Si Si2 0.226538 0.699169 0.000000
Si Si3 0.887620 0.690627 0.500000
Si Si4 0.192972 0.197552 0.802347
Si Si5 0.930019 0.197300 0.304019
Si Si6 0.374251 0.701739 0.000000
Si Si7 0.252661 0.811666 0.500000
Si Si8 0.571807 0.297425 0.806015
O O1 0.318707 0.500000 0.667021
O O2 0.253731 0.721986 0.753931
O O3 0.292958 0.779408 0.590198
O O4 0.375600 0.757039 0.733482
O O5 0.195126 0.764482 0.091543
O O6 0.224995 0.500000 0.000000
O O7 0.300620 0.751342 0.000000
O O8 0.906881 0.500000 0.500000
O O9 0.913689 0.772397 0.591088
O O10 0.811116 0.703265 0.500000
O O11 0.128566 0.261350 0.755578
O O12 0.197569 0.000000 0.787465
O O13 0.000000 0.265614 0.283199
O O14 0.932144 0.000000 0.288993
O O15 0.407713 0.755915 0.907183
O O16 0.375806 0.500000 0.000000
O O17 0.229498 0.000000 0.500000
O O18 0.500000 0.245822 0.786005
O O19 0.573244 0.500000 0.806313
#
# Coordination Sequence:
#
# PCOD9388090 Si02
#       8
#     8   4   4   8   8   4   4   8
#     4  11  21  36  59  87 116 148 191 241 287 335
#     4  11  21  36  58  86 116 150 193 245 289 332
#     4  12  23  35  58  90 121 149 184 238 295 344
#     4  11  22  37  59  85 115 153 193 235 285 345
#     4  10  22  40  60  83 116 157 195 233 284 347
#     4   9  15  27  50  83 115 145 181 230 285 335
#     4  12  24  39  58  83 114 153 196 237 286 344
#     4   9  17  30  52  84 119 151 186 232 285 340
#
# _framework density 19.115552999999998
#
# number of rings (size 3 to 8) (size 9 to 14) (size 15 to 20)
#    0.000    1.500    3.333    3.250    0.000    3.000 
#    0.000    0.833    0.000    7.000    0.000    1.167 
#    0.000    0.000    0.000    0.000    0.000    0.000 
#
# Total GULP energy -268196.565820 kJ/mol
# GULP energy per Si atom -5587.428455 kJ/mol
# Density = 1.907205 g / cm^3
# Si number density = 19.115553 Si / 1000 Ang^3
#
#
#
# Elastic Constant Matrix: (Units=GPa)
#
#
# Indices 1 2 3 4 5 6 
#
# 1 152.5047 -8.6186 49.0348 0.0000 0.0000 0.0000
# 2 -8.6186 18.5405 -16.2794 0.0000 0.0000 0.0000
# 3 49.0348 -16.2794 101.9525 0.0000 0.0000 0.0000
# 4 0.0000 0.0000 0.0000 20.0351 0.0000 0.0000
# 5 0.0000 0.0000 0.0000 0.0000 107.6474 0.0000
# 6 0.0000 0.0000 0.0000 0.0000 0.0000 19.2178
#
#
#
# Elastic Compliance Matrix: (Units=1/GPa)
#
#
# Indices 1 2 3 4 5 6 
#
# 1 0.007759 0.000384 -0.003670 0.000000 0.000000 0.000000
# 2 0.000384 0.062750 0.009835 0.000000 0.000000 0.000000
# 3 -0.003670 0.009835 0.013144 0.000000 0.000000 0.000000
# 4 0.000000 0.000000 0.000000 0.049912 0.000000 0.000000
# 5 0.000000 0.000000 0.000000 0.000000 0.009290 0.000000
# 6 0.000000 0.000000 0.000000 0.000000 0.000000 0.052035
#
#
# Mechanical properties :
#
#
# Convention : Reuss Voigt Hill
#
# Bulk Modulus (GPa) = 10.33586 35.69679 23.01633
# Shear Modulus (GPa) = 23.35975 45.97079 34.66527
#
# Velocity S-wave (km/s) = 3.49954 4.90929 4.26309
# Velocity P-wave (km/s) = 4.66346 7.13089 6.02484
#
# Compressibility (1/GPa) = 0.09675051
#
# Stress axis : x y z
#
# Youngs Moduli (GPa) = 128.88201 15.93623 76.07894
#
# Poissons Ratio (x) = -0.00612 0.27924
# Poissons Ratio (y) = -0.04949 -0.74824
# Poissons Ratio (z) = 0.47305 -0.15673
#
# Static dielectric constant tensor:
#      x y z
#    x 1.666960 0.000000 0.000000 
#    y 0.000000 1.685160 0.000000 
#    z 0.000000 0.000000 1.630000 
# 
# From -- ./inp_files/24549.got.cif
#   From: 2010.05.17/outbox.cif.g08.bks.cpg/sg47_13_cif.got.tgz:24549.got - 2010.06.03 20:15:42.
