data_PCOD9388425
_publ_section_title
;
Structure prediction by ZEFSAII (Michael W. Deem and Ramdas Pophale) SiO2 
 PCOD9388425
Probable space group: P M M M
;
_chemical_formula_sum "Si O2"
_cell_formula_units_Z 41
_cell_length_a 9.186173
_cell_length_b 16.902150
_cell_length_c 14.653985
_cell_angle_alpha 90.000000
_cell_angle_beta 90.000000
_cell_angle_gamma 90.000000
_cell_volume 2275.266719
_symmetry_space_group_name_H-M "P M M M"
_symmetry_group_IT_number 47
_symmetry_cell_setting 'orthorhombic'
loop_
_space_group_symop_operation_xyz
x,y,z
-x,-y,z
x,-y,-z
-x,y,-z
-x,-y,-z
x,y,-z
-x,y,z
x,-y,z
loop_
_atom_site_type_symbol
_atom_site_label
_atom_site_fract_x
_atom_site_fract_y
_atom_site_fract_z
Si Si1 0.823155 0.408189 0.396420
Si Si2 0.000000 0.000000 0.000000
Si Si3 0.668915 0.175318 0.894140
Si Si4 0.174097 0.273316 0.259123
Si Si5 0.831073 0.000000 0.632783
Si Si6 0.331938 0.839420 0.602548
Si Si7 0.242271 0.000000 0.157544
O O1 0.776632 0.383230 0.500000
O O2 0.781176 0.500000 0.385196
O O3 0.777652 0.354874 0.309716
O O4 0.000000 0.404689 0.397561
O O5 0.875895 0.000000 0.079128
O O6 0.500000 0.197991 0.892158
O O7 0.757049 0.239079 0.834044
O O8 0.678957 0.085194 0.855247
O O9 0.718920 0.173520 0.000000
O O10 0.228324 0.210282 0.333053
O O11 0.000000 0.274431 0.249520
O O12 0.739816 0.925037 0.600942
O O13 0.825370 0.000000 0.742380
O O14 0.000000 0.000000 0.604293
O O15 0.332634 0.807123 0.500000
O O16 0.500000 0.841589 0.635254
#
# Coordination Sequence:
#
# PCOD9388425 Si02
#       7
#     8   1   8   8   4   8   4
#     4   8  15  31  56  86 118 148 179 220 274 334
#     4  12  24  36  58  88 114 132 184 260 304 332
#     4  11  24  40  58  79 108 148 193 235 282 338
#     4  11  22  34  57  87 114 142 182 233 284 332
#     4  12  24  36  54  79 105 140 187 234 285 324
#     4  11  24  39  54  74 108 152 189 224 273 332
#     4  12  23  36  58  79 107 144 184 238 290 332
#
# _framework density 18.019863999999998
#
# number of rings (size 3 to 8) (size 9 to 14) (size 15 to 20)
#    0.000    1.366    3.415    3.220    1.366    5.463 
#    0.000    0.000    0.000    2.927    0.000   10.927 
#    0.000    0.000    0.000    0.000    0.000    0.000 
#
# Total GULP energy -228265.565178 kJ/mol
# GULP energy per Si atom -5567.452809 kJ/mol
# Density = 1.797885 g / cm^3
# Si number density = 18.019864 Si / 1000 Ang^3
#
#
#
# Elastic Constant Matrix: (Units=GPa)
#
#
# Indices 1 2 3 4 5 6 
#
# 1 46.6303 18.7551 26.4400 0.0000 0.0000 0.0000
# 2 18.7551 105.7782 44.7163 0.0000 0.0000 0.0000
# 3 26.4400 44.7163 133.3416 0.0000 0.0000 0.0000
# 4 0.0000 0.0000 0.0000 23.0853 0.0000 0.0000
# 5 0.0000 0.0000 0.0000 0.0000 32.0297 0.0000
# 6 0.0000 0.0000 0.0000 0.0000 0.0000 -8.8061
#
#
#
# Elastic Compliance Matrix: (Units=1/GPa)
#
#
# Indices 1 2 3 4 5 6 
#
# 1 0.024807 -0.002702 -0.004013 0.000000 0.000000 0.000000
# 2 -0.002702 0.011310 -0.003257 0.000000 0.000000 0.000000
# 3 -0.004013 -0.003257 0.009387 0.000000 0.000000 0.000000
# 4 0.000000 0.000000 0.000000 0.043318 0.000000 0.000000
# 5 0.000000 0.000000 0.000000 0.000000 0.031221 0.000000
# 6 0.000000 0.000000 0.000000 0.000000 0.000000 -0.113558
#
#
# Mechanical properties :
#
#
# Convention : Reuss Voigt Hill
#
# Bulk Modulus (GPa) = 39.12244 51.73033 45.42638
# Shear Modulus (GPa) = 143.06495 22.31769 82.69132
#
# Velocity S-wave (km/s) = 8.91994 3.52306 6.78149
# Velocity P-wave (km/s) = 11.30685 6.73194 9.30494
#
# Compressibility (1/GPa) = 0.02556078
#
# Stress axis : x y z
#
# Youngs Moduli (GPa) = 40.31044 88.41995 106.52526
#
# Poissons Ratio (x) = 0.23892 0.42747
# Poissons Ratio (y) = 0.10892 0.34694
# Poissons Ratio (z) = 0.16176 0.28798
#
# Static dielectric constant tensor:
#      x y z
#    x 1.605220 0.000000 0.000000 
#    y 0.000000 0.972760 0.000000 
#    z 0.000000 0.000000 1.643190 
# 
# From -- ./inp_files/20751.got.cif
#   From: 2010.05.17/outbox.cif.g08.bks.cpg/sg47_11_cif.got.tgz:20751.got - 2010.06.03 20:15:42.
