data_PCOD9388104
_publ_section_title
;
Structure prediction by ZEFSAII (Michael W. Deem and Ramdas Pophale) SiO2 
 PCOD9388104
Probable space group: P M M M
;
_chemical_formula_sum "Si O2"
_cell_formula_units_Z 36
_cell_length_a 26.547338
_cell_length_b 8.281551
_cell_length_c 8.046976
_cell_angle_alpha 90.000000
_cell_angle_beta 90.000000
_cell_angle_gamma 90.000000
_cell_volume 1769.152889
_symmetry_space_group_name_H-M "P M M M"
_symmetry_group_IT_number 47
_symmetry_cell_setting 'orthorhombic'
loop_
_space_group_symop_operation_xyz
x,y,z
-x,-y,z
x,-y,-z
-x,y,-z
-x,-y,-z
x,y,-z
-x,y,z
x,-y,z
loop_
_atom_site_type_symbol
_atom_site_label
_atom_site_fract_x
_atom_site_fract_y
_atom_site_fract_z
Si Si1 0.123058 0.691323 0.191057
Si Si2 0.767431 0.184536 0.800964
Si Si3 0.445758 0.810668 0.800386
Si Si4 0.942861 0.807500 0.500000
Si Si5 0.339207 0.185210 0.303191
O O1 0.116884 0.500000 0.183971
O O2 0.180572 0.730030 0.243776
O O3 0.086211 0.756635 0.332502
O O4 0.115538 0.754444 0.000000
O O5 0.714156 0.259930 0.747835
O O6 0.769398 0.000000 0.735246
O O7 0.766446 0.178508 0.000000
O O8 0.500000 0.742531 0.743329
O O9 0.392364 0.737654 0.747900
O O10 0.445021 0.000000 0.745877
O O11 0.446334 0.809887 0.000000
O O12 0.000000 0.742698 0.500000
O O13 0.944811 0.000000 0.500000
O O14 0.339548 0.174198 0.500000
O O15 0.338778 0.000000 0.231819
#
# Coordination Sequence:
#
# PCOD9388104 Si02
#       5
#     8   8   8   4   8
#     4  10  22  40  62  89 121 157 196 239 288 340
#     4   9  17  30  49  72 100 137 179 224 275 330
#     4   8  13  21  32  46  71 113 161 207 260 323
#     4  11  25  43  65  93 123 157 196 237 280 331
#     4   9  16  23  34  57  87 120 162 214 269 324
#
# _framework density 20.348721999999999
#
# number of rings (size 3 to 8) (size 9 to 14) (size 15 to 20)
#    0.000    2.778    0.000    2.333    1.556    5.778 
#    0.000    4.444    0.000    0.000    0.000    0.000 
#    0.000    0.889    0.000   10.222    0.000   13.111 
#
# Total GULP energy -200536.931036 kJ/mol
# GULP energy per Si atom -5570.470307 kJ/mol
# Density = 2.030241 g / cm^3
# Si number density = 20.348722 Si / 1000 Ang^3
#
#
#
# Elastic Constant Matrix: (Units=GPa)
#
#
# Indices 1 2 3 4 5 6 
#
# 1 230.3326 23.2041 84.9384 0.0000 0.0000 0.0000
# 2 23.2041 20.5956 15.8348 0.0000 0.0000 0.0000
# 3 84.9384 15.8348 70.3913 0.0000 0.0000 0.0000
# 4 0.0000 0.0000 0.0000 12.0656 0.0000 0.0000
# 5 0.0000 0.0000 0.0000 0.0000 38.8034 0.0000
# 6 0.0000 0.0000 0.0000 0.0000 0.0000 -47.2611
#
#
#
# Elastic Compliance Matrix: (Units=1/GPa)
#
#
# Indices 1 2 3 4 5 6 
#
# 1 0.007883 -0.001896 -0.009086 0.000000 0.000000 0.000000
# 2 -0.001896 0.059164 -0.011021 0.000000 0.000000 0.000000
# 3 -0.009086 -0.011021 0.027649 0.000000 0.000000 0.000000
# 4 0.000000 0.000000 0.000000 0.082880 0.000000 0.000000
# 5 0.000000 0.000000 0.000000 0.000000 0.025771 0.000000
# 6 0.000000 0.000000 0.000000 0.000000 0.000000 -0.021159
#
#
# Mechanical properties :
#
#
# Convention : Reuss Voigt Hill
#
# Bulk Modulus (GPa) = 19.72785 63.25269 41.49027
# Shear Modulus (GPa) = 20.56849 13.87772 17.22311
#
# Velocity S-wave (km/s) = 3.18276 2.61434 2.91245
# Velocity P-wave (km/s) = 4.81898 6.34546 5.63415
#
# Compressibility (1/GPa) = 0.05068977
#
# Stress axis : x y z
#
# Youngs Moduli (GPa) = 126.85531 16.90223 36.16783
#
# Poissons Ratio (x) = 0.03205 0.32861
# Poissons Ratio (y) = 0.24051 0.39862
# Poissons Ratio (z) = 1.15256 0.18629
#
# Static dielectric constant tensor:
#      x y z
#    x 1.778240 0.000000 0.000000 
#    y 0.000000 1.727720 0.000000 
#    z 0.000000 0.000000 1.707890 
# 
# From -- ./inp_files/12079.got.cif
#   From: 2010.05.17/outbox.cif.g08.bks.cpg/sg47_7_cif.got.tgz:12079.got - 2010.06.03 20:15:42.
