data_PCOD9388554
_publ_section_title
;
Structure prediction by ZEFSAII (Michael W. Deem and Ramdas Pophale) SiO2 
 PCOD9388554
Probable space group: P M M M
;
_chemical_formula_sum "Si O2"
_cell_formula_units_Z 56
_cell_length_a 15.382788
_cell_length_b 8.021323
_cell_length_c 20.471531
_cell_angle_alpha 90.000000
_cell_angle_beta 90.000000
_cell_angle_gamma 90.000000
_cell_volume 2525.988581
_symmetry_space_group_name_H-M "P M M M"
_symmetry_group_IT_number 47
_symmetry_cell_setting 'orthorhombic'
loop_
_space_group_symop_operation_xyz
x,y,z
-x,-y,z
x,-y,-z
-x,y,-z
-x,-y,-z
x,y,-z
-x,y,z
x,-y,z
loop_
_atom_site_type_symbol
_atom_site_label
_atom_site_fract_x
_atom_site_fract_y
_atom_site_fract_z
Si Si1 0.279642 0.702416 0.575882
Si Si2 0.281994 0.694816 0.804160
Si Si3 0.402332 0.803153 0.310715
Si Si4 0.896058 0.188945 0.070453
Si Si5 0.098105 0.689543 0.210354
Si Si6 0.908258 0.698521 0.579085
Si Si7 0.399972 0.200581 0.074989
O O1 0.289953 0.749469 0.500000
O O2 0.278959 0.500000 0.578394
O O3 0.353327 0.769669 0.622042
O O4 0.184812 0.763188 0.600741
O O5 0.264038 0.500000 0.812121
O O6 0.352850 0.718721 0.748510
O O7 0.191529 0.770787 0.773901
O O8 0.326108 0.753895 0.872021
O O9 0.500000 0.740855 0.315123
O O10 0.403040 0.000000 0.297441
O O11 0.887399 0.307299 0.131765
O O12 0.000000 0.174354 0.064275
O O13 0.863267 0.000000 0.083983
O O14 0.861199 0.243794 0.000000
O O15 0.094527 0.500000 0.236000
O O16 0.000000 0.761275 0.222041
O O17 0.908063 0.714299 0.500000
O O18 0.909394 0.500000 0.592428
O O19 0.000000 0.769314 0.603809
O O20 0.500000 0.255678 0.092267
O O21 0.402316 0.000000 0.073836
O O22 0.382304 0.256867 0.000000
#
# Coordination Sequence:
#
# PCOD9388554 Si02
#       7
#     8   8   8   8   8   8   8
#     4   9  18  34  59  91 122 151 187 231 275 319
#     4  11  23  38  59  85 111 143 186 235 283 330
#     4  11  25  43  61  81 109 148 189 228 279 344
#     4   8  14  25  42  66  96 131 173 217 258 304
#     4   9  19  35  52  72 102 139 177 219 269 325
#     4   7  10  20  43  77 115 151 185 221 262 311
#     4   9  19  37  60  85 114 148 184 225 280 344
#
# _framework density 22.169536999999998
#
# number of rings (size 3 to 8) (size 9 to 14) (size 15 to 20)
#    0.000    2.857    0.000    3.429    0.000    6.000 
#    0.000    7.143    0.000    4.714    0.000    2.000 
#    0.000    0.000    0.000    0.000    0.000    0.000 
#
# Total GULP energy -311899.097798 kJ/mol
# GULP energy per Si atom -5569.626746 kJ/mol
# Density = 2.211908 g / cm^3
# Si number density = 22.169537 Si / 1000 Ang^3
#
#
#
# Elastic Constant Matrix: (Units=GPa)
#
#
# Indices 1 2 3 4 5 6 
#
# 1 205.4480 12.5555 50.5224 0.0000 0.0000 0.0000
# 2 12.5555 22.6038 7.0880 0.0000 0.0000 0.0000
# 3 50.5224 7.0880 59.1498 0.0000 0.0000 0.0000
# 4 0.0000 0.0000 0.0000 17.7729 0.0000 0.0000
# 5 0.0000 0.0000 0.0000 0.0000 87.4637 0.0000
# 6 0.0000 0.0000 0.0000 0.0000 0.0000 35.8005
#
#
#
# Elastic Compliance Matrix: (Units=1/GPa)
#
#
# Indices 1 2 3 4 5 6 
#
# 1 0.006236 -0.001864 -0.005103 0.000000 0.000000 0.000000
# 2 -0.001864 0.046525 -0.003983 0.000000 0.000000 0.000000
# 3 -0.005103 -0.003983 0.021743 0.000000 0.000000 0.000000
# 4 0.000000 0.000000 0.000000 0.056265 0.000000 0.000000
# 5 0.000000 0.000000 0.000000 0.000000 0.011433 0.000000
# 6 0.000000 0.000000 0.000000 0.000000 0.000000 0.027933
#
#
# Mechanical properties :
#
#
# Convention : Reuss Voigt Hill
#
# Bulk Modulus (GPa) = 19.01036 47.50370 33.25703
# Shear Modulus (GPa) = 23.85842 42.67647 33.26745
#
# Velocity S-wave (km/s) = 3.28408 4.39225 3.87795
# Velocity P-wave (km/s) = 4.79310 6.86997 5.92327
#
# Compressibility (1/GPa) = 0.05260289
#
# Stress axis : x y z
#
# Youngs Moduli (GPa) = 160.35161 21.49400 45.99279
#
# Poissons Ratio (x) = 0.04006 0.23472
# Poissons Ratio (y) = 0.29885 0.18320
# Poissons Ratio (z) = 0.81833 0.08561
#
# Static dielectric constant tensor:
#      x y z
#    x 1.914380 0.000000 0.000000 
#    y 0.000000 1.817180 0.000000 
#    z 0.000000 0.000000 1.834700 
# 
# From -- ./inp_files/7305.got.cif
#   From: 2010.05.17/outbox.cif.g08.bks.cpg/sg47_4_cif.got.tgz:7305.got - 2010.06.03 20:15:42.
