data_PCOD9388120
_publ_section_title
;
Structure prediction by ZEFSAII (Michael W. Deem and Ramdas Pophale) SiO2 
 PCOD9388120
Probable space group: P M M M
;
_chemical_formula_sum "Si O2"
_cell_formula_units_Z 56
_cell_length_a 13.997479
_cell_length_b 9.160429
_cell_length_c 21.843459
_cell_angle_alpha 90.000000
_cell_angle_beta 90.000000
_cell_angle_gamma 90.000000
_cell_volume 2800.831933
_symmetry_space_group_name_H-M "P M M M"
_symmetry_group_IT_number 47
_symmetry_cell_setting 'orthorhombic'
loop_
_space_group_symop_operation_xyz
x,y,z
-x,-y,z
x,-y,-z
-x,y,-z
-x,-y,-z
x,y,-z
-x,y,z
x,-y,z
loop_
_atom_site_type_symbol
_atom_site_label
_atom_site_fract_x
_atom_site_fract_y
_atom_site_fract_z
Si Si1 0.611571 0.324530 0.885111
Si Si2 0.884619 0.667437 0.817692
Si Si3 0.791381 0.825962 0.067804
Si Si4 0.198910 0.822332 0.566344
Si Si5 0.608042 0.824975 0.377224
Si Si6 0.616052 0.665352 0.745830
Si Si7 0.115107 0.168977 0.695075
O O1 0.500000 0.287479 0.894099
O O2 0.620006 0.500000 0.892458
O O3 0.684763 0.239047 0.927102
O O4 0.640960 0.289567 0.814732
O O5 0.852140 0.500000 0.821695
O O6 0.849545 0.754459 0.876857
O O7 0.851813 0.738970 0.753663
O O8 0.000000 0.669168 0.816994
O O9 0.789604 0.000000 0.074866
O O10 0.830353 0.791338 0.000000
O O11 0.163194 0.771263 0.500000
O O12 0.310395 0.783400 0.574951
O O13 0.147278 0.774232 0.628552
O O14 0.191448 0.000000 0.566188
O O15 0.500000 0.772022 0.389836
O O16 0.640424 0.768396 0.310582
O O17 0.604907 0.000000 0.375611
O O18 0.500000 0.660690 0.746913
O O19 0.649611 0.500000 0.734510
O O20 0.000000 0.168698 0.695771
O O21 0.147153 0.000000 0.701533
#
# Coordination Sequence:
#
# PCOD9388120 Si02
#       7
#     8   8   8   8   8   8   8
#     4   9  19  36  57  82 114 154 198 240 283 333
#     4  10  22  41  65  90 114 144 185 234 289 349
#     4  11  25  41  58  85 120 156 192 233 284 340
#     4   9  18  31  48  75 109 143 182 227 274 327
#     4   9  17  28  44  69 101 138 180 224 270 320
#     4   8  15  29  48  71  99 132 174 225 276 319
#     4   9  18  34  57  83 109 139 178 226 280 335
#
# _framework density 19.994060000000001
#
# number of rings (size 3 to 8) (size 9 to 14) (size 15 to 20)
#    0.000    2.714    0.000    1.714    2.000    4.000 
#    0.000    7.143    0.000    1.714    0.000    4.000 
#    0.000    0.000    0.000    0.000    0.000    0.000 
#
# Total GULP energy -312443.323973 kJ/mol
# GULP energy per Si atom -5579.345071 kJ/mol
# Density = 1.994855 g / cm^3
# Si number density = 19.994060 Si / 1000 Ang^3
#
#
#
# Elastic Constant Matrix: (Units=GPa)
#
#
# Indices 1 2 3 4 5 6 
#
# 1 41.1237 18.2101 31.4794 0.0000 0.0000 0.0000
# 2 18.2101 41.3260 55.5290 0.0000 0.0000 0.0000
# 3 31.4794 55.5290 167.6404 0.0000 0.0000 0.0000
# 4 0.0000 0.0000 0.0000 -9.8805 0.0000 0.0000
# 5 0.0000 0.0000 0.0000 0.0000 20.1736 0.0000
# 6 0.0000 0.0000 0.0000 0.0000 0.0000 20.5235
#
#
#
# Elastic Compliance Matrix: (Units=1/GPa)
#
#
# Indices 1 2 3 4 5 6 
#
# 1 0.030702 -0.010420 -0.002314 0.000000 0.000000 0.000000
# 2 -0.010420 0.047142 -0.013659 0.000000 0.000000 0.000000
# 3 -0.002314 -0.013659 0.010924 0.000000 0.000000 0.000000
# 4 0.000000 0.000000 0.000000 -0.101210 0.000000 0.000000
# 5 0.000000 0.000000 0.000000 0.000000 0.049570 0.000000
# 6 0.000000 0.000000 0.000000 0.000000 0.000000 0.048725
#
#
# Mechanical properties :
#
#
# Convention : Reuss Voigt Hill
#
# Bulk Modulus (GPa) = 27.79034 51.16969 39.48002
# Shear Modulus (GPa) = 33.19355 15.82144 24.50749
#
# Velocity S-wave (km/s) = 4.07894 2.81607 3.50485
# Velocity P-wave (km/s) = 6.00942 6.01844 6.01393
#
# Compressibility (1/GPa) = 0.03598372
#
# Stress axis : x y z
#
# Youngs Moduli (GPa) = 32.57114 21.21242 91.54218
#
# Poissons Ratio (x) = 0.22103 0.21181
# Poissons Ratio (y) = 0.33938 1.25035
# Poissons Ratio (z) = 0.07536 0.28973
#
# Static dielectric constant tensor:
#      x y z
#    x 1.755990 0.000000 0.000000 
#    y 0.000000 1.673520 0.000000 
#    z 0.000000 0.000000 1.708640 
# 
# From -- ./inp_files/30977.got.cif
#   From: 2010.05.17/outbox.cif.g08.bks.cpg/sg47_16_cif.got.tgz:30977.got - 2010.06.03 20:15:42.
