data_PCOD9388493
_publ_section_title
;
Structure prediction by ZEFSAII (Michael W. Deem and Ramdas Pophale) SiO2 
 PCOD9388493
Probable space group: P M M M
;
_chemical_formula_sum "Si O2"
_cell_formula_units_Z 29
_cell_length_a 16.396996
_cell_length_b 11.893781
_cell_length_c 7.968857
_cell_angle_alpha 90.000000
_cell_angle_beta 90.000000
_cell_angle_gamma 90.000000
_cell_volume 1554.104657
_symmetry_space_group_name_H-M "P M M M"
_symmetry_group_IT_number 47
_symmetry_cell_setting 'orthorhombic'
loop_
_space_group_symop_operation_xyz
x,y,z
-x,-y,z
x,-y,-z
-x,y,-z
-x,-y,-z
x,y,-z
-x,y,z
x,-y,z
loop_
_atom_site_type_symbol
_atom_site_label
_atom_site_fract_x
_atom_site_fract_y
_atom_site_fract_z
Si Si1 0.873818 0.000000 0.188248
Si Si2 0.833132 0.238630 0.298359
Si Si3 0.500000 0.371090 0.199525
Si Si4 0.000000 0.000000 0.500000
Si Si5 0.000000 0.368285 0.201621
Si Si6 0.326040 0.627465 0.298549
O O1 0.828500 0.118193 0.209908
O O2 0.931829 0.000000 0.350010
O O3 0.909801 0.000000 0.000000
O O4 0.829683 0.224335 0.500000
O O5 0.918810 0.302028 0.260464
O O6 0.755374 0.310594 0.241581
O O7 0.500000 0.500000 0.269680
O O8 0.586259 0.319913 0.254362
O O9 0.500000 0.376512 0.000000
O O10 0.000000 0.500000 0.257779
O O11 0.000000 0.367887 0.000000
O O12 0.321681 0.622252 0.500000
O O13 0.325474 0.500000 0.230819
#
# Coordination Sequence:
#
# PCOD9388493 Si02
#       6
#     4   8   4   1   4   8
#     4  12  25  41  63  87 114 152 198 250 300 343
#     4  11  22  39  59  83 115 151 197 244 289 347
#     4   9  17  29  49  80 115 148 187 237 287 342
#     4  12  22  44  60  82 110 142 194 248 284 344
#     4  11  24  38  53  80 116 151 189 232 284 349
#     4   9  18  33  56  83 114 153 192 234 289 349
#
# _framework density 18.660260999999998
#
# number of rings (size 3 to 8) (size 9 to 14) (size 15 to 20)
#    0.000    1.655    1.379    3.517    0.000    6.069 
#    0.000    2.759    0.000    0.828    0.000    5.793 
#    0.000    0.000    0.000    0.000    0.000    0.000 
#
# Total GULP energy -161440.991608 kJ/mol
# GULP energy per Si atom -5566.930745 kJ/mol
# Density = 1.861779 g / cm^3
# Si number density = 18.660261 Si / 1000 Ang^3
#
#
#
# Elastic Constant Matrix: (Units=GPa)
#
#
# Indices 1 2 3 4 5 6 
#
# 1 186.4273 70.8932 19.8182 0.0000 0.0000 0.0000
# 2 70.8932 107.6421 15.5881 0.0000 0.0000 0.0000
# 3 19.8182 15.5881 83.1731 0.0000 0.0000 0.0000
# 4 0.0000 0.0000 0.0000 14.4284 0.0000 0.0000
# 5 0.0000 0.0000 0.0000 0.0000 25.3949 0.0000
# 6 0.0000 0.0000 0.0000 0.0000 0.0000 7.6853
#
#
#
# Elastic Compliance Matrix: (Units=1/GPa)
#
#
# Indices 1 2 3 4 5 6 
#
# 1 0.007215 -0.004628 -0.000852 0.000000 0.000000 0.000000
# 2 -0.004628 0.012518 -0.001243 0.000000 0.000000 0.000000
# 3 -0.000852 -0.001243 0.012459 0.000000 0.000000 0.000000
# 4 0.000000 0.000000 0.000000 0.069308 0.000000 0.000000
# 5 0.000000 0.000000 0.000000 0.000000 0.039378 0.000000
# 6 0.000000 0.000000 0.000000 0.000000 0.000000 0.130119
#
#
# Mechanical properties :
#
#
# Convention : Reuss Voigt Hill
#
# Bulk Modulus (GPa) = 53.34620 65.53795 59.44207
# Shear Modulus (GPa) = 17.20041 27.56459 22.38250
#
# Velocity S-wave (km/s) = 3.03935 3.84758 3.46710
# Velocity P-wave (km/s) = 6.40055 7.41191 6.92472
#
# Compressibility (1/GPa) = 0.01874548
#
# Stress axis : x y z
#
# Youngs Moduli (GPa) = 138.60939 79.88361 80.26284
#
# Poissons Ratio (x) = 0.36971 0.06836
# Poissons Ratio (y) = 0.64151 0.09979
# Poissons Ratio (z) = 0.11805 0.09932
#
# Static dielectric constant tensor:
#      x y z
#    x 1.654250 0.000000 0.000000 
#    y 0.000000 1.604840 0.000000 
#    z 0.000000 0.000000 1.644560 
# 
# From -- ./inp_files/5191.got.cif
#   From: 2010.05.17/outbox.cif.g08.bks.cpg/sg47_3_cif.got.tgz:5191.got - 2010.06.03 20:15:42.
