data_PCOD9388400
_publ_section_title
;
Structure prediction by ZEFSAII (Michael W. Deem and Ramdas Pophale) SiO2 
 PCOD9388400
Probable space group: P M M M
;
_chemical_formula_sum "Si O2"
_cell_formula_units_Z 64
_cell_length_a 22.003856
_cell_length_b 8.856881
_cell_length_c 17.120313
_cell_angle_alpha 90.000000
_cell_angle_beta 90.000000
_cell_angle_gamma 90.000000
_cell_volume 3336.501344
_symmetry_space_group_name_H-M "P M M M"
_symmetry_group_IT_number 47
_symmetry_cell_setting 'orthorhombic'
loop_
_space_group_symop_operation_xyz
x,y,z
-x,-y,z
x,-y,-z
-x,y,-z
-x,-y,-z
x,y,-z
-x,y,z
x,-y,z
loop_
_atom_site_type_symbol
_atom_site_label
_atom_site_fract_x
_atom_site_fract_y
_atom_site_fract_z
Si Si1 0.187578 0.820805 0.167317
Si Si2 0.067939 0.825327 0.593954
Si Si3 0.692131 0.680447 0.091347
Si Si4 0.688301 0.323075 0.377640
Si Si5 0.931276 0.321748 0.906034
Si Si6 0.565637 0.823094 0.619959
Si Si7 0.364138 0.822699 0.232543
Si Si8 0.814781 0.320297 0.661707
O O1 0.242681 0.742251 0.120443
O O2 0.122822 0.770837 0.132265
O O3 0.188962 0.765977 0.256493
O O4 0.195110 0.000000 0.162632
O O5 0.068002 0.822286 0.500000
O O6 0.121117 0.720865 0.624568
O O7 0.000000 0.781905 0.620458
O O8 0.078732 0.000000 0.617844
O O9 0.690184 0.500000 0.101839
O O10 0.680456 0.720729 0.285912
O O11 0.641652 0.759412 0.146165
O O12 0.682646 0.500000 0.391028
O O13 0.628221 0.245521 0.412230
O O14 0.757402 0.275634 0.393715
O O15 0.923635 0.500000 0.887557
O O16 0.000000 0.277174 0.882320
O O17 0.927756 0.307473 0.000000
O O18 0.500000 0.758586 0.597439
O O19 0.575170 0.809949 0.714520
O O20 0.565571 0.000000 0.601194
O O21 0.346848 0.000000 0.234562
O O22 0.315821 0.714432 0.000000
O O23 0.809356 0.500000 0.674927
#
# Coordination Sequence:
#
# PCOD9388400 Si02
#       8
#     8   8   8   8   8   8   8   8
#     4  12  23  33  49  72  96 123 159 203 252 306
#     4   9  20  40  63  86 113 143 175 212 253 300
#     4  11  22  34  48  66  92 126 165 213 266 319
#     4   9  17  29  46  71 102 133 168 209 257 303
#     4   9  19  36  53  65  83 116 155 197 248 303
#     4   8  15  27  44  68  98 132 169 213 265 316
#     4   9  17  29  46  66  91 124 162 207 257 306
#     4  11  22  35  55  79 108 140 170 211 255 300
#
# _framework density 19.181768999999999
#
# number of rings (size 3 to 8) (size 9 to 14) (size 15 to 20)
#    0.750    1.500    1.250    3.375    0.000    5.750 
#    0.000    1.250    0.000    0.375    0.000    2.625 
#    0.000    0.500    0.000    5.500    0.000    4.000 
#
# Total GULP energy -356487.306876 kJ/mol
# GULP energy per Si atom -5570.114170 kJ/mol
# Density = 1.913811 g / cm^3
# Si number density = 19.181769 Si / 1000 Ang^3
#
#
#
# Elastic Constant Matrix: (Units=GPa)
#
#
# Indices 1 2 3 4 5 6 
#
# 1 116.4031 34.1990 23.6632 0.0000 0.0000 0.0000
# 2 34.1990 43.6324 17.0202 0.0000 0.0000 0.0000
# 3 23.6632 17.0202 64.7640 0.0000 0.0000 0.0000
# 4 0.0000 0.0000 0.0000 285.8974 0.0000 0.0000
# 5 0.0000 0.0000 0.0000 0.0000 21.9683 0.0000
# 6 0.0000 0.0000 0.0000 0.0000 0.0000 28.1646
#
#
#
# Elastic Compliance Matrix: (Units=1/GPa)
#
#
# Indices 1 2 3 4 5 6 
#
# 1 0.011394 -0.008141 -0.002024 0.000000 0.000000 0.000000
# 2 -0.008141 0.031354 -0.005265 0.000000 0.000000 0.000000
# 3 -0.002024 -0.005265 0.017564 0.000000 0.000000 0.000000
# 4 0.000000 0.000000 0.000000 0.003498 0.000000 0.000000
# 5 0.000000 0.000000 0.000000 0.000000 0.045520 0.000000
# 6 0.000000 0.000000 0.000000 0.000000 0.000000 0.035506
#
#
# Mechanical properties :
#
#
# Convention : Reuss Voigt Hill
#
# Bulk Modulus (GPa) = 33.95421 41.61826 37.78623
# Shear Modulus (GPa) = 26.95235 77.20053 52.07644
#
# Velocity S-wave (km/s) = 3.75254 6.35092 5.21612
# Velocity P-wave (km/s) = 6.04277 8.69039 7.48458
#
# Compressibility (1/GPa) = 0.02945143
#
# Stress axis : x y z
#
# Youngs Moduli (GPa) = 87.76465 31.89405 56.93541
#
# Poissons Ratio (x) = 0.25966 0.11521
# Poissons Ratio (y) = 0.71452 0.29978
# Poissons Ratio (z) = 0.17760 0.16793
#
# Static dielectric constant tensor:
#      x y z
#    x 1.697510 0.000000 0.000000 
#    y 0.000000 1.646660 0.000000 
#    z 0.000000 0.000000 1.687140 
# 
# From -- ./inp_files/28809.got.cif
#   From: 2010.05.17/outbox.cif.g08.bks.cpg/sg47_15_cif.got.tgz:28809.got - 2010.06.03 20:15:42.
