data_PCOD9388647
_publ_section_title
;
Structure prediction by ZEFSAII (Michael W. Deem and Ramdas Pophale) SiO2 
 PCOD9388647
Probable space group: P M M M
;
_chemical_formula_sum "Si O2"
_cell_formula_units_Z 44
_cell_length_a 7.759153
_cell_length_b 30.010136
_cell_length_c 9.508177
_cell_angle_alpha 90.000000
_cell_angle_beta 90.000000
_cell_angle_gamma 90.000000
_cell_volume 2214.009790
_symmetry_space_group_name_H-M "P M M M"
_symmetry_group_IT_number 47
_symmetry_cell_setting 'orthorhombic'
loop_
_space_group_symop_operation_xyz
x,y,z
-x,-y,z
x,-y,-z
-x,y,-z
-x,-y,-z
x,y,-z
-x,y,z
x,-y,z
loop_
_atom_site_type_symbol
_atom_site_label
_atom_site_fract_x
_atom_site_fract_y
_atom_site_fract_z
Si Si1 0.799758 0.768839 0.328653
Si Si2 0.788556 0.134419 0.336771
Si Si3 0.789770 0.049127 0.163444
Si Si4 0.295418 0.586285 0.841503
Si Si5 0.795680 0.500000 0.658714
Si Si6 0.792634 0.672131 0.660412
O O1 0.798941 0.769259 0.500000
O O2 0.726721 0.816841 0.285080
O O3 0.724519 0.720616 0.290106
O O4 0.000000 0.768839 0.283101
O O5 0.740885 0.129450 0.500000
O O6 0.729541 0.091785 0.249757
O O7 0.000000 0.135558 0.332056
O O8 0.000000 0.049495 0.168532
O O9 0.735042 0.000000 0.215080
O O10 0.741127 0.052940 0.000000
O O11 0.500000 0.586536 0.853222
O O12 0.250256 0.543906 0.746303
O O13 0.244735 0.631571 0.762817
O O14 0.222193 0.583144 0.000000
O O15 0.721224 0.500000 0.500000
O O16 0.000000 0.500000 0.645094
O O17 0.731324 0.663299 0.500000
O O18 0.000000 0.676397 0.652105
#
# Coordination Sequence:
#
# PCOD9388647 Si02
#       6
#     8   8   8   8   4   8
#     4   7  11  21  37  57  80 104 133 176 227 271
#     4   8  12  18  29  44  62  87 122 165 212 260
#     4   8  13  19  24  32  52  84 121 163 211 259
#     4  11  24  39  54  76 107 138 165 195 234 278
#     4  11  24  41  62  86 106 127 162 203 238 276
#     4   9  17  31  52  75  97 124 161 201 239 283
#
# _framework density 19.873443999999999
#
# number of rings (size 3 to 8) (size 9 to 14) (size 15 to 20)
#    0.000    3.182    0.000    4.364    0.000    6.182 
#    0.000    2.727    0.000    3.273    0.000    0.000 
#    0.000    0.000    0.000    0.000    0.000    0.909 
#
# Total GULP energy -245125.343081 kJ/mol
# GULP energy per Si atom -5571.030525 kJ/mol
# Density = 1.982821 g / cm^3
# Si number density = 19.873444 Si / 1000 Ang^3
#
#
#
# Elastic Constant Matrix: (Units=GPa)
#
#
# Indices 1 2 3 4 5 6 
#
# 1 32.2060 10.7368 7.7998 0.0000 0.0000 0.0000
# 2 10.7368 256.7465 111.0419 0.0000 0.0000 0.0000
# 3 7.7998 111.0419 105.0231 0.0000 0.0000 0.0000
# 4 0.0000 0.0000 0.0000 -33.7399 0.0000 0.0000
# 5 0.0000 0.0000 0.0000 0.0000 11.2850 0.0000
# 6 0.0000 0.0000 0.0000 0.0000 0.0000 -66.9428
#
#
#
# Elastic Compliance Matrix: (Units=1/GPa)
#
#
# Indices 1 2 3 4 5 6 
#
# 1 0.031663 -0.000566 -0.001753 0.000000 0.000000 0.000000
# 2 -0.000566 0.007187 -0.007557 0.000000 0.000000 0.000000
# 3 -0.001753 -0.007557 0.017642 0.000000 0.000000 0.000000
# 4 0.000000 0.000000 0.000000 -0.029638 0.000000 0.000000
# 5 0.000000 0.000000 0.000000 0.000000 0.088613 0.000000
# 6 0.000000 0.000000 0.000000 0.000000 0.000000 -0.014938
#
#
# Mechanical properties :
#
#
# Convention : Reuss Voigt Hill
#
# Bulk Modulus (GPa) = 27.21807 72.57028 49.89418
# Shear Modulus (GPa) = 37.72831 -0.25307 18.73762
#
# Velocity S-wave (km/s) = 4.36182 -0.35723 3.07391
# Velocity P-wave (km/s) = 6.25242 6.03534 6.14484
#
# Compressibility (1/GPa) = 0.03674030
#
# Stress axis : x y z
#
# Youngs Moduli (GPa) = 31.58221 139.14485 56.68428
#
# Poissons Ratio (x) = 0.07873 0.09938
# Poissons Ratio (y) = 0.01787 0.42834
# Poissons Ratio (z) = 0.05537 1.05146
#
# Static dielectric constant tensor:
#      x y z
#    x 1.736270 0.000000 0.000000 
#    y 0.000000 1.664490 0.000000 
#    z 0.000000 0.000000 1.675290 
# 
# From -- ./inp_files/2179.got.cif
#   From: 2010.05.17/outbox.cif.g08.bks.cpg/sg47_2_cif.got.tgz:2179.got - 2010.06.03 20:15:42.
