data_PCOD9388921
_publ_section_title
;
Structure prediction by ZEFSAII (Michael W. Deem and Ramdas Pophale) SiO2 
 PCOD9388921
Probable space group: P M M M
;
_chemical_formula_sum "Si O2"
_cell_formula_units_Z 48
_cell_length_a 9.677088
_cell_length_b 7.392161
_cell_length_c 32.077529
_cell_angle_alpha 90.000000
_cell_angle_beta 90.000000
_cell_angle_gamma 90.000000
_cell_volume 2294.652966
_symmetry_space_group_name_H-M "P M M M"
_symmetry_group_IT_number 47
_symmetry_cell_setting 'orthorhombic'
loop_
_space_group_symop_operation_xyz
x,y,z
-x,-y,z
x,-y,-z
-x,y,-z
-x,-y,-z
x,y,-z
-x,y,z
x,-y,z
loop_
_atom_site_type_symbol
_atom_site_label
_atom_site_fract_x
_atom_site_fract_y
_atom_site_fract_z
Si Si1 0.340673 0.221027 0.704210
Si Si2 0.160536 0.779640 0.782522
Si Si3 0.658287 0.220314 0.452685
Si Si4 0.159031 0.779046 0.375217
Si Si5 0.656931 0.283555 0.045606
Si Si6 0.845086 0.784642 0.124929
O O1 0.500000 0.279007 0.702164
O O2 0.262420 0.280569 0.746144
O O3 0.250989 0.276794 0.664249
O O4 0.341820 0.000000 0.704234
O O5 0.201390 0.719748 0.829270
O O6 0.000000 0.727555 0.775479
O O7 0.162684 0.000000 0.781526
O O8 0.690893 0.277068 0.500000
O O9 0.500000 0.274164 0.443047
O O10 0.765369 0.279503 0.417635
O O11 0.659295 0.000000 0.452543
O O12 0.000000 0.720785 0.372342
O O13 0.157931 0.000000 0.375222
O O14 0.500000 0.216397 0.050972
O O15 0.650142 0.500000 0.043262
O O16 0.748593 0.245393 0.085595
O O17 0.708657 0.219598 0.000000
O O18 0.000000 0.714413 0.117125
O O19 0.855097 0.000000 0.129294
#
# Coordination Sequence:
#
# PCOD9388921 Si02
#       6
#     8   8   8   8   8   8
#     4   9  15  21  30  44  61  82 110 142 176 220
#     4   8  14  25  38  52  74 100 122 149 190 237
#     4   8  13  20  27  33  43  61  87 124 171 219
#     4   9  15  20  26  36  50  70  97 130 171 220
#     4   9  19  35  51  67  90 120 152 184 217 254
#     4   9  18  31  47  69  94 117 143 178 219 262
#
# _framework density 20.918195999999998
#
# number of rings (size 3 to 8) (size 9 to 14) (size 15 to 20)
#    0.000    3.333    0.000    3.000    0.000    6.333 
#    0.000    5.833    0.000    0.000    0.000    0.000 
#    0.000    0.000    0.000    0.000    0.000    0.000 
#
# Total GULP energy -267768.783003 kJ/mol
# GULP energy per Si atom -5578.516313 kJ/mol
# Density = 2.087059 g / cm^3
# Si number density = 20.918196 Si / 1000 Ang^3
#
#
#
# Elastic Constant Matrix: (Units=GPa)
#
#
# Indices 1 2 3 4 5 6 
#
# 1 176.8808 4.6804 163.0223 0.0000 0.0000 0.0000
# 2 4.6804 68.5915 5.7893 0.0000 0.0000 0.0000
# 3 163.0223 5.7893 236.3421 0.0000 0.0000 0.0000
# 4 0.0000 0.0000 0.0000 63.3652 0.0000 0.0000
# 5 0.0000 0.0000 0.0000 0.0000 46.1249 0.0000
# 6 0.0000 0.0000 0.0000 0.0000 0.0000 0.6855
#
#
#
# Elastic Compliance Matrix: (Units=1/GPa)
#
#
# Indices 1 2 3 4 5 6 
#
# 1 0.015522 -0.000156 -0.010703 0.000000 0.000000 0.000000
# 2 -0.000156 0.014611 -0.000250 0.000000 0.000000 0.000000
# 3 -0.010703 -0.000250 0.011620 0.000000 0.000000 0.000000
# 4 0.000000 0.000000 0.000000 0.015782 0.000000 0.000000
# 5 0.000000 0.000000 0.000000 0.000000 0.021680 0.000000
# 6 0.000000 0.000000 0.000000 0.000000 0.000000 1.458895
#
#
# Mechanical properties :
#
#
# Convention : Reuss Voigt Hill
#
# Bulk Modulus (GPa) = 51.19153 92.08874 71.64013
# Shear Modulus (GPa) = 3.19114 42.58995 22.89055
#
# Velocity S-wave (km/s) = 1.23646 4.51713 3.31159
# Velocity P-wave (km/s) = 5.15401 8.44540 6.99602
#
# Compressibility (1/GPa) = 0.01953448
#
# Stress axis : x y z
#
# Youngs Moduli (GPa) = 64.42559 68.44239 86.06067
#
# Poissons Ratio (x) = 0.01066 0.92108
# Poissons Ratio (y) = 0.01004 0.02155
# Poissons Ratio (z) = 0.68953 0.01714
#
# Static dielectric constant tensor:
#      x y z
#    x 1.709760 0.000000 0.000000 
#    y 0.000000 1.818080 0.000000 
#    z 0.000000 0.000000 1.740570 
# 
# From -- ./inp_files/4712.got.cif
#   From: 2010.05.17/outbox.cif.g08.bks.cpg/sg47_3_cif.got.tgz:4712.got - 2010.06.03 20:15:42.
