data_PCOD9388967
_publ_section_title
;
Structure prediction by ZEFSAII (Michael W. Deem and Ramdas Pophale) SiO2 
 PCOD9388967
Probable space group: P M M M
;
_chemical_formula_sum "Si O2"
_cell_formula_units_Z 52
_cell_length_a 7.454801
_cell_length_b 24.577956
_cell_length_c 13.509668
_cell_angle_alpha 90.000000
_cell_angle_beta 90.000000
_cell_angle_gamma 90.000000
_cell_volume 2475.292315
_symmetry_space_group_name_H-M "P M M M"
_symmetry_group_IT_number 47
_symmetry_cell_setting 'orthorhombic'
loop_
_space_group_symop_operation_xyz
x,y,z
-x,-y,z
x,-y,-z
-x,y,-z
-x,-y,-z
x,y,-z
-x,y,z
x,-y,z
loop_
_atom_site_type_symbol
_atom_site_label
_atom_site_fract_x
_atom_site_fract_y
_atom_site_fract_z
Si Si1 0.781034 0.562473 0.887947
Si Si2 0.787109 0.357752 0.282696
Si Si3 0.210153 0.765559 0.718251
Si Si4 0.219197 0.062845 0.000000
Si Si5 0.285565 0.767280 0.500000
Si Si6 0.220090 0.873641 0.803730
Si Si7 0.287581 0.357404 0.500000
Si Si8 0.218074 0.063684 0.608008
O O1 0.726327 0.500000 0.869801
O O2 0.716513 0.603427 0.803441
O O3 0.000000 0.562789 0.886353
O O4 0.727619 0.577612 0.000000
O O5 0.712927 0.295698 0.279884
O O6 0.763805 0.381159 0.393697
O O7 0.000000 0.353731 0.267575
O O8 0.225054 0.788977 0.606132
O O9 0.281388 0.811247 0.792208
O O10 0.000000 0.760068 0.739534
O O11 0.276356 0.094866 0.901808
O O12 0.000000 0.062305 0.000000
O O13 0.276639 0.000000 0.000000
O O14 0.500000 0.767494 0.500000
O O15 0.215404 0.704635 0.500000
O O16 0.279403 0.905021 0.704927
O O17 0.000000 0.873482 0.803708
O O18 0.500000 0.353999 0.500000
O O19 0.278340 0.084554 0.500000
O O20 0.000000 0.066019 0.608057
O O21 0.266303 0.000000 0.614698
#
# Coordination Sequence:
#
# PCOD9388967 Si02
#       8
#     8   8   8   4   4   8   4   8
#     4   8  14  26  45  68  91 117 154 196 230 263
#     4   9  16  28  45  67  92 120 150 186 229 271
#     4   9  17  27  41  65  94 119 143 176 223 269
#     4   9  16  26  38  52  81 123 154 176 210 259
#     4   9  17  29  45  64  87 120 154 181 212 259
#     4   9  16  24  35  54  81 115 146 174 210 257
#     4   9  17  29  46  66  91 123 155 184 218 269
#     4   8  13  20  30  46  70 100 134 170 205 244
#
# _framework density 21.007618999999998
#
# number of rings (size 3 to 8) (size 9 to 14) (size 15 to 20)
#    0.000    3.308    0.000    1.846    1.077    3.692 
#    1.385    0.385    0.000    3.231    0.000    1.615 
#    0.000    5.538    0.000    0.000    0.000    0.000 
#
# Total GULP energy -289944.321463 kJ/mol
# GULP energy per Si atom -5575.852336 kJ/mol
# Density = 2.095980 g / cm^3
# Si number density = 21.007619 Si / 1000 Ang^3
#
#
#
# Elastic Constant Matrix: (Units=GPa)
#
#
# Indices 1 2 3 4 5 6 
#
# 1 64.3153 4.6601 1.1696 0.0000 0.0000 0.0000
# 2 4.6601 114.6254 116.0836 0.0000 0.0000 0.0000
# 3 1.1696 116.0836 202.2576 0.0000 0.0000 0.0000
# 4 0.0000 0.0000 0.0000 32.3895 0.0000 0.0000
# 5 0.0000 0.0000 0.0000 0.0000 -66.0609 0.0000
# 6 0.0000 0.0000 0.0000 0.0000 0.0000 -10.9555
#
#
#
# Elastic Compliance Matrix: (Units=1/GPa)
#
#
# Indices 1 2 3 4 5 6 
#
# 1 0.015631 -0.001299 0.000655 0.000000 0.000000 0.000000
# 2 -0.001299 0.020941 -0.012011 0.000000 0.000000 0.000000
# 3 0.000655 -0.012011 0.011834 0.000000 0.000000 0.000000
# 4 0.000000 0.000000 0.000000 0.030874 0.000000 0.000000
# 5 0.000000 0.000000 0.000000 0.000000 -0.015138 0.000000
# 6 0.000000 0.000000 0.000000 0.000000 0.000000 -0.091278
#
#
# Mechanical properties :
#
#
# Convention : Reuss Voigt Hill
#
# Bulk Modulus (GPa) = 43.29848 69.44720 56.37284
# Shear Modulus (GPa) = 851.33363 8.36028 429.84696
#
# Velocity S-wave (km/s) = 20.15266 1.99707 14.31988
# Velocity P-wave (km/s) = 23.70995 6.20061 17.32930
#
# Compressibility (1/GPa) = 0.02309550
#
# Stress axis : x y z
#
# Youngs Moduli (GPa) = 63.97706 47.75305 84.50077
#
# Poissons Ratio (x) = 0.06203 -0.05536
# Poissons Ratio (y) = 0.08310 1.01497
# Poissons Ratio (z) = -0.04191 0.57358
#
# Static dielectric constant tensor:
#      x y z
#    x 1.771190 0.000000 0.000000 
#    y 0.000000 1.764590 0.000000 
#    z 0.000000 0.000000 1.763040 
# 
# From -- ./inp_files/15586.got.cif
#   From: 2010.05.17/outbox.cif.g08.bks.cpg/sg47_8_cif.got.tgz:15586.got - 2010.06.03 20:15:42.
