data_PCOD9388859
_publ_section_title
;
Structure prediction by ZEFSAII (Michael W. Deem and Ramdas Pophale) SiO2 
 PCOD9388859
Probable space group: P M M M
;
_chemical_formula_sum "Si O2"
_cell_formula_units_Z 40
_cell_length_a 10.080447
_cell_length_b 7.367551
_cell_length_c 27.046075
_cell_angle_alpha 90.000000
_cell_angle_beta 90.000000
_cell_angle_gamma 90.000000
_cell_volume 2008.663507
_symmetry_space_group_name_H-M "P M M M"
_symmetry_group_IT_number 47
_symmetry_cell_setting 'orthorhombic'
loop_
_space_group_symop_operation_xyz
x,y,z
-x,-y,z
x,-y,-z
-x,y,-z
-x,-y,-z
x,y,-z
-x,y,z
x,-y,z
loop_
_atom_site_type_symbol
_atom_site_label
_atom_site_fract_x
_atom_site_fract_y
_atom_site_fract_z
Si Si1 0.150644 0.216928 0.359530
Si Si2 0.151024 0.716657 0.247220
Si Si3 0.345885 0.277958 0.838516
Si Si4 0.652323 0.221317 0.555785
Si Si5 0.341417 0.718459 0.946874
O O1 0.196382 0.250545 0.303428
O O2 0.249100 0.285593 0.401655
O O3 0.000000 0.287439 0.364073
O O4 0.144179 0.000000 0.365500
O O5 0.144225 0.500000 0.240889
O O6 0.252055 0.784510 0.205769
O O7 0.000000 0.787181 0.242480
O O8 0.500000 0.223769 0.832370
O O9 0.346226 0.500000 0.838681
O O10 0.295174 0.218893 0.892943
O O11 0.690739 0.275613 0.500000
O O12 0.500000 0.276671 0.564407
O O13 0.653099 0.000000 0.556426
O O14 0.500000 0.752356 0.946789
O O15 0.324869 0.500000 0.947370
O O16 0.288971 0.786129 0.000000
#
# Coordination Sequence:
#
# PCOD9388859 Si02
#       5
#     8   8   8   8   8
#     4   9  17  28  42  60  79  99 127 160 187 215
#     4   9  17  28  40  54  76 105 130 153 187 227
#     4   8  13  21  34  52  72  96 128 159 184 219
#     4   8  14  25  41  61  83 103 122 149 189 230
#     4   7   9  14  26  45  68  92 118 150 186 220
#
# _framework density 19.913739
#
# number of rings (size 3 to 8) (size 9 to 14) (size 15 to 20)
#    0.000    3.800    0.000    2.400    0.000    1.200 
#    0.000    2.000    0.000    1.200    0.000    8.400 
#    0.000    0.800    0.000   10.000    0.000    9.200 
#
# Total GULP energy -222781.082257 kJ/mol
# GULP energy per Si atom -5569.527056 kJ/mol
# Density = 1.986841 g / cm^3
# Si number density = 19.913739 Si / 1000 Ang^3
#
#
#
# Elastic Constant Matrix: (Units=GPa)
#
#
# Indices 1 2 3 4 5 6 
#
# 1 76.2027 4.1870 119.9896 0.0000 0.0000 0.0000
# 2 4.1870 69.9528 3.3282 0.0000 0.0000 0.0000
# 3 119.9896 3.3282 254.7234 0.0000 0.0000 0.0000
# 4 0.0000 0.0000 0.0000 13.2414 0.0000 0.0000
# 5 0.0000 0.0000 0.0000 0.0000 -40.1105 0.0000
# 6 0.0000 0.0000 0.0000 0.0000 0.0000 -6.8944
#
#
#
# Elastic Compliance Matrix: (Units=1/GPa)
#
#
# Indices 1 2 3 4 5 6 
#
# 1 0.051066 -0.001913 -0.024030 0.000000 0.000000 0.000000
# 2 -0.001913 0.014376 0.000713 0.000000 0.000000 0.000000
# 3 -0.024030 0.000713 0.015236 0.000000 0.000000 0.000000
# 4 0.000000 0.000000 0.000000 0.075521 0.000000 0.000000
# 5 0.000000 0.000000 0.000000 0.000000 -0.024931 0.000000
# 6 0.000000 0.000000 0.000000 0.000000 0.000000 -0.145045
#
#
# Mechanical properties :
#
#
# Convention : Reuss Voigt Hill
#
# Bulk Modulus (GPa) = 33.09260 72.87650 52.98455
# Shear Modulus (GPa) = 106.93875 11.47224 59.20549
#
# Velocity S-wave (km/s) = 7.33605 2.40281 5.45853
# Velocity P-wave (km/s) = 9.40270 6.66134 8.14814
#
# Compressibility (1/GPa) = 0.03021824
#
# Stress axis : x y z
#
# Youngs Moduli (GPa) = 19.58244 69.56078 65.63354
#
# Poissons Ratio (x) = 0.13309 1.57718
# Poissons Ratio (y) = 0.03747 -0.04682
# Poissons Ratio (z) = 0.47057 -0.04963
#
# Static dielectric constant tensor:
#      x y z
#    x 1.667760 0.000000 0.000000 
#    y 0.000000 1.808310 0.000000 
#    z 0.000000 0.000000 1.717290 
# 
# From -- ./inp_files/1675.got.cif
#   From: 2010.05.17/outbox.cif.g08.bks.cpg/sg47_1_cif.got.tgz:1675.got - 2010.06.03 20:15:42.
