data_PCOD9388433
_publ_section_title
;
Structure prediction by ZEFSAII (Michael W. Deem and Ramdas Pophale) SiO2 
 PCOD9388433
Probable space group: P M M M
;
_chemical_formula_sum "Si O2"
_cell_formula_units_Z 32
_cell_length_a 16.783038
_cell_length_b 11.282045
_cell_length_c 10.430122
_cell_angle_alpha 90.000000
_cell_angle_beta 90.000000
_cell_angle_gamma 90.000000
_cell_volume 1974.912206
_symmetry_space_group_name_H-M "P M M M"
_symmetry_group_IT_number 47
_symmetry_cell_setting 'orthorhombic'
loop_
_space_group_symop_operation_xyz
x,y,z
-x,-y,z
x,-y,-z
-x,y,-z
-x,-y,-z
x,y,-z
-x,y,z
x,-y,z
loop_
_atom_site_type_symbol
_atom_site_label
_atom_site_fract_x
_atom_site_fract_y
_atom_site_fract_z
Si Si1 0.095907 0.000000 0.155412
Si Si2 0.323484 0.641036 0.656093
Si Si3 0.094638 0.634908 0.500000
Si Si4 0.834148 0.752609 0.751622
Si Si5 0.089943 0.359734 0.000000
Si Si6 0.500000 0.643446 0.353049
O O1 0.138432 0.114457 0.216723
O O2 0.000000 0.000000 0.180027
O O3 0.105888 0.000000 0.000000
O O4 0.319127 0.653084 0.500000
O O5 0.309953 0.500000 0.682590
O O6 0.257898 0.722834 0.722935
O O7 0.413181 0.674542 0.700428
O O8 0.127433 0.500000 0.500000
O O9 0.122354 0.703020 0.374210
O O10 0.000000 0.627811 0.500000
O O11 0.864274 0.680210 0.874129
O O12 0.083495 0.500000 0.000000
O O13 0.000000 0.307412 0.000000
O O14 0.500000 0.500000 0.357674
O O15 0.500000 0.686243 0.500000
#
# Coordination Sequence:
#
# PCOD9388433 Si02
#       6
#     4   8   4   8   4   4
#     4  11  24  43  59  72 101 150 208 249 267 309
#     4   9  16  30  53  85 119 144 174 219 276 338
#     4  11  22  35  53  82 116 140 168 225 296 348
#     4  12  22  36  57  79 108 149 187 232 277 326
#     4  11  22  35  53  78 106 142 188 229 278 342
#     4   7  12  24  48  80 115 150 172 203 266 339
#
# _framework density 16.203251999999999
#
# number of rings (size 3 to 8) (size 9 to 14) (size 15 to 20)
#    0.000    1.750    2.500    6.000    0.000    2.500 
#    0.000    1.250    0.000    1.500    0.000    7.000 
#    0.000    0.000    0.000    0.000    0.000    0.000 
#
# Total GULP energy -178380.082304 kJ/mol
# GULP energy per Si atom -5574.377572 kJ/mol
# Density = 1.616637 g / cm^3
# Si number density = 16.203252 Si / 1000 Ang^3
#
#
#
# Elastic Constant Matrix: (Units=GPa)
#
#
# Indices 1 2 3 4 5 6 
#
# 1 175.7272 62.9472 51.2983 0.0000 0.0000 0.0000
# 2 62.9472 116.1333 50.7501 0.0000 0.0000 0.0000
# 3 51.2983 50.7501 106.0545 0.0000 0.0000 0.0000
# 4 0.0000 0.0000 0.0000 21.4254 0.0000 0.0000
# 5 0.0000 0.0000 0.0000 0.0000 20.9882 0.0000
# 6 0.0000 0.0000 0.0000 0.0000 0.0000 113.0540
#
#
#
# Elastic Compliance Matrix: (Units=1/GPa)
#
#
# Indices 1 2 3 4 5 6 
#
# 1 0.007415 -0.003100 -0.002103 0.000000 0.000000 0.000000
# 2 -0.003100 0.012184 -0.004331 0.000000 0.000000 0.000000
# 3 -0.002103 -0.004331 0.012519 0.000000 0.000000 0.000000
# 4 0.000000 0.000000 0.000000 0.046673 0.000000 0.000000
# 5 0.000000 0.000000 0.000000 0.000000 0.047646 0.000000
# 6 0.000000 0.000000 0.000000 0.000000 0.000000 0.008845
#
#
# Mechanical properties :
#
#
# Convention : Reuss Voigt Hill
#
# Bulk Modulus (GPa) = 76.63098 80.87847 78.75473
# Shear Modulus (GPa) = 31.50600 46.62149 39.06375
#
# Velocity S-wave (km/s) = 4.41435 5.36986 4.91538
# Velocity P-wave (km/s) = 8.56611 9.40588 8.99580
#
# Compressibility (1/GPa) = 0.01304955
#
# Stress axis : x y z
#
# Youngs Moduli (GPa) = 134.86045 82.07729 79.87991
#
# Poissons Ratio (x) = 0.25445 0.16800
# Poissons Ratio (y) = 0.41808 0.34594
# Poissons Ratio (z) = 0.28364 0.35545
#
# Static dielectric constant tensor:
#      x y z
#    x 1.589820 0.000000 0.000000 
#    y 0.000000 1.548110 0.000000 
#    z 0.000000 0.000000 1.517310 
# 
# From -- ./inp_files/8609.got.cif
#   From: 2010.05.17/outbox.cif.g08.bks.cpg/sg47_5_cif.got.tgz:8609.got - 2010.06.03 20:15:42.
