data_PCOD9388348
_publ_section_title
;
Structure prediction by ZEFSAII (Michael W. Deem and Ramdas Pophale) SiO2 
 PCOD9388348
Probable space group: P M M M
;
_chemical_formula_sum "Si O2"
_cell_formula_units_Z 40
_cell_length_a 23.025363
_cell_length_b 11.254585
_cell_length_c 8.671849
_cell_angle_alpha 90.000000
_cell_angle_beta 90.000000
_cell_angle_gamma 90.000000
_cell_volume 2247.230798
_symmetry_space_group_name_H-M "P M M M"
_symmetry_group_IT_number 47
_symmetry_cell_setting 'orthorhombic'
loop_
_space_group_symop_operation_xyz
x,y,z
-x,-y,z
x,-y,-z
-x,y,-z
-x,-y,-z
x,y,-z
-x,y,z
x,-y,z
loop_
_atom_site_type_symbol
_atom_site_label
_atom_site_fract_x
_atom_site_fract_y
_atom_site_fract_z
Si Si1 0.500000 0.140438 0.672947
Si Si2 0.612626 0.742729 0.815208
Si Si3 0.567873 0.500000 0.684108
Si Si4 0.862156 0.138407 0.813314
Si Si5 0.068699 0.634255 0.685573
Si Si6 0.729458 0.864172 0.187209
O O1 0.500000 0.194245 0.500000
O O2 0.441399 0.179105 0.757623
O O3 0.500000 0.000000 0.661959
O O4 0.598818 0.613860 0.752299
O O5 0.675536 0.786381 0.758460
O O6 0.613036 0.744361 0.000000
O O7 0.500000 0.500000 0.730299
O O8 0.570349 0.500000 0.500000
O O9 0.900200 0.248742 0.753146
O O10 0.795281 0.162281 0.763493
O O11 0.876839 0.000000 0.767122
O O12 0.864443 0.139072 0.000000
O O13 0.074843 0.637842 0.500000
O O14 0.088580 0.500000 0.735637
O O15 0.000000 0.641208 0.721388
O O16 0.716931 0.000000 0.229914
O O17 0.730331 0.858168 0.000000
#
# Coordination Sequence:
#
# PCOD9388348 Si02
#       6
#     4   8   4   8   8   8
#     4  11  23  36  51  76 109 137 163 207 268 321
#     4  11  21  35  58  80  99 130 177 221 256 305
#     4  11  23  39  55  71 104 142 167 206 269 326
#     4   9  18  34  56  82 112 143 176 219 270 322
#     4   9  19  36  55  76 108 148 186 225 267 312
#     4   8  16  33  55  79 107 135 165 210 264 309
#
# _framework density 17.799685
#
# number of rings (size 3 to 8) (size 9 to 14) (size 15 to 20)
#    0.000    2.400    1.000    3.600    0.000    3.600 
#    1.800    5.000    0.000    2.400    0.000    0.000 
#    0.000    0.000    0.000    0.000    0.000    0.000 
#
# Total GULP energy -222876.839655 kJ/mol
# GULP energy per Si atom -5571.920991 kJ/mol
# Density = 1.775917 g / cm^3
# Si number density = 17.799685 Si / 1000 Ang^3
#
#
#
# Elastic Constant Matrix: (Units=GPa)
#
#
# Indices 1 2 3 4 5 6 
#
# 1 114.0812 100.2022 28.8227 0.0000 0.0000 0.0000
# 2 100.2022 164.8839 34.2943 0.0000 0.0000 0.0000
# 3 28.8227 34.2943 29.6325 0.0000 0.0000 0.0000
# 4 0.0000 0.0000 0.0000 27.4241 0.0000 0.0000
# 5 0.0000 0.0000 0.0000 0.0000 -106.5640 0.0000
# 6 0.0000 0.0000 0.0000 0.0000 0.0000 53.9933
#
#
#
# Elastic Compliance Matrix: (Units=1/GPa)
#
#
# Indices 1 2 3 4 5 6 
#
# 1 0.019859 -0.010603 -0.007045 0.000000 0.000000 0.000000
# 2 -0.010603 0.013649 -0.005483 0.000000 0.000000 0.000000
# 3 -0.007045 -0.005483 0.046944 0.000000 0.000000 0.000000
# 4 0.000000 0.000000 0.000000 0.036464 0.000000 0.000000
# 5 0.000000 0.000000 0.000000 0.000000 -0.009384 0.000000
# 6 0.000000 0.000000 0.000000 0.000000 0.000000 0.018521
#
#
# Mechanical properties :
#
#
# Convention : Reuss Voigt Hill
#
# Bulk Modulus (GPa) = 29.24787 70.58176 49.91482
# Shear Modulus (GPa) = 27.21661 4.65591 15.93626
#
# Velocity S-wave (km/s) = 3.91455 1.61908 2.99542
# Velocity P-wave (km/s) = 6.07445 6.57531 6.32983
#
# Compressibility (1/GPa) = 0.03419052
#
# Stress axis : x y z
#
# Youngs Moduli (GPa) = 50.35554 73.26568 21.30187
#
# Poissons Ratio (x) = 0.77685 0.15007
# Poissons Ratio (y) = 0.53393 0.11679
# Poissons Ratio (z) = 0.35474 0.40170
#
# Static dielectric constant tensor:
#      x y z
#    x 1.609550 0.000000 0.000000 
#    y 0.000000 1.475030 0.000000 
#    z 0.000000 0.000000 1.611420 
# 
# From -- ./inp_files/10680.got.cif
#   From: 2010.05.17/outbox.cif.g08.bks.cpg/sg47_6_cif.got.tgz:10680.got - 2010.06.03 20:15:42.
