data_PCOD9388394
_publ_section_title
;
Structure prediction by ZEFSAII (Michael W. Deem and Ramdas Pophale) SiO2 
 PCOD9388394
Probable space group: P M M M
;
_chemical_formula_sum "Si O2"
_cell_formula_units_Z 44
_cell_length_a 7.568479
_cell_length_b 18.294132
_cell_length_c 15.835207
_cell_angle_alpha 90.000000
_cell_angle_beta 90.000000
_cell_angle_gamma 90.000000
_cell_volume 2192.523028
_symmetry_space_group_name_H-M "P M M M"
_symmetry_group_IT_number 47
_symmetry_cell_setting 'orthorhombic'
loop_
_space_group_symop_operation_xyz
x,y,z
-x,-y,z
x,-y,-z
-x,y,-z
-x,-y,-z
x,y,-z
-x,y,z
x,-y,z
loop_
_atom_site_type_symbol
_atom_site_label
_atom_site_fract_x
_atom_site_fract_y
_atom_site_fract_z
Si Si1 0.784207 0.585025 0.094489
Si Si2 0.211848 0.916750 0.000000
Si Si3 0.206977 0.079762 0.349954
Si Si4 0.797292 0.692414 0.762808
Si Si5 0.294184 0.850037 0.179540
Si Si6 0.783254 0.761145 0.593852
O O1 0.736784 0.500000 0.105427
O O2 0.718080 0.635279 0.170888
O O3 0.000000 0.588822 0.094319
O O4 0.727586 0.608482 0.000000
O O5 0.271439 0.877813 0.914786
O O6 0.000000 0.917221 0.000000
O O7 0.276400 0.000000 0.000000
O O8 0.221575 0.093687 0.249316
O O9 0.277121 0.154999 0.390151
O O10 0.000000 0.077387 0.372683
O O11 0.283251 0.000000 0.371554
O O12 0.796200 0.771993 0.806529
O O13 0.720418 0.709577 0.670169
O O14 0.000000 0.668894 0.749037
O O15 0.500000 0.840207 0.198128
O O16 0.733860 0.737870 0.500000
O O17 0.000000 0.762651 0.598886
#
# Coordination Sequence:
#
# PCOD9388394 Si02
#       6
#     8   4   8   8   8   8
#     4   8  14  25  44  72  99 121 152 194 234 275
#     4  11  23  37  51  65  86 121 164 203 235 274
#     4   9  17  30  47  65  86 116 157 200 243 289
#     4   9  17  30  49  70  92 124 160 193 233 282
#     4  11  22  33  46  67  94 123 155 194 240 285
#     4   8  14  25  42  66  93 120 156 199 239 281
#
# _framework density 20.068206
#
# number of rings (size 3 to 8) (size 9 to 14) (size 15 to 20)
#    0.000    2.818    0.000    4.091    1.273    3.636 
#    0.000    1.818    0.000    9.818    0.000   10.182 
#    0.000    0.000    0.000    6.545    0.000    7.273 
#
# Total GULP energy -245359.727506 kJ/mol
# GULP energy per Si atom -5576.357443 kJ/mol
# Density = 2.002253 g / cm^3
# Si number density = 20.068206 Si / 1000 Ang^3
#
#
#
# Elastic Constant Matrix: (Units=GPa)
#
#
# Indices 1 2 3 4 5 6 
#
# 1 56.1142 0.1958 -4.9254 0.0000 0.0000 0.0000
# 2 0.1958 84.7185 77.9529 0.0000 0.0000 0.0000
# 3 -4.9254 77.9529 179.7667 0.0000 0.0000 0.0000
# 4 0.0000 0.0000 0.0000 -69.2464 0.0000 0.0000
# 5 0.0000 0.0000 0.0000 0.0000 -22.7979 0.0000
# 6 0.0000 0.0000 0.0000 0.0000 0.0000 -19.2984
#
#
#
# Elastic Compliance Matrix: (Units=1/GPa)
#
#
# Indices 1 2 3 4 5 6 
#
# 1 0.017898 -0.000820 0.000846 0.000000 0.000000 0.000000
# 2 -0.000820 0.019678 -0.008555 0.000000 0.000000 0.000000
# 3 0.000846 -0.008555 0.009296 0.000000 0.000000 0.000000
# 4 0.000000 0.000000 0.000000 -0.014441 0.000000 0.000000
# 5 0.000000 0.000000 0.000000 0.000000 -0.043864 0.000000
# 6 0.000000 0.000000 0.000000 0.000000 0.000000 -0.051818
#
#
# Mechanical properties :
#
#
# Convention : Reuss Voigt Hill
#
# Bulk Modulus (GPa) = 33.54226 51.89398 42.71812
# Shear Modulus (GPa) = -137.91344 -5.77681 -71.84512
#
# Velocity S-wave (km/s) = -8.29889 -1.69848 -5.98984
# Velocity P-wave (km/s) = 8.66477 4.69771 5.14829
#
# Compressibility (1/GPa) = 0.02981313
#
# Stress axis : x y z
#
# Youngs Moduli (GPa) = 55.87244 50.81838 107.57459
#
# Poissons Ratio (x) = 0.04165 -0.09099
# Poissons Ratio (y) = 0.04579 0.92035
# Poissons Ratio (z) = -0.04726 0.43477
#
# Static dielectric constant tensor:
#      x y z
#    x 1.738410 0.000000 0.000000 
#    y 0.000000 1.683080 0.000000 
#    z 0.000000 0.000000 1.718530 
# 
# From -- ./inp_files/20908.got.cif
#   From: 2010.05.17/outbox.cif.g08.bks.cpg/sg47_11_cif.got.tgz:20908.got - 2010.06.03 20:15:42.
