data_PCOD9388899
_publ_section_title
;
Structure prediction by ZEFSAII (Michael W. Deem and Ramdas Pophale) SiO2 
 PCOD9388899
Probable space group: P M M M
;
_chemical_formula_sum "Si O2"
_cell_formula_units_Z 48
_cell_length_a 31.303990
_cell_length_b 10.402764
_cell_length_c 7.404825
_cell_angle_alpha 90.000000
_cell_angle_beta 90.000000
_cell_angle_gamma 90.000000
_cell_volume 2411.366601
_symmetry_space_group_name_H-M "P M M M"
_symmetry_group_IT_number 47
_symmetry_cell_setting 'orthorhombic'
loop_
_space_group_symop_operation_xyz
x,y,z
-x,-y,z
x,-y,-z
-x,y,-z
-x,-y,-z
x,y,-z
-x,y,z
x,-y,z
loop_
_atom_site_type_symbol
_atom_site_label
_atom_site_fract_x
_atom_site_fract_y
_atom_site_fract_z
Si Si1 0.117822 0.853371 0.720165
Si Si2 0.215224 0.146668 0.279843
Si Si3 0.547917 0.144271 0.215945
Si Si4 0.715397 0.352578 0.279705
Si Si5 0.380886 0.356322 0.715288
Si Si6 0.951307 0.353342 0.279834
O O1 0.117399 0.852030 0.500000
O O2 0.166522 0.823444 0.775000
O O3 0.083273 0.749965 0.781994
O O4 0.107989 0.000000 0.774857
O O5 0.215595 0.147896 0.500000
O O6 0.249751 0.250093 0.217636
O O7 0.225103 0.000000 0.225147
O O8 0.500000 0.177403 0.281866
O O9 0.583385 0.250352 0.252359
O O10 0.558718 0.000000 0.282001
O O11 0.545334 0.136538 0.000000
O O12 0.715947 0.349600 0.500000
O O13 0.724842 0.500000 0.227441
O O14 0.666905 0.322183 0.220097
O O15 0.377226 0.365993 0.500000
O O16 0.391995 0.500000 0.783023
O O17 0.950883 0.352041 0.500000
O O18 0.941524 0.500000 0.225109
O O19 0.000000 0.323243 0.225068
#
# Coordination Sequence:
#
# PCOD9388899 Si02
#       6
#     8   8   8   8   8   8
#     4   8  13  19  25  34  48  66  91 125 165 210
#     4   8  13  20  29  42  60  81 107 139 174 217
#     4   9  19  35  51  67  89 116 146 179 212 248
#     4   8  14  24  36  51  73  98 121 148 185 228
#     4   9  18  31  46  67  93 116 141 175 212 252
#     4   8  13  19  24  30  41  58  84 121 164 210
#
# _framework density 19.905725
#
# number of rings (size 3 to 8) (size 9 to 14) (size 15 to 20)
#    0.000    3.667    0.000    3.000    0.000    3.000 
#    0.000    9.167    0.000    0.000    0.000    0.000 
#    0.000    0.000    0.000    0.000    0.000    0.000 
#
# Total GULP energy -267563.161229 kJ/mol
# GULP energy per Si atom -5574.232526 kJ/mol
# Density = 1.986042 g / cm^3
# Si number density = 19.905725 Si / 1000 Ang^3
#
#
#
# Elastic Constant Matrix: (Units=GPa)
#
#
# Indices 1 2 3 4 5 6 
#
# 1 201.5686 179.8752 6.6304 0.0000 0.0000 0.0000
# 2 179.8752 192.8366 5.7175 0.0000 0.0000 0.0000
# 3 6.6304 5.7175 63.6355 0.0000 0.0000 0.0000
# 4 0.0000 0.0000 0.0000 3.8405 0.0000 0.0000
# 5 0.0000 0.0000 0.0000 0.0000 36.5339 0.0000
# 6 0.0000 0.0000 0.0000 0.0000 0.0000 49.1375
#
#
#
# Elastic Compliance Matrix: (Units=1/GPa)
#
#
# Indices 1 2 3 4 5 6 
#
# 1 0.029623 -0.027614 -0.000605 0.000000 0.000000 0.000000
# 2 -0.027614 0.030941 0.000097 0.000000 0.000000 0.000000
# 3 -0.000605 0.000097 0.015769 0.000000 0.000000 0.000000
# 4 0.000000 0.000000 0.000000 0.260385 0.000000 0.000000
# 5 0.000000 0.000000 0.000000 0.000000 0.027372 0.000000
# 6 0.000000 0.000000 0.000000 0.000000 0.000000 0.020351
#
#
# Mechanical properties :
#
#
# Convention : Reuss Voigt Hill
#
# Bulk Modulus (GPa) = 49.78044 93.60966 71.69505
# Shear Modulus (GPa) = 11.17612 35.62355 23.39984
#
# Velocity S-wave (km/s) = 2.37207 4.23497 3.43232
# Velocity P-wave (km/s) = 5.70655 8.42864 7.19745
#
# Compressibility (1/GPa) = 0.02008821
#
# Stress axis : x y z
#
# Youngs Moduli (GPa) = 33.75716 32.31953 63.41620
#
# Poissons Ratio (x) = 0.89248 0.03840
# Poissons Ratio (y) = 0.93218 -0.00617
# Poissons Ratio (z) = 0.02044 -0.00314
#
# Static dielectric constant tensor:
#      x y z
#    x 1.678520 0.000000 0.000000 
#    y 0.000000 1.681700 0.000000 
#    z 0.000000 0.000000 1.785790 
# 
# From -- ./inp_files/19994.got.cif
#   From: 2010.05.17/outbox.cif.g08.bks.cpg/sg47_10_cif.got.tgz:19994.got - 2010.06.03 20:15:42.
