data_PCOD9388179
_publ_section_title
;
Structure prediction by ZEFSAII (Michael W. Deem and Ramdas Pophale) SiO2 
 PCOD9388179
Probable space group: P M M M
;
_chemical_formula_sum "Si O2"
_cell_formula_units_Z 56
_cell_length_a 9.315187
_cell_length_b 14.457177
_cell_length_c 31.928444
_cell_angle_alpha 90.000000
_cell_angle_beta 90.000000
_cell_angle_gamma 90.000000
_cell_volume 4299.845292
_symmetry_space_group_name_H-M "P M M M"
_symmetry_group_IT_number 47
_symmetry_cell_setting 'orthorhombic'
loop_
_space_group_symop_operation_xyz
x,y,z
-x,-y,z
x,-y,-z
-x,y,-z
-x,-y,-z
x,y,-z
-x,y,z
x,-y,z
loop_
_atom_site_type_symbol
_atom_site_label
_atom_site_fract_x
_atom_site_fract_y
_atom_site_fract_z
Si Si1 0.325983 0.394565 0.500000
Si Si2 0.165486 0.612721 0.916657
Si Si3 0.170343 0.892455 0.450251
Si Si4 0.172538 0.609649 0.343222
Si Si5 0.335055 0.612795 0.166428
Si Si6 0.164875 0.612368 0.751857
Si Si7 0.334317 0.387268 0.000000
Si Si8 0.327265 0.281369 0.416783
O O1 0.273037 0.500000 0.500000
O O2 0.500000 0.397382 0.500000
O O3 0.284096 0.340439 0.458085
O O4 0.165812 0.500000 0.916695
O O5 0.243535 0.641990 0.873943
O O6 0.000000 0.642156 0.917967
O O7 0.251815 0.642032 0.957995
O O8 0.199138 0.879760 0.500000
O O9 0.263730 0.820438 0.424288
O O10 0.000000 0.875971 0.443882
O O11 0.199414 0.000000 0.440382
O O12 0.204396 0.500000 0.348334
O O13 0.208833 0.637584 0.295354
O O14 0.257900 0.669092 0.376845
O O15 0.000000 0.620226 0.348081
O O16 0.500000 0.641693 0.162820
O O17 0.333321 0.500000 0.166639
O O18 0.264409 0.643521 0.210090
O O19 0.164544 0.500000 0.752314
O O20 0.000000 0.641492 0.758873
O O21 0.334099 0.500000 0.000000
O O22 0.500000 0.357900 0.000000
O O23 0.500000 0.279960 0.414041
#
# Coordination Sequence:
#
# PCOD9388179 Si02
#       8
#     4   8   8   8   8   8   4   8
#     4   9  18  30  40  55  82 110 131 151 178 213
#     4   9  15  21  28  37  50  70  95 122 157 204
#     4   9  18  33  51  67  83 103 126 154 186 220
#     4   9  18  31  44  58  78 104 132 158 184 219
#     4   9  15  21  30  44  59  74  97 131 168 205
#     4   8  14  25  38  49  63  85 112 142 174 207
#     4   9  15  21  27  35  49  67  89 121 161 203
#     4  11  20  30  45  64  85 107 128 155 188 221
#
# _framework density 13.023725000000001
#
# number of rings (size 3 to 8) (size 9 to 14) (size 15 to 20)
#    0.000    2.857    0.714    3.214    0.000    6.000 
#    0.000    2.143    0.000    1.714    0.000    0.000 
#    0.000    0.000    0.000    0.000    0.000    0.000 
#
# Total GULP energy -311838.994457 kJ/mol
# GULP energy per Si atom -5568.553472 kJ/mol
# Density = 1.299408 g / cm^3
# Si number density = 13.023725 Si / 1000 Ang^3
#
#
#
# Elastic Constant Matrix: (Units=GPa)
#
#
# Indices 1 2 3 4 5 6 
#
# 1 91.8239 29.6664 78.6922 0.0000 0.0000 0.0000
# 2 29.6664 38.6183 32.3243 0.0000 0.0000 0.0000
# 3 78.6922 32.3243 129.9027 0.0000 0.0000 0.0000
# 4 0.0000 0.0000 0.0000 0.9482 0.0000 0.0000
# 5 0.0000 0.0000 0.0000 0.0000 22.8814 0.0000
# 6 0.0000 0.0000 0.0000 0.0000 0.0000 11.9216
#
#
#
# Elastic Compliance Matrix: (Units=1/GPa)
#
#
# Indices 1 2 3 4 5 6 
#
# 1 0.024493 -0.008079 -0.012827 0.000000 0.000000 0.000000
# 2 -0.008079 0.035371 -0.003908 0.000000 0.000000 0.000000
# 3 -0.012827 -0.003908 0.016441 0.000000 0.000000 0.000000
# 4 0.000000 0.000000 0.000000 1.054662 0.000000 0.000000
# 5 0.000000 0.000000 0.000000 0.000000 0.043704 0.000000
# 6 0.000000 0.000000 0.000000 0.000000 0.000000 0.083882
#
#
# Mechanical properties :
#
#
# Convention : Reuss Voigt Hill
#
# Bulk Modulus (GPa) = 37.48396 60.19010 48.83703
# Shear Modulus (GPa) = 3.79630 15.12770 9.46200
#
# Velocity S-wave (km/s) = 1.70916 3.41185 2.69833
# Velocity P-wave (km/s) = 5.72178 7.86365 6.87662
#
# Compressibility (1/GPa) = 0.02667808
#
# Stress axis : x y z
#
# Youngs Moduli (GPa) = 40.82742 28.27139 60.82423
#
# Poissons Ratio (x) = 0.22841 0.78020
# Poissons Ratio (y) = 0.32985 0.23767
# Poissons Ratio (z) = 0.52370 0.11047
#
# Static dielectric constant tensor:
#      x y z
#    x 1.433890 0.000000 0.000000 
#    y 0.000000 1.386250 0.000000 
#    z 0.000000 0.000000 1.428770 
# 
# From -- ./inp_files/34392.got.cif
#   From: 2010.05.17/outbox.cif.g08.bks.cpg/sg47_18_cif.got.tgz:34392.got - 2010.06.03 20:15:42.
