data_PCOD9388337
_publ_section_title
;
Structure prediction by ZEFSAII (Michael W. Deem and Ramdas Pophale) SiO2 
 PCOD9388337
Probable space group: P M M M
;
_chemical_formula_sum "Si O2"
_cell_formula_units_Z 36
_cell_length_a 7.716406
_cell_length_b 13.711459
_cell_length_c 21.569359
_cell_angle_alpha 90.000000
_cell_angle_beta 90.000000
_cell_angle_gamma 90.000000
_cell_volume 2282.106870
_symmetry_space_group_name_H-M "P M M M"
_symmetry_group_IT_number 47
_symmetry_cell_setting 'orthorhombic'
loop_
_space_group_symop_operation_xyz
x,y,z
-x,-y,z
x,-y,-z
-x,y,-z
-x,-y,-z
x,y,-z
-x,y,z
x,-y,z
loop_
_atom_site_type_symbol
_atom_site_label
_atom_site_fract_x
_atom_site_fract_y
_atom_site_fract_z
Si Si1 0.789893 0.614723 0.230848
Si Si2 0.792637 0.388653 0.367815
Si Si3 0.000000 0.115935 0.074621
Si Si4 0.298382 0.255417 0.114414
Si Si5 0.295361 0.610796 0.500000
Si Si6 0.289968 0.390767 0.000000
O O1 0.740230 0.500000 0.222223
O O2 0.734817 0.647441 0.300320
O O3 0.719144 0.686253 0.178643
O O4 0.000000 0.617399 0.227436
O O5 0.724333 0.500000 0.371740
O O6 0.751917 0.341409 0.434169
O O7 0.000000 0.393318 0.364190
O O8 0.168365 0.165592 0.105697
O O9 0.000000 0.000000 0.082981
O O10 0.000000 0.135136 0.000000
O O11 0.500000 0.228645 0.104426
O O12 0.242058 0.331619 0.061040
O O13 0.216251 0.500000 0.500000
O O14 0.500000 0.601836 0.500000
O O15 0.220956 0.500000 0.000000
O O16 0.500000 0.396104 0.000000
#
# Coordination Sequence:
#
# PCOD9388337 Si02
#       6
#     8   8   4   8   4   4
#     4   9  17  29  46  69  99 133 167 200 238 287
#     4   8  14  24  37  54  80 120 165 202 233 269
#     4  11  24  42  60  76  94 119 158 207 255 298
#     4  11  21  35  54  76 100 127 160 199 243 290
#     4   9  15  21  31  49  77 115 163 210 239 264
#     4   9  18  31  47  72 103 131 160 190 226 276
#
# _framework density 15.774896
#
# number of rings (size 3 to 8) (size 9 to 14) (size 15 to 20)
#    0.000    2.556    2.222    2.333    0.000    4.000 
#    0.000    3.889    0.000    0.000    0.000    0.000 
#    0.000    0.000    0.000    2.000    0.000    4.889 
#
# Total GULP energy -200434.522236 kJ/mol
# GULP energy per Si atom -5567.625618 kJ/mol
# Density = 1.573899 g / cm^3
# Si number density = 15.774896 Si / 1000 Ang^3
#
#
#
# Elastic Constant Matrix: (Units=GPa)
#
#
# Indices 1 2 3 4 5 6 
#
# 1 67.5788 32.4239 24.4369 0.0000 0.0000 0.0000
# 2 32.4239 68.1542 42.8993 0.0000 0.0000 0.0000
# 3 24.4369 42.8993 155.0790 0.0000 0.0000 0.0000
# 4 0.0000 0.0000 0.0000 1.3709 0.0000 0.0000
# 5 0.0000 0.0000 0.0000 0.0000 -61.1685 0.0000
# 6 0.0000 0.0000 0.0000 0.0000 0.0000 9.3892
#
#
#
# Elastic Compliance Matrix: (Units=1/GPa)
#
#
# Indices 1 2 3 4 5 6 
#
# 1 0.019221 -0.008764 -0.000604 0.000000 0.000000 0.000000
# 2 -0.008764 0.021762 -0.004639 0.000000 0.000000 0.000000
# 3 -0.000604 -0.004639 0.007827 0.000000 0.000000 0.000000
# 4 0.000000 0.000000 0.000000 0.729449 0.000000 0.000000
# 5 0.000000 0.000000 0.000000 0.000000 -0.016348 0.000000
# 6 0.000000 0.000000 0.000000 0.000000 0.000000 0.106505
#
#
# Mechanical properties :
#
#
# Convention : Reuss Voigt Hill
#
# Bulk Modulus (GPa) = 48.08793 54.48136 51.28465
# Shear Modulus (GPa) = 5.53488 2.65512 4.09500
#
# Velocity S-wave (km/s) = 1.87517 1.29876 1.61293
# Velocity P-wave (km/s) = 5.93619 6.07131 6.00413
#
# Compressibility (1/GPa) = 0.02079524
#
# Stress axis : x y z
#
# Youngs Moduli (GPa) = 52.02667 45.95185 127.76518
#
# Poissons Ratio (x) = 0.40271 0.07723
# Poissons Ratio (y) = 0.45595 0.59270
# Poissons Ratio (z) = 0.03145 0.21317
#
# Static dielectric constant tensor:
#      x y z
#    x 1.563300 0.000000 0.000000 
#    y 0.000000 1.480170 0.000000 
#    z 0.000000 0.000000 1.586960 
# 
# From -- ./inp_files/29312.got.cif
#   From: 2010.05.17/outbox.cif.g08.bks.cpg/sg47_15_cif.got.tgz:29312.got - 2010.06.03 20:15:42.
