data_PCOD9388872
_publ_section_title
;
Structure prediction by ZEFSAII (Michael W. Deem and Ramdas Pophale) SiO2 
 PCOD9388872
Probable space group: P M M M
;
_chemical_formula_sum "Si O2"
_cell_formula_units_Z 56
_cell_length_a 30.574238
_cell_length_b 7.342536
_cell_length_c 14.317820
_cell_angle_alpha 90.000000
_cell_angle_beta 90.000000
_cell_angle_gamma 90.000000
_cell_volume 3214.242393
_symmetry_space_group_name_H-M "P M M M"
_symmetry_group_IT_number 47
_symmetry_cell_setting 'orthorhombic'
loop_
_space_group_symop_operation_xyz
x,y,z
-x,-y,z
x,-y,-z
-x,y,-z
-x,-y,-z
x,y,-z
-x,y,z
x,-y,z
loop_
_atom_site_type_symbol
_atom_site_label
_atom_site_fract_x
_atom_site_fract_y
_atom_site_fract_z
Si Si1 0.046987 0.718454 0.108311
Si Si2 0.683624 0.221666 0.894689
Si Si3 0.450905 0.778205 0.607959
Si Si4 0.364842 0.778175 0.711853
Si Si5 0.228451 0.221938 0.211707
Si Si6 0.856676 0.785049 0.106651
Si Si7 0.723021 0.778153 0.394515
O O1 0.045757 0.500000 0.107040
O O2 0.094439 0.765973 0.147626
O O3 0.000000 0.780579 0.148425
O O4 0.047980 0.781354 0.000000
O O5 0.648981 0.279273 0.815913
O O6 0.731632 0.273667 0.856771
O O7 0.683093 0.000000 0.895800
O O8 0.675904 0.283914 0.000000
O O9 0.443302 0.725315 0.500000
O O10 0.500000 0.720911 0.634784
O O11 0.411391 0.716325 0.673189
O O12 0.450674 0.000000 0.609265
O O13 0.324974 0.725295 0.643445
O O14 0.365426 0.000000 0.711958
O O15 0.182413 0.286566 0.170731
O O16 0.242260 0.280015 0.315779
O O17 0.227837 0.000000 0.213732
O O18 0.848838 0.000000 0.098195
O O19 0.855899 0.710603 0.000000
O O20 0.730762 0.716579 0.500000
O O21 0.723431 0.000000 0.395504
#
# Coordination Sequence:
#
# PCOD9388872 Si02
#       7
#     8   8   8   8   8   8   8
#     4   8  14  24  35  46  63  88 114 136 158 185
#     4   8  12  17  24  32  44  64  87 109 135 170
#     4   8  12  16  21  28  37  49  68 101 146 187
#     4   8  12  16  22  31  41  56  81 110 138 175
#     4   8  13  19  26  39  58  76  94 117 145 178
#     4   9  15  21  31  47  66  87 108 130 156 186
#     4   8  12  17  25  36  51  71  91 111 140 181
#
# _framework density 17.422457000000001
#
# number of rings (size 3 to 8) (size 9 to 14) (size 15 to 20)
#    0.000    3.857    0.000    3.429    0.000    3.714 
#    0.000    1.429    0.000    0.429    0.000    3.000 
#    0.000    1.143    0.000    7.143    0.000    1.429 
#
# Total GULP energy -311823.382033 kJ/mol
# GULP energy per Si atom -5568.274679 kJ/mol
# Density = 1.738280 g / cm^3
# Si number density = 17.422457 Si / 1000 Ang^3
#
#
#
# Elastic Constant Matrix: (Units=GPa)
#
#
# Indices 1 2 3 4 5 6 
#
# 1 185.5744 3.9006 96.0458 0.0000 0.0000 0.0000
# 2 3.9006 64.0717 4.9577 0.0000 0.0000 0.0000
# 3 96.0458 4.9577 131.7916 0.0000 0.0000 0.0000
# 4 0.0000 0.0000 0.0000 -11.0820 0.0000 0.0000
# 5 0.0000 0.0000 0.0000 0.0000 23.1740 0.0000
# 6 0.0000 0.0000 0.0000 0.0000 0.0000 48.6077
#
#
#
# Elastic Compliance Matrix: (Units=1/GPa)
#
#
# Indices 1 2 3 4 5 6 
#
# 1 0.008652 -0.000039 -0.006304 0.000000 0.000000 0.000000
# 2 -0.000039 0.015653 -0.000560 0.000000 0.000000 0.000000
# 3 -0.006304 -0.000560 0.012203 0.000000 0.000000 0.000000
# 4 0.000000 0.000000 0.000000 -0.090237 0.000000 0.000000
# 5 0.000000 0.000000 0.000000 0.000000 0.043152 0.000000
# 6 0.000000 0.000000 0.000000 0.000000 0.000000 0.020573
#
#
# Mechanical properties :
#
#
# Convention : Reuss Voigt Hill
#
# Bulk Modulus (GPa) = 44.04970 65.69399 54.87184
# Shear Modulus (GPa) = 159.38642 30.57552 94.98097
#
# Velocity S-wave (km/s) = 9.57507 4.19376 7.39153
# Velocity P-wave (km/s) = 12.14828 7.82550 10.21810
#
# Compressibility (1/GPa) = 0.02270163
#
# Stress axis : x y z
#
# Youngs Moduli (GPa) = 115.57784 63.88447 81.94724
#
# Poissons Ratio (x) = 0.00249 0.51659
# Poissons Ratio (y) = 0.00450 0.04593
# Poissons Ratio (z) = 0.72860 0.03580
#
# Static dielectric constant tensor:
#      x y z
#    x 1.608160 0.000000 0.000000 
#    y 0.000000 1.693920 0.000000 
#    z 0.000000 0.000000 1.570360 
# 
# From -- ./inp_files/14217.got.cif
#   From: 2010.05.17/outbox.cif.g08.bks.cpg/sg47_8_cif.got.tgz:14217.got - 2010.06.03 20:15:42.
