data_PCOD9388460
_publ_section_title
;
Structure prediction by ZEFSAII (Michael W. Deem and Ramdas Pophale) SiO2 
 PCOD9388460
Probable space group: P M M M
;
_chemical_formula_sum "Si O2"
_cell_formula_units_Z 56
_cell_length_a 21.937874
_cell_length_b 14.382472
_cell_length_c 8.815381
_cell_angle_alpha 90.000000
_cell_angle_beta 90.000000
_cell_angle_gamma 90.000000
_cell_volume 2781.436582
_symmetry_space_group_name_H-M "P M M M"
_symmetry_group_IT_number 47
_symmetry_cell_setting 'orthorhombic'
loop_
_space_group_symop_operation_xyz
x,y,z
-x,-y,z
x,-y,-z
-x,y,-z
-x,-y,-z
x,y,-z
-x,y,z
x,-y,z
loop_
_atom_site_type_symbol
_atom_site_label
_atom_site_fract_x
_atom_site_fract_y
_atom_site_fract_z
Si Si1 0.068015 0.704399 0.820763
Si Si2 0.567194 0.706230 0.180699
Si Si3 0.684809 0.611011 0.675092
Si Si4 0.751658 0.105008 0.318374
Si Si5 0.072834 0.897214 0.328880
Si Si6 0.606980 0.106116 0.318757
Si Si7 0.801193 0.707552 0.182123
O O1 0.078954 0.813859 0.788460
O O2 0.133190 0.665817 0.764421
O O3 0.000000 0.680521 0.757351
O O4 0.064762 0.686602 0.000000
O O5 0.500000 0.671255 0.226122
O O6 0.622954 0.652860 0.257354
O O7 0.572822 0.813640 0.230072
O O8 0.572799 0.698695 0.000000
O O9 0.689934 0.641295 0.500000
O O10 0.682670 0.500000 0.682315
O O11 0.743946 0.648335 0.761848
O O12 0.759239 0.108367 0.500000
O O13 0.679431 0.118355 0.289076
O O14 0.788970 0.188230 0.244054
O O15 0.766712 0.000000 0.267517
O O16 0.095582 0.874064 0.500000
O O17 0.000000 0.905304 0.342513
O O18 0.095851 0.000000 0.287234
O O19 0.597648 0.116782 0.500000
O O20 0.590459 0.000000 0.278723
O O21 0.802145 0.710501 0.000000
#
# Coordination Sequence:
#
# PCOD9388460 Si02
#       7
#     8   8   8   8   8   8   8
#     4   9  19  34  50  73 108 147 185 227 280 344
#     4  11  24  40  61  93 130 163 195 237 289 340
#     4  11  25  45  68  91 115 147 190 239 292 353
#     4   9  18  33  54  81 115 156 200 245 291 340
#     4   8  14  25  41  63  94 135 184 232 274 320
#     4   9  18  34  57  85 120 165 211 248 284 331
#     4  11  22  36  59  88 116 150 193 242 295 349
#
# _framework density 20.133482000000001
#
# number of rings (size 3 to 8) (size 9 to 14) (size 15 to 20)
#    0.000    2.286    1.429    2.571    0.000    5.429 
#    0.000    8.571    0.000    0.429    0.000    3.000 
#    0.000    0.000    0.000    0.000    0.000    0.000 
#
# Total GULP energy -312327.247332 kJ/mol
# GULP energy per Si atom -5577.272274 kJ/mol
# Density = 2.008766 g / cm^3
# Si number density = 20.133482 Si / 1000 Ang^3
#
#
#
# Elastic Constant Matrix: (Units=GPa)
#
#
# Indices 1 2 3 4 5 6 
#
# 1 160.8388 36.9925 36.8685 0.0000 0.0000 0.0000
# 2 36.9925 36.8759 14.3942 0.0000 0.0000 0.0000
# 3 36.8685 14.3942 32.6571 0.0000 0.0000 0.0000
# 4 0.0000 0.0000 0.0000 828.9021 0.0000 0.0000
# 5 0.0000 0.0000 0.0000 0.0000 -16.0380 0.0000
# 6 0.0000 0.0000 0.0000 0.0000 0.0000 -5.9470
#
#
#
# Elastic Compliance Matrix: (Units=1/GPa)
#
#
# Indices 1 2 3 4 5 6 
#
# 1 0.009513 -0.006463 -0.007891 0.000000 0.000000 0.000000
# 2 -0.006463 0.037144 -0.009076 0.000000 0.000000 0.000000
# 3 -0.007891 -0.009076 0.043530 0.000000 0.000000 0.000000
# 4 0.000000 0.000000 0.000000 0.001206 0.000000 0.000000
# 5 0.000000 0.000000 0.000000 0.000000 -0.062352 0.000000
# 6 0.000000 0.000000 0.000000 0.000000 0.000000 -0.168151
#
#
# Mechanical properties :
#
#
# Convention : Reuss Voigt Hill
#
# Bulk Modulus (GPa) = 23.07985 45.20914 34.14449
# Shear Modulus (GPa) = -64.25946 170.85785 53.29920
#
# Velocity S-wave (km/s) = -5.65562 9.22208 5.15077
# Velocity P-wave (km/s) = 5.58209 11.65758 7.23669
#
# Compressibility (1/GPa) = 0.04332784
#
# Stress axis : x y z
#
# Youngs Moduli (GPa) = 105.12431 26.92252 22.97266
#
# Poissons Ratio (x) = 0.17399 0.18127
# Poissons Ratio (y) = 0.67937 0.20850
# Poissons Ratio (z) = 0.82952 0.24434
#
# Static dielectric constant tensor:
#      x y z
#    x 1.786840 0.000000 0.000000 
#    y 0.000000 1.711770 0.000000 
#    z 0.000000 0.000000 1.683760 
# 
# From -- ./inp_files/11250.got.cif
#   From: 2010.05.17/outbox.cif.g08.bks.cpg/sg47_6_cif.got.tgz:11250.got - 2010.06.03 20:15:42.
