data_PCOD9388233
_publ_section_title
;
Structure prediction by ZEFSAII (Michael W. Deem and Ramdas Pophale) SiO2 
 PCOD9388233
Probable space group: P M M M
;
_chemical_formula_sum "Si O2"
_cell_formula_units_Z 44
_cell_length_a 14.178461
_cell_length_b 22.202679
_cell_length_c 7.904347
_cell_angle_alpha 90.000000
_cell_angle_beta 90.000000
_cell_angle_gamma 90.000000
_cell_volume 2488.286999
_symmetry_space_group_name_H-M "P M M M"
_symmetry_group_IT_number 47
_symmetry_cell_setting 'orthorhombic'
loop_
_space_group_symop_operation_xyz
x,y,z
-x,-y,z
x,-y,-z
-x,y,-z
-x,-y,-z
x,y,-z
-x,y,z
x,-y,z
loop_
_atom_site_type_symbol
_atom_site_label
_atom_site_fract_x
_atom_site_fract_y
_atom_site_fract_z
Si Si1 0.395477 0.374559 0.198639
Si Si2 0.894868 0.688866 0.795240
Si Si3 0.385252 0.000000 0.196745
Si Si4 0.391397 0.869108 0.795219
Si Si5 0.701550 0.745562 0.303059
Si Si6 0.203726 0.432830 0.792873
O O1 0.500000 0.382327 0.272831
O O2 0.361151 0.305339 0.211254
O O3 0.308815 0.414196 0.266982
O O4 0.401520 0.389483 0.000000
O O5 0.810510 0.731831 0.737105
O O6 0.865429 0.621143 0.741627
O O7 0.000000 0.704113 0.736649
O O8 0.894550 0.689689 0.000000
O O9 0.357998 0.065126 0.269379
O O10 0.500000 0.000000 0.197378
O O11 0.355124 0.000000 0.000000
O O12 0.500000 0.859572 0.739542
O O13 0.329518 0.812445 0.744254
O O14 0.392892 0.872324 0.000000
O O15 0.685080 0.735932 0.500000
O O16 0.178379 0.500000 0.738312
O O17 0.204698 0.432510 0.000000
#
# Coordination Sequence:
#
# PCOD9388233 Si02
#       6
#     8   8   4   8   8   8
#     4   9  17  29  44  62  87 120 155 187 218 256
#     4   9  18  33  51  68  86 110 143 184 229 276
#     4   7  12  24  43  67  92 121 156 187 213 246
#     4   9  16  28  47  69  95 126 157 186 215 251
#     4  11  21  30  43  65  92 120 151 186 224 266
#     4   8  14  25  43  69  94 110 133 177 230 277
#
# _framework density 17.682846999999999
#
# number of rings (size 3 to 8) (size 9 to 14) (size 15 to 20)
#    0.000    3.000    0.000    4.364    0.000    4.000 
#    0.000    4.091    0.000   10.364    0.000   10.818 
#    0.000    5.091    0.000    0.000    0.000    0.000 
#
# Total GULP energy -245129.597117 kJ/mol
# GULP energy per Si atom -5571.127207 kJ/mol
# Density = 1.764260 g / cm^3
# Si number density = 17.682847 Si / 1000 Ang^3
#
#
#
# Elastic Constant Matrix: (Units=GPa)
#
#
# Indices 1 2 3 4 5 6 
#
# 1 72.2466 28.5863 0.6381 0.0000 0.0000 0.0000
# 2 28.5863 115.6954 -4.6851 0.0000 0.0000 0.0000
# 3 0.6381 -4.6851 19.3418 0.0000 0.0000 0.0000
# 4 0.0000 0.0000 0.0000 -24.2378 0.0000 0.0000
# 5 0.0000 0.0000 0.0000 0.0000 -12.8143 0.0000
# 6 0.0000 0.0000 0.0000 0.0000 0.0000 10.6588
#
#
#
# Elastic Compliance Matrix: (Units=1/GPa)
#
#
# Indices 1 2 3 4 5 6 
#
# 1 0.015381 -0.003859 -0.001442 0.000000 0.000000 0.000000
# 2 -0.003859 0.009697 0.002476 0.000000 0.000000 0.000000
# 3 -0.001442 0.002476 0.052349 0.000000 0.000000 0.000000
# 4 0.000000 0.000000 0.000000 -0.041258 0.000000 0.000000
# 5 0.000000 0.000000 0.000000 0.000000 -0.078038 0.000000
# 6 0.000000 0.000000 0.000000 0.000000 0.000000 0.093819
#
#
# Mechanical properties :
#
#
# Convention : Reuss Voigt Hill
#
# Bulk Modulus (GPa) = 13.93194 28.48470 21.20832
# Shear Modulus (GPa) = 61.33049 6.90433 34.11741
#
# Velocity S-wave (km/s) = 5.89567 1.97813 4.39727
# Velocity P-wave (km/s) = 7.36485 4.62179 6.14825
#
# Compressibility (1/GPa) = 0.07177753
#
# Stress axis : x y z
#
# Youngs Moduli (GPa) = 65.01509 103.12367 19.10263
#
# Poissons Ratio (x) = 0.39793 0.02755
# Poissons Ratio (y) = 0.25088 -0.04730
# Poissons Ratio (z) = 0.09376 -0.25536
#
# Static dielectric constant tensor:
#      x y z
#    x 1.598120 0.000000 0.000000 
#    y 0.000000 1.616780 0.000000 
#    z 0.000000 0.000000 1.643110 
# 
# From -- ./inp_files/6798.got.cif
#   From: 2010.05.17/outbox.cif.g08.bks.cpg/sg47_4_cif.got.tgz:6798.got - 2010.06.03 20:15:42.
