data_PCOD9388136
_publ_section_title
;
Structure prediction by ZEFSAII (Michael W. Deem and Ramdas Pophale) SiO2 
 PCOD9388136
Probable space group: P M M M
;
_chemical_formula_sum "Si O2"
_cell_formula_units_Z 46
_cell_length_a 9.010743
_cell_length_b 25.997689
_cell_length_c 12.095742
_cell_angle_alpha 90.000000
_cell_angle_beta 90.000000
_cell_angle_gamma 90.000000
_cell_volume 2833.530307
_symmetry_space_group_name_H-M "P M M M"
_symmetry_group_IT_number 47
_symmetry_cell_setting 'orthorhombic'
loop_
_space_group_symop_operation_xyz
x,y,z
-x,-y,z
x,-y,-z
-x,y,-z
-x,-y,-z
x,y,-z
-x,y,z
x,-y,z
loop_
_atom_site_type_symbol
_atom_site_label
_atom_site_fract_x
_atom_site_fract_y
_atom_site_fract_z
Si Si1 0.672528 0.395975 0.365740
Si Si2 0.319463 0.113151 0.500000
Si Si3 0.665681 0.000000 0.242485
Si Si4 0.171626 0.500000 0.365518
Si Si5 0.277953 0.000000 0.500000
Si Si6 0.678430 0.281434 0.632380
Si Si7 0.823270 0.905130 0.126665
Si Si8 0.176557 0.177929 0.303471
O O1 0.680088 0.395720 0.500000
O O2 0.500000 0.400374 0.336101
O O3 0.755523 0.446845 0.326268
O O4 0.725311 0.339046 0.332297
O O5 0.500000 0.103167 0.500000
O O6 0.225443 0.059755 0.500000
O O7 0.270512 0.146151 0.394235
O O8 0.748389 0.050229 0.198174
O O9 0.500000 0.000000 0.197486
O O10 0.656975 0.000000 0.375514
O O11 0.185696 0.500000 0.500000
O O12 0.000000 0.500000 0.337955
O O13 0.704701 0.276255 0.500000
O O14 0.500000 0.276968 0.647878
O O15 0.764997 0.235948 0.692027
O O16 0.799008 0.850989 0.187610
O O17 0.000000 0.914660 0.126763
O O18 0.771329 0.906021 0.000000
O O19 0.000000 0.175740 0.329279
#
# Coordination Sequence:
#
# PCOD9388136 Si02
#       8
#     8   4   4   4   2   8   8   8
#     4   8  14  24  37  53  77 115 159 191 224 277
#     4  12  22  37  54  71 100 130 151 185 243 296
#     4  12  23  38  58  81 102 123 157 195 233 284
#     4   9  15  21  31  51  79 113 154 199 240 263
#     4  12  25  38  55  80 107 130 149 188 249 290
#     4   9  17  29  45  65  91 125 156 191 242 288
#     4  10  23  42  57  71  97 130 159 192 240 290
#     4  11  22  34  51  75  95 121 160 199 236 284
#
# _framework density 16.234165999999998
#
# number of rings (size 3 to 8) (size 9 to 14) (size 15 to 20)
#    0.000    2.000    2.609    3.391    0.000    3.826 
#    0.000    3.478    0.000    0.000    0.000    0.000 
#    0.000    0.000    0.000    0.783    0.000   15.913 
#
# Total GULP energy -256168.115823 kJ/mol
# GULP energy per Si atom -5568.872083 kJ/mol
# Density = 1.619722 g / cm^3
# Si number density = 16.234166 Si / 1000 Ang^3
#
#
#
# Elastic Constant Matrix: (Units=GPa)
#
#
# Indices 1 2 3 4 5 6 
#
# 1 41.9401 55.1296 26.0243 0.0000 0.0000 0.0000
# 2 55.1296 169.0147 33.6580 0.0000 0.0000 0.0000
# 3 26.0243 33.6580 68.5598 0.0000 0.0000 0.0000
# 4 0.0000 0.0000 0.0000 3.3256 0.0000 0.0000
# 5 0.0000 0.0000 0.0000 0.0000 -2.6912 0.0000
# 6 0.0000 0.0000 0.0000 0.0000 0.0000 25.7000
#
#
#
# Elastic Compliance Matrix: (Units=1/GPa)
#
#
# Indices 1 2 3 4 5 6 
#
# 1 0.049266 -0.013683 -0.011983 0.000000 0.000000 0.000000
# 2 -0.013683 0.010358 0.000109 0.000000 0.000000 0.000000
# 3 -0.011983 0.000109 0.019081 0.000000 0.000000 0.000000
# 4 0.000000 0.000000 0.000000 0.300697 0.000000 0.000000
# 5 0.000000 0.000000 0.000000 0.000000 -0.371576 0.000000
# 6 0.000000 0.000000 0.000000 0.000000 0.000000 0.038911
#
#
# Mechanical properties :
#
#
# Convention : Reuss Voigt Hill
#
# Bulk Modulus (GPa) = 36.24516 56.57094 46.40805
# Shear Modulus (GPa) = 46.70795 16.24704 31.47750
#
# Velocity S-wave (km/s) = 5.36972 3.16696 4.40815
# Velocity P-wave (km/s) = 7.79872 6.94949 7.38632
#
# Compressibility (1/GPa) = 0.02758989
#
# Stress axis : x y z
#
# Youngs Moduli (GPa) = 20.29814 96.54176 52.40830
#
# Poissons Ratio (x) = 1.32101 0.62801
# Poissons Ratio (y) = 0.27774 -0.00570
# Poissons Ratio (z) = 0.24323 -0.01051
#
# Static dielectric constant tensor:
#      x y z
#    x 1.550780 0.000000 0.000000 
#    y 0.000000 1.566170 0.000000 
#    z 0.000000 0.000000 1.513480 
# 
# From -- ./inp_files/15350.got.cif
#   From: 2010.05.17/outbox.cif.g08.bks.cpg/sg47_8_cif.got.tgz:15350.got - 2010.06.03 20:15:42.
