data_PCOD9388744
_publ_section_title
;
Structure prediction by ZEFSAII (Michael W. Deem and Ramdas Pophale) SiO2 
 PCOD9388744
Probable space group: P M M M
;
_chemical_formula_sum "Si O2"
_cell_formula_units_Z 60
_cell_length_a 7.523262
_cell_length_b 21.881048
_cell_length_c 17.808323
_cell_angle_alpha 90.000000
_cell_angle_beta 90.000000
_cell_angle_gamma 90.000000
_cell_volume 2931.550160
_symmetry_space_group_name_H-M "P M M M"
_symmetry_group_IT_number 47
_symmetry_cell_setting 'orthorhombic'
loop_
_space_group_symop_operation_xyz
x,y,z
-x,-y,z
x,-y,-z
-x,y,-z
-x,-y,-z
x,y,-z
-x,y,z
x,-y,z
loop_
_atom_site_type_symbol
_atom_site_label
_atom_site_fract_x
_atom_site_fract_y
_atom_site_fract_z
Si Si1 0.212638 0.299849 0.085496
Si Si2 0.717306 0.631167 0.587455
Si Si3 0.794770 0.190777 0.186192
Si Si4 0.286670 0.566210 0.912679
Si Si5 0.711443 0.500000 0.408895
Si Si6 0.715799 0.241308 0.347465
Si Si7 0.211380 0.067184 0.253172
Si Si8 0.285957 0.115820 0.418023
O O1 0.284268 0.241003 0.129844
O O2 0.242447 0.367353 0.120621
O O3 0.000000 0.293335 0.082548
O O4 0.281740 0.300813 0.000000
O O5 0.766439 0.635623 0.500000
O O6 0.500000 0.630502 0.589673
O O7 0.780701 0.565487 0.617737
O O8 0.776518 0.691969 0.628542
O O9 0.789931 0.222791 0.267220
O O10 0.715146 0.123847 0.204232
O O11 0.000000 0.181061 0.163276
O O12 0.500000 0.564100 0.913696
O O13 0.225830 0.500000 0.881131
O O14 0.224454 0.567917 0.000000
O O15 0.500000 0.500000 0.393793
O O16 0.730318 0.500000 0.500000
O O17 0.500000 0.241505 0.342906
O O18 0.763890 0.186858 0.404608
O O19 0.231788 0.081285 0.342093
O O20 0.000000 0.066098 0.239640
O O21 0.284369 0.000000 0.236600
O O22 0.221491 0.094560 0.500000
O O23 0.500000 0.112614 0.419382
#
# Coordination Sequence:
#
# PCOD9388744 Si02
#       8
#     8   8   8   8   4   8   8   8
#     4   9  17  29  47  69  89 113 147 184 219 258
#     4   8  12  19  34  56  80 105 135 173 212 245
#     4   9  18  32  47  63  86 113 140 176 218 260
#     4   8  14  25  42  66  95 121 142 170 211 254
#     4   7  10  16  28  50  77 101 128 167 212 246
#     4   9  16  26  42  62  83 111 144 176 210 255
#     4   9  18  32  48  64  84 115 150 178 212 263
#     4   9  17  28  42  63  90 115 142 180 222 258
#
# _framework density 20.466987
#
# number of rings (size 3 to 8) (size 9 to 14) (size 15 to 20)
#    0.000    3.400    0.000    1.600    0.000    3.200 
#    0.000    2.667    1.467    1.600    0.000    2.800 
#    0.000    1.600    0.000   10.000    0.000   10.400 
#
# Total GULP energy -334028.838945 kJ/mol
# GULP energy per Si atom -5567.147316 kJ/mol
# Density = 2.042040 g / cm^3
# Si number density = 20.466987 Si / 1000 Ang^3
#
#
#
# Elastic Constant Matrix: (Units=GPa)
#
#
# Indices 1 2 3 4 5 6 
#
# 1 51.1038 9.8136 0.4404 0.0000 0.0000 0.0000
# 2 9.8136 218.9837 48.5670 0.0000 0.0000 0.0000
# 3 0.4404 48.5670 38.1119 0.0000 0.0000 0.0000
# 4 0.0000 0.0000 0.0000 14.7165 0.0000 0.0000
# 5 0.0000 0.0000 0.0000 0.0000 8.2277 0.0000
# 6 0.0000 0.0000 0.0000 0.0000 0.0000 16.6158
#
#
#
# Elastic Compliance Matrix: (Units=1/GPa)
#
#
# Indices 1 2 3 4 5 6 
#
# 1 0.019781 -0.001165 0.001256 0.000000 0.000000 0.000000
# 2 -0.001165 0.006434 -0.008186 0.000000 0.000000 0.000000
# 3 0.001256 -0.008186 0.036655 0.000000 0.000000 0.000000
# 4 0.000000 0.000000 0.000000 0.067951 0.000000 0.000000
# 5 0.000000 0.000000 0.000000 0.000000 0.121540 0.000000
# 6 0.000000 0.000000 0.000000 0.000000 0.000000 0.060184
#
#
# Mechanical properties :
#
#
# Convention : Reuss Voigt Hill
#
# Bulk Modulus (GPa) = 21.42203 47.31572 34.36887
# Shear Modulus (GPa) = 14.52239 24.53722 19.52980
#
# Velocity S-wave (km/s) = 2.66663 3.46622 3.09238
# Velocity P-wave (km/s) = 4.46884 6.26002 5.43868
#
# Compressibility (1/GPa) = 0.04668093
#
# Stress axis : x y z
#
# Youngs Moduli (GPa) = 50.55374 155.41830 27.28109
#
# Poissons Ratio (x) = 0.18107 -0.03427
# Poissons Ratio (y) = 0.05890 0.22332
# Poissons Ratio (z) = -0.06350 1.27223
#
# Static dielectric constant tensor:
#      x y z
#    x 1.788690 0.000000 0.000000 
#    y 0.000000 1.798150 0.000000 
#    z 0.000000 0.000000 1.705460 
# 
# From -- ./inp_files/26984.got.cif
#   From: 2010.05.17/outbox.cif.g08.bks.cpg/sg47_14_cif.got.tgz:26984.got - 2010.06.03 20:15:42.
