data_PCOD9388024
_publ_section_title
;
Structure prediction by ZEFSAII (Michael W. Deem and Ramdas Pophale) SiO2 
 PCOD9388024
Probable space group: P M M M
;
_chemical_formula_sum "Si O2"
_cell_formula_units_Z 36
_cell_length_a 15.260274
_cell_length_b 7.560914
_cell_length_c 14.098993
_cell_angle_alpha 90.000000
_cell_angle_beta 90.000000
_cell_angle_gamma 90.000000
_cell_volume 1626.764643
_symmetry_space_group_name_H-M "P M M M"
_symmetry_group_IT_number 47
_symmetry_cell_setting 'orthorhombic'
loop_
_space_group_symop_operation_xyz
x,y,z
-x,-y,z
x,-y,-z
-x,y,-z
-x,-y,-z
x,y,-z
-x,y,z
x,-y,z
loop_
_atom_site_type_symbol
_atom_site_label
_atom_site_fract_x
_atom_site_fract_y
_atom_site_fract_z
Si Si1 0.405192 0.711087 0.384855
Si Si2 0.787099 0.285715 0.608929
Si Si3 0.097319 0.792234 0.218171
Si Si4 0.732107 0.204670 0.885979
Si Si5 0.598633 0.500000 0.115656
O O1 0.404680 0.729798 0.500000
O O2 0.500000 0.782207 0.351428
O O3 0.405539 0.500000 0.365968
O O4 0.308961 0.778573 0.355660
O O5 0.798694 0.230932 0.500000
O O6 0.784922 0.500000 0.610820
O O7 0.865239 0.225688 0.675946
O O8 0.176274 0.721663 0.153755
O O9 0.000000 0.716359 0.207544
O O10 0.091609 0.000000 0.194629
O O11 0.652466 0.327976 0.854421
O O12 0.720956 0.000000 0.857715
O O13 0.735235 0.209775 0.000000
O O14 0.500000 0.500000 0.150502
O O15 0.596256 0.500000 0.000000
#
# Coordination Sequence:
#
# PCOD9388024 Si02
#       5
#     8   8   8   8   4
#     4   7  10  20  41  67  93 123 161 205 255 312
#     4   9  18  32  51  76 106 141 182 230 282 336
#     4  10  22  38  55  76 104 144 191 237 288 341
#     4   9  19  37  60  86 118 153 189 234 286 340
#     4   9  18  34  59  91 122 153 191 229 273 339
#
# _framework density 22.129816000000002
#
# number of rings (size 3 to 8) (size 9 to 14) (size 15 to 20)
#    0.000    3.222    0.000    2.000    1.556    2.222 
#    0.000    7.778    0.000    4.000    0.000    3.111 
#    0.000    0.000    0.000    0.000    0.000    0.000 
#
# Total GULP energy -200912.203586 kJ/mol
# GULP energy per Si atom -5580.894544 kJ/mol
# Density = 2.207945 g / cm^3
# Si number density = 22.129816 Si / 1000 Ang^3
#
#
#
# Elastic Constant Matrix: (Units=GPa)
#
#
# Indices 1 2 3 4 5 6 
#
# 1 222.4632 59.2358 26.8395 0.0000 0.0000 0.0000
# 2 59.2358 73.6719 18.2011 0.0000 0.0000 0.0000
# 3 26.8395 18.2011 54.4911 0.0000 0.0000 0.0000
# 4 0.0000 0.0000 0.0000 16.4898 0.0000 0.0000
# 5 0.0000 0.0000 0.0000 0.0000 28.5068 0.0000
# 6 0.0000 0.0000 0.0000 0.0000 0.0000 20.7295
#
#
#
# Elastic Compliance Matrix: (Units=1/GPa)
#
#
# Indices 1 2 3 4 5 6 
#
# 1 0.005819 -0.004328 -0.001421 0.000000 0.000000 0.000000
# 2 -0.004328 0.018013 -0.003885 0.000000 0.000000 0.000000
# 3 -0.001421 -0.003885 0.020349 0.000000 0.000000 0.000000
# 4 0.000000 0.000000 0.000000 0.060643 0.000000 0.000000
# 5 0.000000 0.000000 0.000000 0.000000 0.035079 0.000000
# 6 0.000000 0.000000 0.000000 0.000000 0.000000 0.048240
#
#
# Mechanical properties :
#
#
# Convention : Reuss Voigt Hill
#
# Bulk Modulus (GPa) = 40.13756 62.13099 51.13427
# Shear Modulus (GPa) = 23.17863 29.56855 26.37359
#
# Velocity S-wave (km/s) = 3.23986 3.65929 3.45594
# Velocity P-wave (km/s) = 5.67206 6.78163 6.25151
#
# Compressibility (1/GPa) = 0.02491432
#
# Stress axis : x y z
#
# Youngs Moduli (GPa) = 171.85518 55.51475 49.14239
#
# Poissons Ratio (x) = 0.24025 0.06981
# Poissons Ratio (y) = 0.74374 0.19093
# Poissons Ratio (z) = 0.24413 0.21568
#
# Static dielectric constant tensor:
#      x y z
#    x 1.824430 0.000000 0.000000 
#    y 0.000000 1.831100 0.000000 
#    z 0.000000 0.000000 1.837750 
# 
# From -- ./inp_files/20570.got.cif
#   From: 2010.05.17/outbox.cif.g08.bks.cpg/sg47_11_cif.got.tgz:20570.got - 2010.06.03 20:15:42.
