data_PCOD9388159
_publ_section_title
;
Structure prediction by ZEFSAII (Michael W. Deem and Ramdas Pophale) SiO2 
 PCOD9388159
Probable space group: P M M M
;
_chemical_formula_sum "Si O2"
_cell_formula_units_Z 46
_cell_length_a 7.695702
_cell_length_b 30.265562
_cell_length_c 11.816594
_cell_angle_alpha 90.000000
_cell_angle_beta 90.000000
_cell_angle_gamma 90.000000
_cell_volume 2752.258990
_symmetry_space_group_name_H-M "P M M M"
_symmetry_group_IT_number 47
_symmetry_cell_setting 'orthorhombic'
loop_
_space_group_symop_operation_xyz
x,y,z
-x,-y,z
x,-y,-z
-x,y,-z
-x,-y,-z
x,y,-z
-x,y,z
x,-y,z
loop_
_atom_site_type_symbol
_atom_site_label
_atom_site_fract_x
_atom_site_fract_y
_atom_site_fract_z
Si Si1 0.788044 0.784933 0.630096
Si Si2 0.800690 0.116590 0.637760
Si Si3 0.000000 0.551790 0.248765
Si Si4 0.000000 0.588685 0.000000
Si Si5 0.695372 0.339403 0.000000
Si Si6 0.299151 0.391844 0.633979
Si Si7 0.209924 0.302044 0.760923
Si Si8 0.500000 0.949276 0.361937
O O1 0.730768 0.778415 0.500000
O O2 0.738381 0.834093 0.669680
O O3 0.732297 0.744350 0.707649
O O4 0.000000 0.785115 0.628234
O O5 0.802974 0.117048 0.500000
O O6 0.669495 0.078402 0.673680
O O7 0.000000 0.109834 0.674832
O O8 0.000000 0.560800 0.114604
O O9 0.832692 0.575809 0.302552
O O10 0.000000 0.500000 0.273198
O O11 0.166149 0.621108 0.000000
O O12 0.724879 0.310922 0.112752
O O13 0.500000 0.357125 0.000000
O O14 0.262866 0.391801 0.500000
O O15 0.500000 0.404487 0.651711
O O16 0.270959 0.342860 0.683824
O O17 0.000000 0.302985 0.762706
O O18 0.500000 0.949718 0.500000
O O19 0.500000 0.000000 0.324249
#
# Coordination Sequence:
#
# PCOD9388159 Si02
#       8
#     8   8   4   2   4   8   8   4
#     4   8  15  27  47  73 101 134 170 210 258 310
#     4   8  14  26  39  55  86 124 160 205 257 300
#     4  12  26  44  67  87 110 142 180 225 273 312
#     4  12  23  46  64  88 106 140 182 224 267 314
#     4  12  22  37  59  79 108 142 172 215 261 307
#     4  11  23  39  60  87 117 145 176 215 261 321
#     4  11  19  34  57  82 107 141 180 216 258 314
#     4   9  16  24  36  56  82 121 175 219 250 294
#
# _framework density 16.713543000000001
#
# number of rings (size 3 to 8) (size 9 to 14) (size 15 to 20)
#    0.000    2.000    3.478    2.478    0.000    2.087 
#    3.130    2.609    0.000    1.565    0.000    0.000 
#    0.000    0.000    0.000    1.565    0.000   13.913 
#
# Total GULP energy -256688.542158 kJ/mol
# GULP energy per Si atom -5580.185699 kJ/mol
# Density = 1.667550 g / cm^3
# Si number density = 16.713543 Si / 1000 Ang^3
#
#
#
# Elastic Constant Matrix: (Units=GPa)
#
#
# Indices 1 2 3 4 5 6 
#
# 1 96.2230 57.9855 35.8090 0.0000 0.0000 0.0000
# 2 57.9855 158.2851 45.5601 0.0000 0.0000 0.0000
# 3 35.8090 45.5601 79.3879 0.0000 0.0000 0.0000
# 4 0.0000 0.0000 0.0000 -12.0505 0.0000 0.0000
# 5 0.0000 0.0000 0.0000 0.0000 31.2256 0.0000
# 6 0.0000 0.0000 0.0000 0.0000 0.0000 -22.4085
#
#
#
# Elastic Compliance Matrix: (Units=1/GPa)
#
#
# Indices 1 2 3 4 5 6 
#
# 1 0.014396 -0.004078 -0.004153 0.000000 0.000000 0.000000
# 2 -0.004078 0.008723 -0.003167 0.000000 0.000000 0.000000
# 3 -0.004153 -0.003167 0.016287 0.000000 0.000000 0.000000
# 4 0.000000 0.000000 0.000000 -0.082984 0.000000 0.000000
# 5 0.000000 0.000000 0.000000 0.000000 0.032025 0.000000
# 6 0.000000 0.000000 0.000000 0.000000 0.000000 -0.044626
#
#
# Mechanical properties :
#
#
# Convention : Reuss Voigt Hill
#
# Bulk Modulus (GPa) = 60.20394 68.06724 64.13559
# Shear Modulus (GPa) = -179.55087 12.32274 -83.61407
#
# Velocity S-wave (km/s) = -10.37601 2.71826 -7.08070
# Velocity P-wave (km/s) = 10.36579 7.11801 5.32839
#
# Compressibility (1/GPa) = 0.01661021
#
# Stress axis : x y z
#
# Youngs Moduli (GPa) = 69.46546 114.63676 61.39912
#
# Poissons Ratio (x) = 0.46752 0.25498
# Poissons Ratio (y) = 0.28330 0.19443
# Poissons Ratio (z) = 0.28848 0.36301
#
# Static dielectric constant tensor:
#      x y z
#    x 1.594300 0.000000 0.000000 
#    y 0.000000 1.551400 0.000000 
#    z 0.000000 0.000000 1.535390 
# 
# From -- ./inp_files/15435.got.cif
#   From: 2010.05.17/outbox.cif.g08.bks.cpg/sg47_8_cif.got.tgz:15435.got - 2010.06.03 20:15:42.
