data_PCOD9388533
_publ_section_title
;
Structure prediction by ZEFSAII (Michael W. Deem and Ramdas Pophale) SiO2 
 PCOD9388533
Probable space group: P M M M
;
_chemical_formula_sum "Si O2"
_cell_formula_units_Z 44
_cell_length_a 12.723281
_cell_length_b 25.640739
_cell_length_c 9.203851
_cell_angle_alpha 90.000000
_cell_angle_beta 90.000000
_cell_angle_gamma 90.000000
_cell_volume 3002.612140
_symmetry_space_group_name_H-M "P M M M"
_symmetry_group_IT_number 47
_symmetry_cell_setting 'orthorhombic'
loop_
_space_group_symop_operation_xyz
x,y,z
-x,-y,z
x,-y,-z
-x,y,-z
-x,-y,-z
x,y,-z
-x,y,z
x,-y,z
loop_
_atom_site_type_symbol
_atom_site_label
_atom_site_fract_x
_atom_site_fract_y
_atom_site_fract_z
Si Si1 0.875773 0.061793 0.830489
Si Si2 0.500000 0.062591 0.171170
Si Si3 0.627623 0.660195 0.168933
Si Si4 0.626401 0.223170 0.173544
Si Si5 0.627423 0.556974 0.329147
Si Si6 0.306281 0.119775 0.673323
O O1 0.803009 0.095056 0.725772
O O2 0.000000 0.070991 0.810003
O O3 0.856779 0.000000 0.808324
O O4 0.850221 0.073176 0.000000
O O5 0.601747 0.086256 0.249707
O O6 0.500000 0.000000 0.180691
O O7 0.500000 0.077205 0.000000
O O8 0.500000 0.660158 0.177442
O O9 0.659194 0.718174 0.218580
O O10 0.666689 0.609292 0.252683
O O11 0.655227 0.655377 0.000000
O O12 0.500000 0.218429 0.193307
O O13 0.680830 0.178056 0.264585
O O14 0.645697 0.217459 0.000000
O O15 0.650886 0.559371 0.500000
O O16 0.500000 0.557193 0.315598
O O17 0.662957 0.500000 0.272794
O O18 0.317610 0.118506 0.500000
#
# Coordination Sequence:
#
# PCOD9388533 Si02
#       6
#     8   4   8   8   8   8
#     4   9  19  37  58  74  88 113 148 178 210 262
#     4  11  23  37  51  65  87 121 152 177 212 261
#     4   8  14  23  35  51  68  94 134 176 213 245
#     4   9  17  30  45  58  80 115 149 179 214 260
#     4   8  13  20  29  43  65  94 127 165 211 256
#     4  12  23  32  47  72  96 116 142 180 225 266
#
# _framework density 14.653907
#
# number of rings (size 3 to 8) (size 9 to 14) (size 15 to 20)
#    0.000    2.636    0.909    4.636    0.000    4.727 
#    0.000    4.545    0.000    0.000    0.000    0.000 
#    0.000    0.000    0.000    0.000    0.000    0.909 
#
# Total GULP energy -245094.446322 kJ/mol
# GULP energy per Si atom -5570.328325 kJ/mol
# Density = 1.462055 g / cm^3
# Si number density = 14.653907 Si / 1000 Ang^3
#
#
#
# Elastic Constant Matrix: (Units=GPa)
#
#
# Indices 1 2 3 4 5 6 
#
# 1 26.6543 33.7557 30.8426 0.0000 0.0000 0.0000
# 2 33.7557 134.9808 76.6794 0.0000 0.0000 0.0000
# 3 30.8426 76.6794 84.7190 0.0000 0.0000 0.0000
# 4 0.0000 0.0000 0.0000 1461.7344 0.0000 0.0000
# 5 0.0000 0.0000 0.0000 0.0000 11.5029 0.0000
# 6 0.0000 0.0000 0.0000 0.0000 0.0000 0.3837
#
#
#
# Elastic Compliance Matrix: (Units=1/GPa)
#
#
# Indices 1 2 3 4 5 6 
#
# 1 0.067088 -0.005974 -0.019017 0.000000 0.000000 0.000000
# 2 -0.005974 0.015781 -0.012108 0.000000 0.000000 0.000000
# 3 -0.019017 -0.012108 0.029686 0.000000 0.000000 0.000000
# 4 0.000000 0.000000 0.000000 0.000684 0.000000 0.000000
# 5 0.000000 0.000000 0.000000 0.000000 0.086935 0.000000
# 6 0.000000 0.000000 0.000000 0.000000 0.000000 2.606419
#
#
# Mechanical properties :
#
#
# Convention : Reuss Voigt Hill
#
# Bulk Modulus (GPa) = 26.07105 58.76773 42.41939
# Shear Modulus (GPa) = 1.72796 301.72928 151.72862
#
# Velocity S-wave (km/s) = 1.08708 14.36491 10.18657
# Velocity P-wave (km/s) = 4.40516 17.75739 12.93697
#
# Compressibility (1/GPa) = 0.03835672
#
# Stress axis : x y z
#
# Youngs Moduli (GPa) = 14.90574 63.36715 33.68565
#
# Poissons Ratio (x) = 0.37858 0.64058
# Poissons Ratio (y) = 0.08905 0.40788
# Poissons Ratio (z) = 0.28346 0.76728
#
# Static dielectric constant tensor:
#      x y z
#    x 1.457890 0.000000 0.000000 
#    y 0.000000 1.514650 0.000000 
#    z 0.000000 0.000000 1.485700 
# 
# From -- ./inp_files/4330.got.cif
#   From: 2010.05.17/outbox.cif.g08.bks.cpg/sg47_3_cif.got.tgz:4330.got - 2010.06.03 20:15:42.
