data_PCOD9388368
_publ_section_title
;
Structure prediction by ZEFSAII (Michael W. Deem and Ramdas Pophale) SiO2 
 PCOD9388368
Probable space group: P M M M
;
_chemical_formula_sum "Si O2"
_cell_formula_units_Z 48
_cell_length_a 8.720750
_cell_length_b 21.005652
_cell_length_c 14.423669
_cell_angle_alpha 90.000000
_cell_angle_beta 90.000000
_cell_angle_gamma 90.000000
_cell_volume 2642.200378
_symmetry_space_group_name_H-M "P M M M"
_symmetry_group_IT_number 47
_symmetry_cell_setting 'orthorhombic'
loop_
_space_group_symop_operation_xyz
x,y,z
-x,-y,z
x,-y,-z
-x,y,-z
-x,-y,-z
x,y,-z
-x,y,z
x,-y,z
loop_
_atom_site_type_symbol
_atom_site_label
_atom_site_fract_x
_atom_site_fract_y
_atom_site_fract_z
Si Si1 0.315968 0.251988 0.391768
Si Si2 0.813537 0.073818 0.896580
Si Si3 0.815565 0.126248 0.703369
Si Si4 0.318433 0.500000 0.610674
Si Si5 0.680683 0.000000 0.389101
Si Si6 0.315679 0.574965 0.106036
Si Si7 0.817619 0.624487 0.291066
O O1 0.269540 0.254044 0.500000
O O2 0.500000 0.252893 0.388144
O O3 0.254903 0.187887 0.344533
O O4 0.251370 0.312893 0.338036
O O5 0.765869 0.117161 0.810706
O O6 0.000000 0.073836 0.897145
O O7 0.767461 0.000000 0.880534
O O8 0.762436 0.092610 0.000000
O O9 0.000000 0.129868 0.700011
O O10 0.759937 0.062751 0.651477
O O11 0.500000 0.500000 0.631315
O O12 0.298186 0.500000 0.500000
O O13 0.244974 0.562725 0.654773
O O14 0.500000 0.000000 0.365217
O O15 0.693981 0.000000 0.500000
O O16 0.500000 0.580564 0.114652
O O17 0.278104 0.500000 0.120311
O O18 0.235770 0.615910 0.184914
O O19 0.274033 0.591327 0.000000
O O20 0.000000 0.626267 0.296186
#
# Coordination Sequence:
#
# PCOD9388368 Si02
#       7
#     8   8   8   4   4   8   8
#     4  11  25  44  62  80 112 161 204 240 295 363
#     4   8  14  28  53  85 118 149 182 225 282 344
#     4  11  21  36  60  89 115 146 192 246 297 342
#     4  11  23  39  60  85 116 155 197 242 294 355
#     4  11  23  37  54  79 114 154 193 235 288 353
#     4   9  18  35  61  90 121 159 198 237 287 348
#     4  12  24  38  60  91 121 152 194 248 300 347
#
# _framework density 18.166678000000001
#
# number of rings (size 3 to 8) (size 9 to 14) (size 15 to 20)
#    0.000    1.667    1.667    5.000    0.000    7.000 
#    0.000    1.667    0.000    5.500    0.000    0.000 
#    0.000    0.000    0.000    0.000    0.000    0.000 
#
# Total GULP energy -268160.416620 kJ/mol
# GULP energy per Si atom -5586.675346 kJ/mol
# Density = 1.812533 g / cm^3
# Si number density = 18.166678 Si / 1000 Ang^3
#
#
#
# Elastic Constant Matrix: (Units=GPa)
#
#
# Indices 1 2 3 4 5 6 
#
# 1 71.7524 53.0801 68.2887 0.0000 0.0000 0.0000
# 2 53.0801 157.2194 98.7454 0.0000 0.0000 0.0000
# 3 68.2887 98.7454 172.6224 0.0000 0.0000 0.0000
# 4 0.0000 0.0000 0.0000 25.1049 0.0000 0.0000
# 5 0.0000 0.0000 0.0000 0.0000 18.1196 0.0000
# 6 0.0000 0.0000 0.0000 0.0000 0.0000 31.4412
#
#
#
# Elastic Compliance Matrix: (Units=1/GPa)
#
#
# Indices 1 2 3 4 5 6 
#
# 1 0.023371 -0.003252 -0.007385 0.000000 0.000000 0.000000
# 2 -0.003252 0.010380 -0.004651 0.000000 0.000000 0.000000
# 3 -0.007385 -0.004651 0.011375 0.000000 0.000000 0.000000
# 4 0.000000 0.000000 0.000000 0.039833 0.000000 0.000000
# 5 0.000000 0.000000 0.000000 0.000000 0.055189 0.000000
# 6 0.000000 0.000000 0.000000 0.000000 0.000000 0.031805
#
#
# Mechanical properties :
#
#
# Convention : Reuss Voigt Hill
#
# Bulk Modulus (GPa) = 68.73140 93.53583 81.13362
# Shear Modulus (GPa) = 24.11034 27.03181 25.57108
#
# Velocity S-wave (km/s) = 3.64699 3.86163 3.75585
# Velocity P-wave (km/s) = 7.45989 8.45472 7.97284
#
# Compressibility (1/GPa) = 0.01454939
#
# Stress axis : x y z
#
# Youngs Moduli (GPa) = 42.78727 96.34236 87.91118
#
# Poissons Ratio (x) = 0.31331 0.64926
# Poissons Ratio (y) = 0.13915 0.40887
# Poissons Ratio (z) = 0.31600 0.44809
#
# Static dielectric constant tensor:
#      x y z
#    x 1.612700 0.000000 0.000000 
#    y 0.000000 1.579110 0.000000 
#    z 0.000000 0.000000 1.639010 
# 
# From -- ./inp_files/21068.got.cif
#   From: 2010.05.17/outbox.cif.g08.bks.cpg/sg47_11_cif.got.tgz:21068.got - 2010.06.03 20:15:42.
