data_PCOD9388342
_publ_section_title
;
Structure prediction by ZEFSAII (Michael W. Deem and Ramdas Pophale) SiO2 
 PCOD9388342
Probable space group: P M M M
;
_chemical_formula_sum "Si O2"
_cell_formula_units_Z 52
_cell_length_a 10.881012
_cell_length_b 8.812625
_cell_length_c 29.134394
_cell_angle_alpha 90.000000
_cell_angle_beta 90.000000
_cell_angle_gamma 90.000000
_cell_volume 2793.705151
_symmetry_space_group_name_H-M "P M M M"
_symmetry_group_IT_number 47
_symmetry_cell_setting 'orthorhombic'
loop_
_space_group_symop_operation_xyz
x,y,z
-x,-y,z
x,-y,-z
-x,y,-z
-x,-y,-z
x,y,-z
-x,y,z
x,-y,z
loop_
_atom_site_type_symbol
_atom_site_label
_atom_site_fract_x
_atom_site_fract_y
_atom_site_fract_z
Si Si1 0.637868 0.182491 0.888754
Si Si2 0.858328 0.318219 0.280035
Si Si3 0.861639 0.682820 0.946246
Si Si4 0.645674 0.327121 0.550308
Si Si5 0.639175 0.182745 0.219468
Si Si6 0.209306 0.819925 0.622039
Si Si7 0.000000 0.815883 0.448830
O O1 0.500000 0.232033 0.903665
O O2 0.750169 0.250948 0.917043
O O3 0.649761 0.218968 0.834669
O O4 0.641749 0.000000 0.892806
O O5 0.855784 0.500000 0.278283
O O6 0.752650 0.253871 0.246768
O O7 0.823700 0.261974 0.330996
O O8 0.000000 0.269356 0.269654
O O9 0.858092 0.500000 0.943352
O O10 0.000000 0.731026 0.931517
O O11 0.848020 0.723842 0.000000
O O12 0.690168 0.266615 0.500000
O O13 0.500000 0.337240 0.546404
O O14 0.693218 0.500000 0.555809
O O15 0.668926 0.230027 0.595900
O O16 0.500000 0.229438 0.234383
O O17 0.644904 0.000000 0.224235
O O18 0.114705 0.772997 0.582092
O O19 0.202727 0.000000 0.629627
O O20 0.000000 0.754178 0.500000
O O21 0.000000 0.000000 0.451619
#
# Coordination Sequence:
#
# PCOD9388342 Si02
#       7
#     8   8   8   8   8   8   4
#     4   9  19  36  57  83 114 146 185 237 291 343
#     4  11  24  40  58  82 114 147 183 228 278 334
#     4   9  19  35  53  77 114 158 200 241 284 334
#     4   9  19  36  55  76 106 141 174 211 257 311
#     4   9  20  40  63  85 111 145 187 234 286 344
#     4  11  21  35  56  79 106 138 173 216 263 313
#     4   9  18  32  51  77 105 131 163 207 256 303
#
# _framework density 18.613274000000001
#
# number of rings (size 3 to 8) (size 9 to 14) (size 15 to 20)
#    0.000    2.385    0.769    3.231    0.000    5.538 
#    0.000    7.692    0.000    1.846    0.000    0.000 
#    0.000    0.000    0.000    0.000    0.000    0.000 
#
# Total GULP energy -289748.180183 kJ/mol
# GULP energy per Si atom -5572.080388 kJ/mol
# Density = 1.857091 g / cm^3
# Si number density = 18.613274 Si / 1000 Ang^3
#
#
#
# Elastic Constant Matrix: (Units=GPa)
#
#
# Indices 1 2 3 4 5 6 
#
# 1 167.2639 44.9608 94.7271 0.0000 0.0000 0.0000
# 2 44.9608 30.7432 35.5397 0.0000 0.0000 0.0000
# 3 94.7271 35.5397 96.8916 0.0000 0.0000 0.0000
# 4 0.0000 0.0000 0.0000 79.0587 0.0000 0.0000
# 5 0.0000 0.0000 0.0000 0.0000 -298.2443 0.0000
# 6 0.0000 0.0000 0.0000 0.0000 0.0000 31.5193
#
#
#
# Elastic Compliance Matrix: (Units=1/GPa)
#
#
# Indices 1 2 3 4 5 6 
#
# 1 0.014543 -0.008390 -0.011141 0.000000 0.000000 0.000000
# 2 -0.008390 0.061314 -0.014287 0.000000 0.000000 0.000000
# 3 -0.011141 -0.014287 0.026454 0.000000 0.000000 0.000000
# 4 0.000000 0.000000 0.000000 0.012649 0.000000 0.000000
# 5 0.000000 0.000000 0.000000 0.000000 -0.003353 0.000000
# 6 0.000000 0.000000 0.000000 0.000000 0.000000 0.031727
#
#
# Mechanical properties :
#
#
# Convention : Reuss Voigt Hill
#
# Bulk Modulus (GPa) = 28.83988 71.70600 50.27294
# Shear Modulus (GPa) = 22.46906 -29.55519 -3.54306
#
# Velocity S-wave (km/s) = 3.47818 -3.98911 -1.38118
# Velocity P-wave (km/s) = 5.62656 4.17018 4.95220
#
# Compressibility (1/GPa) = 0.03467420
#
# Stress axis : x y z
#
# Youngs Moduli (GPa) = 68.76000 16.30949 37.80202
#
# Poissons Ratio (x) = 0.13683 0.42115
# Poissons Ratio (y) = 0.57689 0.54009
# Poissons Ratio (z) = 0.76606 0.23302
#
# Static dielectric constant tensor:
#      x y z
#    x 2.167790 0.000000 0.000000 
#    y 0.000000 1.643450 0.000000 
#    z 0.000000 0.000000 1.620930 
# 
# From -- ./inp_files/33570.got.cif
#   From: 2010.05.17/outbox.cif.g08.bks.cpg/sg47_17_cif.got.tgz:33570.got - 2010.06.03 20:15:42.
