data_PCOD9388508
_publ_section_title
;
Structure prediction by ZEFSAII (Michael W. Deem and Ramdas Pophale) SiO2 
 PCOD9388508
Probable space group: P M M M
;
_chemical_formula_sum "Si O2"
_cell_formula_units_Z 64
_cell_length_a 18.978939
_cell_length_b 7.480230
_cell_length_c 20.450457
_cell_angle_alpha 90.000000
_cell_angle_beta 90.000000
_cell_angle_gamma 90.000000
_cell_volume 2903.286529
_symmetry_space_group_name_H-M "P M M M"
_symmetry_group_IT_number 47
_symmetry_cell_setting 'orthorhombic'
loop_
_space_group_symop_operation_xyz
x,y,z
-x,-y,z
x,-y,-z
-x,y,-z
-x,-y,-z
x,y,-z
-x,y,z
x,-y,z
loop_
_atom_site_type_symbol
_atom_site_label
_atom_site_fract_x
_atom_site_fract_y
_atom_site_fract_z
Si Si1 0.880074 0.779879 0.074431
Si Si2 0.425880 0.297970 0.110460
Si Si3 0.422900 0.782773 0.605472
Si Si4 0.219510 0.782093 0.286469
Si Si5 0.732857 0.781920 0.429452
Si Si6 0.729922 0.189046 0.922490
Si Si7 0.923940 0.217782 0.215544
Si Si8 0.624271 0.215562 0.249781
O O1 0.801435 0.709789 0.092911
O O2 0.922894 0.731995 0.138739
O O3 0.878676 0.000000 0.071748
O O4 0.899582 0.724421 0.000000
O O5 0.500000 0.208359 0.091814
O O6 0.429823 0.500000 0.087694
O O7 0.350510 0.235113 0.086740
O O8 0.417159 0.290450 0.188485
O O9 0.500000 0.720407 0.582796
O O10 0.349401 0.725071 0.573642
O O11 0.411723 0.737731 0.681772
O O12 0.423684 0.000000 0.599971
O O13 0.229016 0.725746 0.362477
O O14 0.147137 0.722071 0.252568
O O15 0.293204 0.728543 0.251278
O O16 0.219559 0.000000 0.285911
O O17 0.762508 0.726987 0.500000
O O18 0.732702 0.000000 0.427711
O O19 0.737707 0.000000 0.886411
O O20 0.738186 0.172222 0.000000
O O21 0.000000 0.273311 0.243659
O O22 0.921710 0.000000 0.217514
O O23 0.622551 0.000000 0.244771
#
# Coordination Sequence:
#
# PCOD9388508 Si02
#       8
#     8   8   8   8   8   8   8   8
#     4   8  14  25  41  61  82 102 129 167 207 248
#     4  11  23  33  41  59  87 113 137 174 222 260
#     4   8  13  20  32  53  76  96 125 167 212 256
#     4   8  14  24  38  56  77 104 140 177 209 249
#     4   8  13  20  30  46  71 104 137 171 216 259
#     4   9  18  33  51  65  77 102 142 181 214 253
#     4   9  15  21  32  53  82 112 135 161 206 257
#     4   9  16  28  46  61  76 106 145 178 209 251
#
# _framework density 22.043983999999998
#
# number of rings (size 3 to 8) (size 9 to 14) (size 15 to 20)
#    0.000    3.250    0.000    3.750    0.000    4.500 
#    0.000    3.750    0.000    0.375    0.000    2.625 
#    0.000   16.000    0.000   38.500    0.000   34.000 
#
# Total GULP energy -356472.141548 kJ/mol
# GULP energy per Si atom -5569.877212 kJ/mol
# Density = 2.199381 g / cm^3
# Si number density = 22.043984 Si / 1000 Ang^3
#
#
#
# Elastic Constant Matrix: (Units=GPa)
#
#
# Indices 1 2 3 4 5 6 
#
# 1 162.3375 4.3260 55.0284 0.0000 0.0000 0.0000
# 2 4.3260 50.9181 -4.1626 0.0000 0.0000 0.0000
# 3 55.0284 -4.1626 82.2696 0.0000 0.0000 0.0000
# 4 0.0000 0.0000 0.0000 10.5433 0.0000 0.0000
# 5 0.0000 0.0000 0.0000 0.0000 -4.5506 0.0000
# 6 0.0000 0.0000 0.0000 0.0000 0.0000 6.1753
#
#
#
# Elastic Compliance Matrix: (Units=1/GPa)
#
#
# Indices 1 2 3 4 5 6 
#
# 1 0.008030 -0.001126 -0.005428 0.000000 0.000000 0.000000
# 2 -0.001126 0.019879 0.001759 0.000000 0.000000 0.000000
# 3 -0.005428 0.001759 0.015875 0.000000 0.000000 0.000000
# 4 0.000000 0.000000 0.000000 0.094847 0.000000 0.000000
# 5 0.000000 0.000000 0.000000 0.000000 -0.219752 0.000000
# 6 0.000000 0.000000 0.000000 0.000000 0.000000 0.161936
#
#
# Mechanical properties :
#
#
# Convention : Reuss Voigt Hill
#
# Bulk Modulus (GPa) = 29.24530 45.10099 37.17315
# Shear Modulus (GPa) = 49.11498 18.45582 33.78540
#
# Velocity S-wave (km/s) = 4.72534 2.89663 3.91914
# Velocity P-wave (km/s) = 6.56257 5.62950 6.11386
#
# Compressibility (1/GPa) = 0.03419353
#
# Stress axis : x y z
#
# Youngs Moduli (GPa) = 124.53309 50.30471 62.99264
#
# Poissons Ratio (x) = 0.05664 0.34193
# Poissons Ratio (y) = 0.14022 -0.11080
# Poissons Ratio (z) = 0.67597 -0.08848
#
# Static dielectric constant tensor:
#      x y z
#    x 1.895250 0.000000 0.000000 
#    y 0.000000 1.864350 0.000000 
#    z 0.000000 0.000000 1.808730 
# 
# From -- ./inp_files/31347.got.cif
#   From: 2010.05.17/outbox.cif.g08.bks.cpg/sg47_16_cif.got.tgz:31347.got - 2010.06.03 20:15:42.
