data_PCOD9388411
_publ_section_title
;
Structure prediction by ZEFSAII (Michael W. Deem and Ramdas Pophale) SiO2 
 PCOD9388411
Probable space group: P M M M
;
_chemical_formula_sum "Si O2"
_cell_formula_units_Z 48
_cell_length_a 16.322112
_cell_length_b 7.855559
_cell_length_c 18.310149
_cell_angle_alpha 90.000000
_cell_angle_beta 90.000000
_cell_angle_gamma 90.000000
_cell_volume 2347.714741
_symmetry_space_group_name_H-M "P M M M"
_symmetry_group_IT_number 47
_symmetry_cell_setting 'orthorhombic'
loop_
_space_group_symop_operation_xyz
x,y,z
-x,-y,z
x,-y,-z
-x,y,-z
-x,-y,-z
x,y,-z
-x,y,z
x,-y,z
loop_
_atom_site_type_symbol
_atom_site_label
_atom_site_fract_x
_atom_site_fract_y
_atom_site_fract_z
Si Si1 0.689451 0.310888 0.776593
Si Si2 0.594732 0.204899 0.920735
Si Si3 0.134078 0.204691 0.196479
Si Si4 0.090322 0.205627 0.636789
Si Si5 0.595138 0.790885 0.500000
Si Si6 0.000000 0.792312 0.917929
Si Si7 0.725670 0.802376 0.617494
O O1 0.666261 0.500000 0.753837
O O2 0.634994 0.257621 0.844935
O O3 0.781270 0.300826 0.806447
O O4 0.696580 0.206014 0.701618
O O5 0.500000 0.258044 0.919330
O O6 0.597615 0.000000 0.922079
O O7 0.629694 0.263497 0.000000
O O8 0.094143 0.234929 0.275781
O O9 0.077509 0.257240 0.130036
O O10 0.148643 0.000000 0.192476
O O11 0.180627 0.269467 0.609953
O O12 0.000000 0.266902 0.610044
O O13 0.090480 0.000000 0.625811
O O14 0.500000 0.733785 0.500000
O O15 0.651725 0.734088 0.568191
O O16 0.591088 0.000000 0.500000
O O17 0.000000 0.000000 0.919741
O O18 0.000000 0.729199 0.000000
O O19 0.734464 0.000000 0.597023
#
# Coordination Sequence:
#
# PCOD9388411 Si02
#       7
#     8   8   8   8   4   4   8
#     4  11  22  34  51  78 111 143 176 216 264 322
#     4   9  19  37  59  79  99 129 173 223 273 323
#     4   9  16  29  48  69  97 134 177 220 261 308
#     4   8  12  22  44  70  95 126 164 212 264 307
#     4   9  18  34  56  82 110 139 173 219 273 323
#     4   9  16  26  45  73  99 128 175 230 273 309
#     4   9  18  33  54  78 104 138 182 225 266 320
#
# _framework density 20.445414
#
# number of rings (size 3 to 8) (size 9 to 14) (size 15 to 20)
#    0.000    2.833    0.833    3.000    0.000    2.000 
#    0.000    5.417    0.000    3.500    0.000    0.000 
#    0.000    3.000    0.000    0.000    0.000    0.000 
#
# Total GULP energy -267203.358629 kJ/mol
# GULP energy per Si atom -5566.736638 kJ/mol
# Density = 2.039888 g / cm^3
# Si number density = 20.445414 Si / 1000 Ang^3
#
#
#
# Elastic Constant Matrix: (Units=GPa)
#
#
# Indices 1 2 3 4 5 6 
#
# 1 153.4189 11.6557 80.2063 0.0000 0.0000 0.0000
# 2 11.6557 17.8486 1.6923 0.0000 0.0000 0.0000
# 3 80.2063 1.6923 98.7773 0.0000 0.0000 0.0000
# 4 0.0000 0.0000 0.0000 -16.8741 0.0000 0.0000
# 5 0.0000 0.0000 0.0000 0.0000 1141.4047 0.0000
# 6 0.0000 0.0000 0.0000 0.0000 0.0000 62.1810
#
#
#
# Elastic Compliance Matrix: (Units=1/GPa)
#
#
# Indices 1 2 3 4 5 6 
#
# 1 0.012142 -0.007006 -0.009739 0.000000 0.000000 0.000000
# 2 -0.007006 0.060160 0.004658 0.000000 0.000000 0.000000
# 3 -0.009739 0.004658 0.017952 0.000000 0.000000 0.000000
# 4 0.000000 0.000000 0.000000 -0.059262 0.000000 0.000000
# 5 0.000000 0.000000 0.000000 0.000000 0.000876 0.000000
# 6 0.000000 0.000000 0.000000 0.000000 0.000000 0.016082
#
#
# Mechanical properties :
#
#
# Convention : Reuss Voigt Hill
#
# Bulk Modulus (GPa) = 15.13312 50.79483 32.96397
# Shear Modulus (GPa) = 53.10660 249.10835 151.10748
#
# Velocity S-wave (km/s) = 5.10208 11.05012 8.60629
# Velocity P-wave (km/s) = 6.49046 13.70055 10.71987
#
# Compressibility (1/GPa) = 0.06608022
#
# Stress axis : x y z
#
# Youngs Moduli (GPa) = 82.35992 16.62231 55.70414
#
# Poissons Ratio (x) = 0.11645 0.54250
# Poissons Ratio (y) = 0.57698 -0.25946
# Poissons Ratio (z) = 0.80211 -0.07742
#
# Static dielectric constant tensor:
#      x y z
#    x 1.751760 0.000000 0.000000 
#    y 0.000000 1.745300 0.000000 
#    z 0.000000 0.000000 1.707360 
# 
# From -- ./inp_files/28053.got.cif
#   From: 2010.05.17/outbox.cif.g08.bks.cpg/sg47_15_cif.got.tgz:28053.got - 2010.06.03 20:15:42.
