data_PCOD9388142
_publ_section_title
;
Structure prediction by ZEFSAII (Michael W. Deem and Ramdas Pophale) SiO2 
 PCOD9388142
Probable space group: P M M M
;
_chemical_formula_sum "Si O2"
_cell_formula_units_Z 45
_cell_length_a 15.647984
_cell_length_b 16.960418
_cell_length_c 9.362900
_cell_angle_alpha 90.000000
_cell_angle_beta 90.000000
_cell_angle_gamma 90.000000
_cell_volume 2484.879481
_symmetry_space_group_name_H-M "P M M M"
_symmetry_group_IT_number 47
_symmetry_cell_setting 'orthorhombic'
loop_
_space_group_symop_operation_xyz
x,y,z
-x,-y,z
x,-y,-z
-x,y,-z
-x,-y,-z
x,y,-z
-x,y,z
x,-y,z
loop_
_atom_site_type_symbol
_atom_site_label
_atom_site_fract_x
_atom_site_fract_y
_atom_site_fract_z
Si Si1 0.000000 0.904400 0.663135
Si Si2 0.128977 0.500000 0.732992
Si Si3 0.811747 0.092094 0.327189
Si Si4 0.097423 0.322250 0.338116
Si Si5 0.000000 0.500000 0.000000
Si Si6 0.674407 0.500000 0.328739
Si Si7 0.753009 0.236067 0.831842
Si Si8 0.598534 0.645536 0.834124
O O1 0.907887 0.883983 0.724680
O O2 0.000000 0.875572 0.500000
O O3 0.000000 0.000000 0.656751
O O4 0.105256 0.582904 0.660346
O O5 0.231625 0.500000 0.742454
O O6 0.074904 0.500000 0.877037
O O7 0.809853 0.098513 0.500000
O O8 0.750524 0.153445 0.251231
O O9 0.797555 0.000000 0.293161
O O10 0.111541 0.293271 0.500000
O O11 0.169620 0.287131 0.235954
O O12 0.000000 0.301989 0.294755
O O13 0.684488 0.500000 0.500000
O O14 0.624425 0.423882 0.272533
O O15 0.665551 0.284178 0.813574
O O16 0.768074 0.224444 0.000000
O O17 0.500000 0.668615 0.813671
O O18 0.607670 0.618372 0.000000
#
# Coordination Sequence:
#
# PCOD9388142 Si02
#       8
#     4   4   8   8   1   4   8   8
#     4   7  12  26  50  77 103 138 182 220 256 316
#     4  12  24  38  58  82 118 158 203 247 286 337
#     4   9  18  35  58  82 112 152 194 232 282 350
#     4  11  23  39  57  79 114 158 202 240 284 342
#     4  12  28  36  58  88 118 172 216 256 284 340
#     4  12  24  38  62  92 119 150 194 251 308 353
#     4  11  24  37  57  86 116 149 190 245 297 344
#     4  10  23  43  63  84 115 156 198 240 298 366
#
# _framework density 18.109531
#
# number of rings (size 3 to 8) (size 9 to 14) (size 15 to 20)
#    0.000    1.689    2.667    2.933    3.733    3.556 
#    0.000    0.000    0.000    2.133    0.000    3.733 
#    0.000    0.000    0.000    0.000    0.000    0.000 
#
# Total GULP energy -250908.624210 kJ/mol
# GULP energy per Si atom -5575.747205 kJ/mol
# Density = 1.806831 g / cm^3
# Si number density = 18.109531 Si / 1000 Ang^3
#
#
#
# Elastic Constant Matrix: (Units=GPa)
#
#
# Indices 1 2 3 4 5 6 
#
# 1 127.9751 42.5121 57.9718 0.0000 0.0000 0.0000
# 2 42.5121 103.8420 53.0932 0.0000 0.0000 0.0000
# 3 57.9718 53.0932 84.9482 0.0000 0.0000 0.0000
# 4 0.0000 0.0000 0.0000 -6.5613 0.0000 0.0000
# 5 0.0000 0.0000 0.0000 0.0000 52.8289 0.0000
# 6 0.0000 0.0000 0.0000 0.0000 0.0000 -15.4971
#
#
#
# Elastic Compliance Matrix: (Units=1/GPa)
#
#
# Indices 1 2 3 4 5 6 
#
# 1 0.011382 -0.001012 -0.007136 0.000000 0.000000 0.000000
# 2 -0.001012 0.014242 -0.008211 0.000000 0.000000 0.000000
# 3 -0.007136 -0.008211 0.021774 0.000000 0.000000 0.000000
# 4 0.000000 0.000000 0.000000 -0.152408 0.000000 0.000000
# 5 0.000000 0.000000 0.000000 0.000000 0.018929 0.000000
# 6 0.000000 0.000000 0.000000 0.000000 0.000000 -0.064528
#
#
# Mechanical properties :
#
#
# Convention : Reuss Voigt Hill
#
# Bulk Modulus (GPa) = 68.11238 69.32436 68.71837
# Shear Modulus (GPa) = -44.24851 17.03332 -13.60759
#
# Velocity S-wave (km/s) = -4.94842 3.07020 -2.74415
# Velocity P-wave (km/s) = 2.24585 7.13666 5.29036
#
# Compressibility (1/GPa) = 0.01468162
#
# Stress axis : x y z
#
# Youngs Moduli (GPa) = 87.85492 70.21246 45.92722
#
# Poissons Ratio (x) = 0.07102 0.32772
# Poissons Ratio (y) = 0.08887 0.37712
# Poissons Ratio (z) = 0.62689 0.57654
#
# Static dielectric constant tensor:
#      x y z
#    x 1.620480 0.000000 0.000000 
#    y 0.000000 1.647330 0.000000 
#    z 0.000000 0.000000 1.603940 
# 
# From -- ./inp_files/6309.got.cif
#   From: 2010.05.17/outbox.cif.g08.bks.cpg/sg47_4_cif.got.tgz:6309.got - 2010.06.03 20:15:42.
