data_PCOD9388003
_publ_section_title
;
Structure prediction by ZEFSAII (Michael W. Deem and Ramdas Pophale) SiO2 
 PCOD9388003
Probable space group: P M M M
;
_chemical_formula_sum "Si O2"
_cell_formula_units_Z 64
_cell_length_a 9.377237
_cell_length_b 24.885350
_cell_length_c 14.243247
_cell_angle_alpha 90.000000
_cell_angle_beta 90.000000
_cell_angle_gamma 90.000000
_cell_volume 3323.744651
_symmetry_space_group_name_H-M "P M M M"
_symmetry_group_IT_number 47
_symmetry_cell_setting 'orthorhombic'
loop_
_space_group_symop_operation_xyz
x,y,z
-x,-y,z
x,-y,-z
-x,y,-z
-x,-y,-z
x,y,-z
-x,y,z
x,-y,z
loop_
_atom_site_type_symbol
_atom_site_label
_atom_site_fract_x
_atom_site_fract_y
_atom_site_fract_z
Si Si1 0.833085 0.666620 0.387030
Si Si2 0.663899 0.228194 0.385619
Si Si3 0.336228 0.271837 0.114295
Si Si4 0.834107 0.167431 0.113145
Si Si5 0.170243 0.120283 0.392151
Si Si6 0.172708 0.059112 0.789524
Si Si7 0.671971 0.607507 0.890318
Si Si8 0.829242 0.440731 0.722090
O O1 0.821873 0.663346 0.500000
O O2 0.738888 0.716889 0.353681
O O3 0.789356 0.609627 0.343238
O O4 0.000000 0.676581 0.364732
O O5 0.666075 0.229884 0.500000
O O6 0.500000 0.224944 0.355946
O O7 0.750934 0.174660 0.361197
O O8 0.500000 0.267485 0.144550
O O9 0.248222 0.220397 0.146369
O O10 0.282143 0.331567 0.137021
O O11 0.336334 0.270597 0.000000
O O12 0.777167 0.110804 0.152007
O O13 0.000000 0.172215 0.140964
O O14 0.827957 0.165925 0.000000
O O15 0.208845 0.108066 0.500000
O O16 0.202610 0.073239 0.318939
O O17 0.000000 0.129824 0.389075
O O18 0.000000 0.057797 0.800610
O O19 0.226734 0.000000 0.815870
O O20 0.500000 0.604962 0.881161
O O21 0.749653 0.567640 0.820405
O O22 0.705444 0.598589 0.000000
O O23 0.795796 0.500000 0.683082
O O24 0.000000 0.438103 0.735629
#
# Coordination Sequence:
#
# PCOD9388003 Si02
#       8
#     8   8   8   8   8   8   8   8
#     4   9  18  34  55  76 101 134 168 204 248 298
#     4   9  17  30  50  76 103 128 157 197 246 298
#     4   8  15  30  51  73  97 124 155 193 238 288
#     4   9  17  29  47  71  96 122 153 191 237 286
#     4   9  17  30  49  71  95 124 157 195 240 288
#     4   9  18  31  46  67  94 123 160 202 236 273
#     4   9  19  36  56  77 102 134 170 206 248 300
#     4  10  22  37  52  75 104 133 170 212 251 293
#
# _framework density 19.255389999999998
#
# number of rings (size 3 to 8) (size 9 to 14) (size 15 to 20)
#    0.000    3.000    0.000    1.125    0.000    5.000 
#    0.000   10.625    0.000    1.500    0.000    6.125 
#    0.000    0.000    0.000    0.000    0.000    0.000 
#
# Total GULP energy -356950.261218 kJ/mol
# GULP energy per Si atom -5577.347832 kJ/mol
# Density = 1.921156 g / cm^3
# Si number density = 19.255390 Si / 1000 Ang^3
#
#
#
# Elastic Constant Matrix: (Units=GPa)
#
#
# Indices 1 2 3 4 5 6 
#
# 1 20.6075 23.4372 -0.3721 0.0000 0.0000 0.0000
# 2 23.4372 93.3244 -5.7076 0.0000 0.0000 0.0000
# 3 -0.3721 -5.7076 19.6662 0.0000 0.0000 0.0000
# 4 0.0000 0.0000 0.0000 26.2269 0.0000 0.0000
# 5 0.0000 0.0000 0.0000 0.0000 12.0238 0.0000
# 6 0.0000 0.0000 0.0000 0.0000 0.0000 -18.2018
#
#
#
# Elastic Compliance Matrix: (Units=1/GPa)
#
#
# Indices 1 2 3 4 5 6 
#
# 1 0.068198 -0.017356 -0.003747 0.000000 0.000000 0.000000
# 2 -0.017356 0.015326 0.004120 0.000000 0.000000 0.000000
# 3 -0.003747 0.004120 0.051973 0.000000 0.000000 0.000000
# 4 0.000000 0.000000 0.000000 0.038129 0.000000 0.000000
# 5 0.000000 0.000000 0.000000 0.000000 0.083168 0.000000
# 6 0.000000 0.000000 0.000000 0.000000 0.000000 -0.054940
#
#
# Mechanical properties :
#
#
# Convention : Reuss Voigt Hill
#
# Bulk Modulus (GPa) = 9.84928 18.70147 14.27537
# Shear Modulus (GPa) = 18.54151 11.75914 15.15032
#
# Velocity S-wave (km/s) = 3.10647 2.47390 2.80806
# Velocity P-wave (km/s) = 4.24182 4.23009 4.23596
#
# Compressibility (1/GPa) = 0.10153028
#
# Stress axis : x y z
#
# Youngs Moduli (GPa) = 14.66321 65.24839 19.24060
#
# Poissons Ratio (x) = 1.13246 0.07209
# Poissons Ratio (y) = 0.25450 -0.07926
# Poissons Ratio (z) = 0.05494 -0.26880
#
# Static dielectric constant tensor:
#      x y z
#    x 1.649570 0.000000 0.000000 
#    y 0.000000 1.665150 0.000000 
#    z 0.000000 0.000000 1.705360 
# 
# From -- ./inp_files/7774.got.cif
#   From: 2010.05.17/outbox.cif.g08.bks.cpg/sg47_4_cif.got.tgz:7774.got - 2010.06.03 20:15:42.
