data_PCOD9388127
_publ_section_title
;
Structure prediction by ZEFSAII (Michael W. Deem and Ramdas Pophale) SiO2 
 PCOD9388127
Probable space group: P M M M
;
_chemical_formula_sum "Si O2"
_cell_formula_units_Z 48
_cell_length_a 9.815244
_cell_length_b 29.370377
_cell_length_c 8.813317
_cell_angle_alpha 90.000000
_cell_angle_beta 90.000000
_cell_angle_gamma 90.000000
_cell_volume 2540.680257
_symmetry_space_group_name_H-M "P M M M"
_symmetry_group_IT_number 47
_symmetry_cell_setting 'orthorhombic'
loop_
_space_group_symop_operation_xyz
x,y,z
-x,-y,z
x,-y,-z
-x,y,-z
-x,-y,-z
x,y,-z
-x,y,z
x,-y,z
loop_
_atom_site_type_symbol
_atom_site_label
_atom_site_fract_x
_atom_site_fract_y
_atom_site_fract_z
Si Si1 0.339832 0.788518 0.317624
Si Si2 0.248129 0.394980 0.819535
Si Si3 0.000000 0.445855 0.675622
Si Si4 0.159823 0.292317 0.183283
Si Si5 0.500000 0.447213 0.680978
Si Si6 0.344291 0.054007 0.318435
Si Si7 0.840453 0.129858 0.818179
O O1 0.336901 0.789711 0.500000
O O2 0.500000 0.789445 0.270892
O O3 0.260038 0.744146 0.258012
O O4 0.253405 0.830864 0.253705
O O5 0.210948 0.343074 0.777885
O O6 0.374426 0.417764 0.738165
O O7 0.126044 0.426400 0.766041
O O8 0.267043 0.396057 0.000000
O O9 0.000000 0.500000 0.674275
O O10 0.000000 0.430215 0.500000
O O11 0.000000 0.286610 0.227120
O O12 0.165326 0.287397 0.000000
O O13 0.500000 0.500000 0.736911
O O14 0.500000 0.449488 0.500000
O O15 0.332455 0.061387 0.500000
O O16 0.500000 0.067362 0.275126
O O17 0.230617 0.083055 0.233843
O O18 0.330560 0.000000 0.291020
O O19 0.000000 0.132917 0.771351
O O20 0.836619 0.133915 0.000000
#
# Coordination Sequence:
#
# PCOD9388127 Si02
#       7
#     8   8   4   8   4   8   8
#     4  11  25  42  62  91 121 153 198 248 298 358
#     4  11  23  41  64  91 121 159 204 250 300 360
#     4  11  23  39  61  91 125 161 201 247 302 359
#     4  10  22  42  64  89 121 154 192 241 297 355
#     4  11  25  43  61  87 125 163 201 251 306 359
#     4   9  19  37  61  89 122 161 206 256 306 358
#     4  11  24  40  59  87 123 162 204 252 304 358
#
# _framework density 18.892578
#
# number of rings (size 3 to 8) (size 9 to 14) (size 15 to 20)
#    0.000    1.500    0.833    4.000    1.167   12.667 
#    0.000    2.500    0.000    0.000    0.000    0.000 
#    0.000    0.000    0.000    0.000    0.000    0.000 
#
# Total GULP energy -268120.811523 kJ/mol
# GULP energy per Si atom -5585.850240 kJ/mol
# Density = 1.884958 g / cm^3
# Si number density = 18.892578 Si / 1000 Ang^3
#
#
#
# Elastic Constant Matrix: (Units=GPa)
#
#
# Indices 1 2 3 4 5 6 
#
# 1 209.4697 85.7889 53.4534 0.0000 0.0000 0.0000
# 2 85.7889 103.6398 45.5920 0.0000 0.0000 0.0000
# 3 53.4534 45.5920 46.2668 0.0000 0.0000 0.0000
# 4 0.0000 0.0000 0.0000 37.4455 0.0000 0.0000
# 5 0.0000 0.0000 0.0000 0.0000 39.4870 0.0000
# 6 0.0000 0.0000 0.0000 0.0000 0.0000 33.2367
#
#
#
# Elastic Compliance Matrix: (Units=1/GPa)
#
#
# Indices 1 2 3 4 5 6 
#
# 1 0.007750 -0.004371 -0.004646 0.000000 0.000000 0.000000
# 2 -0.004371 0.019497 -0.014163 0.000000 0.000000 0.000000
# 3 -0.004646 -0.014163 0.040938 0.000000 0.000000 0.000000
# 4 0.000000 0.000000 0.000000 0.026705 0.000000 0.000000
# 5 0.000000 0.000000 0.000000 0.000000 0.025325 0.000000
# 6 0.000000 0.000000 0.000000 0.000000 0.000000 0.030087
#
#
# Mechanical properties :
#
#
# Convention : Reuss Voigt Hill
#
# Bulk Modulus (GPa) = 45.81960 81.00499 63.41229
# Shear Modulus (GPa) = 24.51718 33.66996 29.09357
#
# Velocity S-wave (km/s) = 3.60629 4.22617 3.92847
# Velocity P-wave (km/s) = 6.45335 8.17213 7.36307
#
# Compressibility (1/GPa) = 0.02182472
#
# Stress axis : x y z
#
# Youngs Moduli (GPa) = 129.03575 51.28892 24.42702
#
# Poissons Ratio (x) = 0.22418 0.11350
# Poissons Ratio (y) = 0.56402 0.34596
# Poissons Ratio (z) = 0.59954 0.72641
#
# Static dielectric constant tensor:
#      x y z
#    x 1.595400 0.000000 0.000000 
#    y 0.000000 1.653400 0.000000 
#    z 0.000000 0.000000 1.635350 
# 
# From -- ./inp_files/2810.got.cif
#   From: 2010.05.17/outbox.cif.g08.bks.cpg/sg47_2_cif.got.tgz:2810.got - 2010.06.03 20:15:42.
