data_PCOD9388749
_publ_section_title
;
Structure prediction by ZEFSAII (Michael W. Deem and Ramdas Pophale) SiO2 
 PCOD9388749
Probable space group: P M M M
;
_chemical_formula_sum "Si O2"
_cell_formula_units_Z 40
_cell_length_a 7.848234
_cell_length_b 31.109048
_cell_length_c 7.428439
_cell_angle_alpha 90.000000
_cell_angle_beta 90.000000
_cell_angle_gamma 90.000000
_cell_volume 1813.661466
_symmetry_space_group_name_H-M "P M M M"
_symmetry_group_IT_number 47
_symmetry_cell_setting 'orthorhombic'
loop_
_space_group_symop_operation_xyz
x,y,z
-x,-y,z
x,-y,-z
-x,y,-z
-x,-y,-z
x,y,-z
-x,y,z
x,-y,z
loop_
_atom_site_type_symbol
_atom_site_label
_atom_site_fract_x
_atom_site_fract_y
_atom_site_fract_z
Si Si1 0.500000 0.754951 0.221464
Si Si2 0.500000 0.656010 0.219487
Si Si3 0.701326 0.000000 0.705015
Si Si4 0.207416 0.500000 0.206593
Si Si5 0.795825 0.091423 0.294896
Si Si6 0.192531 0.186994 0.789654
Si Si7 0.196598 0.594209 0.779500
O O1 0.500000 0.705410 0.276455
O O2 0.332428 0.780533 0.284259
O O3 0.500000 0.756042 0.000000
O O4 0.668674 0.630063 0.275938
O O5 0.500000 0.655893 0.000000
O O6 0.749387 0.954344 0.790159
O O7 0.500000 0.000000 0.690919
O O8 0.777983 0.000000 0.500000
O O9 0.253105 0.453497 0.283499
O O10 0.000000 0.500000 0.203008
O O11 0.269095 0.500000 0.000000
O O12 0.730666 0.090007 0.500000
O O13 0.743127 0.137634 0.220718
O O14 0.000000 0.092596 0.295035
O O15 0.000000 0.189427 0.712433
O O16 0.176987 0.197140 0.000000
O O17 0.000000 0.602004 0.725547
O O18 0.195952 0.592757 0.000000
#
# Coordination Sequence:
#
# PCOD9388749 Si02
#       7
#     4   4   4   4   8   8   8
#     4   9  18  30  42  56  77 103 136 179 218 255
#     4   9  16  23  32  48  64  86 123 163 206 247
#     4   9  17  27  42  67  94 116 137 164 204 251
#     4   7  10  17  27  39  58  85 113 146 195 245
#     4   9  17  30  48  68  89 113 141 173 207 246
#     4   9  18  32  48  64  84 113 144 174 214 257
#     4   8  13  20  29  42  62  86 115 155 200 245
#
# _framework density 22.054832999999999
#
# number of rings (size 3 to 8) (size 9 to 14) (size 15 to 20)
#    0.000    3.400    0.000    1.500    1.400    2.400 
#    0.000    6.500    0.000    3.000    0.000    0.000 
#    0.000    0.000    0.000    0.000    0.000    0.000 
#
# Total GULP energy -222968.065032 kJ/mol
# GULP energy per Si atom -5574.201626 kJ/mol
# Density = 2.200463 g / cm^3
# Si number density = 22.054833 Si / 1000 Ang^3
#
#
#
# Elastic Constant Matrix: (Units=GPa)
#
#
# Indices 1 2 3 4 5 6 
#
# 1 117.2941 119.2446 7.1912 0.0000 0.0000 0.0000
# 2 119.2446 249.0221 6.8762 0.0000 0.0000 0.0000
# 3 7.1912 6.8762 65.9437 0.0000 0.0000 0.0000
# 4 0.0000 0.0000 0.0000 12.3633 0.0000 0.0000
# 5 0.0000 0.0000 0.0000 0.0000 -7.9868 0.0000
# 6 0.0000 0.0000 0.0000 0.0000 0.0000 40.7619
#
#
#
# Elastic Compliance Matrix: (Units=1/GPa)
#
#
# Indices 1 2 3 4 5 6 
#
# 1 0.016677 -0.007959 -0.000989 0.000000 0.000000 0.000000
# 2 -0.007959 0.007825 0.000052 0.000000 0.000000 0.000000
# 3 -0.000989 0.000052 0.015267 0.000000 0.000000 0.000000
# 4 0.000000 0.000000 0.000000 0.080884 0.000000 0.000000
# 5 0.000000 0.000000 0.000000 0.000000 -0.125206 0.000000
# 6 0.000000 0.000000 0.000000 0.000000 0.000000 0.024533
#
#
# Mechanical properties :
#
#
# Convention : Reuss Voigt Hill
#
# Bulk Modulus (GPa) = 45.49927 77.65375 61.57651
# Shear Modulus (GPa) = 110.87270 28.95755 69.91512
#
# Velocity S-wave (km/s) = 7.09792 3.62744 5.63644
# Velocity P-wave (km/s) = 9.37277 7.26844 8.38687
#
# Compressibility (1/GPa) = 0.02197837
#
# Stress axis : x y z
#
# Youngs Moduli (GPa) = 59.96255 127.79179 65.50139
#
# Poissons Ratio (x) = 1.01704 0.06477
# Poissons Ratio (y) = 0.47721 -0.00340
# Poissons Ratio (z) = 0.05929 -0.00663
#
# Static dielectric constant tensor:
#      x y z
#    x 1.785650 0.000000 0.000000 
#    y 0.000000 1.803340 0.000000 
#    z 0.000000 0.000000 1.906300 
# 
# From -- ./inp_files/1902.got.cif
#   From: 2010.05.17/outbox.cif.g08.bks.cpg/sg47_1_cif.got.tgz:1902.got - 2010.06.03 20:15:42.
