data_PCOD9388905
_publ_section_title
;
Structure prediction by ZEFSAII (Michael W. Deem and Ramdas Pophale) SiO2 
 PCOD9388905
Probable space group: P M M M
;
_chemical_formula_sum "Si O2"
_cell_formula_units_Z 48
_cell_length_a 10.441718
_cell_length_b 7.330160
_cell_length_c 31.093500
_cell_angle_alpha 90.000000
_cell_angle_beta 90.000000
_cell_angle_gamma 90.000000
_cell_volume 2379.879812
_symmetry_space_group_name_H-M "P M M M"
_symmetry_group_IT_number 47
_symmetry_cell_setting 'orthorhombic'
loop_
_space_group_symop_operation_xyz
x,y,z
-x,-y,z
x,-y,-z
-x,y,-z
-x,-y,-z
x,y,-z
-x,y,z
x,-y,z
loop_
_atom_site_type_symbol
_atom_site_label
_atom_site_fract_x
_atom_site_fract_y
_atom_site_fract_z
Si Si1 0.644939 0.217759 0.116857
Si Si2 0.355044 0.717761 0.216029
Si Si3 0.145820 0.722161 0.382049
Si Si4 0.145635 0.222339 0.950800
Si Si5 0.645929 0.277778 0.450910
Si Si6 0.145748 0.277599 0.283756
O O1 0.500000 0.288495 0.110570
O O2 0.681472 0.249981 0.166442
O O3 0.749412 0.286826 0.083183
O O4 0.639033 0.000000 0.111023
O O5 0.500000 0.788468 0.222318
O O6 0.360936 0.500000 0.221858
O O7 0.250505 0.786755 0.249692
O O8 0.146984 0.500000 0.382552
O O9 0.250091 0.784340 0.416430
O O10 0.174592 0.776763 0.332919
O O11 0.000000 0.777647 0.392292
O O12 0.000000 0.278535 0.940473
O O13 0.146049 0.000000 0.950118
O O14 0.174243 0.276147 0.000000
O O15 0.674986 0.222655 0.500000
O O16 0.500000 0.222532 0.440748
O O17 0.647136 0.500000 0.450483
O O18 0.146218 0.500000 0.283156
O O19 0.000000 0.221668 0.273496
#
# Coordination Sequence:
#
# PCOD9388905 Si02
#       6
#     8   8   8   8   8   8
#     4   9  17  28  42  61  83 104 127 157 191 225
#     4   9  17  28  41  57  77 101 129 159 190 226
#     4   8  13  20  29  41  57  78 107 144 182 218
#     4   8  14  25  41  61  83 104 127 157 190 222
#     4   8  13  19  25  35  53  77 106 141 180 220
#     4   8  14  24  36  50  68  90 119 155 191 225
#
# _framework density 20.169084999999999
#
# number of rings (size 3 to 8) (size 9 to 14) (size 15 to 20)
#    0.000    3.667    0.000    2.000    0.000    2.000 
#    0.000    6.667    0.000    0.500    0.000    3.500 
#    0.000    0.000    0.000    0.000    0.000    0.833 
#
# Total GULP energy -267688.845100 kJ/mol
# GULP energy per Si atom -5576.850940 kJ/mol
# Density = 2.012318 g / cm^3
# Si number density = 20.169085 Si / 1000 Ang^3
#
#
#
# Elastic Constant Matrix: (Units=GPa)
#
#
# Indices 1 2 3 4 5 6 
#
# 1 189.9943 7.4219 176.5826 0.0000 0.0000 0.0000
# 2 7.4219 79.0850 4.0822 0.0000 0.0000 0.0000
# 3 176.5826 4.0822 190.5418 0.0000 0.0000 0.0000
# 4 0.0000 0.0000 0.0000 8.7042 0.0000 0.0000
# 5 0.0000 0.0000 0.0000 0.0000 51.1700 0.0000
# 6 0.0000 0.0000 0.0000 0.0000 0.0000 -9.5223
#
#
#
# Elastic Compliance Matrix: (Units=1/GPa)
#
#
# Indices 1 2 3 4 5 6 
#
# 1 0.038196 -0.001759 -0.035360 0.000000 0.000000 0.000000
# 2 -0.001759 0.012740 0.001358 0.000000 0.000000 0.000000
# 3 -0.035360 0.001358 0.037989 0.000000 0.000000 0.000000
# 4 0.000000 0.000000 0.000000 0.114887 0.000000 0.000000
# 5 0.000000 0.000000 0.000000 0.000000 0.019543 0.000000
# 6 0.000000 0.000000 0.000000 0.000000 0.000000 -0.105017
#
#
# Mechanical properties :
#
#
# Convention : Reuss Voigt Hill
#
# Bulk Modulus (GPa) = 57.46938 92.86603 75.16771
# Shear Modulus (GPa) = 25.55430 28.17269 26.86349
#
# Velocity S-wave (km/s) = 3.56336 3.74147 3.65350
# Velocity P-wave (km/s) = 6.74431 8.05037 7.42611
#
# Compressibility (1/GPa) = 0.01740057
#
# Stress axis : x y z
#
# Youngs Moduli (GPa) = 26.18062 78.49504 26.32352
#
# Poissons Ratio (x) = 0.13810 0.93081
# Poissons Ratio (y) = 0.04606 -0.03574
# Poissons Ratio (z) = 0.92575 -0.10656
#
# Static dielectric constant tensor:
#      x y z
#    x 1.692820 0.000000 0.000000 
#    y 0.000000 1.868720 0.000000 
#    z 0.000000 0.000000 1.667910 
# 
# From -- ./inp_files/4318.got.cif
#   From: 2010.05.17/outbox.cif.g08.bks.cpg/sg47_3_cif.got.tgz:4318.got - 2010.06.03 20:15:42.
