data_PCOD9388546
_publ_section_title
;
Structure prediction by ZEFSAII (Michael W. Deem and Ramdas Pophale) SiO2 
 PCOD9388546
Probable space group: P M M M
;
_chemical_formula_sum "Si O2"
_cell_formula_units_Z 56
_cell_length_a 8.748797
_cell_length_b 24.342583
_cell_length_c 14.703856
_cell_angle_alpha 90.000000
_cell_angle_beta 90.000000
_cell_angle_gamma 90.000000
_cell_volume 3131.455468
_symmetry_space_group_name_H-M "P M M M"
_symmetry_group_IT_number 47
_symmetry_cell_setting 'orthorhombic'
loop_
_space_group_symop_operation_xyz
x,y,z
-x,-y,z
x,-y,-z
-x,y,-z
-x,-y,-z
x,y,-z
-x,y,z
x,-y,z
loop_
_atom_site_type_symbol
_atom_site_label
_atom_site_fract_x
_atom_site_fract_y
_atom_site_fract_z
Si Si1 0.185769 0.437584 0.750000
Si Si2 0.318585 0.937303 0.891892
Si Si3 0.815017 0.347253 0.605240
Si Si4 0.681668 0.264810 0.750000
Si Si5 0.184983 0.347253 0.105240
Si Si6 0.681414 0.937303 0.391891
Si Si7 0.179350 0.855582 0.750000
O O1 0.242243 0.500000 0.750000
O O2 0.230185 0.401921 0.661591
O O3 0.230186 0.401920 0.838410
O O4 0.000000 0.439624 0.750001
O O5 0.500000 0.931467 0.872785
O O6 0.227277 0.892479 0.836055
O O7 0.275325 0.000000 0.867258
O O8 0.297813 0.931314 0.000000
O O9 0.767979 0.348294 0.500000
O O10 0.748199 0.296519 0.662099
O O11 0.000000 0.343828 0.608317
O O12 0.500000 0.269145 0.750000
O O13 0.748199 0.296518 0.837901
O O14 0.732716 0.201882 0.749999
O O15 0.000000 0.343827 0.108317
O O16 0.232022 0.348293 0.000000
O O17 0.702180 0.931314 0.500000
O O18 0.500000 0.931466 0.372780
O O19 0.772726 0.892479 0.336056
O O20 0.724675 0.000000 0.367260
O O21 0.000000 0.844669 0.750001
#
# Coordination Sequence:
#
# PCOD9388546 Si02
#       7
#     8   8   8   8   8   8   8
#     4   8  14  26  48  82 117 142 170 209 253 307
#     4   9  19  37  59  81 107 140 176 213 255 308
#     4   9  18  34  55  78 107 141 175 216 265 310
#     4  11  23  38  55  74 100 136 180 225 264 312
#     4   9  18  34  55  78 107 141 175 216 265 310
#     4   9  19  37  59  81 107 140 176 213 255 308
#     4  12  24  36  54  80 109 139 172 216 269 318
#
# _framework density 17.883058999999999
#
# number of rings (size 3 to 8) (size 9 to 14) (size 15 to 20)
#    0.000    2.429    0.000    4.714    0.000    5.143 
#    0.000    4.286    0.000    6.857    0.000    8.000 
#    0.000    0.000    0.000    0.000    0.000    0.000 
#
# Total GULP energy -312520.519247 kJ/mol
# GULP energy per Si atom -5580.723558 kJ/mol
# Density = 1.784236 g / cm^3
# Si number density = 17.883059 Si / 1000 Ang^3
#
#
#
# Elastic Constant Matrix: (Units=GPa)
#
#
# Indices 1 2 3 4 5 6 
#
# 1 33.2499 26.6512 34.0946 0.0000 0.0000 0.0000
# 2 26.6512 129.9227 67.8535 0.0000 0.0000 0.0000
# 3 34.0946 67.8535 142.8016 0.0000 0.0000 0.0000
# 4 0.0000 0.0000 0.0000 12.0842 0.0000 0.0000
# 5 0.0000 0.0000 0.0000 0.0000 25.6926 0.0000
# 6 0.0000 0.0000 0.0000 0.0000 0.0000 73.6368
#
#
#
# Elastic Compliance Matrix: (Units=1/GPa)
#
#
# Indices 1 2 3 4 5 6 
#
# 1 0.041681 -0.004459 -0.007833 0.000000 0.000000 0.000000
# 2 -0.004459 0.010714 -0.004026 0.000000 0.000000 0.000000
# 3 -0.007833 -0.004026 0.010786 0.000000 0.000000 0.000000
# 4 0.000000 0.000000 0.000000 0.082753 0.000000 0.000000
# 5 0.000000 0.000000 0.000000 0.000000 0.038922 0.000000
# 6 0.000000 0.000000 0.000000 0.000000 0.000000 0.013580
#
#
# Mechanical properties :
#
#
# Convention : Reuss Voigt Hill
#
# Bulk Modulus (GPa) = 32.73878 62.57476 47.65677
# Shear Modulus (GPa) = 20.72496 34.10772 27.41634
#
# Velocity S-wave (km/s) = 3.40798 4.37196 3.91972
# Velocity P-wave (km/s) = 5.81658 7.78155 6.86968
#
# Compressibility (1/GPa) = 0.03054482
#
# Stress axis : x y z
#
# Youngs Moduli (GPa) = 23.99155 93.33173 92.71296
#
# Poissons Ratio (x) = 0.41621 0.72619
# Poissons Ratio (y) = 0.10699 0.37330
# Poissons Ratio (z) = 0.18792 0.37579
#
# Static dielectric constant tensor:
#      x y z
#    x 1.603110 0.000000 0.000000 
#    y 0.000000 1.588270 0.000000 
#    z 0.000000 0.000000 1.607950 
# 
# From -- ./inp_files/11189.got.cif
#   From: 2010.05.17/outbox.cif.g08.bks.cpg/sg47_6_cif.got.tgz:11189.got - 2010.06.03 20:15:42.
