data_PCOD9388650
_publ_section_title
;
Structure prediction by ZEFSAII (Michael W. Deem and Ramdas Pophale) SiO2 
 PCOD9388650
Probable space group: P M M M
;
_chemical_formula_sum "Si O2"
_cell_formula_units_Z 40
_cell_length_a 28.462544
_cell_length_b 9.452677
_cell_length_c 7.926472
_cell_angle_alpha 90.000000
_cell_angle_beta 90.000000
_cell_angle_gamma 90.000000
_cell_volume 2132.595375
_symmetry_space_group_name_H-M "P M M M"
_symmetry_group_IT_number 47
_symmetry_cell_setting 'orthorhombic'
loop_
_space_group_symop_operation_xyz
x,y,z
-x,-y,z
x,-y,-z
-x,y,-z
-x,-y,-z
x,y,-z
-x,y,z
x,-y,z
loop_
_atom_site_type_symbol
_atom_site_label
_atom_site_fract_x
_atom_site_fract_y
_atom_site_fract_z
Si Si1 0.053765 0.327809 0.500000
Si Si2 0.121817 0.329785 0.197226
Si Si3 0.785442 0.162826 0.794953
Si Si4 0.680553 0.837585 0.203567
Si Si5 0.500000 0.158963 0.799989
Si Si6 0.409716 0.659075 0.700243
O O1 0.052877 0.500000 0.500000
O O2 0.081953 0.285950 0.330804
O O3 0.000000 0.278235 0.500000
O O4 0.125692 0.500000 0.202329
O O5 0.171196 0.261100 0.252733
O O6 0.112401 0.290801 0.000000
O O7 0.733004 0.205265 0.738436
O O8 0.793238 0.000000 0.742711
O O9 0.784431 0.164165 0.000000
O O10 0.639065 0.734871 0.255972
O O11 0.671977 0.000000 0.260031
O O12 0.681221 0.840198 0.000000
O O13 0.546489 0.245325 0.753719
O O14 0.500000 0.000000 0.726134
O O15 0.500000 0.145800 0.000000
O O16 0.412243 0.648287 0.500000
O O17 0.412409 0.500000 0.772474
#
# Coordination Sequence:
#
# PCOD9388650 Si02
#       6
#     4   8   8   8   4   8
#     4   9  18  32  49  73 105 137 173 222 271 312
#     4   9  17  30  50  75 101 134 176 218 265 320
#     4   8  15  30  52  76 103 135 170 211 259 309
#     4   9  18  34  56  80 105 136 176 217 258 312
#     4  11  24  41  62  84 102 129 174 221 264 314
#     4  11  24  39  54  78 111 142 173 212 260 312
#
# _framework density 18.756488999999998
#
# number of rings (size 3 to 8) (size 9 to 14) (size 15 to 20)
#    0.000    2.600    0.000    3.000    0.000    7.600 
#    1.800    4.500    0.000    1.200    0.000    2.800 
#    0.000    0.000    0.000    0.000    0.000    0.000 
#
# Total GULP energy -223053.872205 kJ/mol
# GULP energy per Si atom -5576.346805 kJ/mol
# Density = 1.871380 g / cm^3
# Si number density = 18.756489 Si / 1000 Ang^3
#
#
#
# Elastic Constant Matrix: (Units=GPa)
#
#
# Indices 1 2 3 4 5 6 
#
# 1 194.0939 88.9934 57.0310 0.0000 0.0000 0.0000
# 2 88.9934 88.6174 32.6294 0.0000 0.0000 0.0000
# 3 57.0310 32.6294 60.2406 0.0000 0.0000 0.0000
# 4 0.0000 0.0000 0.0000 18.1601 0.0000 0.0000
# 5 0.0000 0.0000 0.0000 0.0000 47.5794 0.0000
# 6 0.0000 0.0000 0.0000 0.0000 0.0000 38.2995
#
#
#
# Elastic Compliance Matrix: (Units=1/GPa)
#
#
# Indices 1 2 3 4 5 6 
#
# 1 0.010809 -0.008852 -0.005438 0.000000 0.000000 0.000000
# 2 -0.008852 0.021346 -0.003181 0.000000 0.000000 0.000000
# 3 -0.005438 -0.003181 0.023472 0.000000 0.000000 0.000000
# 4 0.000000 0.000000 0.000000 0.055066 0.000000 0.000000
# 5 0.000000 0.000000 0.000000 0.000000 0.021018 0.000000
# 6 0.000000 0.000000 0.000000 0.000000 0.000000 0.026110
#
#
# Mechanical properties :
#
#
# Convention : Reuss Voigt Hill
#
# Bulk Modulus (GPa) = 48.34932 77.80663 63.07798
# Shear Modulus (GPa) = 25.04290 31.76100 28.40195
#
# Velocity S-wave (km/s) = 3.65795 4.11948 3.89555
# Velocity P-wave (km/s) = 6.60864 8.01245 7.34416
#
# Compressibility (1/GPa) = 0.02068281
#
# Stress axis : x y z
#
# Youngs Moduli (GPa) = 92.51579 46.84753 42.60475
#
# Poissons Ratio (x) = 0.41472 0.23169
# Poissons Ratio (y) = 0.81899 0.13553
# Poissons Ratio (z) = 0.50311 0.14903
#
# Static dielectric constant tensor:
#      x y z
#    x 8.246090 0.000000 0.000000 
#    y 0.000000 1.657580 0.000000 
#    z 0.000000 0.000000 1.671090 
# 
# From -- ./inp_files/13087.got.cif
#   From: 2010.05.17/outbox.cif.g08.bks.cpg/sg47_7_cif.got.tgz:13087.got - 2010.06.03 20:15:42.
