data_PCOD9388258
_publ_section_title
;
Structure prediction by ZEFSAII (Michael W. Deem and Ramdas Pophale) SiO2 
 PCOD9388258
Probable space group: P M M M
;
_chemical_formula_sum "Si O2"
_cell_formula_units_Z 64
_cell_length_a 29.498726
_cell_length_b 14.731272
_cell_length_c 7.465802
_cell_angle_alpha 90.000000
_cell_angle_beta 90.000000
_cell_angle_gamma 90.000000
_cell_volume 3244.292303
_symmetry_space_group_name_H-M "P M M M"
_symmetry_group_IT_number 47
_symmetry_cell_setting 'orthorhombic'
loop_
_space_group_symop_operation_xyz
x,y,z
-x,-y,z
x,-y,-z
-x,y,-z
-x,-y,-z
x,y,-z
-x,y,z
x,-y,z
loop_
_atom_site_type_symbol
_atom_site_label
_atom_site_fract_x
_atom_site_fract_y
_atom_site_fract_z
Si Si1 0.868270 0.770698 0.282904
Si Si2 0.193332 0.604503 0.280920
Si Si3 0.622475 0.742626 0.209608
Si Si4 0.784609 0.898127 0.718203
Si Si5 0.052387 0.897337 0.281516
Si Si6 0.550531 0.104697 0.284279
Si Si7 0.272796 0.265060 0.709751
Si Si8 0.450326 0.604459 0.781386
O O1 0.870426 0.765128 0.500000
O O2 0.847146 0.673768 0.224951
O O3 0.830824 0.846488 0.236854
O O4 0.915464 0.814934 0.221074
O O5 0.192699 0.601954 0.500000
O O6 0.189495 0.500000 0.220994
O O7 0.240816 0.652773 0.222210
O O8 0.593305 0.834483 0.231123
O O9 0.673374 0.733865 0.277159
O O10 0.589709 0.665956 0.288146
O O11 0.626794 0.725920 0.000000
O O12 0.783027 0.903147 0.500000
O O13 0.745276 0.830806 0.782465
O O14 0.781919 0.000000 0.785576
O O15 0.053563 0.897223 0.500000
O O16 0.000000 0.886123 0.228066
O O17 0.067225 0.000000 0.227979
O O18 0.549442 0.105451 0.500000
O O19 0.500000 0.136165 0.222413
O O20 0.555720 0.000000 0.226869
O O21 0.261795 0.263997 0.500000
O O22 0.500000 0.636830 0.723706
O O23 0.445260 0.500000 0.730172
O O24 0.450096 0.607376 0.000000
#
# Coordination Sequence:
#
# PCOD9388258 Si02
#       8
#     8   8   8   8   8   8   8   8
#     4   8  12  18  30  48  68  91 126 172 215 253
#     4   8  14  25  40  55  71  96 134 180 222 255
#     4  11  21  31  47  71  95 117 142 176 219 263
#     4   8  13  22  37  54  70  92 127 170 207 238
#     4   8  12  16  23  39  66  99 131 165 211 265
#     4   9  19  36  55  72  91 119 153 183 212 251
#     4   9  18  30  42  59  82 108 139 172 210 257
#     4   8  15  29  47  65  85 109 136 164 197 243
#
# _framework density 19.726953999999999
#
# number of rings (size 3 to 8) (size 9 to 14) (size 15 to 20)
#    0.000    3.375    0.000    3.750    0.000    3.500 
#    0.000    1.875    0.000    1.500    0.000    7.000 
#    0.000    0.000    0.000    0.000    0.000   10.000 
#
# Total GULP energy -356500.369214 kJ/mol
# GULP energy per Si atom -5570.318269 kJ/mol
# Density = 1.968205 g / cm^3
# Si number density = 19.726954 Si / 1000 Ang^3
#
#
#
# Elastic Constant Matrix: (Units=GPa)
#
#
# Indices 1 2 3 4 5 6 
#
# 1 141.1558 97.0495 -3.2842 0.0000 0.0000 0.0000
# 2 97.0495 176.9484 2.5122 0.0000 0.0000 0.0000
# 3 -3.2842 2.5122 53.1064 0.0000 0.0000 0.0000
# 4 0.0000 0.0000 0.0000 -1.2470 0.0000 0.0000
# 5 0.0000 0.0000 0.0000 0.0000 -20.8444 0.0000
# 6 0.0000 0.0000 0.0000 0.0000 0.0000 33.3386
#
#
#
# Elastic Compliance Matrix: (Units=1/GPa)
#
#
# Indices 1 2 3 4 5 6 
#
# 1 0.011426 -0.006281 0.001004 0.000000 0.000000 0.000000
# 2 -0.006281 0.009108 -0.000819 0.000000 0.000000 0.000000
# 3 0.001004 -0.000819 0.018931 0.000000 0.000000 0.000000
# 4 0.000000 0.000000 0.000000 -0.801904 0.000000 0.000000
# 5 0.000000 0.000000 0.000000 0.000000 -0.047975 0.000000
# 6 0.000000 0.000000 0.000000 0.000000 0.000000 0.029995
#
#
# Mechanical properties :
#
#
# Convention : Reuss Voigt Hill
#
# Bulk Modulus (GPa) = 36.66788 62.64062 49.65425
# Shear Modulus (GPa) = -6.58645 20.57832 6.99594
#
# Velocity S-wave (km/s) = -1.82922 3.23330 1.88523
# Velocity P-wave (km/s) = 3.76386 6.76474 5.47396
#
# Compressibility (1/GPa) = 0.02727183
#
# Stress axis : x y z
#
# Youngs Moduli (GPa) = 87.51830 109.79440 52.82356
#
# Poissons Ratio (x) = 0.68963 -0.05302
# Poissons Ratio (y) = 0.54971 0.04328
# Poissons Ratio (z) = -0.08785 0.08995
#
# Static dielectric constant tensor:
#      x y z
#    x 1.708920 0.000000 0.000000 
#    y 0.000000 1.697650 0.000000 
#    z 0.000000 0.000000 1.786420 
# 
# From -- ./inp_files/14305.got.cif
#   From: 2010.05.17/outbox.cif.g08.bks.cpg/sg47_8_cif.got.tgz:14305.got - 2010.06.03 20:15:42.
