data_PCOD9388977
_publ_section_title
;
Structure prediction by ZEFSAII (Michael W. Deem and Ramdas Pophale) SiO2 
 PCOD9388977
Probable space group: P M M M
;
_chemical_formula_sum "Si O2"
_cell_formula_units_Z 36
_cell_length_a 9.865670
_cell_length_b 7.417558
_cell_length_c 24.371954
_cell_angle_alpha 90.000000
_cell_angle_beta 90.000000
_cell_angle_gamma 90.000000
_cell_volume 1783.519595
_symmetry_space_group_name_H-M "P M M M"
_symmetry_group_IT_number 47
_symmetry_cell_setting 'orthorhombic'
loop_
_space_group_symop_operation_xyz
x,y,z
-x,-y,z
x,-y,-z
-x,y,-z
-x,-y,-z
x,y,-z
-x,y,z
x,-y,z
loop_
_atom_site_type_symbol
_atom_site_label
_atom_site_fract_x
_atom_site_fract_y
_atom_site_fract_z
Si Si1 0.343880 0.279489 0.500000
Si Si2 0.653811 0.713402 0.179163
Si Si3 0.844628 0.279936 0.724066
Si Si4 0.155802 0.719581 0.399993
Si Si5 0.657574 0.216453 0.058949
O O1 0.344234 0.500000 0.500000
O O2 0.500000 0.221770 0.500000
O O3 0.260477 0.221444 0.553727
O O4 0.500000 0.787793 0.179190
O O5 0.642740 0.500000 0.188205
O O6 0.745649 0.785267 0.228239
O O7 0.715654 0.734287 0.118148
O O8 0.842869 0.500000 0.724525
O O9 0.807709 0.225183 0.662033
O O10 0.000000 0.225871 0.734094
O O11 0.155542 0.500000 0.400655
O O12 0.000000 0.774588 0.411305
O O13 0.500000 0.278086 0.060093
O O14 0.656342 0.000000 0.057633
O O15 0.715700 0.277977 0.000000
#
# Coordination Sequence:
#
# PCOD9388977 Si02
#       5
#     4   8   8   8   8
#     4   9  15  19  25  41  63  87 118 157 196 225
#     4   9  16  24  37  59  80  96 122 163 201 226
#     4   8  14  24  36  49  68  97 128 155 189 234
#     4   8  13  21  31  41  57  87 125 156 181 219
#     4   8  14  25  40  57  78 104 130 154 186 232
#
# _framework density 20.184805999999998
#
# number of rings (size 3 to 8) (size 9 to 14) (size 15 to 20)
#    0.000    3.667    0.000    2.333    0.000    2.667 
#    0.000    6.667    0.000    1.333    0.000    4.667 
#    0.000    0.000    0.000    1.000    0.000   21.333 
#
# Total GULP energy -200525.679901 kJ/mol
# GULP energy per Si atom -5570.157775 kJ/mol
# Density = 2.013886 g / cm^3
# Si number density = 20.184806 Si / 1000 Ang^3
#
#
#
# Elastic Constant Matrix: (Units=GPa)
#
#
# Indices 1 2 3 4 5 6 
#
# 1 93.8663 4.2532 124.0897 0.0000 0.0000 0.0000
# 2 4.2532 63.2557 4.0145 0.0000 0.0000 0.0000
# 3 124.0897 4.0145 237.5920 0.0000 0.0000 0.0000
# 4 0.0000 0.0000 0.0000 56.9896 0.0000 0.0000
# 5 0.0000 0.0000 0.0000 0.0000-1554.1656 0.0000
# 6 0.0000 0.0000 0.0000 0.0000 0.0000 -7.2865
#
#
#
# Elastic Compliance Matrix: (Units=1/GPa)
#
#
# Indices 1 2 3 4 5 6 
#
# 1 0.034503 -0.001178 -0.018000 0.000000 0.000000 0.000000
# 2 -0.001178 0.015866 0.000347 0.000000 0.000000 0.000000
# 3 -0.018000 0.000347 0.013604 0.000000 0.000000 0.000000
# 4 0.000000 0.000000 0.000000 0.017547 0.000000 0.000000
# 5 0.000000 0.000000 0.000000 0.000000 -0.000643 0.000000
# 6 0.000000 0.000000 0.000000 0.000000 0.000000 -0.137241
#
#
# Mechanical properties :
#
#
# Convention : Reuss Voigt Hill
#
# Bulk Modulus (GPa) = 38.00643 73.26988 55.63815
# Shear Modulus (GPa) = -503.43534 -283.40207 -393.41870
#
# Velocity S-wave (km/s) = -15.80995 -11.86206 -13.97610
# Velocity P-wave (km/s) = 17.73140 12.29768 15.25837
#
# Compressibility (1/GPa) = 0.02631134
#
# Stress axis : x y z
#
# Youngs Moduli (GPa) = 28.98303 63.02781 73.50640
#
# Poissons Ratio (x) = 0.07422 1.32314
# Poissons Ratio (y) = 0.03413 -0.02550
# Poissons Ratio (z) = 0.52170 -0.02187
#
# Static dielectric constant tensor:
#      x y z
#    x 1.681020 0.000000 0.000000 
#    y 0.000000 1.776490 0.000000 
#    z 0.000000 0.000000 1.737400 
# 
# From -- ./inp_files/1458.got.cif
#   From: 2010.05.17/outbox.cif.g08.bks.cpg/sg47_1_cif.got.tgz:1458.got - 2010.06.03 20:15:42.
