data_PCOD9388335
_publ_section_title
;
Structure prediction by ZEFSAII (Michael W. Deem and Ramdas Pophale) SiO2 
 PCOD9388335
Probable space group: P M M M
;
_chemical_formula_sum "Si O2"
_cell_formula_units_Z 32
_cell_length_a 13.894625
_cell_length_b 7.479749
_cell_length_c 18.762368
_cell_angle_alpha 90.000000
_cell_angle_beta 90.000000
_cell_angle_gamma 90.000000
_cell_volume 1949.941150
_symmetry_space_group_name_H-M "P M M M"
_symmetry_group_IT_number 47
_symmetry_cell_setting 'orthorhombic'
loop_
_space_group_symop_operation_xyz
x,y,z
-x,-y,z
x,-y,-z
-x,y,-z
-x,-y,-z
x,y,-z
-x,y,z
x,-y,z
loop_
_atom_site_type_symbol
_atom_site_label
_atom_site_fract_x
_atom_site_fract_y
_atom_site_fract_z
Si Si1 0.108467 0.782790 0.000000
Si Si2 0.888064 0.283150 0.266616
Si Si3 0.614029 0.500000 0.914072
Si Si4 0.115476 0.285701 0.423483
Si Si5 0.240967 0.207094 0.868914
O O1 0.166384 0.730269 0.070108
O O2 0.000000 0.715859 0.000000
O O3 0.104561 0.000000 0.000000
O O4 0.889206 0.500000 0.267144
O O5 0.854452 0.220794 0.345387
O O6 0.815882 0.223842 0.205223
O O7 0.000000 0.226878 0.254454
O O8 0.500000 0.500000 0.902768
O O9 0.666183 0.670100 0.878665
O O10 0.630780 0.500000 0.000000
O O11 0.152448 0.215995 0.500000
O O12 0.131440 0.500000 0.423977
O O13 0.000000 0.259575 0.423839
O O14 0.264776 0.000000 0.881766
#
# Coordination Sequence:
#
# PCOD9388335 Si02
#       5
#     4   8   4   8   8
#     4   9  18  31  47  70 101 135 164 190 224 276
#     4   9  16  26  44  71 104 141 175 205 239 283
#     4  11  24  42  60  76  93 118 161 213 262 305
#     4   7  10  18  34  59  93 134 176 209 235 269
#     4  11  21  35  53  75 102 130 164 202 245 296
#
# _framework density 16.410753
#
# number of rings (size 3 to 8) (size 9 to 14) (size 15 to 20)
#    0.000    2.750    2.500    3.000    0.000    2.000 
#    0.000    1.875    0.000    0.750    0.000    3.500 
#    0.000    2.000    0.000    2.250    0.000    0.000 
#
# Total GULP energy -178276.587024 kJ/mol
# GULP energy per Si atom -5571.143345 kJ/mol
# Density = 1.637340 g / cm^3
# Si number density = 16.410753 Si / 1000 Ang^3
#
#
#
# Elastic Constant Matrix: (Units=GPa)
#
#
# Indices 1 2 3 4 5 6 
#
# 1 92.4302 35.0685 56.3131 0.0000 0.0000 0.0000
# 2 35.0685 75.8694 21.1711 0.0000 0.0000 0.0000
# 3 56.3131 21.1711 159.1510 0.0000 0.0000 0.0000
# 4 0.0000 0.0000 0.0000 -78.9235 0.0000 0.0000
# 5 0.0000 0.0000 0.0000 0.0000 2.9073 0.0000
# 6 0.0000 0.0000 0.0000 0.0000 0.0000 -120.5507
#
#
#
# Elastic Compliance Matrix: (Units=1/GPa)
#
#
# Indices 1 2 3 4 5 6 
#
# 1 0.016105 -0.006079 -0.004890 0.000000 0.000000 0.000000
# 2 -0.006079 0.015984 0.000025 0.000000 0.000000 0.000000
# 3 -0.004890 0.000025 0.008010 0.000000 0.000000 0.000000
# 4 0.000000 0.000000 0.000000 -0.012670 0.000000 0.000000
# 5 0.000000 0.000000 0.000000 0.000000 0.343965 0.000000
# 6 0.000000 0.000000 0.000000 0.000000 0.000000 -0.008295
#
#
# Mechanical properties :
#
#
# Convention : Reuss Voigt Hill
#
# Bulk Modulus (GPa) = 54.91492 61.39510 58.15501
# Shear Modulus (GPa) = 12.78590 -24.98687 -6.10049
#
# Velocity S-wave (km/s) = 2.79430 -3.90627 -1.93014
# Velocity P-wave (km/s) = 6.62919 4.14095 5.52692
#
# Compressibility (1/GPa) = 0.01820999
#
# Stress axis : x y z
#
# Youngs Moduli (GPa) = 62.09422 62.56392 124.84163
#
# Poissons Ratio (x) = 0.38035 0.61043
# Poissons Ratio (y) = 0.37750 -0.00311
# Poissons Ratio (z) = 0.30362 -0.00156
#
# Static dielectric constant tensor:
#      x y z
#    x 1.495180 0.000000 0.000000 
#    y 0.000000 1.606150 0.000000 
#    z 0.000000 0.000000 1.591100 
# 
# From -- ./inp_files/8594.got.cif
#   From: 2010.05.17/outbox.cif.g08.bks.cpg/sg47_5_cif.got.tgz:8594.got - 2010.06.03 20:15:42.
