data_PCOD9388547
_publ_section_title
;
Structure prediction by ZEFSAII (Michael W. Deem and Ramdas Pophale) SiO2 
 PCOD9388547
Probable space group: P M M M
;
_chemical_formula_sum "Si O2"
_cell_formula_units_Z 52
_cell_length_a 33.325290
_cell_length_b 8.448210
_cell_length_c 11.975435
_cell_angle_alpha 90.000000
_cell_angle_beta 90.000000
_cell_angle_gamma 90.000000
_cell_volume 3371.552572
_symmetry_space_group_name_H-M "P M M M"
_symmetry_group_IT_number 47
_symmetry_cell_setting 'orthorhombic'
loop_
_space_group_symop_operation_xyz
x,y,z
-x,-y,z
x,-y,-z
-x,y,-z
-x,-y,-z
x,y,-z
-x,y,z
x,-y,z
loop_
_atom_site_type_symbol
_atom_site_label
_atom_site_fract_x
_atom_site_fract_y
_atom_site_fract_z
Si Si1 0.500000 0.190074 0.129490
Si Si2 0.091665 0.823218 0.864041
Si Si3 0.046786 0.500000 0.864272
Si Si4 0.423350 0.311867 0.264838
Si Si5 0.258705 0.183576 0.135725
Si Si6 0.546726 0.189679 0.500000
Si Si7 0.825488 0.679583 0.135635
Si Si8 0.652533 0.191784 0.129497
O O1 0.460585 0.253190 0.190305
O O2 0.500000 0.000000 0.136543
O O3 0.500000 0.236535 0.000000
O O4 0.067415 0.665698 0.827712
O O5 0.138138 0.793776 0.831636
O O6 0.078381 0.000000 0.828004
O O7 0.089851 0.823412 0.000000
O O8 0.000000 0.500000 0.834322
O O9 0.049732 0.500000 0.000000
O O10 0.422960 0.500000 0.266984
O O11 0.431361 0.248298 0.388917
O O12 0.382618 0.250323 0.208657
O O13 0.218931 0.273162 0.174364
O O14 0.302878 0.245064 0.166893
O O15 0.255279 0.000000 0.168992
O O16 0.258768 0.186739 0.000000
O O17 0.500000 0.244790 0.500000
O O18 0.546067 0.000000 0.500000
O O19 0.835227 0.500000 0.168171
O O20 0.824414 0.683574 0.000000
O O21 0.653108 0.000000 0.129359
O O22 0.645766 0.241342 0.000000
#
# Coordination Sequence:
#
# PCOD9388547 Si02
#       8
#     4   8   4   8   8   4   8   8
#     4  11  23  38  55  74  97 127 157 177 206 257
#     4   9  15  22  31  41  55  77 107 145 191 242
#     4   9  16  24  30  38  54  74 104 148 196 246
#     4  12  24  36  54  77 100 119 144 186 226 257
#     4   8  14  24  38  56  77 104 136 164 192 235
#     4  11  23  41  63  77  90 118 154 184 218 260
#     4   9  14  20  31  47  67  89 116 153 194 237
#     4   9  18  33  50  68  95 128 155 176 207 261
#
# _framework density 15.423161
#
# number of rings (size 3 to 8) (size 9 to 14) (size 15 to 20)
#    0.000    2.385    1.538    3.692    0.000    5.846 
#    0.000    3.077    0.000    0.000    0.000    0.000 
#    0.000    0.000    0.000    0.000    0.000    0.000 
#
# Total GULP energy -289671.713151 kJ/mol
# GULP energy per Si atom -5570.609868 kJ/mol
# Density = 1.538806 g / cm^3
# Si number density = 15.423161 Si / 1000 Ang^3
#
#
#
# Elastic Constant Matrix: (Units=GPa)
#
#
# Indices 1 2 3 4 5 6 
#
# 1 116.0322 53.1449 28.6133 0.0000 0.0000 0.0000
# 2 53.1449 87.6455 23.0234 0.0000 0.0000 0.0000
# 3 28.6133 23.0234 49.1492 0.0000 0.0000 0.0000
# 4 0.0000 0.0000 0.0000 16.4289 0.0000 0.0000
# 5 0.0000 0.0000 0.0000 0.0000 -1.3242 0.0000
# 6 0.0000 0.0000 0.0000 0.0000 0.0000 24.4051
#
#
#
# Elastic Compliance Matrix: (Units=1/GPa)
#
#
# Indices 1 2 3 4 5 6 
#
# 1 0.012686 -0.006560 -0.004313 0.000000 0.000000 0.000000
# 2 -0.006560 0.016402 -0.003865 0.000000 0.000000 0.000000
# 3 -0.004313 -0.003865 0.024667 0.000000 0.000000 0.000000
# 4 0.000000 0.000000 0.000000 0.060868 0.000000 0.000000
# 5 0.000000 0.000000 0.000000 0.000000 -0.755164 0.000000
# 6 0.000000 0.000000 0.000000 0.000000 0.000000 0.040975
#
#
# Mechanical properties :
#
#
# Convention : Reuss Voigt Hill
#
# Bulk Modulus (GPa) = 41.18311 51.37670 46.27990
# Shear Modulus (GPa) = -8.89685 17.77163 4.43739
#
# Velocity S-wave (km/s) = -2.40438 3.39819 1.69804
# Velocity P-wave (km/s) = 4.36487 6.98431 5.82377
#
# Compressibility (1/GPa) = 0.02428180
#
# Stress axis : x y z
#
# Youngs Moduli (GPa) = 78.82578 60.96730 40.53929
#
# Poissons Ratio (x) = 0.39992 0.17484
# Poissons Ratio (y) = 0.51706 0.15667
# Poissons Ratio (z) = 0.33996 0.23562
#
# Static dielectric constant tensor:
#      x y z
#    x 1.528010 0.000000 0.000000 
#    y 0.000000 1.537930 0.000000 
#    z 0.000000 0.000000 1.468470 
# 
# From -- ./inp_files/20089.got.cif
#   From: 2010.05.17/outbox.cif.g08.bks.cpg/sg47_11_cif.got.tgz:20089.got - 2010.06.03 20:15:42.
