data_PCOD9388813
_publ_section_title
;
Structure prediction by ZEFSAII (Michael W. Deem and Ramdas Pophale) SiO2 
 PCOD9388813
Probable space group: P M M M
;
_chemical_formula_sum "Si O2"
_cell_formula_units_Z 56
_cell_length_a 30.845064
_cell_length_b 7.438198
_cell_length_c 14.029412
_cell_angle_alpha 90.000000
_cell_angle_beta 90.000000
_cell_angle_gamma 90.000000
_cell_volume 3218.791752
_symmetry_space_group_name_H-M "P M M M"
_symmetry_group_IT_number 47
_symmetry_cell_setting 'orthorhombic'
loop_
_space_group_symop_operation_xyz
x,y,z
-x,-y,z
x,-y,-z
-x,y,-z
-x,-y,-z
x,y,-z
-x,y,z
x,-y,z
loop_
_atom_site_type_symbol
_atom_site_label
_atom_site_fract_x
_atom_site_fract_y
_atom_site_fract_z
Si Si1 0.910493 0.787289 0.799403
Si Si2 0.134563 0.283238 0.392719
Si Si3 0.000000 0.779916 0.888955
Si Si4 0.223686 0.712086 0.701373
Si Si5 0.406603 0.283256 0.613947
Si Si6 0.312241 0.719560 0.388396
Si Si7 0.821370 0.782999 0.107061
Si Si8 0.500000 0.281698 0.613387
O O1 0.900550 0.763121 0.687716
O O2 0.868228 0.716010 0.855363
O O3 0.956213 0.716999 0.836939
O O4 0.911157 0.000000 0.818375
O O5 0.125876 0.220336 0.500000
O O6 0.136588 0.500000 0.394985
O O7 0.181435 0.215942 0.354807
O O8 0.000000 0.000000 0.886040
O O9 0.000000 0.729063 0.000000
O O10 0.224649 0.500000 0.679935
O O11 0.269945 0.783882 0.667667
O O12 0.213424 0.733829 0.812726
O O13 0.406386 0.248888 0.500000
O O14 0.406963 0.500000 0.624984
O O15 0.359541 0.219095 0.648505
O O16 0.453292 0.217677 0.651646
O O17 0.307910 0.767643 0.500000
O O18 0.313059 0.500000 0.385037
O O19 0.823154 0.000000 0.105377
O O20 0.812662 0.720489 0.000000
O O21 0.500000 0.500000 0.620692
O O22 0.500000 0.241544 0.500000
#
# Coordination Sequence:
#
# PCOD9388813 Si02
#       8
#     8   8   4   8   8   8   8   4
#     4   9  17  29  46  66  82  97 122 153 182 215
#     4   9  17  29  43  58  79 107 133 155 181 213
#     4   9  16  28  48  69  84  98 119 151 190 227
#     4   9  16  25  39  58  76  96 126 159 184 210
#     4   7   9  12  19  33  55  85 119 150 177 206
#     4   8  12  18  29  46  68  94 124 155 183 210
#     4   9  17  29  43  58  77  99 120 144 179 223
#     4   7   8  10  16  28  50  82 118 149 174 204
#
# _framework density 17.397832000000001
#
# number of rings (size 3 to 8) (size 9 to 14) (size 15 to 20)
#    0.000    3.571    0.000    2.571    0.000    4.000 
#    0.000    0.714    0.000    5.143    0.000    0.000 
#    0.000    0.000    0.000    1.286    0.000   24.857 
#
# Total GULP energy -311765.460575 kJ/mol
# GULP energy per Si atom -5567.240367 kJ/mol
# Density = 1.735823 g / cm^3
# Si number density = 17.397832 Si / 1000 Ang^3
#
#
#
# Elastic Constant Matrix: (Units=GPa)
#
#
# Indices 1 2 3 4 5 6 
#
# 1 191.3720 5.4894 79.6558 0.0000 0.0000 0.0000
# 2 5.4894 50.1964 -8.9576 0.0000 0.0000 0.0000
# 3 79.6558 -8.9576 87.6732 0.0000 0.0000 0.0000
# 4 0.0000 0.0000 0.0000 8.2460 0.0000 0.0000
# 5 0.0000 0.0000 0.0000 0.0000 15.3933 0.0000
# 6 0.0000 0.0000 0.0000 0.0000 0.0000 6.6263
#
#
#
# Elastic Compliance Matrix: (Units=1/GPa)
#
#
# Indices 1 2 3 4 5 6 
#
# 1 0.008678 -0.002400 -0.008130 0.000000 0.000000 0.000000
# 2 -0.002400 0.020955 0.004321 0.000000 0.000000 0.000000
# 3 -0.008130 0.004321 0.019234 0.000000 0.000000 0.000000
# 4 0.000000 0.000000 0.000000 0.121271 0.000000 0.000000
# 5 0.000000 0.000000 0.000000 0.000000 0.064963 0.000000
# 6 0.000000 0.000000 0.000000 0.000000 0.000000 0.150913
#
#
# Mechanical properties :
#
#
# Convention : Reuss Voigt Hill
#
# Bulk Modulus (GPa) = 27.43414 53.51297 40.47355
# Shear Modulus (GPa) = 12.17784 22.92338 17.55061
#
# Velocity S-wave (km/s) = 2.64855 3.63381 3.17958
# Velocity P-wave (km/s) = 5.01558 6.95926 6.06578
#
# Compressibility (1/GPa) = 0.03645093
#
# Stress axis : x y z
#
# Youngs Moduli (GPa) = 115.23184 47.72053 51.99171
#
# Poissons Ratio (x) = 0.11452 0.42268
# Poissons Ratio (y) = 0.27653 -0.22467
# Poissons Ratio (z) = 0.93681 -0.20622
#
# Static dielectric constant tensor:
#      x y z
#    x 1.639360 0.000000 0.000000 
#    y 0.000000 1.691180 0.000000 
#    z 0.000000 0.000000 1.553980 
# 
# From -- ./inp_files/25825.got.cif
#   From: 2010.05.17/outbox.cif.g08.bks.cpg/sg47_13_cif.got.tgz:25825.got - 2010.06.03 20:15:42.
