data_PCOD9388472
_publ_section_title
;
Structure prediction by ZEFSAII (Michael W. Deem and Ramdas Pophale) SiO2 
 PCOD9388472
Probable space group: P M M M
;
_chemical_formula_sum "Si O2"
_cell_formula_units_Z 40
_cell_length_a 7.766166
_cell_length_b 18.700771
_cell_length_c 13.043414
_cell_angle_alpha 90.000000
_cell_angle_beta 90.000000
_cell_angle_gamma 90.000000
_cell_volume 1894.337953
_symmetry_space_group_name_H-M "P M M M"
_symmetry_group_IT_number 47
_symmetry_cell_setting 'orthorhombic'
loop_
_space_group_symop_operation_xyz
x,y,z
-x,-y,z
x,-y,-z
-x,y,-z
-x,-y,-z
x,y,-z
-x,y,z
x,-y,z
loop_
_atom_site_type_symbol
_atom_site_label
_atom_site_fract_x
_atom_site_fract_y
_atom_site_fract_z
Si Si1 0.709985 0.305916 0.115709
Si Si2 0.710756 0.581228 0.284965
Si Si3 0.288531 0.351363 0.500000
Si Si4 0.291735 0.858624 0.115462
Si Si5 0.299998 0.809677 0.500000
Si Si6 0.797876 0.922039 0.670511
O O1 0.500000 0.305473 0.118040
O O2 0.769455 0.362188 0.199719
O O3 0.762881 0.223779 0.134437
O O4 0.761616 0.325339 0.000000
O O5 0.500000 0.581587 0.283088
O O6 0.765850 0.500000 0.265463
O O7 0.764336 0.608273 0.396889
O O8 0.500000 0.352147 0.500000
O O9 0.221410 0.269619 0.500000
O O10 0.500000 0.860061 0.115810
O O11 0.231132 0.905887 0.209882
O O12 0.235934 0.879151 0.000000
O O13 0.500000 0.795223 0.500000
O O14 0.264781 0.857598 0.400289
O O15 0.000000 0.925679 0.651125
O O16 0.721617 0.000000 0.644164
#
# Coordination Sequence:
#
# PCOD9388472 Si02
#       6
#     8   8   4   8   4   8
#     4   8  14  25  41  63  93 128 166 207 246 284
#     4   9  15  22  35  59  95 134 163 191 239 302
#     4   9  17  28  43  65  92 123 162 206 248 291
#     4   9  18  34  56  79 104 138 179 218 253 296
#     4  11  22  37  59  79  98 133 178 218 256 305
#     4  11  24  39  54  76 108 138 164 207 267 319
#
# _framework density 21.115556000000002
#
# number of rings (size 3 to 8) (size 9 to 14) (size 15 to 20)
#    0.000    2.600    0.000    3.900    0.000    8.400 
#    0.000    4.000    0.000    0.000    0.000    0.000 
#    0.000   32.800    0.000   17.600    0.000   17.600 
#
# Total GULP energy -223307.136417 kJ/mol
# GULP energy per Si atom -5582.678410 kJ/mol
# Density = 2.106750 g / cm^3
# Si number density = 21.115556 Si / 1000 Ang^3
#
#
#
# Elastic Constant Matrix: (Units=GPa)
#
#
# Indices 1 2 3 4 5 6 
#
# 1 25.7401 -4.0162 -8.7104 0.0000 0.0000 0.0000
# 2 -4.0162 44.5997 1.5987 0.0000 0.0000 0.0000
# 3 -8.7104 1.5987 62.9601 0.0000 0.0000 0.0000
# 4 0.0000 0.0000 0.0000 -103.0106 0.0000 0.0000
# 5 0.0000 0.0000 0.0000 0.0000 46.4970 0.0000
# 6 0.0000 0.0000 0.0000 0.0000 0.0000 32.8198
#
#
#
# Elastic Compliance Matrix: (Units=1/GPa)
#
#
# Indices 1 2 3 4 5 6 
#
# 1 0.041302 0.003518 0.005625 0.000000 0.000000 0.000000
# 2 0.003518 0.022742 -0.000091 0.000000 0.000000 0.000000
# 3 0.005625 -0.000091 0.016664 0.000000 0.000000 0.000000
# 4 0.000000 0.000000 0.000000 -0.009708 0.000000 0.000000
# 5 0.000000 0.000000 0.000000 0.000000 0.021507 0.000000
# 6 0.000000 0.000000 0.000000 0.000000 0.000000 0.030469
#
#
# Mechanical properties :
#
#
# Convention : Reuss Voigt Hill
#
# Bulk Modulus (GPa) = 10.12038 12.33824 11.22931
# Shear Modulus (GPa) = 36.28194 4.88976 20.58585
#
# Velocity S-wave (km/s) = 4.14968 1.52340 3.12575
# Velocity P-wave (km/s) = 5.26907 2.99169 4.28447
#
# Compressibility (1/GPa) = 0.09881052
#
# Stress axis : x y z
#
# Youngs Moduli (GPa) = 24.21180 43.97208 60.01126
#
# Poissons Ratio (x) = -0.15468 -0.33755
# Poissons Ratio (y) = -0.08517 0.00545
# Poissons Ratio (z) = -0.13618 0.00399
#
# Static dielectric constant tensor:
#      x y z
#    x 1.790550 0.000000 0.000000 
#    y 0.000000 1.789520 0.000000 
#    z 0.000000 0.000000 1.737650 
# 
# From -- ./inp_files/15107.got.cif
#   From: 2010.05.17/outbox.cif.g08.bks.cpg/sg47_8_cif.got.tgz:15107.got - 2010.06.03 20:15:42.
