data_PCOD9388379
_publ_section_title
;
Structure prediction by ZEFSAII (Michael W. Deem and Ramdas Pophale) SiO2 
 PCOD9388379
Probable space group: P M M M
;
_chemical_formula_sum "Si O2"
_cell_formula_units_Z 38
_cell_length_a 24.252287
_cell_length_b 10.245240
_cell_length_c 7.577193
_cell_angle_alpha 90.000000
_cell_angle_beta 90.000000
_cell_angle_gamma 90.000000
_cell_volume 1882.708940
_symmetry_space_group_name_H-M "P M M M"
_symmetry_group_IT_number 47
_symmetry_cell_setting 'orthorhombic'
loop_
_space_group_symop_operation_xyz
x,y,z
-x,-y,z
x,-y,-z
-x,y,-z
-x,-y,-z
x,y,-z
-x,y,z
x,-y,z
loop_
_atom_site_type_symbol
_atom_site_label
_atom_site_fract_x
_atom_site_fract_y
_atom_site_fract_z
Si Si1 0.000000 0.000000 0.000000
Si Si2 0.000000 0.500000 0.000000
Si Si3 0.718839 0.850658 0.212787
Si Si4 0.905892 0.500000 0.694870
Si Si5 0.500000 0.348588 0.283588
Si Si6 0.832911 0.745888 0.212836
Si Si7 0.904093 0.000000 0.298914
Si Si8 0.593030 0.148668 0.291001
O O1 0.952051 0.000000 0.154634
O O2 0.048228 0.500000 0.845931
O O3 0.769525 0.761358 0.272269
O O4 0.656984 0.814964 0.265839
O O5 0.728477 0.000000 0.273611
O O6 0.720211 0.852324 0.000000
O O7 0.931028 0.500000 0.500000
O O8 0.866403 0.375670 0.715380
O O9 0.500000 0.500000 0.225516
O O10 0.500000 0.352932 0.500000
O O11 0.552477 0.261587 0.225052
O O12 0.865910 0.874537 0.268061
O O13 0.833385 0.737649 0.000000
O O14 0.924936 0.000000 0.500000
O O15 0.582539 0.139393 0.500000
O O16 0.584766 0.000000 0.219239
#
# Coordination Sequence:
#
# PCOD9388379 Si02
#       8
#     1   1   8   4   4   8   4   8
#     4  12  26  46  64 100 140 166 214 260 320 364
#     4  12  26  54  72  92 132 174 214 260 320 372
#     4   9  18  34  61  88 119 158 199 245 310 372
#     4  12  27  45  71  98 125 166 219 264 317 383
#     4   9  17  31  50  73 112 158 194 243 308 356
#     4  11  21  44  66  92 128 171 206 263 326 380
#     4  12  25  41  69  96 129 170 213 260 317 379
#     4   9  17  30  51  80 109 147 200 250 293 353
#
# _framework density 20.183682999999998
#
# number of rings (size 3 to 8) (size 9 to 14) (size 15 to 20)
#    0.000    1.789    3.158    1.263    0.000    4.632 
#    1.895    2.632    0.000    3.158    0.000    0.000 
#    0.000    0.000    0.000    0.000    0.000    0.000 
#
# Total GULP energy -211644.095771 kJ/mol
# GULP energy per Si atom -5569.581468 kJ/mol
# Density = 2.013774 g / cm^3
# Si number density = 20.183683 Si / 1000 Ang^3
#
#
#
# Elastic Constant Matrix: (Units=GPa)
#
#
# Indices 1 2 3 4 5 6 
#
# 1 186.2314 102.7976 32.9577 0.0000 0.0000 0.0000
# 2 102.7976 149.0962 18.9471 0.0000 0.0000 0.0000
# 3 32.9577 18.9471 111.3028 0.0000 0.0000 0.0000
# 4 0.0000 0.0000 0.0000 13.4908 0.0000 0.0000
# 5 0.0000 0.0000 0.0000 0.0000 26.9277 0.0000
# 6 0.0000 0.0000 0.0000 0.0000 0.0000 886.2660
#
#
#
# Elastic Compliance Matrix: (Units=1/GPa)
#
#
# Indices 1 2 3 4 5 6 
#
# 1 0.008951 -0.005964 -0.001635 0.000000 0.000000 0.000000
# 2 -0.005964 0.010829 -0.000078 0.000000 0.000000 0.000000
# 3 -0.001635 -0.000078 0.009482 0.000000 0.000000 0.000000
# 4 0.000000 0.000000 0.000000 0.074125 0.000000 0.000000
# 5 0.000000 0.000000 0.000000 0.000000 0.037137 0.000000
# 6 0.000000 0.000000 0.000000 0.000000 0.000000 0.001128
#
#
# Mechanical properties :
#
#
# Convention : Reuss Voigt Hill
#
# Bulk Modulus (GPa) = 71.89704 84.00393 77.95048
# Shear Modulus (GPa) = 30.93300 204.79877 117.86588
#
# Velocity S-wave (km/s) = 3.91906 10.08404 7.65006
# Velocity P-wave (km/s) = 7.49516 13.31517 10.80442
#
# Compressibility (1/GPa) = 0.01390878
#
# Stress axis : x y z
#
# Youngs Moduli (GPa) = 111.72083 92.34768 105.46407
#
# Poissons Ratio (x) = 0.55072 0.17246
# Poissons Ratio (y) = 0.66626 0.00817
# Poissons Ratio (z) = 0.18269 0.00716
#
# Static dielectric constant tensor:
#      x y z
#    x 1.690040 0.000000 0.000000 
#    y 0.000000 1.685440 0.000000 
#    z 0.000000 0.000000 1.747160 
# 
# From -- ./inp_files/12202.got.cif
#   From: 2010.05.17/outbox.cif.g08.bks.cpg/sg47_7_cif.got.tgz:12202.got - 2010.06.03 20:15:42.
