data_PCOD9388599
_publ_section_title
;
Structure prediction by ZEFSAII (Michael W. Deem and Ramdas Pophale) SiO2 
 PCOD9388599
Probable space group: P M M M
;
_chemical_formula_sum "Si O2"
_cell_formula_units_Z 32
_cell_length_a 7.683924
_cell_length_b 9.712054
_cell_length_c 23.249573
_cell_angle_alpha 90.000000
_cell_angle_beta 90.000000
_cell_angle_gamma 90.000000
_cell_volume 1735.038556
_symmetry_space_group_name_H-M "P M M M"
_symmetry_group_IT_number 47
_symmetry_cell_setting 'orthorhombic'
loop_
_space_group_symop_operation_xyz
x,y,z
-x,-y,z
x,-y,-z
-x,y,-z
-x,-y,-z
x,y,-z
-x,y,z
x,-y,z
loop_
_atom_site_type_symbol
_atom_site_label
_atom_site_fract_x
_atom_site_fract_y
_atom_site_fract_z
Si Si1 0.794111 0.653863 0.000000
Si Si2 0.291145 0.155905 0.107499
Si Si3 0.711733 0.841191 0.764067
Si Si4 0.000000 0.667249 0.565466
Si Si5 0.295001 0.335198 0.654535
O O1 0.748372 0.739714 0.056780
O O2 0.716972 0.500000 0.000000
O O3 0.000000 0.641221 0.000000
O O4 0.500000 0.147713 0.110830
O O5 0.229122 0.197349 0.171441
O O6 0.227502 0.000000 0.095147
O O7 0.500000 0.837751 0.764569
O O8 0.764464 0.742288 0.712378
O O9 0.763086 0.000000 0.753899
O O10 0.828955 0.706363 0.601844
O O11 0.000000 0.500000 0.563114
O O12 0.000000 0.718151 0.500000
O O13 0.500000 0.305001 0.644160
O O14 0.279720 0.500000 0.662472
#
# Coordination Sequence:
#
# PCOD9388599 Si02
#       5
#     4   8   8   4   8
#     4  11  24  37  46  66 102 137 168 205 252 302
#     4   9  18  34  56  77  95 123 166 210 253 305
#     4   8  15  30  52  76 100 125 157 201 251 300
#     4   9  18  32  49  73 105 136 169 210 249 289
#     4   9  17  30  50  75 101 132 169 207 251 300
#
# _framework density 18.443393
#
# number of rings (size 3 to 8) (size 9 to 14) (size 15 to 20)
#    0.000    3.000    0.000    2.250    0.000    4.500 
#    2.250    5.625    0.000    1.500    0.000    3.500 
#    0.000    0.000    0.000    0.000    0.000    0.000 
#
# Total GULP energy -178336.662685 kJ/mol
# GULP energy per Si atom -5573.020709 kJ/mol
# Density = 1.840142 g / cm^3
# Si number density = 18.443393 Si / 1000 Ang^3
#
#
#
# Elastic Constant Matrix: (Units=GPa)
#
#
# Indices 1 2 3 4 5 6 
#
# 1 60.0732 29.6254 55.6372 0.0000 0.0000 0.0000
# 2 29.6254 69.4297 94.3093 0.0000 0.0000 0.0000
# 3 55.6372 94.3093 207.8081 0.0000 0.0000 0.0000
# 4 0.0000 0.0000 0.0000 52.1354 0.0000 0.0000
# 5 0.0000 0.0000 0.0000 0.0000 51.0091 0.0000
# 6 0.0000 0.0000 0.0000 0.0000 0.0000 30.4370
#
#
#
# Elastic Compliance Matrix: (Units=1/GPa)
#
#
# Indices 1 2 3 4 5 6 
#
# 1 0.022493 -0.003696 -0.004345 0.000000 0.000000 0.000000
# 2 -0.003696 0.038160 -0.016328 0.000000 0.000000 0.000000
# 3 -0.004345 -0.016328 0.013386 0.000000 0.000000 0.000000
# 4 0.000000 0.000000 0.000000 0.019181 0.000000 0.000000
# 5 0.000000 0.000000 0.000000 0.000000 0.019604 0.000000
# 6 0.000000 0.000000 0.000000 0.000000 0.000000 0.032855
#
#
# Mechanical properties :
#
#
# Convention : Reuss Voigt Hill
#
# Bulk Modulus (GPa) = 39.52566 77.38386 58.45476
# Shear Modulus (GPa) = 24.64876 37.23225 30.94050
#
# Velocity S-wave (km/s) = 3.65972 4.49790 4.10029
# Velocity P-wave (km/s) = 6.27179 8.30803 7.36067
#
# Compressibility (1/GPa) = 0.02530002
#
# Stress axis : x y z
#
# Youngs Moduli (GPa) = 44.45827 26.20567 74.70667
#
# Poissons Ratio (x) = 0.09685 0.32459
# Poissons Ratio (y) = 0.16432 1.21984
# Poissons Ratio (z) = 0.19316 0.42790
#
# Static dielectric constant tensor:
#      x y z
#    x 1.671760 0.000000 0.000000 
#    y 0.000000 1.635220 0.000000 
#    z 0.000000 0.000000 1.636370 
# 
# From -- ./inp_files/31623.got.cif
#   From: 2010.05.17/outbox.cif.g08.bks.cpg/sg47_16_cif.got.tgz:31623.got - 2010.06.03 20:15:42.
