data_PCOD9388371
_publ_section_title
;
Structure prediction by ZEFSAII (Michael W. Deem and Ramdas Pophale) SiO2 
 PCOD9388371
Probable space group: P M M M
;
_chemical_formula_sum "Si O2"
_cell_formula_units_Z 60
_cell_length_a 19.677791
_cell_length_b 13.536701
_cell_length_c 12.979194
_cell_angle_alpha 90.000000
_cell_angle_beta 90.000000
_cell_angle_gamma 90.000000
_cell_volume 3457.298707
_symmetry_space_group_name_H-M "P M M M"
_symmetry_group_IT_number 47
_symmetry_cell_setting 'orthorhombic'
loop_
_space_group_symop_operation_xyz
x,y,z
-x,-y,z
x,-y,-z
-x,y,-z
-x,-y,-z
x,y,-z
-x,y,z
x,-y,z
loop_
_atom_site_type_symbol
_atom_site_label
_atom_site_fract_x
_atom_site_fract_y
_atom_site_fract_z
Si Si1 0.578635 0.381175 0.617697
Si Si2 0.577904 0.888062 0.123736
Si Si3 0.918031 0.110804 0.000000
Si Si4 0.799913 0.382609 0.123413
Si Si5 0.098274 0.887653 0.381917
Si Si6 0.324000 0.732511 0.771613
Si Si7 0.077942 0.250742 0.189835
Si Si8 0.261612 0.889091 0.617440
O O1 0.596467 0.351231 0.500000
O O2 0.500000 0.351803 0.636045
O O3 0.581261 0.500000 0.621154
O O4 0.628486 0.337229 0.702239
O O5 0.500000 0.870330 0.158460
O O6 0.627984 0.803222 0.160961
O O7 0.597099 0.000000 0.156849
O O8 0.577582 0.888282 0.000000
O O9 0.900431 0.171303 0.102317
O O10 0.000000 0.103874 0.000000
O O11 0.889766 0.000000 0.000000
O O12 0.795369 0.500000 0.142064
O O13 0.732335 0.327964 0.164651
O O14 0.866071 0.336226 0.179693
O O15 0.806914 0.367285 0.000000
O O16 0.076918 0.867792 0.500000
O O17 0.077450 0.806983 0.298238
O O18 0.179999 0.888601 0.382336
O O19 0.076661 0.000000 0.354357
O O20 0.286433 0.806376 0.693858
O O21 0.000000 0.283107 0.167640
O O22 0.284308 0.870865 0.500000
O O23 0.283728 0.000000 0.646730
#
# Coordination Sequence:
#
# PCOD9388371 Si02
#       8
#     8   8   4   8   8   8   8   8
#     4   9  19  35  54  80 112 142 178 225 273 323
#     4   9  19  35  53  77 111 147 181 216 259 322
#     4   9  18  32  53  83 113 137 169 222 278 327
#     4  11  25  42  57  78 108 140 185 245 296 338
#     4   9  18  34  55  82 117 152 181 213 266 339
#     4  12  19  33  58  82 105 140 185 225 276 321
#     4  11  21  37  59  82 109 146 190 231 282 342
#     4   9  18  31  49  77 112 144 172 208 256 317
#
# _framework density 17.354588
#
# number of rings (size 3 to 8) (size 9 to 14) (size 15 to 20)
#    0.000    2.067    2.000    4.000    0.000    1.333 
#    0.000    1.333    0.000    1.200    0.000   12.133 
#    0.000    0.000    0.000    0.000    0.000    0.000 
#
# Total GULP energy -334620.364217 kJ/mol
# GULP energy per Si atom -5577.006070 kJ/mol
# Density = 1.731509 g / cm^3
# Si number density = 17.354588 Si / 1000 Ang^3
#
#
#
# Elastic Constant Matrix: (Units=GPa)
#
#
# Indices 1 2 3 4 5 6 
#
# 1 103.7966 62.4020 44.7922 0.0000 0.0000 0.0000
# 2 62.4020 111.5107 54.2061 0.0000 0.0000 0.0000
# 3 44.7922 54.2061 81.2987 0.0000 0.0000 0.0000
# 4 0.0000 0.0000 0.0000 30.0884 0.0000 0.0000
# 5 0.0000 0.0000 0.0000 0.0000 6.4528 0.0000
# 6 0.0000 0.0000 0.0000 0.0000 0.0000 -3.8547
#
#
#
# Elastic Compliance Matrix: (Units=1/GPa)
#
#
# Indices 1 2 3 4 5 6 
#
# 1 0.015368 -0.006634 -0.004044 0.000000 0.000000 0.000000
# 2 -0.006634 0.016132 -0.007101 0.000000 0.000000 0.000000
# 3 -0.004044 -0.007101 0.019263 0.000000 0.000000 0.000000
# 4 0.000000 0.000000 0.000000 0.033235 0.000000 0.000000
# 5 0.000000 0.000000 0.000000 0.000000 0.154971 0.000000
# 6 0.000000 0.000000 0.000000 0.000000 0.000000 -0.259424
#
#
# Mechanical properties :
#
#
# Convention : Reuss Voigt Hill
#
# Bulk Modulus (GPa) = 65.76765 68.82294 67.29529
# Shear Modulus (GPa) = 247.88957 15.55104 131.72030
#
# Velocity S-wave (km/s) = 11.96445 2.99670 8.72148
# Velocity P-wave (km/s) = 15.12755 7.19143 11.84398
#
# Compressibility (1/GPa) = 0.01520504
#
# Stress axis : x y z
#
# Youngs Moduli (GPa) = 65.07189 61.98821 51.91382
#
# Poissons Ratio (x) = 0.41124 0.20992
# Poissons Ratio (y) = 0.43170 0.36864
# Poissons Ratio (z) = 0.26312 0.44017
#
# Static dielectric constant tensor:
#      x y z
#    x 1.596880 0.000000 0.000000 
#    y 0.000000 1.573190 0.000000 
#    z 0.000000 0.000000 1.583630 
# 
# From -- ./inp_files/16599.got.cif
#   From: 2010.05.17/outbox.cif.g08.bks.cpg/sg47_9_cif.got.tgz:16599.got - 2010.06.03 20:15:42.
