data_PCOD9388183
_publ_section_title
;
Structure prediction by ZEFSAII (Michael W. Deem and Ramdas Pophale) SiO2 
 PCOD9388183
Probable space group: P M M M
;
_chemical_formula_sum "Si O2"
_cell_formula_units_Z 40
_cell_length_a 12.802082
_cell_length_b 9.337836
_cell_length_c 22.871816
_cell_angle_alpha 90.000000
_cell_angle_beta 90.000000
_cell_angle_gamma 90.000000
_cell_volume 2734.182475
_symmetry_space_group_name_H-M "P M M M"
_symmetry_group_IT_number 47
_symmetry_cell_setting 'orthorhombic'
loop_
_space_group_symop_operation_xyz
x,y,z
-x,-y,z
x,-y,-z
-x,y,-z
-x,-y,-z
x,y,-z
-x,y,z
x,-y,z
loop_
_atom_site_type_symbol
_atom_site_label
_atom_site_fract_x
_atom_site_fract_y
_atom_site_fract_z
Si Si1 0.500000 0.826441 0.933333
Si Si2 0.703952 0.827747 0.858447
Si Si3 0.372532 0.164380 0.500000
Si Si4 0.626983 0.335037 0.614182
Si Si5 0.876349 0.669440 0.931653
Si Si6 0.624513 0.328008 0.254179
O O1 0.603707 0.784997 0.898156
O O2 0.500000 0.000000 0.935517
O O3 0.500000 0.773170 0.000000
O O4 0.805427 0.764526 0.889963
O O5 0.685147 0.757749 0.795309
O O6 0.707566 0.000000 0.854843
O O7 0.500000 0.169601 0.500000
O O8 0.337589 0.242066 0.440664
O O9 0.341011 0.000000 0.500000
O O10 0.500000 0.333412 0.614157
O O11 0.658670 0.500000 0.606019
O O12 0.657082 0.288177 0.679580
O O13 0.855966 0.500000 0.922170
O O14 0.000000 0.693033 0.922715
O O15 0.853341 0.700665 0.000000
O O16 0.500000 0.299028 0.248086
O O17 0.637929 0.500000 0.248017
#
# Coordination Sequence:
#
# PCOD9388183 Si02
#       6
#     4   8   4   8   8   8
#     4   9  18  30  41  59  89 118 141 170 213 261
#     4  11  20  30  46  67  92 119 145 179 222 268
#     4   9  15  21  31  51  75 101 136 181 222 253
#     4   8  14  24  37  51  71 105 145 181 214 250
#     4   9  19  36  54  69  86 110 143 184 227 269
#     4   9  17  29  43  59  83 116 152 185 216 258
#
# _framework density 14.629602
#
# number of rings (size 3 to 8) (size 9 to 14) (size 15 to 20)
#    0.000    2.800    1.000    3.300    0.000    3.600 
#    0.000    3.000    0.000    2.400    0.000    0.000 
#    0.000    0.000    0.000    0.900    0.000   17.500 
#
# Total GULP energy -222819.255099 kJ/mol
# GULP energy per Si atom -5570.481377 kJ/mol
# Density = 1.459630 g / cm^3
# Si number density = 14.629602 Si / 1000 Ang^3
#
#
#
# Elastic Constant Matrix: (Units=GPa)
#
#
# Indices 1 2 3 4 5 6 
#
# 1 37.0593 33.5895 44.6183 0.0000 0.0000 0.0000
# 2 33.5895 66.3157 80.5837 0.0000 0.0000 0.0000
# 3 44.6183 80.5837 159.4752 0.0000 0.0000 0.0000
# 4 0.0000 0.0000 0.0000 18.8801 0.0000 0.0000
# 5 0.0000 0.0000 0.0000 0.0000 11.8832 0.0000
# 6 0.0000 0.0000 0.0000 0.0000 0.0000 16.9943
#
#
#
# Elastic Compliance Matrix: (Units=1/GPa)
#
#
# Indices 1 2 3 4 5 6 
#
# 1 0.050477 -0.021778 -0.003118 0.000000 0.000000 0.000000
# 2 -0.021778 0.048465 -0.018396 0.000000 0.000000 0.000000
# 3 -0.003118 -0.018396 0.016439 0.000000 0.000000 0.000000
# 4 0.000000 0.000000 0.000000 0.052966 0.000000 0.000000
# 5 0.000000 0.000000 0.000000 0.000000 0.084152 0.000000
# 6 0.000000 0.000000 0.000000 0.000000 0.000000 0.058843
#
#
# Mechanical properties :
#
#
# Convention : Reuss Voigt Hill
#
# Bulk Modulus (GPa) = 34.72806 64.49258 49.61032
# Shear Modulus (GPa) = 12.26920 16.48876 14.37898
#
# Velocity S-wave (km/s) = 2.89910 3.36085 3.13847
# Velocity P-wave (km/s) = 5.91575 7.69673 6.86425
#
# Compressibility (1/GPa) = 0.02879516
#
# Stress axis : x y z
#
# Youngs Moduli (GPa) = 19.81107 20.63363 60.83267
#
# Poissons Ratio (x) = 0.44937 0.18966
# Poissons Ratio (y) = 0.43146 1.11909
# Poissons Ratio (z) = 0.06177 0.37958
#
# Static dielectric constant tensor:
#      x y z
#    x 1.455570 0.000000 0.000000 
#    y 0.000000 1.482550 0.000000 
#    z 0.000000 0.000000 1.491850 
# 
# From -- ./inp_files/30340.got.cif
#   From: 2010.05.17/outbox.cif.g08.bks.cpg/sg47_16_cif.got.tgz:30340.got - 2010.06.03 20:15:42.
