data_PCOD9388857
_publ_section_title
;
Structure prediction by ZEFSAII (Michael W. Deem and Ramdas Pophale) SiO2 
 PCOD9388857
Probable space group: P M M M
;
_chemical_formula_sum "Si O2"
_cell_formula_units_Z 52
_cell_length_a 7.336943
_cell_length_b 9.628531
_cell_length_c 35.560101
_cell_angle_alpha 90.000000
_cell_angle_beta 90.000000
_cell_angle_gamma 90.000000
_cell_volume 2512.107175
_symmetry_space_group_name_H-M "P M M M"
_symmetry_group_IT_number 47
_symmetry_cell_setting 'orthorhombic'
loop_
_space_group_symop_operation_xyz
x,y,z
-x,-y,z
x,-y,-z
-x,y,-z
-x,-y,-z
x,y,-z
-x,y,z
x,-y,z
loop_
_atom_site_type_symbol
_atom_site_label
_atom_site_fract_x
_atom_site_fract_y
_atom_site_fract_z
Si Si1 0.280429 0.333206 0.459479
Si Si2 0.777212 0.840662 0.000000
Si Si3 0.778158 0.659801 0.070678
Si Si4 0.215541 0.658402 0.295994
Si Si5 0.223051 0.159490 0.226133
Si Si6 0.778236 0.340158 0.155324
Si Si7 0.281285 0.339663 0.378746
O O1 0.211999 0.280460 0.500000
O O2 0.500000 0.316338 0.460190
O O3 0.247076 0.500000 0.458891
O O4 0.216319 0.278894 0.418777
O O5 0.717911 0.759715 0.962600
O O6 0.000000 0.838973 0.000000
O O7 0.719988 0.000000 0.000000
O O8 0.724053 0.500000 0.063776
O O9 0.721191 0.698808 0.113001
O O10 0.000000 0.661383 0.070566
O O11 0.289915 0.500000 0.295195
O O12 0.285320 0.754815 0.262659
O O13 0.238059 0.720329 0.337910
O O14 0.000000 0.646413 0.289827
O O15 0.281126 0.238686 0.188337
O O16 0.000000 0.159501 0.226273
O O17 0.280851 0.000000 0.226985
O O18 0.723618 0.500000 0.162447
O O19 0.000000 0.339302 0.155444
O O20 0.500000 0.343624 0.381033
O O21 0.215698 0.500000 0.377140
#
# Coordination Sequence:
#
# PCOD9388857 Si02
#       7
#     8   4   8   8   8   8   8
#     4   7   9  14  26  45  68  92 117 145 176 209
#     4   9  15  19  23  33  49  69  95 129 168 209
#     4   8  13  20  28  36  48  69  96 127 166 211
#     4   9  16  25  37  52  71  95 120 147 181 219
#     4   9  16  24  34  48  65  85 110 141 176 214
#     4   8  13  21  32  44  57  75 102 137 176 215
#     4   8  13  21  34  52  72  95 124 153 178 210
#
# _framework density 20.699753999999999
#
# number of rings (size 3 to 8) (size 9 to 14) (size 15 to 20)
#    0.000    3.769    0.000    3.000    0.000    3.385 
#    0.000    3.077    0.000    0.923    0.000    3.231 
#    0.000    0.615    0.000    7.692    0.000    7.077 
#
# Total GULP energy -289677.146624 kJ/mol
# GULP energy per Si atom -5570.714358 kJ/mol
# Density = 2.065264 g / cm^3
# Si number density = 20.699754 Si / 1000 Ang^3
#
#
#
# Elastic Constant Matrix: (Units=GPa)
#
#
# Indices 1 2 3 4 5 6 
#
# 1 77.8685 5.1552 5.1324 0.0000 0.0000 0.0000
# 2 5.1552 90.2532 123.1105 0.0000 0.0000 0.0000
# 3 5.1324 123.1105 265.3482 0.0000 0.0000 0.0000
# 4 0.0000 0.0000 0.0000 -4.2267 0.0000 0.0000
# 5 0.0000 0.0000 0.0000 0.0000 4.6741 0.0000
# 6 0.0000 0.0000 0.0000 0.0000 0.0000 -8.8913
#
#
#
# Elastic Compliance Matrix: (Units=1/GPa)
#
#
# Indices 1 2 3 4 5 6 
#
# 1 0.012897 -0.001080 0.000251 0.000000 0.000000 0.000000
# 2 -0.001080 0.030270 -0.014023 0.000000 0.000000 0.000000
# 3 0.000251 -0.014023 0.010270 0.000000 0.000000 0.000000
# 4 0.000000 0.000000 0.000000 -0.236592 0.000000 0.000000
# 5 0.000000 0.000000 0.000000 0.000000 0.213945 0.000000
# 6 0.000000 0.000000 0.000000 0.000000 0.000000 -0.112470
#
#
# Mechanical properties :
#
#
# Convention : Reuss Voigt Hill
#
# Bulk Modulus (GPa) = 42.13325 77.80736 59.97030
# Shear Modulus (GPa) = -113.46709 18.31601 -47.57554
#
# Velocity S-wave (km/s) = -7.41179 2.97786 -4.79932
# Velocity P-wave (km/s) = 7.26963 7.03517 1.29497
#
# Compressibility (1/GPa) = 0.02373422
#
# Stress axis : x y z
#
# Youngs Moduli (GPa) = 77.53701 33.03610 97.37191
#
# Poissons Ratio (x) = 0.03567 -0.02449
# Poissons Ratio (y) = 0.08372 1.36546
# Poissons Ratio (z) = -0.01950 0.46327
#
# Static dielectric constant tensor:
#      x y z
#    x 1.907470 0.000000 0.000000 
#    y 0.000000 1.674770 0.000000 
#    z 0.000000 0.000000 1.774970 
# 
# From -- ./inp_files/34528.got.cif
#   From: 2010.05.17/outbox.cif.g08.bks.cpg/sg47_18_cif.got.tgz:34528.got - 2010.06.03 20:15:42.
