data_PCOD9388073
_publ_section_title
;
Structure prediction by ZEFSAII (Michael W. Deem and Ramdas Pophale) SiO2 
 PCOD9388073
Probable space group: P M M M
;
_chemical_formula_sum "Si O2"
_cell_formula_units_Z 38
_cell_length_a 22.659470
_cell_length_b 10.379258
_cell_length_c 7.622485
_cell_angle_alpha 90.000000
_cell_angle_beta 90.000000
_cell_angle_gamma 90.000000
_cell_volume 1792.720701
_symmetry_space_group_name_H-M "P M M M"
_symmetry_group_IT_number 47
_symmetry_cell_setting 'orthorhombic'
loop_
_space_group_symop_operation_xyz
x,y,z
-x,-y,z
x,-y,-z
-x,y,-z
-x,-y,-z
x,y,-z
-x,y,z
x,-y,z
loop_
_atom_site_type_symbol
_atom_site_label
_atom_site_fract_x
_atom_site_fract_y
_atom_site_fract_z
Si Si1 0.217111 0.144831 0.211581
Si Si2 0.598962 0.500000 0.807583
Si Si3 0.650701 0.766486 0.291798
Si Si4 0.000000 0.220879 0.697425
Si Si5 0.432043 0.000000 0.714683
Si Si6 0.000000 0.000000 0.000000
Si Si7 0.500000 0.500000 0.500000
Si Si8 0.121735 0.353744 0.213236
O O1 0.283715 0.182416 0.258694
O O2 0.170955 0.251707 0.273817
O O3 0.203732 0.000000 0.275003
O O4 0.213268 0.142186 0.000000
O O5 0.638257 0.371764 0.790107
O O6 0.551314 0.500000 0.653543
O O7 0.571243 0.500000 0.000000
O O8 0.642156 0.753423 0.500000
O O9 0.603646 0.873317 0.228657
O O10 0.058195 0.307308 0.722886
O O11 0.000000 0.167740 0.500000
O O12 0.000000 0.112206 0.846203
O O13 0.500000 0.000000 0.770785
O O14 0.431800 0.000000 0.500000
O O15 0.134711 0.500000 0.267757
O O16 0.120993 0.351150 0.000000
#
# Coordination Sequence:
#
# PCOD9388073 Si02
#       8
#     8   4   8   4   4   1   1   8
#     4  10  22  39  64  96 139 188 240 292 351 422
#     4  12  27  45  73 100 139 180 229 284 347 423
#     4  11  22  42  66  96 137 182 228 290 349 415
#     4  12  26  44  74 107 144 191 243 296 359 425
#     4   9  20  36  64  93 129 178 227 276 342 411
#     4  12  26  48  70 102 152 192 228 300 350 438
#     4  12  26  52  68 108 136 180 226 292 352 418
#     4  10  22  42  69 100 142 195 241 296 362 423
#
# _framework density 21.196833999999999
#
# number of rings (size 3 to 8) (size 9 to 14) (size 15 to 20)
#    0.000    1.368    3.158    1.263    4.421    2.526 
#    0.000    0.000    0.000    2.526    0.000    0.000 
#    0.000    0.000    0.000    0.000    0.000    0.000 
#
# Total GULP energy -212001.626511 kJ/mol
# GULP energy per Si atom -5578.990171 kJ/mol
# Density = 2.114859 g / cm^3
# Si number density = 21.196834 Si / 1000 Ang^3
#
#
#
# Elastic Constant Matrix: (Units=GPa)
#
#
# Indices 1 2 3 4 5 6 
#
# 1 170.8136 105.3999 14.5959 0.0000 0.0000 0.0000
# 2 105.3999 224.9170 42.3923 0.0000 0.0000 0.0000
# 3 14.5959 42.3923 110.9600 0.0000 0.0000 0.0000
# 4 0.0000 0.0000 0.0000 -3.2486 0.0000 0.0000
# 5 0.0000 0.0000 0.0000 0.0000 20.9728 0.0000
# 6 0.0000 0.0000 0.0000 0.0000 0.0000 -35.1683
#
#
#
# Elastic Compliance Matrix: (Units=1/GPa)
#
#
# Indices 1 2 3 4 5 6 
#
# 1 0.008254 -0.003948 0.000422 0.000000 0.000000 0.000000
# 2 -0.003948 0.006679 -0.002032 0.000000 0.000000 0.000000
# 3 0.000422 -0.002032 0.009733 0.000000 0.000000 0.000000
# 4 0.000000 0.000000 0.000000 -0.307828 0.000000 0.000000
# 5 0.000000 0.000000 0.000000 0.000000 0.047681 0.000000
# 6 0.000000 0.000000 0.000000 0.000000 0.000000 -0.028435
#
#
# Mechanical properties :
#
#
# Convention : Reuss Voigt Hill
#
# Bulk Modulus (GPa) = 73.79502 92.38523 83.09012
# Shear Modulus (GPa) = -20.13826 19.46469 -0.33679
#
# Velocity S-wave (km/s) = -3.08565 3.03361 -0.39904
# Velocity P-wave (km/s) = 4.71113 7.47993 6.25077
#
# Compressibility (1/GPa) = 0.01355105
#
# Stress axis : x y z
#
# Youngs Moduli (GPa) = 121.15171 149.72087 102.74121
#
# Poissons Ratio (x) = 0.59104 -0.04340
# Poissons Ratio (y) = 0.47826 0.20882
# Poissons Ratio (z) = -0.05118 0.30430
#
# Static dielectric constant tensor:
#      x y z
#    x 1.705540 0.000000 0.000000 
#    y 0.000000 1.742760 0.000000 
#    z 0.000000 0.000000 1.777010 
# 
# From -- ./inp_files/12220.got.cif
#   From: 2010.05.17/outbox.cif.g08.bks.cpg/sg47_7_cif.got.tgz:12220.got - 2010.06.03 20:15:42.
