data_PCOD9388326
_publ_section_title
;
Structure prediction by ZEFSAII (Michael W. Deem and Ramdas Pophale) SiO2 
 PCOD9388326
Probable space group: P M M M
;
_chemical_formula_sum "Si O2"
_cell_formula_units_Z 40
_cell_length_a 11.795716
_cell_length_b 24.428608
_cell_length_c 8.990860
_cell_angle_alpha 90.000000
_cell_angle_beta 90.000000
_cell_angle_gamma 90.000000
_cell_volume 2590.742582
_symmetry_space_group_name_H-M "P M M M"
_symmetry_group_IT_number 47
_symmetry_cell_setting 'orthorhombic'
loop_
_space_group_symop_operation_xyz
x,y,z
-x,-y,z
x,-y,-z
-x,y,-z
-x,-y,-z
x,y,-z
-x,y,z
x,-y,z
loop_
_atom_site_type_symbol
_atom_site_label
_atom_site_fract_x
_atom_site_fract_y
_atom_site_fract_z
Si Si1 0.630836 0.790531 0.681205
Si Si2 0.362965 0.559509 0.175646
Si Si3 0.638016 0.329690 0.327665
Si Si4 0.000000 0.065640 0.177772
Si Si5 0.635602 0.000000 0.825790
Si Si6 0.764982 0.899190 0.320476
O O1 0.628728 0.788060 0.500000
O O2 0.500000 0.799830 0.728528
O O3 0.670444 0.730281 0.732950
O O4 0.710571 0.840825 0.722382
O O5 0.500000 0.559653 0.193913
O O6 0.323030 0.500000 0.233971
O O7 0.320544 0.615484 0.247978
O O8 0.340728 0.561137 0.000000
O O9 0.670776 0.332966 0.500000
O O10 0.500000 0.329455 0.321987
O O11 0.888379 0.091117 0.251567
O O12 0.000000 0.000000 0.205133
O O13 0.000000 0.073742 0.000000
O O14 0.685878 0.946971 0.744782
O O15 0.500000 0.000000 0.818160
O O16 0.670262 0.000000 0.000000
O O17 0.769114 0.902779 0.500000
#
# Coordination Sequence:
#
# PCOD9388326 Si02
#       6
#     8   8   8   4   4   8
#     4   8  15  28  45  67  93 116 141 181 228 265
#     4   8  13  20  29  44  70 104 142 182 216 243
#     4   8  13  22  36  53  76 107 140 173 212 257
#     4  11  23  39  55  69  94 122 143 180 235 280
#     4  11  23  36  49  70 101 127 145 175 224 271
#     4  11  21  34  55  75  90 114 154 192 222 266
#
# _framework density 15.439588000000001
#
# number of rings (size 3 to 8) (size 9 to 14) (size 15 to 20)
#    0.000    2.800    1.000    3.600    0.000    2.400 
#    0.000    4.000    0.000    4.800    0.000    0.000 
#    0.000    0.000    0.000    0.900    0.000   19.200 
#
# Total GULP energy -222680.597948 kJ/mol
# GULP energy per Si atom -5567.014949 kJ/mol
# Density = 1.540445 g / cm^3
# Si number density = 15.439588 Si / 1000 Ang^3
#
#
#
# Elastic Constant Matrix: (Units=GPa)
#
#
# Indices 1 2 3 4 5 6 
#
# 1 57.7165 55.0572 27.7593 0.0000 0.0000 0.0000
# 2 55.0572 193.4757 59.1759 0.0000 0.0000 0.0000
# 3 27.7593 59.1759 47.0002 0.0000 0.0000 0.0000
# 4 0.0000 0.0000 0.0000 -22.4123 0.0000 0.0000
# 5 0.0000 0.0000 0.0000 0.0000 11.1874 0.0000
# 6 0.0000 0.0000 0.0000 0.0000 0.0000 -0.3683
#
#
#
# Elastic Compliance Matrix: (Units=1/GPa)
#
#
# Indices 1 2 3 4 5 6 
#
# 1 0.026369 -0.004457 -0.009963 0.000000 0.000000 0.000000
# 2 -0.004457 0.009159 -0.008899 0.000000 0.000000 0.000000
# 3 -0.009963 -0.008899 0.038365 0.000000 0.000000 0.000000
# 4 0.000000 0.000000 0.000000 -0.044618 0.000000 0.000000
# 5 0.000000 0.000000 0.000000 0.000000 0.089387 0.000000
# 6 0.000000 0.000000 0.000000 0.000000 0.000000 -2.715122
#
#
# Mechanical properties :
#
#
# Convention : Reuss Voigt Hill
#
# Bulk Modulus (GPa) = 36.68960 64.68635 50.68797
# Shear Modulus (GPa) = -1.96793 8.09468 3.06337
#
# Velocity S-wave (km/s) = -1.13021 2.29220 1.41011
# Velocity P-wave (km/s) = 4.70231 6.99950 5.96258
#
# Compressibility (1/GPa) = 0.02725568
#
# Stress axis : x y z
#
# Youngs Moduli (GPa) = 37.92313 109.18596 26.06509
#
# Poissons Ratio (x) = 0.48659 0.25969
# Poissons Ratio (y) = 0.16901 0.23196
# Poissons Ratio (z) = 0.37783 0.97167
#
# Static dielectric constant tensor:
#      x y z
#    x 1.484620 0.000000 0.000000 
#    y 0.000000 1.551190 0.000000 
#    z 0.000000 0.000000 1.519940 
# 
# From -- ./inp_files/4417.got.cif
#   From: 2010.05.17/outbox.cif.g08.bks.cpg/sg47_3_cif.got.tgz:4417.got - 2010.06.03 20:15:42.
