data_PCOD9388610
_publ_section_title
;
Structure prediction by ZEFSAII (Michael W. Deem and Ramdas Pophale) SiO2 
 PCOD9388610
Probable space group: P M M M
;
_chemical_formula_sum "Si O2"
_cell_formula_units_Z 44
_cell_length_a 9.637023
_cell_length_b 7.414944
_cell_length_c 29.212698
_cell_angle_alpha 90.000000
_cell_angle_beta 90.000000
_cell_angle_gamma 90.000000
_cell_volume 2087.480561
_symmetry_space_group_name_H-M "P M M M"
_symmetry_group_IT_number 47
_symmetry_cell_setting 'orthorhombic'
loop_
_space_group_symop_operation_xyz
x,y,z
-x,-y,z
x,-y,-z
-x,y,-z
-x,-y,-z
x,y,-z
-x,y,z
x,-y,z
loop_
_atom_site_type_symbol
_atom_site_label
_atom_site_fract_x
_atom_site_fract_y
_atom_site_fract_z
Si Si1 0.840437 0.720362 0.137468
Si Si2 0.659698 0.720414 0.224949
Si Si3 0.659254 0.719690 0.948176
Si Si4 0.155653 0.285075 0.413226
Si Si5 0.839539 0.719726 0.689029
Si Si6 0.654034 0.212362 0.500000
O O1 0.841139 0.500000 0.137423
O O2 0.749651 0.776294 0.181109
O O3 0.764629 0.778970 0.090910
O O4 0.000000 0.778357 0.140392
O O5 0.500000 0.778216 0.222366
O O6 0.658987 0.500000 0.224989
O O7 0.736388 0.779850 0.271305
O O8 0.500000 0.773315 0.938228
O O9 0.660413 0.500000 0.948026
O O10 0.693896 0.776350 0.000000
O O11 0.144690 0.500000 0.408885
O O12 0.197399 0.219962 0.362531
O O13 0.260055 0.254739 0.454420
O O14 0.000000 0.216633 0.423789
O O15 0.836564 0.500000 0.689707
O O16 0.000000 0.771168 0.697859
O O17 0.500000 0.293854 0.500000
O O18 0.639536 0.000000 0.500000
#
# Coordination Sequence:
#
# PCOD9388610 Si02
#       6
#     8   8   8   8   8   4
#     4   9  15  20  26  36  51  73 101 135 177 224
#     4   9  15  21  30  45  65  88 113 141 178 229
#     4   8  13  20  27  33  43  62  91 130 176 225
#     4   9  18  33  53  74  93 116 149 186 223 266
#     4   8  14  25  40  58  79  99 121 155 198 242
#     4  11  24  37  48  68  98 127 154 185 220 258
#
# _framework density 21.078040000000001
#
# number of rings (size 3 to 8) (size 9 to 14) (size 15 to 20)
#    0.000    3.182    0.000    3.273    0.000    7.636 
#    0.000    3.636    0.000    0.000    0.000    0.000 
#    0.000    0.000    0.000    0.000    0.000    0.000 
#
# Total GULP energy -245576.315113 kJ/mol
# GULP energy per Si atom -5581.279889 kJ/mol
# Density = 2.103007 g / cm^3
# Si number density = 21.078040 Si / 1000 Ang^3
#
#
#
# Elastic Constant Matrix: (Units=GPa)
#
#
# Indices 1 2 3 4 5 6 
#
# 1 210.5418 5.7149 175.1059 0.0000 0.0000 0.0000
# 2 5.7149 66.8113 6.3459 0.0000 0.0000 0.0000
# 3 175.1059 6.3459 224.3144 0.0000 0.0000 0.0000
# 4 0.0000 0.0000 0.0000 -43.1184 0.0000 0.0000
# 5 0.0000 0.0000 0.0000 0.0000 -125.1747 0.0000
# 6 0.0000 0.0000 0.0000 0.0000 0.0000 1.3054
#
#
#
# Elastic Compliance Matrix: (Units=1/GPa)
#
#
# Indices 1 2 3 4 5 6 
#
# 1 0.013543 -0.000155 -0.010567 0.000000 0.000000 0.000000
# 2 -0.000155 0.015010 -0.000304 0.000000 0.000000 0.000000
# 3 -0.010567 -0.000304 0.012716 0.000000 0.000000 0.000000
# 4 0.000000 0.000000 0.000000 -0.023192 0.000000 0.000000
# 5 0.000000 0.000000 0.000000 0.000000 -0.007989 0.000000
# 6 0.000000 0.000000 0.000000 0.000000 0.000000 0.766023
#
#
# Mechanical properties :
#
#
# Convention : Reuss Voigt Hill
#
# Bulk Modulus (GPa) = 52.03940 97.33341 74.68641
# Shear Modulus (GPa) = 6.21452 -12.43083 -3.10816
#
# Velocity S-wave (km/s) = 1.71894 -2.43112 -1.21565
# Velocity P-wave (km/s) = 5.35557 6.19657 5.79136
#
# Compressibility (1/GPa) = 0.01921621
#
# Stress axis : x y z
#
# Youngs Moduli (GPa) = 73.84060 66.62388 78.64208
#
# Poissons Ratio (x) = 0.01031 0.83104
# Poissons Ratio (y) = 0.01142 0.02390
# Poissons Ratio (z) = 0.78030 0.02024
#
# Static dielectric constant tensor:
#      x y z
#    x 1.740850 0.000000 0.000000 
#    y 0.000000 1.797270 0.000000 
#    z 0.000000 0.000000 1.756970 
# 
# From -- ./inp_files/33909.got.cif
#   From: 2010.05.17/outbox.cif.g08.bks.cpg/sg47_17_cif.got.tgz:33909.got - 2010.06.03 20:15:42.
