data_PCOD9388541
_publ_section_title
;
Structure prediction by ZEFSAII (Michael W. Deem and Ramdas Pophale) SiO2 
 PCOD9388541
Probable space group: P M M M
;
_chemical_formula_sum "Si O2"
_cell_formula_units_Z 52
_cell_length_a 20.560344
_cell_length_b 8.835505
_cell_length_c 14.916931
_cell_angle_alpha 90.000000
_cell_angle_beta 90.000000
_cell_angle_gamma 90.000000
_cell_volume 2709.824934
_symmetry_space_group_name_H-M "P M M M"
_symmetry_group_IT_number 47
_symmetry_cell_setting 'orthorhombic'
loop_
_space_group_symop_operation_xyz
x,y,z
-x,-y,z
x,-y,-z
-x,y,-z
-x,-y,-z
x,y,-z
-x,y,z
x,-y,z
loop_
_atom_site_type_symbol
_atom_site_label
_atom_site_fract_x
_atom_site_fract_y
_atom_site_fract_z
Si Si1 0.576148 0.816827 0.707214
Si Si2 0.309081 0.680843 0.602121
Si Si3 0.074731 0.318791 0.393445
Si Si4 0.000000 0.670442 0.891422
Si Si5 0.578903 0.820965 0.903916
Si Si6 0.806643 0.180984 0.284092
Si Si7 0.863221 0.817847 0.102034
O O1 0.500000 0.779307 0.696179
O O2 0.621860 0.745667 0.633147
O O3 0.599137 0.762292 0.806554
O O4 0.581102 0.000000 0.705774
O O5 0.294367 0.726410 0.500000
O O6 0.309656 0.500000 0.606550
O O7 0.254256 0.745070 0.667362
O O8 0.083378 0.288806 0.500000
O O9 0.082374 0.500000 0.381131
O O10 0.128257 0.233116 0.335740
O O11 0.000000 0.279467 0.369816
O O12 0.066250 0.755712 0.868997
O O13 0.000000 0.500000 0.854963
O O14 0.000000 0.662736 0.000000
O O15 0.500000 0.812526 0.903336
O O16 0.595066 0.000000 0.904852
O O17 0.601315 0.755988 0.000000
O O18 0.813363 0.226623 0.179701
O O19 0.800954 0.000000 0.288263
O O20 0.866528 0.000000 0.100221
O O21 0.849138 0.766280 0.000000
#
# Coordination Sequence:
#
# PCOD9388541 Si02
#       7
#     8   8   8   4   8   8   8
#     4   9  18  34  59  90 118 144 181 230 278 324
#     4  11  25  43  60  78 106 147 188 226 281 350
#     4   9  19  36  56  79 110 147 182 219 272 333
#     4   9  17  29  49  79 110 143 186 229 267 312
#     4   7  10  20  43  77 114 146 174 207 251 306
#     4  11  23  37  58  84 108 140 186 234 278 324
#     4   9  19  36  55  77 111 150 184 224 276 332
#
# _framework density 19.189432
#
# number of rings (size 3 to 8) (size 9 to 14) (size 15 to 20)
#    0.000    2.692    0.000    3.462    1.077    6.462 
#    0.000    3.077    0.000    5.077    0.000    2.154 
#    0.000    0.000    0.000    0.000    0.000    0.000 
#
# Total GULP energy -289978.835011 kJ/mol
# GULP energy per Si atom -5576.516058 kJ/mol
# Density = 1.914576 g / cm^3
# Si number density = 19.189432 Si / 1000 Ang^3
#
#
#
# Elastic Constant Matrix: (Units=GPa)
#
#
# Indices 1 2 3 4 5 6 
#
# 1 78.1815 29.8522 67.0576 0.0000 0.0000 0.0000
# 2 29.8522 20.4535 39.5444 0.0000 0.0000 0.0000
# 3 67.0576 39.5444 123.3363 0.0000 0.0000 0.0000
# 4 0.0000 0.0000 0.0000 -10.8930 0.0000 0.0000
# 5 0.0000 0.0000 0.0000 0.0000 32.5261 0.0000
# 6 0.0000 0.0000 0.0000 0.0000 0.0000 29.2079
#
#
#
# Elastic Compliance Matrix: (Units=1/GPa)
#
#
# Indices 1 2 3 4 5 6 
#
# 1 0.030534 -0.032802 -0.006084 0.000000 0.000000 0.000000
# 2 -0.032802 0.163861 -0.034703 0.000000 0.000000 0.000000
# 3 -0.006084 -0.034703 0.022543 0.000000 0.000000 0.000000
# 4 0.000000 0.000000 0.000000 -0.091802 0.000000 0.000000
# 5 0.000000 0.000000 0.000000 0.000000 0.030745 0.000000
# 6 0.000000 0.000000 0.000000 0.000000 0.000000 0.034237
#
#
# Mechanical properties :
#
#
# Convention : Reuss Voigt Hill
#
# Bulk Modulus (GPa) = 14.33511 54.98662 34.66087
# Shear Modulus (GPa) = 13.86774 15.86933 14.86854
#
# Velocity S-wave (km/s) = 2.69118 2.87885 2.78660
# Velocity P-wave (km/s) = 4.14043 6.30613 5.33434
#
# Compressibility (1/GPa) = 0.06975881
#
# Stress axis : x y z
#
# Youngs Moduli (GPa) = 32.75027 6.10275 44.36035
#
# Poissons Ratio (x) = 0.20018 0.26990
# Poissons Ratio (y) = 1.07426 1.53945
# Poissons Ratio (z) = 0.19926 0.21179
#
# Static dielectric constant tensor:
#      x y z
#    x 1.648530 0.000000 0.000000 
#    y 0.000000 1.644260 0.000000 
#    z 0.000000 0.000000 1.722400 
# 
# From -- ./inp_files/24978.got.cif
#   From: 2010.05.17/outbox.cif.g08.bks.cpg/sg47_13_cif.got.tgz:24978.got - 2010.06.03 20:15:42.
