data_PCOD9388473
_publ_section_title
;
Structure prediction by ZEFSAII (Michael W. Deem and Ramdas Pophale) SiO2 
 PCOD9388473
Probable space group: P M M M
;
_chemical_formula_sum "Si O2"
_cell_formula_units_Z 48
_cell_length_a 19.129383
_cell_length_b 15.866824
_cell_length_c 8.856231
_cell_angle_alpha 90.000000
_cell_angle_beta 90.000000
_cell_angle_gamma 90.000000
_cell_volume 2688.065846
_symmetry_space_group_name_H-M "P M M M"
_symmetry_group_IT_number 47
_symmetry_cell_setting 'orthorhombic'
loop_
_space_group_symop_operation_xyz
x,y,z
-x,-y,z
x,-y,-z
-x,y,-z
-x,-y,-z
x,y,-z
-x,y,z
x,-y,z
loop_
_atom_site_type_symbol
_atom_site_label
_atom_site_fract_x
_atom_site_fract_y
_atom_site_fract_z
Si Si1 0.916965 0.776137 0.681910
Si Si2 0.415073 0.500000 0.174100
Si Si3 0.581307 0.324596 0.681657
Si Si4 0.915857 0.590742 0.681061
Si Si5 0.583470 0.000000 0.176031
Si Si6 0.337419 0.843101 0.318438
Si Si7 0.807703 0.098767 0.180813
O O1 0.907736 0.780261 0.500000
O O2 0.891703 0.682678 0.735095
O O3 0.874123 0.849809 0.759860
O O4 0.000000 0.782625 0.711130
O O5 0.500000 0.500000 0.182192
O O6 0.393095 0.413545 0.253400
O O7 0.394367 0.500000 0.000000
O O8 0.581775 0.329475 0.500000
O O9 0.500000 0.311148 0.728358
O O10 0.628709 0.245915 0.727887
O O11 0.904261 0.590266 0.500000
O O12 0.889459 0.500000 0.740893
O O13 0.000000 0.590810 0.701653
O O14 0.614265 0.082017 0.256484
O O15 0.500000 0.000000 0.183794
O O16 0.605220 0.000000 0.000000
O O17 0.335143 0.846207 0.500000
O O18 0.260881 0.859124 0.252537
O O19 0.810070 0.000000 0.224388
O O20 0.803738 0.103039 0.000000
#
# Coordination Sequence:
#
# PCOD9388473 Si02
#       7
#     8   4   8   8   4   8   8
#     4   9  18  33  56  85 111 137 178 228 270 316
#     4   9  17  29  49  79 111 145 182 217 262 321
#     4   9  18  33  54  81 111 141 177 225 275 319
#     4   7  10  20  43  76 109 135 161 202 257 310
#     4  11  23  37  55  83 118 149 178 219 273 331
#     4  11  22  37  59  82 106 142 188 234 276 322
#     4  11  24  40  56  74 104 145 184 225 281 341
#
# _framework density 17.856705000000002
#
# number of rings (size 3 to 8) (size 9 to 14) (size 15 to 20)
#    0.000    2.500    0.833    3.500    0.000    5.333 
#    0.000    3.333    1.833    0.500    0.000    2.333 
#    0.000    0.000    0.000    0.000    0.000    0.000 
#
# Total GULP energy -267578.856963 kJ/mol
# GULP energy per Si atom -5574.559520 kJ/mol
# Density = 1.781606 g / cm^3
# Si number density = 17.856705 Si / 1000 Ang^3
#
#
#
# Elastic Constant Matrix: (Units=GPa)
#
#
# Indices 1 2 3 4 5 6 
#
# 1 54.2081 65.8575 34.4799 0.0000 0.0000 0.0000
# 2 65.8575 197.4745 56.1651 0.0000 0.0000 0.0000
# 3 34.4799 56.1651 37.4088 0.0000 0.0000 0.0000
# 4 0.0000 0.0000 0.0000 -54.7926 0.0000 0.0000
# 5 0.0000 0.0000 0.0000 0.0000 16.5662 0.0000
# 6 0.0000 0.0000 0.0000 0.0000 0.0000 -94.5158
#
#
#
# Elastic Compliance Matrix: (Units=1/GPa)
#
#
# Indices 1 2 3 4 5 6 
#
# 1 0.048372 -0.006023 -0.035541 0.000000 0.000000 0.000000
# 2 -0.006023 0.009588 -0.008843 0.000000 0.000000 0.000000
# 3 -0.035541 -0.008843 0.072767 0.000000 0.000000 0.000000
# 4 0.000000 0.000000 0.000000 -0.018251 0.000000 0.000000
# 5 0.000000 0.000000 0.000000 0.000000 0.060364 0.000000
# 6 0.000000 0.000000 0.000000 0.000000 0.000000 -0.010580
#
#
# Mechanical properties :
#
#
# Convention : Reuss Voigt Hill
#
# Bulk Modulus (GPa) = 33.43199 66.89958 50.16579
# Shear Modulus (GPa) = 18.31194 -17.70920 0.30137
#
# Velocity S-wave (km/s) = 3.20581 -3.15261 0.41127
# Velocity P-wave (km/s) = 5.69789 4.92891 5.32729
#
# Compressibility (1/GPa) = 0.02991147
#
# Stress axis : x y z
#
# Youngs Moduli (GPa) = 20.67330 104.29721 13.74244
#
# Poissons Ratio (x) = 0.62823 0.48842
# Poissons Ratio (y) = 0.12452 0.12153
# Poissons Ratio (z) = 0.73475 0.92235
#
# Static dielectric constant tensor:
#      x y z
#    x 1.600800 0.000000 0.000000 
#    y 0.000000 1.629770 0.000000 
#    z 0.000000 0.000000 1.597360 
# 
# From -- ./inp_files/9187.got.cif
#   From: 2010.05.17/outbox.cif.g08.bks.cpg/sg47_5_cif.got.tgz:9187.got - 2010.06.03 20:15:42.
