data_PCOD9388128
_publ_section_title
;
Structure prediction by ZEFSAII (Michael W. Deem and Ramdas Pophale) SiO2 
 PCOD9388128
Probable space group: P M M M
;
_chemical_formula_sum "Si O2"
_cell_formula_units_Z 25
_cell_length_a 11.986703
_cell_length_b 12.862259
_cell_length_c 7.385071
_cell_angle_alpha 90.000000
_cell_angle_beta 90.000000
_cell_angle_gamma 90.000000
_cell_volume 1138.601287
_symmetry_space_group_name_H-M "P M M M"
_symmetry_group_IT_number 47
_symmetry_cell_setting 'orthorhombic'
loop_
_space_group_symop_operation_xyz
x,y,z
-x,-y,z
x,-y,-z
-x,y,-z
-x,-y,-z
x,y,-z
-x,y,z
x,-y,z
loop_
_atom_site_type_symbol
_atom_site_label
_atom_site_fract_x
_atom_site_fract_y
_atom_site_fract_z
Si Si1 0.707076 0.500000 0.280474
Si Si2 0.500000 0.118933 0.784340
Si Si3 0.874542 0.686222 0.720437
Si Si4 0.500000 0.500000 0.000000
Si Si5 0.745477 0.117838 0.287341
O O1 0.686042 0.500000 0.500000
O O2 0.783766 0.400346 0.234935
O O3 0.597628 0.500000 0.159285
O O4 0.380614 0.162901 0.728667
O O5 0.500000 0.000000 0.713517
O O6 0.500000 0.116981 0.000000
O O7 0.877197 0.689281 0.500000
O O8 0.831890 0.798640 0.786066
O O9 0.000000 0.662415 0.780769
O O10 0.768232 0.108106 0.500000
O O11 0.747238 0.000000 0.210886
#
# Coordination Sequence:
#
# PCOD9388128 Si02
#       5
#     4   4   8   1   8
#     4  10  22  43  67  91 123 158 197 248 300 358
#     4   9  17  30  47  68 102 147 191 231 278 336
#     4   9  18  35  60  86 115 156 198 239 295 357
#     4  12  26  44  66  98 126 152 198 250 308 368
#     4   9  17  30  51  81 114 148 191 242 294 349
#
# _framework density 21.956764
#
# number of rings (size 3 to 8) (size 9 to 14) (size 15 to 20)
#    0.000    2.720    0.000    1.200    0.000    5.760 
#    5.760    9.600    0.000    0.000    0.000    4.480 
#    0.000    0.000    0.000    0.000    0.000    0.000 
#
# Total GULP energy -139220.660486 kJ/mol
# GULP energy per Si atom -5568.826419 kJ/mol
# Density = 2.190679 g / cm^3
# Si number density = 21.956764 Si / 1000 Ang^3
#
#
#
# Elastic Constant Matrix: (Units=GPa)
#
#
# Indices 1 2 3 4 5 6 
#
# 1 211.4512 83.1232 39.2341 0.0000 0.0000 0.0000
# 2 83.1232 104.7398 26.3245 0.0000 0.0000 0.0000
# 3 39.2341 26.3245 102.0869 0.0000 0.0000 0.0000
# 4 0.0000 0.0000 0.0000 -7.8857 0.0000 0.0000
# 5 0.0000 0.0000 0.0000 0.0000 540.7422 0.0000
# 6 0.0000 0.0000 0.0000 0.0000 0.0000 -16.0833
#
#
#
# Elastic Compliance Matrix: (Units=1/GPa)
#
#
# Indices 1 2 3 4 5 6 
#
# 1 0.007044 -0.005250 -0.001353 0.000000 0.000000 0.000000
# 2 -0.005250 0.014122 -0.001624 0.000000 0.000000 0.000000
# 3 -0.001353 -0.001624 0.010734 0.000000 0.000000 0.000000
# 4 0.000000 0.000000 0.000000 -0.126812 0.000000 0.000000
# 5 0.000000 0.000000 0.000000 0.000000 0.001849 0.000000
# 6 0.000000 0.000000 0.000000 0.000000 0.000000 -0.062176
#
#
# Mechanical properties :
#
#
# Convention : Reuss Voigt Hill
#
# Bulk Modulus (GPa) = 64.74180 79.51572 72.12876
# Shear Modulus (GPa) = -37.41557 121.32772 41.95607
#
# Velocity S-wave (km/s) = -4.13250 7.44161 4.37607
# Velocity P-wave (km/s) = 2.60384 10.49428 7.64559
#
# Compressibility (1/GPa) = 0.01544597
#
# Stress axis : x y z
#
# Youngs Moduli (GPa) = 141.95922 70.80993 93.15802
#
# Poissons Ratio (x) = 0.37177 0.12608
# Poissons Ratio (y) = 0.74533 0.15127
# Poissons Ratio (z) = 0.19213 0.11498
#
# Static dielectric constant tensor:
#      x y z
#    x 1.779120 0.000000 0.000000 
#    y 0.000000 1.828690 0.000000 
#    z 0.000000 0.000000 1.805480 
# 
# From -- ./inp_files/3048.got.cif
#   From: 2010.05.17/outbox.cif.g08.bks.cpg/sg47_2_cif.got.tgz:3048.got - 2010.06.03 20:15:42.
