data_PCOD9388175
_publ_section_title
;
Structure prediction by ZEFSAII (Michael W. Deem and Ramdas Pophale) SiO2 
 PCOD9388175
Probable space group: P M M M
;
_chemical_formula_sum "Si O2"
_cell_formula_units_Z 40
_cell_length_a 24.768299
_cell_length_b 7.988726
_cell_length_c 13.240066
_cell_angle_alpha 90.000000
_cell_angle_beta 90.000000
_cell_angle_gamma 90.000000
_cell_volume 2619.774181
_symmetry_space_group_name_H-M "P M M M"
_symmetry_group_IT_number 47
_symmetry_cell_setting 'orthorhombic'
loop_
_space_group_symop_operation_xyz
x,y,z
-x,-y,z
x,-y,-z
-x,y,-z
-x,-y,-z
x,y,-z
-x,y,z
x,-y,z
loop_
_atom_site_type_symbol
_atom_site_label
_atom_site_fract_x
_atom_site_fract_y
_atom_site_fract_z
Si Si1 0.061246 0.701625 0.113947
Si Si2 0.062519 0.205164 0.500000
Si Si3 0.242343 0.299314 0.385403
Si Si4 0.129573 0.801458 0.305335
Si Si5 0.362680 0.693341 0.622969
Si Si6 0.562244 0.000000 0.376871
O O1 0.059991 0.500000 0.111827
O O2 0.102303 0.753103 0.200340
O O3 0.000000 0.759747 0.137640
O O4 0.074706 0.759020 0.000000
O O5 0.094160 0.264219 0.599912
O O6 0.000000 0.257380 0.500000
O O7 0.062731 0.000000 0.500000
O O8 0.233662 0.233129 0.500000
O O9 0.244778 0.500000 0.392068
O O10 0.191244 0.253517 0.318629
O O11 0.301961 0.249354 0.348659
O O12 0.128504 0.000000 0.313263
O O13 0.362538 0.689703 0.500000
O O14 0.372425 0.500000 0.655501
O O15 0.406075 0.831766 0.654976
O O16 0.500000 0.000000 0.344550
O O17 0.562712 0.000000 0.500000
#
# Coordination Sequence:
#
# PCOD9388175 Si02
#       6
#     8   4   8   8   8   4
#     4   9  19  36  53  65  81 109 145 184 225 272
#     4   9  18  30  39  57  91 117 133 166 221 274
#     4   9  17  29  43  59  84 114 147 182 218 263
#     4  11  20  29  45  68  89 113 142 179 225 271
#     4   8  15  26  38  54  77 110 146 185 225 261
#     4   9  16  24  36  56  78 108 147 188 225 259
#
# _framework density 15.268490999999999
#
# number of rings (size 3 to 8) (size 9 to 14) (size 15 to 20)
#    0.000    2.800    1.000    3.000    1.400    2.000 
#    0.000    3.000    0.000    2.400    0.000    0.000 
#    0.000    0.000    0.000    0.000    0.000    2.000 
#
# Total GULP energy -222825.645310 kJ/mol
# GULP energy per Si atom -5570.641133 kJ/mol
# Density = 1.523374 g / cm^3
# Si number density = 15.268491 Si / 1000 Ang^3
#
#
#
# Elastic Constant Matrix: (Units=GPa)
#
#
# Indices 1 2 3 4 5 6 
#
# 1 157.4761 51.4025 56.5660 0.0000 0.0000 0.0000
# 2 51.4025 43.3472 16.0437 0.0000 0.0000 0.0000
# 3 56.5660 16.0437 53.8563 0.0000 0.0000 0.0000
# 4 0.0000 0.0000 0.0000 12.5463 0.0000 0.0000
# 5 0.0000 0.0000 0.0000 0.0000 9.5563 0.0000
# 6 0.0000 0.0000 0.0000 0.0000 0.0000 20.3293
#
#
#
# Elastic Compliance Matrix: (Units=1/GPa)
#
#
# Indices 1 2 3 4 5 6 
#
# 1 0.014901 -0.013349 -0.011674 0.000000 0.000000 0.000000
# 2 -0.013349 0.037887 0.002734 0.000000 0.000000 0.000000
# 3 -0.011674 0.002734 0.030015 0.000000 0.000000 0.000000
# 4 0.000000 0.000000 0.000000 0.079705 0.000000 0.000000
# 5 0.000000 0.000000 0.000000 0.000000 0.104643 0.000000
# 6 0.000000 0.000000 0.000000 0.000000 0.000000 0.049190
#
#
# Mechanical properties :
#
#
# Convention : Reuss Voigt Hill
#
# Bulk Modulus (GPa) = 26.16071 55.85601 41.00836
# Shear Modulus (GPa) = 13.38115 17.19754 15.28934
#
# Velocity S-wave (km/s) = 2.96360 3.35974 3.16787
# Velocity P-wave (km/s) = 5.37416 7.19114 6.34799
#
# Compressibility (1/GPa) = 0.03822526
#
# Stress axis : x y z
#
# Youngs Moduli (GPa) = 67.11045 26.39401 33.31710
#
# Poissons Ratio (x) = 0.35234 0.38894
# Poissons Ratio (y) = 0.89587 -0.09110
# Poissons Ratio (z) = 0.78344 -0.07217
#
# Static dielectric constant tensor:
#      x y z
#    x 1.527210 0.000000 0.000000 
#    y 0.000000 1.539630 0.000000 
#    z 0.000000 0.000000 1.494010 
# 
# From -- ./inp_files/15127.got.cif
#   From: 2010.05.17/outbox.cif.g08.bks.cpg/sg47_8_cif.got.tgz:15127.got - 2010.06.03 20:15:42.
