data_PCOD9388830
_publ_section_title
;
Structure prediction by ZEFSAII (Michael W. Deem and Ramdas Pophale) SiO2 
 PCOD9388830
Probable space group: P M M M
;
_chemical_formula_sum "Si O2"
_cell_formula_units_Z 44
_cell_length_a 7.643990
_cell_length_b 32.929891
_cell_length_c 7.364581
_cell_angle_alpha 90.000000
_cell_angle_beta 90.000000
_cell_angle_gamma 90.000000
_cell_volume 1853.781085
_symmetry_space_group_name_H-M "P M M M"
_symmetry_group_IT_number 47
_symmetry_cell_setting 'orthorhombic'
loop_
_space_group_symop_operation_xyz
x,y,z
-x,-y,z
x,-y,-z
-x,y,-z
-x,-y,-z
x,y,-z
-x,y,z
x,-y,z
loop_
_atom_site_type_symbol
_atom_site_label
_atom_site_fract_x
_atom_site_fract_y
_atom_site_fract_z
Si Si1 0.193759 0.105591 0.778612
Si Si2 0.298469 0.630577 0.282846
Si Si3 0.287307 0.456270 0.283614
Si Si4 0.298714 0.281511 0.217149
Si Si5 0.500000 0.953550 0.777969
Si Si6 0.711527 0.805347 0.213808
O O1 0.334321 0.072886 0.719208
O O2 0.226617 0.151578 0.712071
O O3 0.000000 0.092860 0.729869
O O4 0.206490 0.107319 0.000000
O O5 0.306772 0.626708 0.500000
O O6 0.500000 0.632938 0.214029
O O7 0.222885 0.587588 0.215316
O O8 0.214922 0.674535 0.249598
O O9 0.251508 0.457342 0.500000
O O10 0.500000 0.455327 0.263876
O O11 0.227298 0.500000 0.210094
O O12 0.500000 0.284044 0.286140
O O13 0.225001 0.238454 0.285392
O O14 0.307296 0.277451 0.000000
O O15 0.500000 0.000000 0.717570
O O16 0.500000 0.954355 0.000000
O O17 0.500000 0.804874 0.226520
O O18 0.758430 0.806166 0.000000
#
# Coordination Sequence:
#
# PCOD9388830 Si02
#       6
#     8   8   8   8   4   8
#     4   9  15  22  33  47  63  87 121 159 195 231
#     4   8  12  17  25  38  56  76 103 144 187 223
#     4   7   9  13  21  32  46  68 100 136 174 217
#     4   8  13  19  28  41  56  79 110 143 181 225
#     4   9  16  24  32  44  66  94 123 159 200 237
#     4   8  12  20  32  43  58  81 111 147 185 224
#
# _framework density 23.735271999999998
#
# number of rings (size 3 to 8) (size 9 to 14) (size 15 to 20)
#    0.000    3.909    0.909    2.727    0.000    0.364 
#    0.000    1.818    0.000    0.545    0.000    3.818 
#    0.000    0.727    0.000    0.000    0.000    2.727 
#
# Total GULP energy -245125.652937 kJ/mol
# GULP energy per Si atom -5571.037567 kJ/mol
# Density = 2.368125 g / cm^3
# Si number density = 23.735272 Si / 1000 Ang^3
#
#
#
# Elastic Constant Matrix: (Units=GPa)
#
#
# Indices 1 2 3 4 5 6 
#
# 1 71.4152 89.4221 2.9379 0.0000 0.0000 0.0000
# 2 89.4221 318.4966 10.5437 0.0000 0.0000 0.0000
# 3 2.9379 10.5437 84.8855 0.0000 0.0000 0.0000
# 4 0.0000 0.0000 0.0000 8.3625 0.0000 0.0000
# 5 0.0000 0.0000 0.0000 0.0000 -11.0110 0.0000
# 6 0.0000 0.0000 0.0000 0.0000 0.0000 -26.1665
#
#
#
# Elastic Compliance Matrix: (Units=1/GPa)
#
#
# Indices 1 2 3 4 5 6 
#
# 1 0.021594 -0.006063 0.000006 0.000000 0.000000 0.000000
# 2 -0.006063 0.004855 -0.000393 0.000000 0.000000 0.000000
# 3 0.000006 -0.000393 0.011829 0.000000 0.000000 0.000000
# 4 0.000000 0.000000 0.000000 0.119581 0.000000 0.000000
# 5 0.000000 0.000000 0.000000 0.000000 -0.090818 0.000000
# 6 0.000000 0.000000 0.000000 0.000000 0.000000 -0.038217
#
#
# Mechanical properties :
#
#
# Convention : Reuss Voigt Hill
#
# Bulk Modulus (GPa) = 39.40518 75.62274 57.51396
# Shear Modulus (GPa) = 99.63268 19.02993 59.33131
#
# Velocity S-wave (km/s) = 6.48597 2.83460 5.00513
# Velocity P-wave (km/s) = 8.52809 6.53019 7.59512
#
# Compressibility (1/GPa) = 0.02537737
#
# Stress axis : x y z
#
# Youngs Moduli (GPa) = 46.30882 205.97142 84.53647
#
# Poissons Ratio (x) = 1.24881 -0.00048
# Poissons Ratio (y) = 0.28077 0.03324
# Poissons Ratio (z) = -0.00026 0.08099
#
# Static dielectric constant tensor:
#      x y z
#    x 2.626550 0.000000 0.000000 
#    y 0.000000 1.952640 0.000000 
#    z 0.000000 0.000000 2.046770 
# 
# From -- ./inp_files/15613.got.cif
#   From: 2010.05.17/outbox.cif.g08.bks.cpg/sg47_8_cif.got.tgz:15613.got - 2010.06.03 20:15:42.
