data_PCOD9388739
_publ_section_title
;
Structure prediction by ZEFSAII (Michael W. Deem and Ramdas Pophale) SiO2 
 PCOD9388739
Probable space group: P M M M
;
_chemical_formula_sum "Si O2"
_cell_formula_units_Z 40
_cell_length_a 7.398193
_cell_length_b 9.445739
_cell_length_c 27.709977
_cell_angle_alpha 90.000000
_cell_angle_beta 90.000000
_cell_angle_gamma 90.000000
_cell_volume 1936.411991
_symmetry_space_group_name_H-M "P M M M"
_symmetry_group_IT_number 47
_symmetry_cell_setting 'orthorhombic'
loop_
_space_group_symop_operation_xyz
x,y,z
-x,-y,z
x,-y,-z
-x,y,-z
-x,-y,-z
x,y,-z
-x,y,z
x,-y,z
loop_
_atom_site_type_symbol
_atom_site_label
_atom_site_fract_x
_atom_site_fract_y
_atom_site_fract_z
Si Si1 0.217098 0.336734 0.603569
Si Si2 0.278933 0.664124 0.105204
Si Si3 0.714653 0.338678 0.709252
Si Si4 0.289179 0.327773 0.000000
Si Si5 0.278814 0.837607 0.198926
Si Si6 0.784719 0.327964 0.500000
O O1 0.282752 0.500000 0.605997
O O2 0.258931 0.273950 0.655844
O O3 0.284208 0.276621 0.552198
O O4 0.000000 0.341121 0.600292
O O5 0.500000 0.665293 0.103893
O O6 0.226343 0.500000 0.111997
O O7 0.221952 0.757841 0.150262
O O8 0.215178 0.714838 0.052269
O O9 0.500000 0.349754 0.715996
O O10 0.787986 0.500000 0.709979
O O11 0.783289 0.245710 0.753452
O O12 0.283245 0.500000 0.000000
O O13 0.500000 0.285832 0.000000
O O14 0.500000 0.836388 0.199108
O O15 0.221743 0.000000 0.199496
O O16 0.762983 0.500000 0.500000
O O17 0.000000 0.300692 0.500000
#
# Coordination Sequence:
#
# PCOD9388739 Si02
#       6
#     8   8   8   4   8   4
#     4   8  13  22  37  56  77 100 124 150 183 224
#     4   8  12  19  31  45  62  87 120 155 188 223
#     4   9  16  25  37  54  75  98 125 156 187 219
#     4   7  10  16  27  43  61  83 114 151 188 223
#     4   9  16  24  33  46  66  94 126 156 187 224
#     4   7  10  18  33  53  76  99 120 144 180 225
#
# _framework density 20.656763000000002
#
# number of rings (size 3 to 8) (size 9 to 14) (size 15 to 20)
#    0.000    3.800    0.000    3.000    0.000    2.400 
#    0.000    1.000    0.000    6.600    0.000    0.700 
#    0.000    5.600    0.000    0.900    0.000   21.600 
#
# Total GULP energy -222684.387936 kJ/mol
# GULP energy per Si atom -5567.109698 kJ/mol
# Density = 2.060975 g / cm^3
# Si number density = 20.656763 Si / 1000 Ang^3
#
#
#
# Elastic Constant Matrix: (Units=GPa)
#
#
# Indices 1 2 3 4 5 6 
#
# 1 68.6265 3.6996 7.0574 0.0000 0.0000 0.0000
# 2 3.6996 63.7618 91.8439 0.0000 0.0000 0.0000
# 3 7.0574 91.8439 287.0155 0.0000 0.0000 0.0000
# 4 0.0000 0.0000 0.0000 -5.1778 0.0000 0.0000
# 5 0.0000 0.0000 0.0000 0.0000 16.7426 0.0000
# 6 0.0000 0.0000 0.0000 0.0000 0.0000 -7.7272
#
#
#
# Elastic Compliance Matrix: (Units=1/GPa)
#
#
# Indices 1 2 3 4 5 6 
#
# 1 0.014621 -0.000613 -0.000163 0.000000 0.000000 0.000000
# 2 -0.000613 0.029119 -0.009303 0.000000 0.000000 0.000000
# 3 -0.000163 -0.009303 0.006465 0.000000 0.000000 0.000000
# 4 0.000000 0.000000 0.000000 -0.193133 0.000000 0.000000
# 5 0.000000 0.000000 0.000000 0.000000 0.059728 0.000000
# 6 0.000000 0.000000 0.000000 0.000000 0.000000 -0.129413
#
#
# Mechanical properties :
#
#
# Convention : Reuss Voigt Hill
#
# Bulk Modulus (GPa) = 33.28128 69.40063 51.34095
# Shear Modulus (GPa) = -27.40649 21.88773 -2.75938
#
# Velocity S-wave (km/s) = -3.64642 3.25867 -1.15703
# Velocity P-wave (km/s) = 1.25775 6.91582 4.80867
#
# Compressibility (1/GPa) = 0.03004692
#
# Stress axis : x y z
#
# Youngs Moduli (GPa) = 68.39254 34.34170 154.67772
#
# Poissons Ratio (x) = 0.02105 0.02526
# Poissons Ratio (y) = 0.04193 1.43896
# Poissons Ratio (z) = 0.01117 0.31948
#
# Static dielectric constant tensor:
#      x y z
#    x 1.819770 0.000000 0.000000 
#    y 0.000000 1.672800 0.000000 
#    z 0.000000 0.000000 1.796590 
# 
# From -- ./inp_files/33000.got.cif
#   From: 2010.05.17/outbox.cif.g08.bks.cpg/sg47_17_cif.got.tgz:33000.got - 2010.06.03 20:15:42.
