data_PCOD9388892
_publ_section_title
;
Structure prediction by ZEFSAII (Michael W. Deem and Ramdas Pophale) SiO2 
 PCOD9388892
Probable space group: P M M M
;
_chemical_formula_sum "Si O2"
_cell_formula_units_Z 44
_cell_length_a 7.355692
_cell_length_b 17.370591
_cell_length_c 15.653754
_cell_angle_alpha 90.000000
_cell_angle_beta 90.000000
_cell_angle_gamma 90.000000
_cell_volume 2000.122684
_symmetry_space_group_name_H-M "P M M M"
_symmetry_group_IT_number 47
_symmetry_cell_setting 'orthorhombic'
loop_
_space_group_symop_operation_xyz
x,y,z
-x,-y,z
x,-y,-z
-x,y,-z
-x,-y,-z
x,y,-z
-x,y,z
x,-y,z
loop_
_atom_site_type_symbol
_atom_site_label
_atom_site_fract_x
_atom_site_fract_y
_atom_site_fract_z
Si Si1 0.787220 0.586842 0.817445
Si Si2 0.778352 0.410611 0.500000
Si Si3 0.778360 0.000000 0.400529
Si Si4 0.222399 0.688197 0.336470
Si Si5 0.715357 0.412041 0.000000
Si Si6 0.221917 0.856590 0.282603
Si Si7 0.779385 0.090790 0.095470
O O1 0.709746 0.500000 0.819052
O O2 0.712094 0.640774 0.745286
O O3 0.000000 0.578888 0.798918
O O4 0.772159 0.623355 0.910997
O O5 0.718667 0.500000 0.500000
O O6 0.721645 0.361031 0.418240
O O7 0.000000 0.413403 0.500000
O O8 0.722615 0.925932 0.344935
O O9 0.719764 0.000000 0.500000
O O10 0.000000 0.000000 0.402431
O O11 0.279461 0.776005 0.324203
O O12 0.000000 0.689842 0.338029
O O13 0.790665 0.500000 0.000000
O O14 0.500000 0.416478 0.000000
O O15 0.280561 0.868398 0.183576
O O16 0.000000 0.857376 0.280248
O O17 0.000000 0.095124 0.094939
O O18 0.732675 0.000000 0.102593
O O19 0.719727 0.117439 0.000000
#
# Coordination Sequence:
#
# PCOD9388892 Si02
#       7
#     8   4   4   8   4   8   8
#     4   9  16  28  44  62  88 120 150 182 225 269
#     4   9  16  26  38  51  70 100 142 187 224 261
#     4   9  16  22  31  43  63 101 140 175 216 264
#     4   9  17  25  36  55  78 107 143 185 225 262
#     4   9  17  29  47  69  89 114 151 188 222 269
#     4   9  15  23  31  45  68  95 135 178 212 255
#     4   8  12  19  30  40  53  80 119 159 197 240
#
# _framework density 21.998652
#
# number of rings (size 3 to 8) (size 9 to 14) (size 15 to 20)
#    0.000    3.182    0.909    1.364    1.273    3.273 
#    1.636    0.000    0.000    0.000    0.000    0.636 
#    0.000    3.636    0.000    1.636    0.000    2.727 
#
# Total GULP energy -245400.118407 kJ/mol
# GULP energy per Si atom -5577.275418 kJ/mol
# Density = 2.194858 g / cm^3
# Si number density = 21.998652 Si / 1000 Ang^3
#
#
#
# Elastic Constant Matrix: (Units=GPa)
#
#
# Indices 1 2 3 4 5 6 
#
# 1 79.6620 6.2269 -1.4490 0.0000 0.0000 0.0000
# 2 6.2269 169.1647 133.2141 0.0000 0.0000 0.0000
# 3 -1.4490 133.2141 244.8838 0.0000 0.0000 0.0000
# 4 0.0000 0.0000 0.0000-1057.9044 0.0000 0.0000
# 5 0.0000 0.0000 0.0000 0.0000 18.4617 0.0000
# 6 0.0000 0.0000 0.0000 0.0000 0.0000 -16.5676
#
#
#
# Elastic Compliance Matrix: (Units=1/GPa)
#
#
# Indices 1 2 3 4 5 6 
#
# 1 0.012635 -0.000917 0.000573 0.000000 0.000000 0.000000
# 2 -0.000917 0.010408 -0.005667 0.000000 0.000000 0.000000
# 3 0.000573 -0.005667 0.007170 0.000000 0.000000 0.000000
# 4 0.000000 0.000000 0.000000 -0.000945 0.000000 0.000000
# 5 0.000000 0.000000 0.000000 0.000000 0.054166 0.000000
# 6 0.000000 0.000000 0.000000 0.000000 0.000000 -0.060359
#
#
# Mechanical properties :
#
#
# Convention : Reuss Voigt Hill
#
# Bulk Modulus (GPa) = 54.96919 85.52162 70.24541
# Shear Modulus (GPa) = 121.47744 -187.48748 -33.00502
#
# Velocity S-wave (km/s) = 7.43910 -9.24185 -3.87760
# Velocity P-wave (km/s) = 9.94127 8.65576 3.45736
#
# Compressibility (1/GPa) = 0.01819201
#
# Stress axis : x y z
#
# Youngs Moduli (GPa) = 79.14452 96.07987 139.47208
#
# Poissons Ratio (x) = 0.08807 -0.07997
# Poissons Ratio (y) = 0.07255 0.79043
# Poissons Ratio (z) = -0.04538 0.54451
#
# Static dielectric constant tensor:
#      x y z
#    x 1.822460 0.000000 0.000000 
#    y 0.000000 1.447190 0.000000 
#    z 0.000000 0.000000 1.802410 
# 
# From -- ./inp_files/20987.got.cif
#   From: 2010.05.17/outbox.cif.g08.bks.cpg/sg47_11_cif.got.tgz:20987.got - 2010.06.03 20:15:42.
