data_PCOD9388099
_publ_section_title
;
Structure prediction by ZEFSAII (Michael W. Deem and Ramdas Pophale) SiO2 
 PCOD9388099
Probable space group: P M M M
;
_chemical_formula_sum "Si O2"
_cell_formula_units_Z 30
_cell_length_a 7.678081
_cell_length_b 14.394540
_cell_length_c 12.159225
_cell_angle_alpha 90.000000
_cell_angle_beta 90.000000
_cell_angle_gamma 90.000000
_cell_volume 1343.867265
_symmetry_space_group_name_H-M "P M M M"
_symmetry_group_IT_number 47
_symmetry_cell_setting 'orthorhombic'
loop_
_space_group_symop_operation_xyz
x,y,z
-x,-y,z
x,-y,-z
-x,y,-z
-x,-y,-z
x,y,-z
-x,y,z
x,-y,z
loop_
_atom_site_type_symbol
_atom_site_label
_atom_site_fract_x
_atom_site_fract_y
_atom_site_fract_z
Si Si1 0.302529 0.889650 0.835437
Si Si2 0.000000 0.167300 0.000000
Si Si3 0.211881 0.783173 0.374093
Si Si4 0.303353 0.387764 0.000000
Si Si5 0.795761 0.395326 0.244104
O O1 0.500000 0.864875 0.867868
O O2 0.277466 0.861667 0.708631
O O3 0.153343 0.840694 0.905339
O O4 0.280207 0.000000 0.851856
O O5 0.266174 0.793857 0.500000
O O6 0.274595 0.684736 0.322694
O O7 0.000000 0.783497 0.371284
O O8 0.218551 0.364384 0.116391
O O9 0.303365 0.500000 0.000000
O O10 0.500000 0.353843 0.000000
O O11 0.720223 0.500000 0.254496
O O12 0.000000 0.402909 0.268684
#
# Coordination Sequence:
#
# PCOD9388099 Si02
#       5
#     8   2   8   4   8
#     4  11  24  42  68 100 131 168 211 258 320 386
#     4  12  23  44  72 100 135 168 203 262 324 388
#     4  10  22  40  61  88 126 173 221 267 318 376
#     4   9  17  30  50  77 110 148 194 247 307 374
#     4   9  18  34  57  85 119 161 210 263 316 373
#
# _framework density 22.323633999999998
#
# number of rings (size 3 to 8) (size 9 to 14) (size 15 to 20)
#    0.000    2.000    1.333    2.000    0.000    6.400 
#    0.000    5.333    0.000    0.000    0.000    5.600 
#    0.000    0.000    0.000    0.000    0.000    0.000 
#
# Total GULP energy -167162.050643 kJ/mol
# GULP energy per Si atom -5572.068355 kJ/mol
# Density = 2.227282 g / cm^3
# Si number density = 22.323634 Si / 1000 Ang^3
#
#
#
# Elastic Constant Matrix: (Units=GPa)
#
#
# Indices 1 2 3 4 5 6 
#
# 1 102.1611 27.4307 18.8954 0.0000 0.0000 0.0000
# 2 27.4307 77.0927 16.9440 0.0000 0.0000 0.0000
# 3 18.8954 16.9440 142.8055 0.0000 0.0000 0.0000
# 4 0.0000 0.0000 0.0000 4.6377 0.0000 0.0000
# 5 0.0000 0.0000 0.0000 0.0000 120.9114 0.0000
# 6 0.0000 0.0000 0.0000 0.0000 0.0000 -27.3069
#
#
#
# Elastic Compliance Matrix: (Units=1/GPa)
#
#
# Indices 1 2 3 4 5 6 
#
# 1 0.010964 -0.003678 -0.001014 0.000000 0.000000 0.000000
# 2 -0.003678 0.014553 -0.001240 0.000000 0.000000 0.000000
# 3 -0.001014 -0.001240 0.007284 0.000000 0.000000 0.000000
# 4 0.000000 0.000000 0.000000 0.215624 0.000000 0.000000
# 5 0.000000 0.000000 0.000000 0.000000 0.008271 0.000000
# 6 0.000000 0.000000 0.000000 0.000000 0.000000 -0.036621
#
#
# Mechanical properties :
#
#
# Convention : Reuss Voigt Hill
#
# Bulk Modulus (GPa) = 47.76593 49.84439 48.80516
# Shear Modulus (GPa) = 20.92778 36.90105 28.91441
#
# Velocity S-wave (km/s) = 3.06514 4.07013 3.60285
# Velocity P-wave (km/s) = 5.82840 6.66817 6.26238
#
# Compressibility (1/GPa) = 0.02093542
#
# Stress axis : x y z
#
# Youngs Moduli (GPa) = 91.21058 68.71592 137.28983
#
# Poissons Ratio (x) = 0.25274 0.13925
# Poissons Ratio (y) = 0.33548 0.17024
# Poissons Ratio (z) = 0.09251 0.08521
#
# Static dielectric constant tensor:
#      x y z
#    x 1.827020 0.000000 0.000000 
#    y 0.000000 1.882400 0.000000 
#    z 0.000000 0.000000 1.782010 
# 
# From -- ./inp_files/14633.got.cif
#   From: 2010.05.17/outbox.cif.g08.bks.cpg/sg47_8_cif.got.tgz:14633.got - 2010.06.03 20:15:42.
