data_PCOD9388187
_publ_section_title
;
Structure prediction by ZEFSAII (Michael W. Deem and Ramdas Pophale) SiO2 
 PCOD9388187
Probable space group: P M M M
;
_chemical_formula_sum "Si O2"
_cell_formula_units_Z 52
_cell_length_a 24.010682
_cell_length_b 15.226669
_cell_length_c 8.012493
_cell_angle_alpha 90.000000
_cell_angle_beta 90.000000
_cell_angle_gamma 90.000000
_cell_volume 2929.389133
_symmetry_space_group_name_H-M "P M M M"
_symmetry_group_IT_number 47
_symmetry_cell_setting 'orthorhombic'
loop_
_space_group_symop_operation_xyz
x,y,z
-x,-y,z
x,-y,-z
-x,y,-z
-x,-y,-z
x,y,-z
-x,y,z
x,-y,z
loop_
_atom_site_type_symbol
_atom_site_label
_atom_site_fract_x
_atom_site_fract_y
_atom_site_fract_z
Si Si1 0.164340 0.102093 0.296668
Si Si2 0.607311 0.214811 0.301291
Si Si3 0.936863 0.215932 0.696456
Si Si4 0.288788 0.898000 0.295899
Si Si5 0.932763 0.405803 0.196369
Si Si6 0.500000 0.899134 0.800676
Si Si7 0.564307 0.401997 0.200982
O O1 0.164152 0.109217 0.500000
O O2 0.111596 0.155534 0.230791
O O3 0.226459 0.128972 0.242222
O O4 0.157852 0.000000 0.255820
O O5 0.610443 0.213830 0.500000
O O6 0.662849 0.166649 0.235787
O O7 0.554220 0.155933 0.251507
O O8 0.598579 0.315928 0.249899
O O9 0.941311 0.195932 0.500000
O O10 0.917080 0.316411 0.714820
O O11 0.000000 0.207133 0.766948
O O12 0.289125 0.897643 0.500000
O O13 0.298591 0.000000 0.246850
O O14 0.911681 0.500000 0.260328
O O15 0.000000 0.408705 0.208754
O O16 0.919288 0.399375 0.000000
O O17 0.500000 0.000000 0.735482
O O18 0.500000 0.903649 0.000000
O O19 0.500000 0.390075 0.258146
O O20 0.582789 0.500000 0.257356
O O21 0.563228 0.403934 0.000000
#
# Coordination Sequence:
#
# PCOD9388187 Si02
#       7
#     8   8   8   8   8   4   8
#     4   8  14  26  43  62  88 122 153 180 218 270
#     4  11  20  30  49  75  96 116 150 198 237 263
#     4   9  16  24  39  67  94 112 140 186 231 265
#     4   8  15  28  45  65  90 121 154 185 221 268
#     4   8  14  25  40  57  80 113 147 174 209 264
#     4  11  23  35  46  65  98 133 155 176 220 281
#     4   9  18  33  51  69  94 128 158 183 220 277
#
# _framework density 17.751142000000002
#
# number of rings (size 3 to 8) (size 9 to 14) (size 15 to 20)
#    0.000    3.000    0.769    3.000    0.000    2.154 
#    0.000    3.846    0.000    3.231    0.000   12.923 
#    0.000    0.000    0.000    0.000    0.000    0.000 
#
# Total GULP energy -289495.067457 kJ/mol
# GULP energy per Si atom -5567.212836 kJ/mol
# Density = 1.771074 g / cm^3
# Si number density = 17.751142 Si / 1000 Ang^3
#
#
#
# Elastic Constant Matrix: (Units=GPa)
#
#
# Indices 1 2 3 4 5 6 
#
# 1 132.9012 101.2154 8.0955 0.0000 0.0000 0.0000
# 2 101.2154 139.4476 10.6533 0.0000 0.0000 0.0000
# 3 8.0955 10.6533 13.3199 0.0000 0.0000 0.0000
# 4 0.0000 0.0000 0.0000-1247.5496 0.0000 0.0000
# 5 0.0000 0.0000 0.0000 0.0000 -4.2006 0.0000
# 6 0.0000 0.0000 0.0000 0.0000 0.0000 9.5733
#
#
#
# Elastic Compliance Matrix: (Units=1/GPa)
#
#
# Indices 1 2 3 4 5 6 
#
# 1 0.016828 -0.012177 -0.000488 0.000000 0.000000 0.000000
# 2 -0.012177 0.016449 -0.005755 0.000000 0.000000 0.000000
# 3 -0.000488 -0.005755 0.079976 0.000000 0.000000 0.000000
# 4 0.000000 0.000000 0.000000 -0.000802 0.000000 0.000000
# 5 0.000000 0.000000 0.000000 0.000000 -0.238063 0.000000
# 6 0.000000 0.000000 0.000000 0.000000 0.000000 0.104458
#
#
# Mechanical properties :
#
#
# Convention : Reuss Voigt Hill
#
# Bulk Modulus (GPa) = 13.08704 58.39968 35.74336
# Shear Modulus (GPa) = 121.48511 -237.38842 -57.95165
#
# Velocity S-wave (km/s) = 8.28170 -11.57677 -5.71993
# Velocity P-wave (km/s) = 9.94169 12.07166 4.84189
#
# Compressibility (1/GPa) = 0.07641148
#
# Stress axis : x y z
#
# Youngs Moduli (GPa) = 59.42540 60.79336 12.50379
#
# Poissons Ratio (x) = 0.74027 0.00611
# Poissons Ratio (y) = 0.72361 0.07196
# Poissons Ratio (z) = 0.02903 0.34989
#
# Static dielectric constant tensor:
#      x y z
#    x 1.623880 0.000000 0.000000 
#    y 0.000000 1.610840 0.000000 
#    z 0.000000 0.000000 1.634920 
# 
# From -- ./inp_files/12506.got.cif
#   From: 2010.05.17/outbox.cif.g08.bks.cpg/sg47_7_cif.got.tgz:12506.got - 2010.06.03 20:15:42.
