data_PCOD9388220
_publ_section_title
;
Structure prediction by ZEFSAII (Michael W. Deem and Ramdas Pophale) SiO2 
 PCOD9388220
Probable space group: P M M M
;
_chemical_formula_sum "Si O2"
_cell_formula_units_Z 52
_cell_length_a 7.796809
_cell_length_b 14.161309
_cell_length_c 27.672976
_cell_angle_alpha 90.000000
_cell_angle_beta 90.000000
_cell_angle_gamma 90.000000
_cell_volume 3055.456893
_symmetry_space_group_name_H-M "P M M M"
_symmetry_group_IT_number 47
_symmetry_cell_setting 'orthorhombic'
loop_
_space_group_symop_operation_xyz
x,y,z
-x,-y,z
x,-y,-z
-x,y,-z
-x,-y,-z
x,y,-z
-x,y,z
x,-y,z
loop_
_atom_site_type_symbol
_atom_site_label
_atom_site_fract_x
_atom_site_fract_y
_atom_site_fract_z
Si Si1 0.207167 0.391257 0.343135
Si Si2 0.209938 0.890532 0.000000
Si Si3 0.209990 0.795792 0.099666
Si Si4 0.301486 0.298868 0.243119
Si Si5 0.200578 0.395079 0.145940
Si Si6 0.207275 0.105363 0.198404
Si Si7 0.795155 0.385931 0.551991
O O1 0.265675 0.500000 0.336620
O O2 0.255789 0.331314 0.296696
O O3 0.270753 0.354435 0.395514
O O4 0.000000 0.393744 0.345698
O O5 0.265828 0.837026 0.951471
O O6 0.000000 0.890464 0.000000
O O7 0.263291 0.000000 0.000000
O O8 0.271926 0.690529 0.113443
O O9 0.260059 0.862931 0.144392
O O10 0.000000 0.793983 0.099406
O O11 0.500000 0.316990 0.234689
O O12 0.208196 0.358801 0.201305
O O13 0.264400 0.188907 0.233629
O O14 0.276300 0.500000 0.141274
O O15 0.000000 0.401802 0.133257
O O16 0.000000 0.104615 0.198970
O O17 0.268335 0.000000 0.209699
O O18 0.724355 0.352639 0.500000
O O19 0.776849 0.500000 0.552722
O O20 0.000000 0.367094 0.551130
#
# Coordination Sequence:
#
# PCOD9388220 Si02
#       7
#     8   4   8   8   8   8   8
#     4   9  16  26  41  60  84 115 147 177 208 243
#     4   9  14  20  35  61  90 111 127 159 210 261
#     4   8  14  24  39  62  87 108 132 162 201 251
#     4  11  21  29  40  61  87 111 138 175 213 250
#     4   9  17  30  45  58  78 111 147 179 209 243
#     4   9  17  31  49  64  81 108 139 169 204 249
#     4   7  10  18  34  56  79 104 138 177 210 238
#
# _framework density 17.018730999999999
#
# number of rings (size 3 to 8) (size 9 to 14) (size 15 to 20)
#    0.000    3.154    0.000    4.615    0.000    4.615 
#    0.000    0.385    0.000    2.769    0.000   10.769 
#    0.000   20.308    0.000    7.077    0.000    2.308 
#
# Total GULP energy -289556.289556 kJ/mol
# GULP energy per Si atom -5568.390184 kJ/mol
# Density = 1.698000 g / cm^3
# Si number density = 17.018731 Si / 1000 Ang^3
#
#
#
# Elastic Constant Matrix: (Units=GPa)
#
#
# Indices 1 2 3 4 5 6 
#
# 1 22.9525 2.0544 -0.1216 0.0000 0.0000 0.0000
# 2 2.0544 112.8460 74.7515 0.0000 0.0000 0.0000
# 3 -0.1216 74.7515 159.4677 0.0000 0.0000 0.0000
# 4 0.0000 0.0000 0.0000 16.2931 0.0000 0.0000
# 5 0.0000 0.0000 0.0000 0.0000 -21.5763 0.0000
# 6 0.0000 0.0000 0.0000 0.0000 0.0000 -24.5197
#
#
#
# Elastic Compliance Matrix: (Units=1/GPa)
#
#
# Indices 1 2 3 4 5 6 
#
# 1 0.043677 -0.001185 0.000589 0.000000 0.000000 0.000000
# 2 -0.001185 0.012885 -0.006041 0.000000 0.000000 0.000000
# 3 0.000589 -0.006041 0.009103 0.000000 0.000000 0.000000
# 4 0.000000 0.000000 0.000000 0.061376 0.000000 0.000000
# 5 0.000000 0.000000 0.000000 0.000000 -0.046347 0.000000
# 6 0.000000 0.000000 0.000000 0.000000 0.000000 -0.040783
#
#
# Mechanical properties :
#
#
# Convention : Reuss Voigt Hill
#
# Bulk Modulus (GPa) = 19.08725 49.84832 34.46778
# Shear Modulus (GPa) = 70.77349 8.61154 39.69252
#
# Velocity S-wave (km/s) = 6.45569 2.25189 4.83461
# Velocity P-wave (km/s) = 8.17360 6.00959 7.17366
#
# Compressibility (1/GPa) = 0.05239100
#
# Stress axis : x y z
#
# Youngs Moduli (GPa) = 22.89509 77.61152 109.85487
#
# Poissons Ratio (x) = 0.09199 -0.06470
# Poissons Ratio (y) = 0.02714 0.66360
# Poissons Ratio (z) = -0.01348 0.46883
#
# Static dielectric constant tensor:
#      x y z
#    x 1.612470 0.000000 0.000000 
#    y 0.000000 1.571820 0.000000 
#    z 0.000000 0.000000 1.597360 
# 
# From -- ./inp_files/33375.got.cif
#   From: 2010.05.17/outbox.cif.g08.bks.cpg/sg47_17_cif.got.tgz:33375.got - 2010.06.03 20:15:42.
