data_PCOD9388692
_publ_section_title
;
Structure prediction by ZEFSAII (Michael W. Deem and Ramdas Pophale) SiO2 
 PCOD9388692
Probable space group: P M M M
;
_chemical_formula_sum "Si O2"
_cell_formula_units_Z 44
_cell_length_a 7.437975
_cell_length_b 31.340514
_cell_length_c 9.586035
_cell_angle_alpha 90.000000
_cell_angle_beta 90.000000
_cell_angle_gamma 90.000000
_cell_volume 2234.600232
_symmetry_space_group_name_H-M "P M M M"
_symmetry_group_IT_number 47
_symmetry_cell_setting 'orthorhombic'
loop_
_space_group_symop_operation_xyz
x,y,z
-x,-y,z
x,-y,-z
-x,y,-z
-x,-y,-z
x,y,-z
-x,y,z
x,-y,z
loop_
_atom_site_type_symbol
_atom_site_label
_atom_site_fract_x
_atom_site_fract_y
_atom_site_fract_z
Si Si1 0.215943 0.454166 0.337695
Si Si2 0.000000 0.050881 0.834971
Si Si3 0.712622 0.639404 0.341265
Si Si4 0.718680 0.798979 0.658933
Si Si5 0.714371 0.896536 0.334550
Si Si6 0.279694 0.718853 0.840153
O O1 0.276759 0.453346 0.500000
O O2 0.277313 0.500000 0.277825
O O3 0.266101 0.408121 0.278740
O O4 0.000000 0.455104 0.338427
O O5 0.171760 0.071766 0.759440
O O6 0.000000 0.000000 0.816865
O O7 0.000000 0.060252 0.000000
O O8 0.786940 0.639997 0.500000
O O9 0.500000 0.646575 0.353505
O O10 0.782388 0.677478 0.245906
O O11 0.776336 0.790022 0.500000
O O12 0.500000 0.798612 0.657746
O O13 0.768931 0.847403 0.695846
O O14 0.777846 0.762059 0.762701
O O15 0.747544 0.903570 0.500000
O O16 0.500000 0.900610 0.311992
O O17 0.500000 0.718707 0.839811
O O18 0.222314 0.717511 0.000000
#
# Coordination Sequence:
#
# PCOD9388692 Si02
#       6
#     8   4   8   8   8   8
#     4   8  14  25  41  60  81 106 139 182 231 281
#     4  11  25  41  57  83 121 161 195 233 284 339
#     4   9  16  25  40  63  88 113 144 186 232 277
#     4   8  14  27  49  76 103 130 165 210 256 304
#     4   9  19  37  62  89 114 146 192 243 290 336
#     4   9  16  25  40  65  96 128 159 190 232 291
#
# _framework density 19.690322999999999
#
# number of rings (size 3 to 8) (size 9 to 14) (size 15 to 20)
#    0.000    3.182    0.000    2.455    0.000    4.727 
#    0.000    5.455    2.000    1.091    0.000    3.818 
#    0.000    0.000    0.000    0.000    0.000    0.000 
#
# Total GULP energy -245304.920194 kJ/mol
# GULP energy per Si atom -5575.111823 kJ/mol
# Density = 1.964551 g / cm^3
# Si number density = 19.690323 Si / 1000 Ang^3
#
#
#
# Elastic Constant Matrix: (Units=GPa)
#
#
# Indices 1 2 3 4 5 6 
#
# 1 70.3409 37.2987 31.6149 0.0000 0.0000 0.0000
# 2 37.2987 187.6203 115.5642 0.0000 0.0000 0.0000
# 3 31.6149 115.5642 106.0749 0.0000 0.0000 0.0000
# 4 0.0000 0.0000 0.0000 -17.0429 0.0000 0.0000
# 5 0.0000 0.0000 0.0000 0.0000 7.4568 0.0000
# 6 0.0000 0.0000 0.0000 0.0000 0.0000 34.8775
#
#
#
# Elastic Compliance Matrix: (Units=1/GPa)
#
#
# Indices 1 2 3 4 5 6 
#
# 1 0.016451 -0.000761 -0.004074 0.000000 0.000000 0.000000
# 2 -0.000761 0.016238 -0.017464 0.000000 0.000000 0.000000
# 3 -0.004074 -0.017464 0.029667 0.000000 0.000000 0.000000
# 4 0.000000 0.000000 0.000000 -0.058675 0.000000 0.000000
# 5 0.000000 0.000000 0.000000 0.000000 0.134106 0.000000
# 6 0.000000 0.000000 0.000000 0.000000 0.000000 0.028672
#
#
# Mechanical properties :
#
#
# Convention : Reuss Voigt Hill
#
# Bulk Modulus (GPa) = 56.30941 81.44352 68.87647
# Shear Modulus (GPa) = 23.04399 17.02881 20.03640
#
# Velocity S-wave (km/s) = 3.42471 2.94399 3.19341
# Velocity P-wave (km/s) = 6.65565 7.28067 6.97517
#
# Compressibility (1/GPa) = 0.01775902
#
# Stress axis : x y z
#
# Youngs Moduli (GPa) = 60.78618 61.58410 33.70697
#
# Poissons Ratio (x) = 0.04688 0.13732
# Poissons Ratio (y) = 0.04627 0.58865
# Poissons Ratio (z) = 0.24763 1.07549
#
# Static dielectric constant tensor:
#      x y z
#    x 1.719890 0.000000 0.000000 
#    y 0.000000 1.698560 0.000000 
#    z 0.000000 0.000000 1.652530 
# 
# From -- ./inp_files/2200.got.cif
#   From: 2010.05.17/outbox.cif.g08.bks.cpg/sg47_2_cif.got.tgz:2200.got - 2010.06.03 20:15:42.
