data_PCOD9388916
_publ_section_title
;
Structure prediction by ZEFSAII (Michael W. Deem and Ramdas Pophale) SiO2 
 PCOD9388916
Probable space group: P M M M
;
_chemical_formula_sum "Si O2"
_cell_formula_units_Z 52
_cell_length_a 14.278038
_cell_length_b 29.681801
_cell_length_c 7.503686
_cell_angle_alpha 90.000000
_cell_angle_beta 90.000000
_cell_angle_gamma 90.000000
_cell_volume 3180.046238
_symmetry_space_group_name_H-M "P M M M"
_symmetry_group_IT_number 47
_symmetry_cell_setting 'orthorhombic'
loop_
_space_group_symop_operation_xyz
x,y,z
-x,-y,z
x,-y,-z
-x,y,-z
-x,-y,-z
x,y,-z
-x,y,z
x,-y,z
loop_
_atom_site_type_symbol
_atom_site_label
_atom_site_fract_x
_atom_site_fract_y
_atom_site_fract_z
Si Si1 0.885803 0.051589 0.000000
Si Si2 0.894090 0.220432 0.287287
Si Si3 0.208938 0.687841 0.213290
Si Si4 0.604913 0.640704 0.782223
Si Si5 0.895110 0.598432 0.782495
Si Si6 0.114017 0.121719 0.295872
Si Si7 0.706975 0.550159 0.217229
O O1 0.856537 0.080752 0.828818
O O2 0.000000 0.050669 0.000000
O O3 0.853810 0.000000 0.000000
O O4 0.901242 0.215148 0.500000
O O5 0.828473 0.262837 0.254255
O O6 0.859604 0.171403 0.224030
O O7 0.000000 0.229201 0.218985
O O8 0.312892 0.674570 0.276739
O O9 0.138147 0.648402 0.274694
O O10 0.211167 0.683951 0.000000
O O11 0.500000 0.650742 0.721817
O O12 0.638303 0.590554 0.728598
O O13 0.604061 0.641272 0.000000
O O14 0.812218 0.564635 0.729140
O O15 0.000000 0.588118 0.721693
O O16 0.896585 0.598040 0.000000
O O17 0.145071 0.116000 0.500000
O O18 0.000000 0.122541 0.296805
O O19 0.683132 0.500000 0.277947
O O20 0.705759 0.549859 0.000000
#
# Coordination Sequence:
#
# PCOD9388916 Si02
#       7
#     4   8   8   8   8   8   8
#     4   9  16  24  36  54  74 104 147 185 214 243
#     4   9  17  27  38  54  77 102 126 158 200 237
#     4   9  16  24  37  55  70  93 128 157 187 232
#     4   8  14  24  35  48  69  93 119 156 196 233
#     4   8  13  20  28  42  66  90 115 150 188 227
#     4   8  15  26  36  50  75 104 136 176 216 248
#     4   8  13  19  27  42  64  92 124 150 179 228
#
# _framework density 16.351965
#
# number of rings (size 3 to 8) (size 9 to 14) (size 15 to 20)
#    0.000    3.615    0.000    3.231    1.077    1.846 
#    0.000    4.615    0.000    0.462    0.000    0.000 
#    0.000    9.846    0.000   39.385    0.000   36.000 
#
# Total GULP energy -289583.890222 kJ/mol
# GULP energy per Si atom -5568.920966 kJ/mol
# Density = 1.631475 g / cm^3
# Si number density = 16.351965 Si / 1000 Ang^3
#
#
#
# Elastic Constant Matrix: (Units=GPa)
#
#
# Indices 1 2 3 4 5 6 
#
# 1 70.9866 34.1995 6.6741 0.0000 0.0000 0.0000
# 2 34.1995 135.3910 22.2720 0.0000 0.0000 0.0000
# 3 6.6741 22.2720 48.3276 0.0000 0.0000 0.0000
# 4 0.0000 0.0000 0.0000 51.2649 0.0000 0.0000
# 5 0.0000 0.0000 0.0000 0.0000 -2.0572 0.0000
# 6 0.0000 0.0000 0.0000 0.0000 0.0000 10.1567
#
#
#
# Elastic Compliance Matrix: (Units=1/GPa)
#
#
# Indices 1 2 3 4 5 6 
#
# 1 0.016045 -0.003991 -0.000377 0.000000 0.000000 0.000000
# 2 -0.003991 0.008985 -0.003589 0.000000 0.000000 0.000000
# 3 -0.000377 -0.003589 0.022398 0.000000 0.000000 0.000000
# 4 0.000000 0.000000 0.000000 0.019507 0.000000 0.000000
# 5 0.000000 0.000000 0.000000 0.000000 -0.486098 0.000000
# 6 0.000000 0.000000 0.000000 0.000000 0.000000 0.098457
#
#
# Mechanical properties :
#
#
# Convention : Reuss Voigt Hill
#
# Bulk Modulus (GPa) = 31.73180 42.33294 37.03237
# Shear Modulus (GPa) = -16.99023 24.64352 3.82664
#
# Velocity S-wave (km/s) = -3.22690 3.88631 1.53142
# Velocity P-wave (km/s) = 2.35876 6.78842 5.08165
#
# Compressibility (1/GPa) = 0.03151413
#
# Stress axis : x y z
#
# Youngs Moduli (GPa) = 62.32328 111.30136 44.64622
#
# Poissons Ratio (x) = 0.44421 0.01681
# Poissons Ratio (y) = 0.24874 0.16025
# Poissons Ratio (z) = 0.02347 0.39951
#
# Static dielectric constant tensor:
#      x y z
#    x 1.531700 0.000000 0.000000 
#    y 0.000000 1.556060 0.000000 
#    z 0.000000 0.000000 1.648680 
# 
# From -- ./inp_files/8038.got.cif
#   From: 2010.05.17/outbox.cif.g08.bks.cpg/sg47_5_cif.got.tgz:8038.got - 2010.06.03 20:15:42.
