data_PCOD9388060
_publ_section_title
;
Structure prediction by ZEFSAII (Michael W. Deem and Ramdas Pophale) SiO2 
 PCOD9388060
Probable space group: P M M M
;
_chemical_formula_sum "Si O2"
_cell_formula_units_Z 48
_cell_length_a 30.337579
_cell_length_b 8.140043
_cell_length_c 9.994826
_cell_angle_alpha 90.000000
_cell_angle_beta 90.000000
_cell_angle_gamma 90.000000
_cell_volume 2468.214261
_symmetry_space_group_name_H-M "P M M M"
_symmetry_group_IT_number 47
_symmetry_cell_setting 'orthorhombic'
loop_
_space_group_symop_operation_xyz
x,y,z
-x,-y,z
x,-y,-z
-x,y,-z
-x,-y,-z
x,y,-z
-x,y,z
x,-y,z
loop_
_atom_site_type_symbol
_atom_site_label
_atom_site_fract_x
_atom_site_fract_y
_atom_site_fract_z
Si Si1 0.552310 0.692941 0.000000
Si Si2 0.701598 0.693896 0.846340
Si Si3 0.779189 0.803088 0.346446
Si Si4 0.047620 0.303298 0.840367
Si Si5 0.448858 0.201440 0.500000
Si Si6 0.606591 0.192270 0.246403
Si Si7 0.143358 0.196473 0.154193
O O1 0.573034 0.781609 0.126125
O O2 0.565235 0.500000 0.000000
O O3 0.500000 0.702474 0.000000
O O4 0.709913 0.500000 0.851348
O O5 0.735849 0.769122 0.741446
O O6 0.652277 0.723644 0.793197
O O7 0.705712 0.758444 0.000000
O O8 0.777138 0.740306 0.500000
O O9 0.820153 0.738698 0.257293
O O10 0.784151 0.000000 0.355707
O O11 0.049071 0.500000 0.823741
O O12 0.093966 0.231629 0.793948
O O13 0.000000 0.244549 0.786417
O O14 0.046954 0.269712 0.000000
O O15 0.500000 0.255732 0.500000
O O16 0.420200 0.255976 0.626344
O O17 0.450202 0.000000 0.500000
O O18 0.616339 0.000000 0.267070
O O19 0.148622 0.000000 0.145971
O O20 0.148139 0.260205 0.000000
#
# Coordination Sequence:
#
# PCOD9388060 Si02
#       7
#     4   8   8   8   4   8   8
#     4  11  23  39  59  87 123 155 187 231 278 325
#     4  11  24  41  60  84 115 146 181 230 286 339
#     4  10  22  39  59  82 110 145 187 232 279 336
#     4   8  14  25  43  70 104 140 178 222 272 326
#     4   9  20  38  59  87 119 147 185 233 272 317
#     4  11  22  38  63  89 114 150 191 231 277 330
#     4   9  17  30  50  77 107 139 178 228 279 327
#
# _framework density 19.447258999999999
#
# number of rings (size 3 to 8) (size 9 to 14) (size 15 to 20)
#    0.000    2.167    0.833    2.750    1.167    4.333 
#    0.000    4.583    0.000    3.500    0.000    3.500 
#    0.000    0.000    0.000    0.000    0.000    0.000 
#
# Total GULP energy -267674.714365 kJ/mol
# GULP energy per Si atom -5576.556549 kJ/mol
# Density = 1.940300 g / cm^3
# Si number density = 19.447259 Si / 1000 Ang^3
#
#
#
# Elastic Constant Matrix: (Units=GPa)
#
#
# Indices 1 2 3 4 5 6 
#
# 1 136.3748 1.7917 80.6880 0.0000 0.0000 0.0000
# 2 1.7917 6.2722 2.2309 0.0000 0.0000 0.0000
# 3 80.6880 2.2309 153.9564 0.0000 0.0000 0.0000
# 4 0.0000 0.0000 0.0000 1.9922 0.0000 0.0000
# 5 0.0000 0.0000 0.0000 0.0000 20.2913 0.0000
# 6 0.0000 0.0000 0.0000 0.0000 0.0000 31.3533
#
#
#
# Elastic Compliance Matrix: (Units=1/GPa)
#
#
# Indices 1 2 3 4 5 6 
#
# 1 0.010636 -0.001061 -0.005559 0.000000 0.000000 0.000000
# 2 -0.001061 0.160366 -0.001768 0.000000 0.000000 0.000000
# 3 -0.005559 -0.001768 0.009434 0.000000 0.000000 0.000000
# 4 0.000000 0.000000 0.000000 0.501947 0.000000 0.000000
# 5 0.000000 0.000000 0.000000 0.000000 0.049282 0.000000
# 6 0.000000 0.000000 0.000000 0.000000 0.000000 0.031895
#
#
# Mechanical properties :
#
#
# Convention : Reuss Voigt Hill
#
# Bulk Modulus (GPa) = 6.11020 51.78050 28.94535
# Shear Modulus (GPa) = 5.98883 24.85356 15.42119
#
# Velocity S-wave (km/s) = 1.75676 3.57879 2.81904
# Velocity P-wave (km/s) = 2.69513 6.61520 5.05097
#
# Compressibility (1/GPa) = 0.16366071
#
# Stress axis : x y z
#
# Youngs Moduli (GPa) = 94.02433 6.23575 105.99686
#
# Poissons Ratio (x) = 0.00662 0.58920
# Poissons Ratio (y) = 0.09976 0.18737
# Poissons Ratio (z) = 0.52265 0.01102
#
# Static dielectric constant tensor:
#      x y z
#    x 1.676080 0.000000 0.000000 
#    y 0.000000 1.699660 0.000000 
#    z 0.000000 0.000000 1.681750 
# 
# From -- ./inp_files/13868.got.cif
#   From: 2010.05.17/outbox.cif.g08.bks.cpg/sg47_7_cif.got.tgz:13868.got - 2010.06.03 20:15:42.
