data_PCOD9388259
_publ_section_title
;
Structure prediction by ZEFSAII (Michael W. Deem and Ramdas Pophale) SiO2 
 PCOD9388259
Probable space group: P M M M
;
_chemical_formula_sum "Si O2"
_cell_formula_units_Z 40
_cell_length_a 19.312090
_cell_length_b 8.172659
_cell_length_c 14.231888
_cell_angle_alpha 90.000000
_cell_angle_beta 90.000000
_cell_angle_gamma 90.000000
_cell_volume 2246.234910
_symmetry_space_group_name_H-M "P M M M"
_symmetry_group_IT_number 47
_symmetry_cell_setting 'orthorhombic'
loop_
_space_group_symop_operation_xyz
x,y,z
-x,-y,z
x,-y,-z
-x,y,-z
-x,-y,-z
x,y,-z
-x,y,z
x,-y,z
loop_
_atom_site_type_symbol
_atom_site_label
_atom_site_fract_x
_atom_site_fract_y
_atom_site_fract_z
Si Si1 0.850842 0.194803 0.395436
Si Si2 0.216491 0.198041 0.105487
Si Si3 0.077319 0.200062 0.792946
Si Si4 0.715444 0.691775 0.293424
Si Si5 0.578267 0.197647 0.391352
O O1 0.861182 0.263364 0.500000
O O2 0.900101 0.256112 0.311565
O O3 0.772548 0.221553 0.359458
O O4 0.862315 0.000000 0.400450
O O5 0.139041 0.249374 0.137383
O O6 0.267671 0.257723 0.186754
O O7 0.217774 0.000000 0.106576
O O8 0.232094 0.253728 0.000000
O O9 0.000000 0.254231 0.817132
O O10 0.077143 0.000000 0.792455
O O11 0.726731 0.500000 0.303646
O O12 0.638774 0.736456 0.326207
O O13 0.590604 0.247118 0.500000
O O14 0.500000 0.248849 0.365772
O O15 0.580166 0.000000 0.388804
#
# Coordination Sequence:
#
# PCOD9388259 Si02
#       5
#     8   8   8   8   8
#     4   9  17  29  45  65  92 128 166 199 232 277
#     4   9  18  33  52  71  91 120 159 200 243 291
#     4   8  14  25  43  70  98 118 146 196 251 293
#     4  11  21  31  47  71  99 128 158 196 238 279
#     4   9  18  33  53  76 102 132 162 190 224 270
#
# _framework density 17.807576000000001
#
# number of rings (size 3 to 8) (size 9 to 14) (size 15 to 20)
#    0.000    2.800    0.000    4.200    0.000    4.800 
#    0.000    5.000    0.000   10.200    0.000   15.400 
#    0.000    0.000    0.000    0.000    0.000    0.000 
#
# Total GULP energy -222993.390804 kJ/mol
# GULP energy per Si atom -5574.834770 kJ/mol
# Density = 1.776705 g / cm^3
# Si number density = 17.807576 Si / 1000 Ang^3
#
#
#
# Elastic Constant Matrix: (Units=GPa)
#
#
# Indices 1 2 3 4 5 6 
#
# 1 101.8317 -3.5065 33.7318 0.0000 0.0000 0.0000
# 2 -3.5065 6.5389 0.8901 0.0000 0.0000 0.0000
# 3 33.7318 0.8901 79.6280 0.0000 0.0000 0.0000
# 4 0.0000 0.0000 0.0000 -3.5190 0.0000 0.0000
# 5 0.0000 0.0000 0.0000 0.0000 9.0400 0.0000
# 6 0.0000 0.0000 0.0000 0.0000 0.0000 -20.6939
#
#
#
# Elastic Compliance Matrix: (Units=1/GPa)
#
#
# Indices 1 2 3 4 5 6 
#
# 1 0.011733 0.006979 -0.005048 0.000000 0.000000 0.000000
# 2 0.006979 0.157314 -0.004715 0.000000 0.000000 0.000000
# 3 -0.005048 -0.004715 0.014750 0.000000 0.000000 0.000000
# 4 0.000000 0.000000 0.000000 -0.284172 0.000000 0.000000
# 5 0.000000 0.000000 0.000000 0.000000 0.110619 0.000000
# 6 0.000000 0.000000 0.000000 0.000000 0.000000 -0.048323
#
#
# Mechanical properties :
#
#
# Convention : Reuss Voigt Hill
#
# Bulk Modulus (GPa) = 5.61078 27.80326 16.70702
# Shear Modulus (GPa) = 185.88039 7.42430 96.65235
#
# Velocity S-wave (km/s) = 10.22787 2.04407 7.37522
# Velocity P-wave (km/s) = 11.94306 4.60630 9.05138
#
# Compressibility (1/GPa) = 0.17822836
#
# Stress axis : x y z
#
# Youngs Moduli (GPa) = 85.23232 6.35669 67.79852
#
# Poissons Ratio (x) = -0.04436 0.34226
# Poissons Ratio (y) = -0.59482 0.31966
# Poissons Ratio (z) = 0.43027 0.02997
#
# Static dielectric constant tensor:
#      x y z
#    x 1.595690 0.000000 0.000000 
#    y 0.000000 1.626150 0.000000 
#    z 0.000000 0.000000 1.610100 
# 
# From -- ./inp_files/5925.got.cif
#   From: 2010.05.17/outbox.cif.g08.bks.cpg/sg47_3_cif.got.tgz:5925.got - 2010.06.03 20:15:42.
