data_PCOD9388036
_publ_section_title
;
Structure prediction by ZEFSAII (Michael W. Deem and Ramdas Pophale) SiO2 
 PCOD9388036
Probable space group: P M M M
;
_chemical_formula_sum "Si O2"
_cell_formula_units_Z 30
_cell_length_a 9.768030
_cell_length_b 7.501610
_cell_length_c 19.425283
_cell_angle_alpha 90.000000
_cell_angle_beta 90.000000
_cell_angle_gamma 90.000000
_cell_volume 1423.406096
_symmetry_space_group_name_H-M "P M M M"
_symmetry_group_IT_number 47
_symmetry_cell_setting 'orthorhombic'
loop_
_space_group_symop_operation_xyz
x,y,z
-x,-y,z
x,-y,-z
-x,y,-z
-x,-y,-z
x,y,-z
-x,y,z
x,-y,z
loop_
_atom_site_type_symbol
_atom_site_label
_atom_site_fract_x
_atom_site_fract_y
_atom_site_fract_z
Si Si1 0.780639 0.793984 0.345910
Si Si2 0.500000 0.285507 0.419505
Si Si3 0.344836 0.789364 0.205594
Si Si4 0.000000 0.500000 0.614608
Si Si5 0.845297 0.714766 0.921853
O O1 0.634670 0.788534 0.383339
O O2 0.750080 0.724643 0.268131
O O3 0.881832 0.657300 0.382064
O O4 0.829304 0.000000 0.343997
O O5 0.500000 0.500000 0.411933
O O6 0.500000 0.242303 0.500000
O O7 0.500000 0.715801 0.205894
O O8 0.267504 0.765810 0.133633
O O9 0.356760 0.000000 0.218232
O O10 0.848575 0.500000 0.923176
O O11 0.000000 0.775158 0.903346
O O12 0.815989 0.775367 0.000000
#
# Coordination Sequence:
#
# PCOD9388036 Si02
#       5
#     8   4   8   2   8
#     4  11  24  44  68 101 136 176 227 273 335 403
#     4  11  23  45  77 106 136 179 229 273 325 395
#     4  10  22  38  58  86 121 158 205 268 323 385
#     4  12  26  42  67 100 141 180 216 278 338 384
#     4   9  20  37  56  81 115 158 207 256 316 391
#
# _framework density 21.076205999999999
#
# number of rings (size 3 to 8) (size 9 to 14) (size 15 to 20)
#    0.000    1.733    2.667    1.600    3.733    3.200 
#    0.000    5.333    0.000    1.600    0.000    0.000 
#    0.000    0.000    0.000    0.000    0.000    0.000 
#
# Total GULP energy -167068.496752 kJ/mol
# GULP energy per Si atom -5568.949892 kJ/mol
# Density = 2.102824 g / cm^3
# Si number density = 21.076206 Si / 1000 Ang^3
#
#
#
# Elastic Constant Matrix: (Units=GPa)
#
#
# Indices 1 2 3 4 5 6 
#
# 1 97.6900 25.6734 2.3537 0.0000 0.0000 0.0000
# 2 25.6734 101.3493 0.3117 0.0000 0.0000 0.0000
# 3 2.3537 0.3117 51.8965 0.0000 0.0000 0.0000
# 4 0.0000 0.0000 0.0000 17.7196 0.0000 0.0000
# 5 0.0000 0.0000 0.0000 0.0000 -167.7257 0.0000
# 6 0.0000 0.0000 0.0000 0.0000 0.0000 -87.8572
#
#
#
# Elastic Compliance Matrix: (Units=1/GPa)
#
#
# Indices 1 2 3 4 5 6 
#
# 1 0.010979 -0.002780 -0.000481 0.000000 0.000000 0.000000
# 2 -0.002780 0.010571 0.000063 0.000000 0.000000 0.000000
# 3 -0.000481 0.000063 0.019291 0.000000 0.000000 0.000000
# 4 0.000000 0.000000 0.000000 0.056435 0.000000 0.000000
# 5 0.000000 0.000000 0.000000 0.000000 -0.005962 0.000000
# 6 0.000000 0.000000 0.000000 0.000000 0.000000 -0.011382
#
#
# Mechanical properties :
#
#
# Convention : Reuss Voigt Hill
#
# Bulk Modulus (GPa) = 29.03309 34.17928 31.60618
# Shear Modulus (GPa) = 51.12067 -32.73284 9.19391
#
# Velocity S-wave (km/s) = 4.93030 -3.94518 2.09086
# Velocity P-wave (km/s) = 6.79821 2.12141 4.56701
#
# Compressibility (1/GPa) = 0.03444346
#
# Stress axis : x y z
#
# Youngs Moduli (GPa) = 91.08679 94.60042 51.83878
#
# Poissons Ratio (x) = 0.26295 0.02495
# Poissons Ratio (y) = 0.25318 -0.00324
# Poissons Ratio (z) = 0.04383 -0.00592
#
# Static dielectric constant tensor:
#      x y z
#    x 1.722010 0.000000 0.000000 
#    y 0.000000 1.779140 0.000000 
#    z 0.000000 0.000000 1.774610 
# 
# From -- ./inp_files/29000.got.cif
#   From: 2010.05.17/outbox.cif.g08.bks.cpg/sg47_15_cif.got.tgz:29000.got - 2010.06.03 20:15:42.
