data_PCOD9388771
_publ_section_title
;
Structure prediction by ZEFSAII (Michael W. Deem and Ramdas Pophale) SiO2 
 PCOD9388771
Probable space group: P M M M
;
_chemical_formula_sum "Si O2"
_cell_formula_units_Z 36
_cell_length_a 12.148003
_cell_length_b 21.872615
_cell_length_c 7.404185
_cell_angle_alpha 90.000000
_cell_angle_beta 90.000000
_cell_angle_gamma 90.000000
_cell_volume 1967.355576
_symmetry_space_group_name_H-M "P M M M"
_symmetry_group_IT_number 47
_symmetry_cell_setting 'orthorhombic'
loop_
_space_group_symop_operation_xyz
x,y,z
-x,-y,z
x,-y,-z
-x,y,-z
-x,-y,-z
x,y,-z
-x,y,z
x,-y,z
loop_
_atom_site_type_symbol
_atom_site_label
_atom_site_fract_x
_atom_site_fract_y
_atom_site_fract_z
Si Si1 0.235929 0.618522 0.279260
Si Si2 0.000000 0.428602 0.279582
Si Si3 0.366942 0.000000 0.783756
Si Si4 0.372988 0.131324 0.217184
Si Si5 0.373814 0.733756 0.713924
Si Si6 0.374228 0.500000 0.279938
O O1 0.234207 0.619561 0.500000
O O2 0.294256 0.680679 0.216459
O O3 0.309936 0.560716 0.224639
O O4 0.111241 0.605269 0.221534
O O5 0.000000 0.500000 0.224117
O O6 0.000000 0.429456 0.500000
O O7 0.325819 0.066167 0.716801
O O8 0.500000 0.000000 0.756815
O O9 0.349537 0.000000 0.000000
O O10 0.500000 0.133664 0.281415
O O11 0.326703 0.197791 0.262280
O O12 0.375299 0.127972 0.000000
O O13 0.383244 0.723668 0.500000
O O14 0.500000 0.731064 0.786872
O O15 0.500000 0.500000 0.219620
O O16 0.374901 0.500000 0.500000
#
# Coordination Sequence:
#
# PCOD9388771 Si02
#       6
#     8   4   4   8   8   4
#     4   9  15  22  32  47  69  95 123 154 187 220
#     4   9  14  22  34  48  67  92 123 160 194 217
#     4   7  10  18  33  51  69  92 125 158 178 199
#     4   8  13  22  36  52  71  98 129 154 176 209
#     4   9  16  24  33  50  78 104 121 144 184 228
#     4   9  14  19  29  45  66  93 121 148 182 223
#
# _framework density 18.298674999999999
#
# number of rings (size 3 to 8) (size 9 to 14) (size 15 to 20)
#    0.000    3.444    1.111    2.000    0.000    2.667 
#    0.000    0.556    0.000    3.333    0.000    1.556 
#    0.000    6.222    0.000   11.111    0.000    4.000 
#
# Total GULP energy -200434.851485 kJ/mol
# GULP energy per Si atom -5567.634763 kJ/mol
# Density = 1.825703 g / cm^3
# Si number density = 18.298675 Si / 1000 Ang^3
#
#
#
# Elastic Constant Matrix: (Units=GPa)
#
#
# Indices 1 2 3 4 5 6 
#
# 1 107.5737 85.8436 4.9107 0.0000 0.0000 0.0000
# 2 85.8436 226.0110 3.1549 0.0000 0.0000 0.0000
# 3 4.9107 3.1549 59.1168 0.0000 0.0000 0.0000
# 4 0.0000 0.0000 0.0000 14.6904 0.0000 0.0000
# 5 0.0000 0.0000 0.0000 0.0000 -5.1664 0.0000
# 6 0.0000 0.0000 0.0000 0.0000 0.0000 1.1466
#
#
#
# Elastic Compliance Matrix: (Units=1/GPa)
#
#
# Indices 1 2 3 4 5 6 
#
# 1 0.013381 -0.005070 -0.000841 0.000000 0.000000 0.000000
# 2 -0.005070 0.006349 0.000082 0.000000 0.000000 0.000000
# 3 -0.000841 0.000082 0.016981 0.000000 0.000000 0.000000
# 4 0.000000 0.000000 0.000000 0.068072 0.000000 0.000000
# 5 0.000000 0.000000 0.000000 0.000000 -0.193558 0.000000
# 6 0.000000 0.000000 0.000000 0.000000 0.000000 0.872113
#
#
# Mechanical properties :
#
#
# Convention : Reuss Voigt Hill
#
# Bulk Modulus (GPa) = 39.91550 64.50221 52.20886
# Shear Modulus (GPa) = 6.22397 22.05361 14.13879
#
# Velocity S-wave (km/s) = 1.84627 3.47537 2.78271
# Velocity P-wave (km/s) = 5.13864 7.17150 6.23843
#
# Compressibility (1/GPa) = 0.02505292
#
# Stress axis : x y z
#
# Youngs Moduli (GPa) = 74.73516 157.49798 58.88892
#
# Poissons Ratio (x) = 0.79859 0.04952
# Poissons Ratio (y) = 0.37894 -0.00485
# Poissons Ratio (z) = 0.06285 -0.01297
#
# Static dielectric constant tensor:
#      x y z
#    x 1.585580 0.000000 0.000000 
#    y 0.000000 1.678880 0.000000 
#    z 0.000000 0.000000 1.715110 
# 
# From -- ./inp_files/15208.got.cif
#   From: 2010.05.17/outbox.cif.g08.bks.cpg/sg47_8_cif.got.tgz:15208.got - 2010.06.03 20:15:42.
