data_PCOD9388763
_publ_section_title
;
Structure prediction by ZEFSAII (Michael W. Deem and Ramdas Pophale) SiO2 
 PCOD9388763
Probable space group: P M M M
;
_chemical_formula_sum "Si O2"
_cell_formula_units_Z 52
_cell_length_a 7.349350
_cell_length_b 19.633105
_cell_length_c 16.639685
_cell_angle_alpha 90.000000
_cell_angle_beta 90.000000
_cell_angle_gamma 90.000000
_cell_volume 2400.949471
_symmetry_space_group_name_H-M "P M M M"
_symmetry_group_IT_number 47
_symmetry_cell_setting 'orthorhombic'
loop_
_space_group_symop_operation_xyz
x,y,z
-x,-y,z
x,-y,-z
-x,y,-z
-x,-y,-z
x,y,-z
-x,y,z
x,-y,z
loop_
_atom_site_type_symbol
_atom_site_label
_atom_site_fract_x
_atom_site_fract_y
_atom_site_fract_z
Si Si1 0.221833 0.637753 0.830644
Si Si2 0.289430 0.082171 0.584088
Si Si3 0.717179 0.075537 0.240283
Si Si4 0.216679 0.778757 0.242015
Si Si5 0.221177 0.424672 0.662439
Si Si6 0.778196 0.280587 0.589771
Si Si7 0.222095 0.578576 0.000000
O O1 0.281290 0.714095 0.808811
O O2 0.274122 0.590726 0.754858
O O3 0.000000 0.636862 0.831584
O O4 0.283134 0.613114 0.917385
O O5 0.206523 0.106919 0.500000
O O6 0.500000 0.104595 0.585542
O O7 0.204128 0.091933 0.670946
O O8 0.293825 0.000000 0.579789
O O9 0.500000 0.069002 0.248435
O O10 0.745135 0.148660 0.200252
O O11 0.781194 0.000000 0.213210
O O12 0.282813 0.765528 0.334346
O O13 0.000000 0.773033 0.246649
O O14 0.282026 0.500000 0.637117
O O15 0.275182 0.358557 0.610921
O O16 0.000000 0.424969 0.660002
O O17 0.716310 0.262261 0.500000
O O18 0.000000 0.278143 0.589089
O O19 0.275171 0.500000 0.000000
O O20 0.000000 0.580839 0.000000
#
# Coordination Sequence:
#
# PCOD9388763 Si02
#       7
#     8   8   8   8   8   8   4
#     4   8  14  23  34  53  82 112 137 161 196 240
#     4   7  10  18  32  49  69  91 115 151 202 246
#     4   9  17  28  42  60  78  97 130 175 211 239
#     4   9  17  28  40  55  81 113 136 160 201 248
#     4   8  12  18  29  46  72 105 137 169 202 233
#     4   8  14  23  33  47  71 106 143 171 197 234
#     4   9  14  20  36  62  90 117 140 162 193 237
#
# _framework density 21.658097999999999
#
# number of rings (size 3 to 8) (size 9 to 14) (size 15 to 20)
#    0.000    3.769    0.000    3.692    0.000    3.077 
#    0.000    1.538    0.000    0.000    0.000    5.385 
#    0.000   20.308    0.000    5.538    0.000    6.154 
#
# Total GULP energy -289582.666866 kJ/mol
# GULP energy per Si atom -5568.897440 kJ/mol
# Density = 2.160880 g / cm^3
# Si number density = 21.658098 Si / 1000 Ang^3
#
#
#
# Elastic Constant Matrix: (Units=GPa)
#
#
# Indices 1 2 3 4 5 6 
#
# 1 82.7744 1.3444 3.9157 0.0000 0.0000 0.0000
# 2 1.3444 189.2996 40.7831 0.0000 0.0000 0.0000
# 3 3.9157 40.7831 82.7194 0.0000 0.0000 0.0000
# 4 0.0000 0.0000 0.0000 7.1498 0.0000 0.0000
# 5 0.0000 0.0000 0.0000 0.0000 -151.9159 0.0000
# 6 0.0000 0.0000 0.0000 0.0000 0.0000 14.9321
#
#
#
# Elastic Compliance Matrix: (Units=1/GPa)
#
#
# Indices 1 2 3 4 5 6 
#
# 1 0.012108 0.000042 -0.000594 0.000000 0.000000 0.000000
# 2 0.000042 0.005911 -0.002916 0.000000 0.000000 0.000000
# 3 -0.000594 -0.002916 0.013555 0.000000 0.000000 0.000000
# 4 0.000000 0.000000 0.000000 0.139864 0.000000 0.000000
# 5 0.000000 0.000000 0.000000 0.000000 -0.006583 0.000000
# 6 0.000000 0.000000 0.000000 0.000000 0.000000 0.066970
#
#
# Mechanical properties :
#
#
# Convention : Reuss Voigt Hill
#
# Bulk Modulus (GPa) = 40.58781 49.65331 45.12056
# Shear Modulus (GPa) = 20.24505 -5.38346 7.43079
#
# Velocity S-wave (km/s) = 3.06070 -1.57831 1.85429
# Velocity P-wave (km/s) = 5.59208 4.43332 5.04608
#
# Compressibility (1/GPa) = 0.02463794
#
# Stress axis : x y z
#
# Youngs Moduli (GPa) = 82.58700 169.18813 73.77413
#
# Poissons Ratio (x) = -0.00710 0.04381
# Poissons Ratio (y) = -0.00346 0.21513
# Poissons Ratio (z) = 0.04904 0.49337
#
# Static dielectric constant tensor:
#      x y z
#    x 1.849460 0.000000 0.000000 
#    y 0.000000 1.831660 0.000000 
#    z 0.000000 0.000000 1.799870 
# 
# From -- ./inp_files/27663.got.cif
#   From: 2010.05.17/outbox.cif.g08.bks.cpg/sg47_14_cif.got.tgz:27663.got - 2010.06.03 20:15:42.
