data_PCOD9388463
_publ_section_title
;
Structure prediction by ZEFSAII (Michael W. Deem and Ramdas Pophale) SiO2 
 PCOD9388463
Probable space group: P M M M
;
_chemical_formula_sum "Si O2"
_cell_formula_units_Z 32
_cell_length_a 14.748821
_cell_length_b 7.391142
_cell_length_c 15.386474
_cell_angle_alpha 90.000000
_cell_angle_beta 90.000000
_cell_angle_gamma 90.000000
_cell_volume 1677.289230
_symmetry_space_group_name_H-M "P M M M"
_symmetry_group_IT_number 47
_symmetry_cell_setting 'orthorhombic'
loop_
_space_group_symop_operation_xyz
x,y,z
-x,-y,z
x,-y,-z
-x,y,-z
-x,-y,-z
x,y,-z
-x,y,z
x,-y,z
loop_
_atom_site_type_symbol
_atom_site_label
_atom_site_fract_x
_atom_site_fract_y
_atom_site_fract_z
Si Si1 0.890840 0.202433 0.500000
Si Si2 0.609933 0.500000 0.396052
Si Si3 0.102061 0.220604 0.689850
Si Si4 0.703940 0.207378 0.726956
Si Si5 0.394481 0.281463 0.095161
O O1 0.872090 0.286921 0.407316
O O2 0.000000 0.185748 0.500000
O O3 0.850797 0.000000 0.500000
O O4 0.500000 0.500000 0.386881
O O5 0.630559 0.500000 0.500000
O O6 0.652908 0.669511 0.343804
O O7 0.191488 0.267122 0.742949
O O8 0.000000 0.282033 0.712943
O O9 0.096178 0.000000 0.686290
O O10 0.655008 0.214674 0.819488
O O11 0.705349 0.000000 0.695653
O O12 0.500000 0.229496 0.099637
O O13 0.390959 0.500000 0.097562
O O14 0.359119 0.224066 0.000000
#
# Coordination Sequence:
#
# PCOD9388463 Si02
#       5
#     4   4   8   8   8
#     4   7  10  20  40  65  95 132 173 219 268 308
#     4  11  26  44  56  76 118 159 192 236 282 332
#     4   8  15  28  48  77 111 144 181 230 281 327
#     4  11  22  36  61  88 111 149 195 234 280 341
#     4   9  18  35  59  84 112 145 181 232 296 347
#
# _framework density 19.078403000000002
#
# number of rings (size 3 to 8) (size 9 to 14) (size 15 to 20)
#    0.000    2.750    1.250    3.000    1.750    3.000 
#    0.000    3.125    0.000    1.500    0.000    5.250 
#    0.000    0.000    0.000    0.000    0.000    0.000 
#
# Total GULP energy -178238.601712 kJ/mol
# GULP energy per Si atom -5569.956304 kJ/mol
# Density = 1.903498 g / cm^3
# Si number density = 19.078403 Si / 1000 Ang^3
#
#
#
# Elastic Constant Matrix: (Units=GPa)
#
#
# Indices 1 2 3 4 5 6 
#
# 1 127.5857 29.2640 71.3275 0.0000 0.0000 0.0000
# 2 29.2640 93.1185 26.5784 0.0000 0.0000 0.0000
# 3 71.3275 26.5784 120.7447 0.0000 0.0000 0.0000
# 4 0.0000 0.0000 0.0000 -17.2071 0.0000 0.0000
# 5 0.0000 0.0000 0.0000 0.0000 18.1347 0.0000
# 6 0.0000 0.0000 0.0000 0.0000 0.0000 28.9623
#
#
#
# Elastic Compliance Matrix: (Units=1/GPa)
#
#
# Indices 1 2 3 4 5 6 
#
# 1 0.011999 -0.001865 -0.006677 0.000000 0.000000 0.000000
# 2 -0.001865 0.011749 -0.001485 0.000000 0.000000 0.000000
# 3 -0.006677 -0.001485 0.012553 0.000000 0.000000 0.000000
# 4 0.000000 0.000000 0.000000 -0.058116 0.000000 0.000000
# 5 0.000000 0.000000 0.000000 0.000000 0.055143 0.000000
# 6 0.000000 0.000000 0.000000 0.000000 0.000000 0.034528
#
#
# Mechanical properties :
#
#
# Convention : Reuss Voigt Hill
#
# Bulk Modulus (GPa) = 61.54966 66.19873 63.87420
# Shear Modulus (GPa) = 53.57617 20.26326 36.91972
#
# Velocity S-wave (km/s) = 5.30500 3.26253 4.40382
# Velocity P-wave (km/s) = 8.35796 6.99755 7.70783
#
# Compressibility (1/GPa) = 0.01624704
#
# Stress axis : x y z
#
# Youngs Moduli (GPa) = 83.34239 85.11517 79.66036
#
# Poissons Ratio (x) = 0.15873 0.53193
# Poissons Ratio (y) = 0.15542 0.11826
# Poissons Ratio (z) = 0.55652 0.12635
#
# Static dielectric constant tensor:
#      x y z
#    x 1.673780 0.000000 0.000000 
#    y 0.000000 1.785760 0.000000 
#    z 0.000000 0.000000 1.668420 
# 
# From -- ./inp_files/23214.got.cif
#   From: 2010.05.17/outbox.cif.g08.bks.cpg/sg47_12_cif.got.tgz:23214.got - 2010.06.03 20:15:42.
