data_PCOD9388290
_publ_section_title
;
Structure prediction by ZEFSAII (Michael W. Deem and Ramdas Pophale) SiO2 
 PCOD9388290
Probable space group: P M M M
;
_chemical_formula_sum "Si O2"
_cell_formula_units_Z 64
_cell_length_a 13.837106
_cell_length_b 15.768598
_cell_length_c 18.880668
_cell_angle_alpha 90.000000
_cell_angle_beta 90.000000
_cell_angle_gamma 90.000000
_cell_volume 4119.606219
_symmetry_space_group_name_H-M "P M M M"
_symmetry_group_IT_number 47
_symmetry_cell_setting 'orthorhombic'
loop_
_space_group_symop_operation_xyz
x,y,z
-x,-y,z
x,-y,-z
-x,y,-z
-x,-y,-z
x,y,-z
-x,y,z
x,-y,z
loop_
_atom_site_type_symbol
_atom_site_label
_atom_site_fract_x
_atom_site_fract_y
_atom_site_fract_z
Si Si1 0.205223 0.095941 0.836791
Si Si2 0.885341 0.401712 0.315395
Si Si3 0.794777 0.595942 0.836791
Si Si4 0.612448 0.852603 0.918626
Si Si5 0.387552 0.647398 0.918626
Si Si6 0.885409 0.750000 0.079390
Si Si7 0.885341 0.098288 0.315396
Si Si8 0.116929 0.750000 0.580423
O O1 0.315812 0.107304 0.861610
O O2 0.149462 0.166596 0.880845
O O3 0.179166 0.110459 0.754650
O O4 0.173906 0.000000 0.853334
O O5 0.876134 0.500000 0.338270
O O6 0.820834 0.389540 0.245349
O O7 0.857448 0.333947 0.375058
O O8 0.000000 0.388320 0.297687
O O9 0.826093 0.500000 0.853334
O O10 0.684188 0.607305 0.861610
O O11 0.850539 0.666595 0.880846
O O12 0.500000 0.874335 0.907544
O O13 0.620721 0.750001 0.914326
O O14 0.637826 0.877052 0.000000
O O15 0.500000 0.625666 0.907544
O O16 0.362175 0.622949 0.000000
O O17 0.000000 0.750001 0.076959
O O18 0.845236 0.750000 0.000000
O O19 0.857449 0.166053 0.375058
O O20 0.000000 0.111680 0.297687
O O21 0.876134 0.000000 0.338270
O O22 0.153951 0.750000 0.500000
O O23 0.000000 0.750000 0.576595
#
# Coordination Sequence:
#
# PCOD9388290 Si02
#       8
#     8   8   8   8   8   8   8   8
#     4  11  21  33  51  71  93 125 163 199 242 292
#     4   9  18  31  46  67  96 127 157 190 228 274
#     4  11  21  33  51  71  93 125 163 199 242 292
#     4   9  18  33  51  70  94 124 159 202 252 299
#     4   9  18  33  51  70  94 124 159 202 252 299
#     4  11  23  35  46  63  90 124 163 207 246 278
#     4   9  18  31  46  67  96 127 157 190 228 274
#     4   9  17  29  47  70  94 123 156 187 223 270
#
# _framework density 15.535465
#
# number of rings (size 3 to 8) (size 9 to 14) (size 15 to 20)
#    0.000    2.250    1.250    3.000    0.000    5.500 
#    0.000    5.000    0.000    0.000    0.000    0.000 
#    0.000    2.000    0.000    5.500    0.000    0.250 
#
# Total GULP energy -356857.390751 kJ/mol
# GULP energy per Si atom -5575.896730 kJ/mol
# Density = 1.550011 g / cm^3
# Si number density = 15.535465 Si / 1000 Ang^3
#
#
#
# Elastic Constant Matrix: (Units=GPa)
#
#
# Indices 1 2 3 4 5 6 
#
# 1 63.7339 30.9949 45.5321 0.0000 0.0000 0.0000
# 2 30.9949 108.3507 87.3989 0.0000 0.0000 0.0000
# 3 45.5321 87.3989 123.9736 0.0000 0.0000 0.0000
# 4 0.0000 0.0000 0.0000-1952.4341 0.0000 0.0000
# 5 0.0000 0.0000 0.0000 0.0000 19.0833 0.0000
# 6 0.0000 0.0000 0.0000 0.0000 0.0000 747.4324
#
#
#
# Elastic Compliance Matrix: (Units=1/GPa)
#
#
# Indices 1 2 3 4 5 6 
#
# 1 0.021283 0.000503 -0.008171 0.000000 0.000000 0.000000
# 2 0.000503 0.021409 -0.015277 0.000000 0.000000 0.000000
# 3 -0.008171 -0.015277 0.021838 0.000000 0.000000 0.000000
# 4 0.000000 0.000000 0.000000 -0.000512 0.000000 0.000000
# 5 0.000000 0.000000 0.000000 0.000000 0.052402 0.000000
# 6 0.000000 0.000000 0.000000 0.000000 0.000000 0.001338
#
#
# Mechanical properties :
#
#
# Convention : Reuss Voigt Hill
#
# Bulk Modulus (GPa) = 53.65390 69.32332 61.48861
# Shear Modulus (GPa) = 29.43582 -228.37485 -99.46951
#
# Velocity S-wave (km/s) = 4.35760 -12.13760 -8.01039
# Velocity P-wave (km/s) = 7.74142 12.31702 6.77420
#
# Compressibility (1/GPa) = 0.01863797
#
# Stress axis : x y z
#
# Youngs Moduli (GPa) = 46.98516 46.71034 45.79279
#
# Poissons Ratio (x) = -0.02349 0.37419
# Poissons Ratio (y) = -0.02363 0.69959
# Poissons Ratio (z) = 0.38393 0.71361
#
# Static dielectric constant tensor:
#      x y z
#    x 1.522870 0.000000 0.000000 
#    y 0.000000 1.534410 0.000000 
#    z 0.000000 0.000000 1.500280 
# 
# From -- ./inp_files/24081.got.cif
#   From: 2010.05.17/outbox.cif.g08.bks.cpg/sg47_13_cif.got.tgz:24081.got - 2010.06.03 20:15:42.
