data_PCOD9388875
_publ_section_title
;
Structure prediction by ZEFSAII (Michael W. Deem and Ramdas Pophale) SiO2 
 PCOD9388875
Probable space group: P M M M
;
_chemical_formula_sum "Si O2"
_cell_formula_units_Z 48
_cell_length_a 24.698306
_cell_length_b 7.386574
_cell_length_c 14.411668
_cell_angle_alpha 90.000000
_cell_angle_beta 90.000000
_cell_angle_gamma 90.000000
_cell_volume 2629.205117
_symmetry_space_group_name_H-M "P M M M"
_symmetry_group_IT_number 47
_symmetry_cell_setting 'orthorhombic'
loop_
_space_group_symop_operation_xyz
x,y,z
-x,-y,z
x,-y,-z
-x,y,-z
-x,-y,-z
x,y,-z
-x,y,z
x,-y,z
loop_
_atom_site_type_symbol
_atom_site_label
_atom_site_fract_x
_atom_site_fract_y
_atom_site_fract_z
Si Si1 0.226965 0.221068 0.395238
Si Si2 0.274315 0.779243 0.895370
Si Si3 0.332046 0.785323 0.714370
Si Si4 0.560620 0.716772 0.604717
Si Si5 0.061040 0.779386 0.107008
Si Si6 0.833703 0.779740 0.213434
O O1 0.217189 0.282188 0.500000
O O2 0.285910 0.280648 0.357203
O O3 0.183887 0.276774 0.316733
O O4 0.226807 0.000000 0.396851
O O5 0.317253 0.718279 0.817351
O O6 0.215282 0.728275 0.855532
O O7 0.275263 0.000000 0.898203
O O8 0.283209 0.715869 0.000000
O O9 0.391778 0.757105 0.675921
O O10 0.323863 0.000000 0.718538
O O11 0.573688 0.782282 0.500000
O O12 0.500000 0.781586 0.629088
O O13 0.557901 0.500000 0.599817
O O14 0.108872 0.717659 0.174199
O O15 0.000000 0.722423 0.131768
O O16 0.061329 0.000000 0.108192
O O17 0.071604 0.726682 0.000000
O O18 0.834632 0.000000 0.213935
#
# Coordination Sequence:
#
# PCOD9388875 Si02
#       6
#     8   8   8   8   8   8
#     4   8  13  20  30  46  67  87 108 140 181 219
#     4   8  13  21  34  53  75  95 116 148 190 229
#     4   9  16  25  40  61  79  96 122 156 189 219
#     4   9  18  31  44  58  78 103 126 148 180 222
#     4   8  12  16  22  33  50  75 110 150 184 212
#     4   8  12  17  26  40  59  85 114 144 182 223
#
# _framework density 18.256468999999999
#
# number of rings (size 3 to 8) (size 9 to 14) (size 15 to 20)
#    0.000    3.667    0.000    4.000    0.000    3.333 
#    0.000    0.833    0.000    1.500    0.000    7.000 
#    0.000    0.000    0.000    0.000    0.000   13.333 
#
# Total GULP energy -267444.952182 kJ/mol
# GULP energy per Si atom -5571.769837 kJ/mol
# Density = 1.821492 g / cm^3
# Si number density = 18.256469 Si / 1000 Ang^3
#
#
#
# Elastic Constant Matrix: (Units=GPa)
#
#
# Indices 1 2 3 4 5 6 
#
# 1 159.3314 0.8105 119.3027 0.0000 0.0000 0.0000
# 2 0.8105 59.4492 6.5662 0.0000 0.0000 0.0000
# 3 119.3027 6.5662 188.8771 0.0000 0.0000 0.0000
# 4 0.0000 0.0000 0.0000 10.7327 0.0000 0.0000
# 5 0.0000 0.0000 0.0000 0.0000 27.7228 0.0000
# 6 0.0000 0.0000 0.0000 0.0000 0.0000 47.3139
#
#
#
# Elastic Compliance Matrix: (Units=1/GPa)
#
#
# Indices 1 2 3 4 5 6 
#
# 1 0.011935 0.000673 -0.007562 0.000000 0.000000 0.000000
# 2 0.000673 0.016924 -0.001013 0.000000 0.000000 0.000000
# 3 -0.007562 -0.001013 0.010106 0.000000 0.000000 0.000000
# 4 0.000000 0.000000 0.000000 0.093173 0.000000 0.000000
# 5 0.000000 0.000000 0.000000 0.000000 0.036071 0.000000
# 6 0.000000 0.000000 0.000000 0.000000 0.000000 0.021135
#
#
# Mechanical properties :
#
#
# Convention : Reuss Voigt Hill
#
# Bulk Modulus (GPa) = 43.17847 73.44628 58.31237
# Shear Modulus (GPa) = 23.48851 35.88577 29.68714
#
# Velocity S-wave (km/s) = 3.59079 4.43837 4.03689
# Velocity P-wave (km/s) = 6.39485 8.15985 7.33066
#
# Compressibility (1/GPa) = 0.02315969
#
# Stress axis : x y z
#
# Youngs Moduli (GPa) = 83.78678 59.08836 98.94927
#
# Poissons Ratio (x) = -0.03974 0.74826
# Poissons Ratio (y) = -0.05635 0.10025
# Poissons Ratio (z) = 0.63360 0.05987
#
# Static dielectric constant tensor:
#      x y z
#    x 1.617700 0.000000 0.000000 
#    y 0.000000 1.713320 0.000000 
#    z 0.000000 0.000000 1.622200 
# 
# From -- ./inp_files/7473.got.cif
#   From: 2010.05.17/outbox.cif.g08.bks.cpg/sg47_4_cif.got.tgz:7473.got - 2010.06.03 20:15:42.
