data_PCOD9388409
_publ_section_title
;
Structure prediction by ZEFSAII (Michael W. Deem and Ramdas Pophale) SiO2 
 PCOD9388409
Probable space group: P M M M
;
_chemical_formula_sum "Si O2"
_cell_formula_units_Z 44
_cell_length_a 13.976844
_cell_length_b 8.841443
_cell_length_c 21.752402
_cell_angle_alpha 90.000000
_cell_angle_beta 90.000000
_cell_angle_gamma 90.000000
_cell_volume 2688.063291
_symmetry_space_group_name_H-M "P M M M"
_symmetry_group_IT_number 47
_symmetry_cell_setting 'orthorhombic'
loop_
_space_group_symop_operation_xyz
x,y,z
-x,-y,z
x,-y,-z
-x,y,-z
-x,-y,-z
x,y,-z
-x,y,z
x,-y,z
loop_
_atom_site_type_symbol
_atom_site_label
_atom_site_fract_x
_atom_site_fract_y
_atom_site_fract_z
Si Si1 0.794485 0.680783 0.312583
Si Si2 0.387054 0.318267 0.000000
Si Si3 0.110227 0.682510 0.183478
Si Si4 0.707020 0.819678 0.878381
Si Si5 0.111222 0.817930 0.568715
Si Si6 0.390791 0.681316 0.240153
O O1 0.801345 0.500000 0.319088
O O2 0.859746 0.723533 0.253522
O O3 0.828181 0.755093 0.375211
O O4 0.686512 0.719741 0.292295
O O5 0.335386 0.252646 0.939930
O O6 0.380512 0.500000 0.000000
O O7 0.500000 0.277677 0.000000
O O8 0.119809 0.500000 0.178577
O O9 0.187154 0.758713 0.138634
O O10 0.000000 0.723000 0.171843
O O11 0.640995 0.765705 0.821586
O O12 0.707772 0.000000 0.882877
O O13 0.141750 0.769147 0.500000
O O14 0.000000 0.772421 0.576652
O O15 0.114087 0.000000 0.569969
O O16 0.500000 0.714873 0.256290
O O17 0.382317 0.500000 0.228858
#
# Coordination Sequence:
#
# PCOD9388409 Si02
#       6
#     8   4   8   8   8   8
#     4   9  17  29  48  74  97 120 158 204 243 279
#     4  11  23  39  58  75  96 131 169 202 242 293
#     4   9  18  34  54  74 100 134 168 200 237 287
#     4  11  22  34  51  78 107 129 157 202 248 289
#     4   9  18  31  45  64  94 130 162 192 234 290
#     4   9  18  34  53  71  96 130 164 198 240 291
#
# _framework density 16.368663000000002
#
# number of rings (size 3 to 8) (size 9 to 14) (size 15 to 20)
#    0.000    2.455    0.000    4.636    0.000    8.000 
#    0.000    1.364    0.000    3.273    0.000    3.818 
#    0.000    0.000    0.000    0.000    0.000    0.000 
#
# Total GULP energy -245425.995538 kJ/mol
# GULP energy per Si atom -5577.863535 kJ/mol
# Density = 1.633141 g / cm^3
# Si number density = 16.368663 Si / 1000 Ang^3
#
#
#
# Elastic Constant Matrix: (Units=GPa)
#
#
# Indices 1 2 3 4 5 6 
#
# 1 150.4336 54.4533 92.9948 0.0000 0.0000 0.0000
# 2 54.4533 45.8227 55.9906 0.0000 0.0000 0.0000
# 3 92.9948 55.9906 156.8590 0.0000 0.0000 0.0000
# 4 0.0000 0.0000 0.0000 38.7018 0.0000 0.0000
# 5 0.0000 0.0000 0.0000 0.0000 17.0094 0.0000
# 6 0.0000 0.0000 0.0000 0.0000 0.0000 14.0996
#
#
#
# Elastic Compliance Matrix: (Units=1/GPa)
#
#
# Indices 1 2 3 4 5 6 
#
# 1 0.012852 -0.010575 -0.003845 0.000000 0.000000 0.000000
# 2 -0.010575 0.047405 -0.010652 0.000000 0.000000 0.000000
# 3 -0.003845 -0.010652 0.012457 0.000000 0.000000 0.000000
# 4 0.000000 0.000000 0.000000 0.025839 0.000000 0.000000
# 5 0.000000 0.000000 0.000000 0.000000 0.058791 0.000000
# 6 0.000000 0.000000 0.000000 0.000000 0.000000 0.070924
#
#
# Mechanical properties :
#
#
# Convention : Reuss Voigt Hill
#
# Bulk Modulus (GPa) = 44.30441 84.44361 64.37401
# Shear Modulus (GPa) = 17.48656 23.94061 20.71358
#
# Velocity S-wave (km/s) = 3.27202 3.82853 3.56116
# Velocity P-wave (km/s) = 6.43430 8.44062 7.50481
#
# Compressibility (1/GPa) = 0.02257112
#
# Stress axis : x y z
#
# Youngs Moduli (GPa) = 77.80905 21.09473 80.27799
#
# Poissons Ratio (x) = 0.22307 0.30865
# Poissons Ratio (y) = 0.82281 0.85512
# Poissons Ratio (z) = 0.29916 0.22470
#
# Static dielectric constant tensor:
#      x y z
#    x 1.550880 0.000000 0.000000 
#    y 0.000000 1.549680 0.000000 
#    z 0.000000 0.000000 1.523860 
# 
# From -- ./inp_files/26369.got.cif
#   From: 2010.05.17/outbox.cif.g08.bks.cpg/sg47_14_cif.got.tgz:26369.got - 2010.06.03 20:15:42.
