data_PCOD9388673
_publ_section_title
;
Structure prediction by ZEFSAII (Michael W. Deem and Ramdas Pophale) SiO2 
 PCOD9388673
Probable space group: P M M M
;
_chemical_formula_sum "Si O2"
_cell_formula_units_Z 33
_cell_length_a 20.515344
_cell_length_b 10.214500
_cell_length_c 7.700072
_cell_angle_alpha 90.000000
_cell_angle_beta 90.000000
_cell_angle_gamma 90.000000
_cell_volume 1613.580744
_symmetry_space_group_name_H-M "P M M M"
_symmetry_group_IT_number 47
_symmetry_cell_setting 'orthorhombic'
loop_
_space_group_symop_operation_xyz
x,y,z
-x,-y,z
x,-y,-z
-x,y,-z
-x,-y,-z
x,y,-z
-x,y,z
x,-y,z
loop_
_atom_site_type_symbol
_atom_site_label
_atom_site_fract_x
_atom_site_fract_y
_atom_site_fract_z
Si Si1 0.739186 0.352979 0.209775
Si Si2 0.000000 0.848479 0.787386
Si Si3 0.371083 0.146539 0.295747
Si Si4 0.500000 0.500000 0.500000
Si Si5 0.111142 0.351619 0.211800
Si Si6 0.500000 0.712913 0.810822
O O1 0.720041 0.500000 0.266881
O O2 0.688622 0.245342 0.270045
O O3 0.813933 0.329733 0.265377
O O4 0.739050 0.352738 0.000000
O O5 0.937453 0.762681 0.731850
O O6 0.000000 0.000000 0.730465
O O7 0.000000 0.850740 0.000000
O O8 0.386024 0.142762 0.500000
O O9 0.435237 0.199947 0.203882
O O10 0.354191 0.000000 0.237212
O O11 0.500000 0.612861 0.652545
O O12 0.091865 0.500000 0.264945
O O13 0.110004 0.351969 0.000000
O O14 0.500000 0.648898 0.000000
#
# Coordination Sequence:
#
# PCOD9388673 Si02
#       6
#     8   4   8   1   8   4
#     4   9  19  34  54  81 111 145 193 246 298 361
#     4   9  15  21  35  63  98 137 180 229 286 346
#     4  11  24  42  61  85 121 161 200 250 306 368
#     4  12  26  48  66 102 136 160 200 266 308 362
#     4   8  14  26  42  64  98 139 180 228 287 354
#     4  12  26  44  70  97 126 167 209 252 311 367
#
# _framework density 20.451409000000002
#
# number of rings (size 3 to 8) (size 9 to 14) (size 15 to 20)
#    0.000    2.303    1.212    3.091    1.697    6.303 
#    0.000    2.424    0.000    0.000    0.000    0.848 
#    0.000    6.788    0.000    0.000    0.000    0.000 
#
# Total GULP energy -184022.471667 kJ/mol
# GULP energy per Si atom -5576.438535 kJ/mol
# Density = 2.040486 g / cm^3
# Si number density = 20.451409 Si / 1000 Ang^3
#
#
#
# Elastic Constant Matrix: (Units=GPa)
#
#
# Indices 1 2 3 4 5 6 
#
# 1 129.5219 121.6732 16.6754 0.0000 0.0000 0.0000
# 2 121.6732 214.7994 31.5606 0.0000 0.0000 0.0000
# 3 16.6754 31.5606 80.9363 0.0000 0.0000 0.0000
# 4 0.0000 0.0000 0.0000 -12.2551 0.0000 0.0000
# 5 0.0000 0.0000 0.0000 0.0000 28.3636 0.0000
# 6 0.0000 0.0000 0.0000 0.0000 0.0000 -33.6762
#
#
#
# Elastic Compliance Matrix: (Units=1/GPa)
#
#
# Indices 1 2 3 4 5 6 
#
# 1 0.016507 -0.009388 0.000260 0.000000 0.000000 0.000000
# 2 -0.009388 0.010278 -0.002074 0.000000 0.000000 0.000000
# 3 0.000260 -0.002074 0.013110 0.000000 0.000000 0.000000
# 4 0.000000 0.000000 0.000000 -0.081599 0.000000 0.000000
# 5 0.000000 0.000000 0.000000 0.000000 0.035256 0.000000
# 6 0.000000 0.000000 0.000000 0.000000 0.000000 -0.029695
#
#
# Mechanical properties :
#
#
# Convention : Reuss Voigt Hill
#
# Bulk Modulus (GPa) = 57.17100 85.00844 71.08972
# Shear Modulus (GPa) = -632.35318 13.50970 -309.42174
#
# Velocity S-wave (km/s) = -17.60310 2.57295 -12.31359
# Velocity P-wave (km/s) = 19.62507 7.10515 12.93562
#
# Compressibility (1/GPa) = 0.01749138
#
# Stress axis : x y z
#
# Youngs Moduli (GPa) = 60.58112 97.29238 76.27527
#
# Poissons Ratio (x) = 0.91343 -0.01984
# Poissons Ratio (y) = 0.56877 0.15817
# Poissons Ratio (z) = -0.01575 0.20175
#
# Static dielectric constant tensor:
#      x y z
#    x 1.697070 0.000000 0.000000 
#    y 0.000000 1.702130 0.000000 
#    z 0.000000 0.000000 1.752510 
# 
# From -- ./inp_files/10424.got.cif
#   From: 2010.05.17/outbox.cif.g08.bks.cpg/sg47_6_cif.got.tgz:10424.got - 2010.06.03 20:15:42.
