data_PCOD9388537
_publ_section_title
;
Structure prediction by ZEFSAII (Michael W. Deem and Ramdas Pophale) SiO2 
 PCOD9388537
Probable space group: P M M M
;
_chemical_formula_sum "Si O2"
_cell_formula_units_Z 48
_cell_length_a 10.106409
_cell_length_b 18.336227
_cell_length_c 14.659364
_cell_angle_alpha 90.000000
_cell_angle_beta 90.000000
_cell_angle_gamma 90.000000
_cell_volume 2716.576725
_symmetry_space_group_name_H-M "P M M M"
_symmetry_group_IT_number 47
_symmetry_cell_setting 'orthorhombic'
loop_
_space_group_symop_operation_xyz
x,y,z
-x,-y,z
x,-y,-z
-x,y,-z
-x,-y,-z
x,y,-z
-x,y,z
x,-y,z
loop_
_atom_site_type_symbol
_atom_site_label
_atom_site_fract_x
_atom_site_fract_y
_atom_site_fract_z
Si Si1 0.839634 0.582736 0.896437
Si Si2 0.000000 0.912857 0.605068
Si Si3 0.246645 0.152255 0.711978
Si Si4 0.500000 0.087466 0.609891
Si Si5 0.648482 0.585473 0.390659
Si Si6 0.160304 0.681177 0.273900
Si Si7 0.656735 0.087534 0.103059
O O1 0.796861 0.500000 0.871385
O O2 0.803836 0.643366 0.822775
O O3 0.000000 0.581209 0.897936
O O4 0.795048 0.597829 0.000000
O O5 0.125962 0.884906 0.659636
O O6 0.000000 0.886535 0.500000
O O7 0.000000 0.000000 0.603037
O O8 0.374538 0.126469 0.655378
O O9 0.218107 0.238052 0.716221
O O10 0.264315 0.123999 0.815213
O O11 0.500000 0.094625 0.500000
O O12 0.500000 0.000000 0.630920
O O13 0.652178 0.591284 0.500000
O O14 0.500000 0.609354 0.360895
O O15 0.662164 0.500000 0.367355
O O16 0.766300 0.631179 0.347701
O O17 0.000000 0.682115 0.283164
O O18 0.500000 0.103700 0.113953
O O19 0.670428 0.000000 0.109492
O O20 0.695830 0.109318 0.000000
#
# Coordination Sequence:
#
# PCOD9388537 Si02
#       7
#     8   4   8   4   8   8   8
#     4   8  15  31  57  84 111 149 194 234 272 323
#     4  11  24  42  61  81 116 161 199 247 309 362
#     4  12  23  39  59  89 121 155 197 246 306 358
#     4  11  24  42  65  87 106 145 209 263 301 358
#     4   9  20  39  61  84 112 151 196 240 287 340
#     4  11  23  37  54  86 123 157 190 233 290 351
#     4   9  18  35  61  88 112 144 190 245 301 357
#
# _framework density 17.669297
#
# number of rings (size 3 to 8) (size 9 to 14) (size 15 to 20)
#    0.000    2.000    1.667    4.000    1.167    4.667 
#    0.000    1.250    0.000    2.000    0.000    2.333 
#    0.000    0.000    0.000    0.000    0.000    0.000 
#
# Total GULP energy -267748.627602 kJ/mol
# GULP energy per Si atom -5578.096408 kJ/mol
# Density = 1.762908 g / cm^3
# Si number density = 17.669297 Si / 1000 Ang^3
#
#
#
# Elastic Constant Matrix: (Units=GPa)
#
#
# Indices 1 2 3 4 5 6 
#
# 1 113.7869 62.2469 67.1499 0.0000 0.0000 0.0000
# 2 62.2469 114.8680 71.3429 0.0000 0.0000 0.0000
# 3 67.1499 71.3429 127.2365 0.0000 0.0000 0.0000
# 4 0.0000 0.0000 0.0000 38.0757 0.0000 0.0000
# 5 0.0000 0.0000 0.0000 0.0000 -17.5131 0.0000
# 6 0.0000 0.0000 0.0000 0.0000 0.0000 26.0577
#
#
#
# Elastic Compliance Matrix: (Units=1/GPa)
#
#
# Indices 1 2 3 4 5 6 
#
# 1 0.014231 -0.004675 -0.004889 0.000000 0.000000 0.000000
# 2 -0.004675 0.014893 -0.005883 0.000000 0.000000 0.000000
# 3 -0.004889 -0.005883 0.013739 0.000000 0.000000 0.000000
# 4 0.000000 0.000000 0.000000 0.026263 0.000000 0.000000
# 5 0.000000 0.000000 0.000000 0.000000 -0.057100 0.000000
# 6 0.000000 0.000000 0.000000 0.000000 0.000000 0.038376
#
#
# Mechanical properties :
#
#
# Convention : Reuss Voigt Hill
#
# Bulk Modulus (GPa) = 83.56055 84.15229 83.85642
# Shear Modulus (GPa) = 58.62508 19.66750 39.14629
#
# Velocity S-wave (km/s) = 5.76638 3.33992 4.71201
# Velocity P-wave (km/s) = 9.57752 7.91221 8.78442
#
# Compressibility (1/GPa) = 0.01196737
#
# Stress axis : x y z
#
# Youngs Moduli (GPa) = 70.26798 67.14429 72.78803
#
# Poissons Ratio (x) = 0.31392 0.35587
# Poissons Ratio (y) = 0.32853 0.42824
# Poissons Ratio (z) = 0.34355 0.39504
#
# Static dielectric constant tensor:
#      x y z
#    x 1.549690 0.000000 0.000000 
#    y 0.000000 1.588810 0.000000 
#    z 0.000000 0.000000 1.607440 
# 
# From -- ./inp_files/21160.got.cif
#   From: 2010.05.17/outbox.cif.g08.bks.cpg/sg47_11_cif.got.tgz:21160.got - 2010.06.03 20:15:42.
