data_PCOD9388336
_publ_section_title
;
Structure prediction by ZEFSAII (Michael W. Deem and Ramdas Pophale) SiO2 
 PCOD9388336
Probable space group: P M M M
;
_chemical_formula_sum "Si O2"
_cell_formula_units_Z 33
_cell_length_a 12.002388
_cell_length_b 18.392981
_cell_length_c 7.547289
_cell_angle_alpha 90.000000
_cell_angle_beta 90.000000
_cell_angle_gamma 90.000000
_cell_volume 1666.137213
_symmetry_space_group_name_H-M "P M M M"
_symmetry_group_IT_number 47
_symmetry_cell_setting 'orthorhombic'
loop_
_space_group_symop_operation_xyz
x,y,z
-x,-y,z
x,-y,-z
-x,y,-z
-x,-y,-z
x,y,-z
-x,y,z
x,-y,z
loop_
_atom_site_type_symbol
_atom_site_label
_atom_site_fract_x
_atom_site_fract_y
_atom_site_fract_z
Si Si1 0.630750 0.580180 0.713681
Si Si2 0.629043 0.159941 0.782212
Si Si3 0.215153 0.289037 0.200966
Si Si4 0.000000 0.625650 0.693282
Si Si5 0.000000 0.500000 0.000000
Si Si6 0.365025 0.000000 0.796875
O O1 0.641059 0.585245 0.500000
O O2 0.500000 0.584629 0.755885
O O3 0.672130 0.500000 0.767298
O O4 0.697756 0.644597 0.799150
O O5 0.500000 0.174850 0.729749
O O6 0.716228 0.220855 0.723288
O O7 0.663026 0.078933 0.720597
O O8 0.628190 0.159632 0.000000
O O9 0.107200 0.322031 0.292079
O O10 0.183015 0.270246 0.000000
O O11 0.000000 0.590491 0.500000
O O12 0.000000 0.564798 0.845310
O O13 0.500000 0.000000 0.802657
O O14 0.324135 0.000000 0.000000
#
# Coordination Sequence:
#
# PCOD9388336 Si02
#       6
#     8   8   8   4   1   4
#     4   9  19  34  50  71 101 139 182 226 277 340
#     4   8  14  25  47  79 117 156 192 238 291 344
#     4  11  21  35  53  80 113 146 192 241 291 350
#     4  12  27  45  65  87 114 150 193 247 300 350
#     4  12  26  52  68  90 106 142 202 252 300 344
#     4   7  10  20  40  73 113 152 194 235 283 341
#
# _framework density 19.806291000000002
#
# number of rings (size 3 to 8) (size 9 to 14) (size 15 to 20)
#    0.000    2.545    1.212    3.818    1.697    1.939 
#    0.000    1.212    0.000    0.727    0.000    8.485 
#    0.000   13.576    0.000    0.000    0.000    0.000 
#
# Total GULP energy -183824.569917 kJ/mol
# GULP energy per Si atom -5570.441513 kJ/mol
# Density = 1.976121 g / cm^3
# Si number density = 19.806291 Si / 1000 Ang^3
#
#
#
# Elastic Constant Matrix: (Units=GPa)
#
#
# Indices 1 2 3 4 5 6 
#
# 1 71.4793 76.6864 23.2078 0.0000 0.0000 0.0000
# 2 76.6864 178.6935 28.8942 0.0000 0.0000 0.0000
# 3 23.2078 28.8942 86.6766 0.0000 0.0000 0.0000
# 4 0.0000 0.0000 0.0000 -97.9248 0.0000 0.0000
# 5 0.0000 0.0000 0.0000 0.0000 16.0386 0.0000
# 6 0.0000 0.0000 0.0000 0.0000 0.0000 32.2098
#
#
#
# Elastic Compliance Matrix: (Units=1/GPa)
#
#
# Indices 1 2 3 4 5 6 
#
# 1 0.026922 -0.010980 -0.003548 0.000000 0.000000 0.000000
# 2 -0.010980 0.010393 -0.000525 0.000000 0.000000 0.000000
# 3 -0.003548 -0.000525 0.012662 0.000000 0.000000 0.000000
# 4 0.000000 0.000000 0.000000 -0.010212 0.000000 0.000000
# 5 0.000000 0.000000 0.000000 0.000000 0.062350 0.000000
# 6 0.000000 0.000000 0.000000 0.000000 0.000000 0.031046
#
#
# Mechanical properties :
#
#
# Convention : Reuss Voigt Hill
#
# Bulk Modulus (GPa) = 50.32333 66.04736 58.18535
# Shear Modulus (GPa) = 29.43085 3.93544 16.68314
#
# Velocity S-wave (km/s) = 3.85896 1.41113 2.90542
# Velocity P-wave (km/s) = 6.73189 6.00617 6.37936
#
# Compressibility (1/GPa) = 0.01987150
#
# Stress axis : x y z
#
# Youngs Moduli (GPa) = 37.14494 96.21899 78.97598
#
# Poissons Ratio (x) = 1.05645 0.28022
# Poissons Ratio (y) = 0.40784 0.04144
# Poissons Ratio (z) = 0.13180 0.05049
#
# Static dielectric constant tensor:
#      x y z
#    x 1.608160 0.000000 0.000000 
#    y 0.000000 1.706250 0.000000 
#    z 0.000000 0.000000 1.759670 
# 
# From -- ./inp_files/3685.got.cif
#   From: 2010.05.17/outbox.cif.g08.bks.cpg/sg47_2_cif.got.tgz:3685.got - 2010.06.03 20:15:42.
