data_PCOD9388702
_publ_section_title
;
Structure prediction by ZEFSAII (Michael W. Deem and Ramdas Pophale) SiO2 
 PCOD9388702
Probable space group: P M M M
;
_chemical_formula_sum "Si O2"
_cell_formula_units_Z 56
_cell_length_a 24.154492
_cell_length_b 7.699911
_cell_length_c 14.031472
_cell_angle_alpha 90.000000
_cell_angle_beta 90.000000
_cell_angle_gamma 90.000000
_cell_volume 2609.677538
_symmetry_space_group_name_H-M "P M M M"
_symmetry_group_IT_number 47
_symmetry_cell_setting 'orthorhombic'
loop_
_space_group_symop_operation_xyz
x,y,z
-x,-y,z
x,-y,-z
-x,y,-z
-x,-y,-z
x,y,-z
-x,y,z
x,-y,z
loop_
_atom_site_type_symbol
_atom_site_label
_atom_site_fract_x
_atom_site_fract_y
_atom_site_fract_z
Si Si1 0.559893 0.287374 0.802466
Si Si2 0.396985 0.702348 0.606599
Si Si3 0.936025 0.698186 0.765529
Si Si4 0.153460 0.211269 0.610452
Si Si5 0.725828 0.798352 0.615715
Si Si6 0.242506 0.000000 0.883299
Si Si7 0.885149 0.000000 0.886519
Si Si8 0.676676 0.301698 0.114514
O O1 0.500000 0.232112 0.840324
O O2 0.560132 0.500000 0.803086
O O3 0.567496 0.225858 0.693397
O O4 0.615460 0.237457 0.857411
O O5 0.402116 0.779198 0.500000
O O6 0.411751 0.500000 0.598827
O O7 0.332587 0.711693 0.638641
O O8 0.931980 0.500000 0.799032
O O9 0.895988 0.723235 0.675369
O O10 0.000000 0.734174 0.740813
O O11 0.915188 0.832287 0.844291
O O12 0.146587 0.262804 0.500000
O O13 0.214264 0.270794 0.646406
O O14 0.154157 0.000000 0.612898
O O15 0.728973 0.792487 0.500000
O O16 0.721263 0.000000 0.643104
O O17 0.178919 0.000000 0.852945
O O18 0.276329 0.830305 0.851302
O O19 0.242567 0.000000 0.000000
O O20 0.886160 0.000000 0.000000
O O21 0.684505 0.500000 0.148596
O O22 0.679424 0.305311 0.000000
#
# Coordination Sequence:
#
# PCOD9388702 Si02
#       8
#     8   8   8   8   8   4   4   8
#     4   9  18  32  49  73 106 144 189 232 274 336
#     4   9  17  29  46  69  99 138 183 233 287 335
#     4  11  25  43  64  94 129 166 212 256 298 359
#     4   9  18  35  60  90 126 167 206 248 303 364
#     4   8  15  29  49  74 106 144 186 231 282 342
#     4   9  20  39  63  92 119 145 184 234 296 366
#     4  11  25  46  70  93 122 161 205 259 317 366
#     4   9  18  35  59  85 115 147 178 225 289 351
#
# _framework density 21.458590000000001
#
# number of rings (size 3 to 8) (size 9 to 14) (size 15 to 20)
#    0.000    2.714    0.714    1.071    0.000    4.286 
#    1.286    9.643    0.000    1.286    0.000    2.000 
#    0.000    0.000    0.000    0.000    0.000    0.000 
#
# Total GULP energy -312713.521752 kJ/mol
# GULP energy per Si atom -5584.170031 kJ/mol
# Density = 2.140975 g / cm^3
# Si number density = 21.458590 Si / 1000 Ang^3
#
#
#
# Elastic Constant Matrix: (Units=GPa)
#
#
# Indices 1 2 3 4 5 6 
#
# 1 91.2851 23.8956 18.0646 0.0000 0.0000 0.0000
# 2 23.8956 65.2074 16.5758 0.0000 0.0000 0.0000
# 3 18.0646 16.5758 54.6300 0.0000 0.0000 0.0000
# 4 0.0000 0.0000 0.0000 4.3874 0.0000 0.0000
# 5 0.0000 0.0000 0.0000 0.0000 24.8006 0.0000
# 6 0.0000 0.0000 0.0000 0.0000 0.0000 17.9810
#
#
#
# Elastic Compliance Matrix: (Units=1/GPa)
#
#
# Indices 1 2 3 4 5 6 
#
# 1 0.012551 -0.003841 -0.002985 0.000000 0.000000 0.000000
# 2 -0.003841 0.017793 -0.004129 0.000000 0.000000 0.000000
# 3 -0.002985 -0.004129 0.020545 0.000000 0.000000 0.000000
# 4 0.000000 0.000000 0.000000 0.227926 0.000000 0.000000
# 5 0.000000 0.000000 0.000000 0.000000 0.040322 0.000000
# 6 0.000000 0.000000 0.000000 0.000000 0.000000 0.055614
#
#
# Mechanical properties :
#
#
# Convention : Reuss Voigt Hill
#
# Bulk Modulus (GPa) = 34.50674 36.46607 35.48641
# Shear Modulus (GPa) = 12.30563 19.60624 15.95593
#
# Velocity S-wave (km/s) = 2.39730 3.02599 2.72980
# Velocity P-wave (km/s) = 4.87630 5.40735 5.14867
#
# Compressibility (1/GPa) = 0.02897984
#
# Stress axis : x y z
#
# Youngs Moduli (GPa) = 79.67680 56.20321 48.67435
#
# Poissons Ratio (x) = 0.21585 0.14529
# Poissons Ratio (y) = 0.30600 0.20096
# Poissons Ratio (z) = 0.23783 0.23204
#
# Static dielectric constant tensor:
#      x y z
#    x 1.759780 0.000000 0.000000 
#    y 0.000000 1.811010 0.000000 
#    z 0.000000 0.000000 1.803410 
# 
# From -- ./inp_files/25247.got.cif
#   From: 2010.05.17/outbox.cif.g08.bks.cpg/sg47_13_cif.got.tgz:25247.got - 2010.06.03 20:15:42.
