data_PCOD9388269
_publ_section_title
;
Structure prediction by ZEFSAII (Michael W. Deem and Ramdas Pophale) SiO2 
 PCOD9388269
Probable space group: P M M M
;
_chemical_formula_sum "Si O2"
_cell_formula_units_Z 40
_cell_length_a 21.684693
_cell_length_b 9.072308
_cell_length_c 14.452396
_cell_angle_alpha 90.000000
_cell_angle_beta 90.000000
_cell_angle_gamma 90.000000
_cell_volume 2843.222955
_symmetry_space_group_name_H-M "P M M M"
_symmetry_group_IT_number 47
_symmetry_cell_setting 'orthorhombic'
loop_
_space_group_symop_operation_xyz
x,y,z
-x,-y,z
x,-y,-z
-x,y,-z
-x,-y,-z
x,y,-z
-x,y,z
x,-y,z
loop_
_atom_site_type_symbol
_atom_site_label
_atom_site_fract_x
_atom_site_fract_y
_atom_site_fract_z
Si Si1 0.133862 0.327895 0.387385
Si Si2 0.573532 0.675307 0.106252
Si Si3 0.000000 0.320102 0.607892
Si Si4 0.384257 0.176935 0.711899
Si Si5 0.500000 0.325696 0.389287
Si Si6 0.259693 0.823053 0.392546
O O1 0.131552 0.319259 0.500000
O O2 0.140290 0.500000 0.363610
O O3 0.066582 0.273799 0.353011
O O4 0.194816 0.241822 0.358378
O O5 0.500000 0.701233 0.117903
O O6 0.583421 0.500000 0.119241
O O7 0.608900 0.766667 0.183451
O O8 0.589316 0.712022 0.000000
O O9 0.000000 0.500000 0.608925
O O10 0.000000 0.275395 0.500000
O O11 0.439759 0.250590 0.654460
O O12 0.318946 0.220699 0.667062
O O13 0.389990 0.000000 0.707477
O O14 0.500000 0.500000 0.367153
O O15 0.500000 0.308224 0.500000
O O16 0.268638 0.776903 0.500000
O O17 0.255833 0.000000 0.391484
#
# Coordination Sequence:
#
# PCOD9388269 Si02
#       6
#     8   8   4   8   4   8
#     4   8  13  22  37  55  74 101 138 174 205 238
#     4   9  18  33  51  68  86 105 127 165 215 260
#     4   7  10  18  33  53  75  97 128 173 212 235
#     4  11  21  32  47  65  84 109 139 174 213 252
#     4  11  23  35  46  61  82 109 143 180 212 245
#     4   9  18  30  40  54  82 115 142 170 205 242
#
# _framework density 14.068542000000001
#
# number of rings (size 3 to 8) (size 9 to 14) (size 15 to 20)
#    0.000    2.800    1.000    3.300    0.000    3.600 
#    0.000    3.500    0.000    3.000    0.000    0.000 
#    0.000    0.000    0.000    0.900    0.000   17.700 
#
# Total GULP energy -222725.575219 kJ/mol
# GULP energy per Si atom -5568.139380 kJ/mol
# Density = 1.403652 g / cm^3
# Si number density = 14.068542 Si / 1000 Ang^3
#
#
#
# Elastic Constant Matrix: (Units=GPa)
#
#
# Indices 1 2 3 4 5 6 
#
# 1 149.9866 47.0781 52.1066 0.0000 0.0000 0.0000
# 2 47.0781 33.0408 31.3425 0.0000 0.0000 0.0000
# 3 52.1066 31.3425 60.8334 0.0000 0.0000 0.0000
# 4 0.0000 0.0000 0.0000 18.3552 0.0000 0.0000
# 5 0.0000 0.0000 0.0000 0.0000 2.6362 0.0000
# 6 0.0000 0.0000 0.0000 0.0000 0.0000 33.1256
#
#
#
# Elastic Compliance Matrix: (Units=1/GPa)
#
#
# Indices 1 2 3 4 5 6 
#
# 1 0.012327 -0.014764 -0.002952 0.000000 0.000000 0.000000
# 2 -0.014764 0.076880 -0.026964 0.000000 0.000000 0.000000
# 3 -0.002952 -0.026964 0.032859 0.000000 0.000000 0.000000
# 4 0.000000 0.000000 0.000000 0.054480 0.000000 0.000000
# 5 0.000000 0.000000 0.000000 0.000000 0.379340 0.000000
# 6 0.000000 0.000000 0.000000 0.000000 0.000000 0.030188
#
#
# Mechanical properties :
#
#
# Convention : Reuss Voigt Hill
#
# Bulk Modulus (GPa) = 30.57520 56.10170 43.33845
# Shear Modulus (GPa) = 7.28506 18.37895 12.83201
#
# Velocity S-wave (km/s) = 2.27805 3.61832 3.02339
# Velocity P-wave (km/s) = 5.35720 7.57762 6.56201
#
# Compressibility (1/GPa) = 0.03270625
#
# Stress axis : x y z
#
# Youngs Moduli (GPa) = 81.12377 13.00735 30.43269
#
# Poissons Ratio (x) = 0.19203 0.08984
# Poissons Ratio (y) = 1.19767 0.82059
# Poissons Ratio (z) = 0.23948 0.35073
#
# Static dielectric constant tensor:
#      x y z
#    x 1.477840 0.000000 0.000000 
#    y 0.000000 1.469580 0.000000 
#    z 0.000000 0.000000 1.445570 
# 
# From -- ./inp_files/24833.got.cif
#   From: 2010.05.17/outbox.cif.g08.bks.cpg/sg47_13_cif.got.tgz:24833.got - 2010.06.03 20:15:42.
