data_PCOD9388719
_publ_section_title
;
Structure prediction by ZEFSAII (Michael W. Deem and Ramdas Pophale) SiO2 
 PCOD9388719
Probable space group: P M M M
;
_chemical_formula_sum "Si O2"
_cell_formula_units_Z 52
_cell_length_a 14.320952
_cell_length_b 7.353018
_cell_length_c 24.864197
_cell_angle_alpha 90.000000
_cell_angle_beta 90.000000
_cell_angle_gamma 90.000000
_cell_volume 2618.255089
_symmetry_space_group_name_H-M "P M M M"
_symmetry_group_IT_number 47
_symmetry_cell_setting 'orthorhombic'
loop_
_space_group_symop_operation_xyz
x,y,z
-x,-y,z
x,-y,-z
-x,y,-z
-x,-y,-z
x,y,-z
-x,y,z
x,-y,z
loop_
_atom_site_type_symbol
_atom_site_label
_atom_site_fract_x
_atom_site_fract_y
_atom_site_fract_z
Si Si1 0.602817 0.721276 0.768229
Si Si2 0.293153 0.277166 0.938733
Si Si3 0.104491 0.722256 0.271801
Si Si4 0.394983 0.217551 0.560492
Si Si5 0.787392 0.279427 0.168086
Si Si6 0.713142 0.715452 0.666707
Si Si7 0.500000 0.294235 0.934669
O O1 0.500000 0.785424 0.783079
O O2 0.600250 0.500000 0.769342
O O3 0.687923 0.773955 0.806239
O O4 0.633729 0.780439 0.708382
O O5 0.297349 0.500000 0.939131
O O6 0.218430 0.221503 0.893837
O O7 0.398207 0.215711 0.922242
O O8 0.274379 0.220699 0.000000
O O9 0.103877 0.500000 0.272424
O O10 0.135580 0.778375 0.211443
O O11 0.186174 0.783317 0.312669
O O12 0.000000 0.782411 0.284730
O O13 0.372995 0.282878 0.500000
O O14 0.500000 0.283310 0.574917
O O15 0.319707 0.256946 0.606140
O O16 0.400208 0.000000 0.557796
O O17 0.791445 0.500000 0.167765
O O18 0.717608 0.500000 0.674875
O O19 0.500000 0.500000 0.911903
O O20 0.500000 0.305287 0.000000
#
# Coordination Sequence:
#
# PCOD9388719 Si02
#       7
#     8   8   8   8   8   8   4
#     4   8  13  19  28  46  71  93 115 154 203 241
#     4   8  12  16  21  31  51  81 119 159 194 233
#     4   8  14  25  39  54  72  94 125 169 218 259
#     4   9  18  31  45  63  90 121 143 157 184 232
#     4   8  13  18  26  41  59  85 119 155 201 249
#     4   9  16  26  42  63  82 104 140 179 209 236
#     4   7  10  14  18  26  42  70 108 146 182 221
#
# _framework density 19.860555999999999
#
# number of rings (size 3 to 8) (size 9 to 14) (size 15 to 20)
#    0.000    3.769    0.000    3.692    1.077    1.231 
#    0.000    0.769    0.000    1.385    0.000    6.462 
#    0.000    0.000    0.000    0.000    0.000   12.308 
#
# Total GULP energy -289635.202792 kJ/mol
# GULP energy per Si atom -5569.907746 kJ/mol
# Density = 1.981535 g / cm^3
# Si number density = 19.860556 Si / 1000 Ang^3
#
#
#
# Elastic Constant Matrix: (Units=GPa)
#
#
# Indices 1 2 3 4 5 6 
#
# 1 91.9682 2.0059 47.5941 0.0000 0.0000 0.0000
# 2 2.0059 69.2528 -4.0030 0.0000 0.0000 0.0000
# 3 47.5941 -4.0030 121.1553 0.0000 0.0000 0.0000
# 4 0.0000 0.0000 0.0000 31.5444 0.0000 0.0000
# 5 0.0000 0.0000 0.0000 0.0000 21.1627 0.0000
# 6 0.0000 0.0000 0.0000 0.0000 0.0000 -6.0333
#
#
#
# Elastic Compliance Matrix: (Units=1/GPa)
#
#
# Indices 1 2 3 4 5 6 
#
# 1 0.013682 -0.000708 -0.005398 0.000000 0.000000 0.000000
# 2 -0.000708 0.014504 0.000757 0.000000 0.000000 0.000000
# 3 -0.005398 0.000757 0.010400 0.000000 0.000000 0.000000
# 4 0.000000 0.000000 0.000000 0.031701 0.000000 0.000000
# 5 0.000000 0.000000 0.000000 0.000000 0.047253 0.000000
# 6 0.000000 0.000000 0.000000 0.000000 0.000000 -0.165746
#
#
# Mechanical properties :
#
#
# Convention : Reuss Voigt Hill
#
# Bulk Modulus (GPa) = 35.85806 41.50780 38.68293
# Shear Modulus (GPa) = -177.23733 25.12003 -76.05865
#
# Velocity S-wave (km/s) = -9.45699 3.56029 -6.19512
# Velocity P-wave (km/s) = 10.05744 6.15190 5.62611
#
# Compressibility (1/GPa) = 0.02788773
#
# Stress axis : x y z
#
# Youngs Moduli (GPa) = 73.08623 68.94581 96.15783
#
# Poissons Ratio (x) = 0.04884 0.51910
# Poissons Ratio (y) = 0.05177 -0.07284
# Poissons Ratio (z) = 0.39455 -0.05223
#
# Static dielectric constant tensor:
#      x y z
#    x 1.683410 0.000000 0.000000 
#    y 0.000000 1.796040 0.000000 
#    z 0.000000 0.000000 1.728360 
# 
# From -- ./inp_files/32674.got.cif
#   From: 2010.05.17/outbox.cif.g08.bks.cpg/sg47_17_cif.got.tgz:32674.got - 2010.06.03 20:15:42.
