data_PCOD9388389
_publ_section_title
;
Structure prediction by ZEFSAII (Michael W. Deem and Ramdas Pophale) SiO2 
 PCOD9388389
Probable space group: P M M M
;
_chemical_formula_sum "Si O2"
_cell_formula_units_Z 48
_cell_length_a 7.531411
_cell_length_b 16.037122
_cell_length_c 18.359930
_cell_angle_alpha 90.000000
_cell_angle_beta 90.000000
_cell_angle_gamma 90.000000
_cell_volume 2217.551948
_symmetry_space_group_name_H-M "P M M M"
_symmetry_group_IT_number 47
_symmetry_cell_setting 'orthorhombic'
loop_
_space_group_symop_operation_xyz
x,y,z
-x,-y,z
x,-y,-z
-x,y,-z
-x,-y,-z
x,y,-z
-x,y,z
x,-y,z
loop_
_atom_site_type_symbol
_atom_site_label
_atom_site_fract_x
_atom_site_fract_y
_atom_site_fract_z
Si Si1 0.711381 0.000000 0.588491
Si Si2 0.302188 0.255159 0.178134
Si Si3 0.211836 0.094291 0.917034
Si Si4 0.283090 0.335548 0.325844
Si Si5 0.282630 0.500000 0.413906
Si Si6 0.283409 0.176236 0.416623
Si Si7 0.212933 0.409485 0.913985
O O1 0.780866 0.911729 0.615902
O O2 0.500000 0.000000 0.601802
O O3 0.732082 0.000000 0.500000
O O4 0.500000 0.234793 0.203771
O O5 0.242413 0.169297 0.139992
O O6 0.217044 0.304531 0.246700
O O7 0.299252 0.327747 0.118332
O O8 0.000000 0.088674 0.922057
O O9 0.276267 0.000000 0.897533
O O10 0.276960 0.113750 0.000000
O O11 0.500000 0.343173 0.322179
O O12 0.224988 0.419562 0.366672
O O13 0.231121 0.258404 0.376073
O O14 0.500000 0.500000 0.416194
O O15 0.227837 0.500000 0.500000
O O16 0.226952 0.180203 0.500000
O O17 0.500000 0.174129 0.416285
O O18 0.271024 0.500000 0.883340
O O19 0.000000 0.403329 0.903426
O O20 0.244856 0.411188 0.000000
#
# Coordination Sequence:
#
# PCOD9388389 Si02
#       7
#     4   8   8   8   4   8   8
#     4   7  10  16  30  50  68  96 142 191 232 272
#     4  11  22  32  47  77 116 146 165 204 272 335
#     4   9  19  38  62  81  99 134 185 231 262 298
#     4   9  18  28  38  61  96 134 168 205 256 308
#     4   9  16  28  46  62  84 133 192 226 247 295
#     4   8  12  21  36  53  77 114 161 201 233 283
#     4   9  19  36  56  75  96 130 179 225 256 295
#
# _framework density 21.645492000000001
#
# number of rings (size 3 to 8) (size 9 to 14) (size 15 to 20)
#    0.000    3.000    0.000    3.500    1.167    5.333 
#    1.500    1.667    0.000    0.000    0.000    0.000 
#    0.000   13.333    0.000    7.333    0.000    5.333 
#
# Total GULP energy -267237.664420 kJ/mol
# GULP energy per Si atom -5567.451342 kJ/mol
# Density = 2.159623 g / cm^3
# Si number density = 21.645492 Si / 1000 Ang^3
#
#
#
# Elastic Constant Matrix: (Units=GPa)
#
#
# Indices 1 2 3 4 5 6 
#
# 1 44.3537 14.1095 9.6551 0.0000 0.0000 0.0000
# 2 14.1095 236.4391 99.4072 0.0000 0.0000 0.0000
# 3 9.6551 99.4072 103.4310 0.0000 0.0000 0.0000
# 4 0.0000 0.0000 0.0000 32.0600 0.0000 0.0000
# 5 0.0000 0.0000 0.0000 0.0000 26.2327 0.0000
# 6 0.0000 0.0000 0.0000 0.0000 0.0000 15.1311
#
#
#
# Elastic Compliance Matrix: (Units=1/GPa)
#
#
# Indices 1 2 3 4 5 6 
#
# 1 0.023102 -0.000792 -0.001395 0.000000 0.000000 0.000000
# 2 -0.000792 0.007124 -0.006773 0.000000 0.000000 0.000000
# 3 -0.001395 -0.006773 0.016308 0.000000 0.000000 0.000000
# 4 0.000000 0.000000 0.000000 0.031191 0.000000 0.000000
# 5 0.000000 0.000000 0.000000 0.000000 0.038120 0.000000
# 6 0.000000 0.000000 0.000000 0.000000 0.000000 0.066089
#
#
# Mechanical properties :
#
#
# Convention : Reuss Voigt Hill
#
# Bulk Modulus (GPa) = 34.94892 70.06305 52.50598
# Shear Modulus (GPa) = 23.87841 32.08825 27.98333
#
# Velocity S-wave (km/s) = 3.32499 3.85443 3.59946
# Velocity P-wave (km/s) = 5.56074 7.22825 6.44862
#
# Compressibility (1/GPa) = 0.02861319
#
# Stress axis : x y z
#
# Youngs Moduli (GPa) = 43.28684 140.36237 61.31826
#
# Poissons Ratio (x) = 0.11115 0.08556
# Poissons Ratio (y) = 0.03428 0.41533
# Poissons Ratio (z) = 0.06040 0.95072
#
# Static dielectric constant tensor:
#      x y z
#    x 1.867940 0.000000 0.000000 
#    y 0.000000 1.807570 0.000000 
#    z 0.000000 0.000000 2.046340 
# 
# From -- ./inp_files/26537.got.cif
#   From: 2010.05.17/outbox.cif.g08.bks.cpg/sg47_14_cif.got.tgz:26537.got - 2010.06.03 20:15:42.
