data_PCOD9388148
_publ_section_title
;
Structure prediction by ZEFSAII (Michael W. Deem and Ramdas Pophale) SiO2 
 PCOD9388148
Probable space group: P M M M
;
_chemical_formula_sum "Si O2"
_cell_formula_units_Z 37
_cell_length_a 18.446251
_cell_length_b 12.530823
_cell_length_c 8.081730
_cell_angle_alpha 90.000000
_cell_angle_beta 90.000000
_cell_angle_gamma 90.000000
_cell_volume 1868.065271
_symmetry_space_group_name_H-M "P M M M"
_symmetry_group_IT_number 47
_symmetry_cell_setting 'orthorhombic'
loop_
_space_group_symop_operation_xyz
x,y,z
-x,-y,z
x,-y,-z
-x,y,-z
-x,-y,-z
x,y,-z
-x,y,z
x,-y,z
loop_
_atom_site_type_symbol
_atom_site_label
_atom_site_fract_x
_atom_site_fract_y
_atom_site_fract_z
Si Si1 0.083219 0.500000 0.198344
Si Si2 0.420267 0.622101 0.801026
Si Si3 0.378770 0.000000 0.700762
Si Si4 0.000000 0.878077 0.196845
Si Si5 0.135234 0.732244 0.302343
Si Si6 0.294917 0.218941 0.696457
Si Si7 0.500000 0.000000 0.000000
O O1 0.119694 0.609620 0.255528
O O2 0.000000 0.500000 0.258525
O O3 0.082567 0.500000 0.000000
O O4 0.500000 0.662541 0.744193
O O5 0.412293 0.500000 0.742748
O O6 0.353217 0.694065 0.753029
O O7 0.422731 0.619869 0.000000
O O8 0.329658 0.895851 0.726851
O O9 0.401768 0.000000 0.500000
O O10 0.437906 0.000000 0.848269
O O11 0.070865 0.810009 0.245165
O O12 0.000000 0.000000 0.264452
O O13 0.000000 0.885474 0.000000
O O14 0.136026 0.739207 0.500000
O O15 0.214162 0.765675 0.234215
O O16 0.288601 0.231292 0.500000
#
# Coordination Sequence:
#
# PCOD9388148 Si02
#       7
#     4   8   4   4   8   8   1
#     4  11  23  41  65  95 131 166 213 274 338 393
#     4   9  20  38  60  88 122 160 209 263 311 378
#     4  10  25  47  67 101 140 172 223 283 332 398
#     4  11  25  44  65  96 129 167 215 269 324 387
#     4  11  24  42  67  95 127 172 220 267 326 397
#     4  10  24  42  62  90 130 169 210 270 326 383
#     4  12  26  44  76 106 122 190 226 268 348 404
#
# _framework density 19.806587
#
# number of rings (size 3 to 8) (size 9 to 14) (size 15 to 20)
#    0.000    1.730    1.081    2.108    6.054    3.892 
#    0.000    1.081    0.000    0.000    0.000    0.000 
#    0.000    0.000    0.000    0.000    0.000    0.000 
#
# Total GULP energy -206247.049685 kJ/mol
# GULP energy per Si atom -5574.244586 kJ/mol
# Density = 1.976151 g / cm^3
# Si number density = 19.806587 Si / 1000 Ang^3
#
#
#
# Elastic Constant Matrix: (Units=GPa)
#
#
# Indices 1 2 3 4 5 6 
#
# 1 226.9293 116.2568 55.4756 0.0000 0.0000 0.0000
# 2 116.2568 150.5030 41.5293 0.0000 0.0000 0.0000
# 3 55.4756 41.5293 61.3926 0.0000 0.0000 0.0000
# 4 0.0000 0.0000 0.0000 41.8502 0.0000 0.0000
# 5 0.0000 0.0000 0.0000 0.0000 40.5064 0.0000
# 6 0.0000 0.0000 0.0000 0.0000 0.0000 -48.7013
#
#
#
# Elastic Compliance Matrix: (Units=1/GPa)
#
#
# Indices 1 2 3 4 5 6 
#
# 1 0.007926 -0.005098 -0.003714 0.000000 0.000000 0.000000
# 2 -0.005098 0.011448 -0.003138 0.000000 0.000000 0.000000
# 3 -0.003714 -0.003138 0.021767 0.000000 0.000000 0.000000
# 4 0.000000 0.000000 0.000000 0.023895 0.000000 0.000000
# 5 0.000000 0.000000 0.000000 0.000000 0.024687 0.000000
# 6 0.000000 0.000000 0.000000 0.000000 0.000000 -0.020533
#
#
# Mechanical properties :
#
#
# Convention : Reuss Voigt Hill
#
# Bulk Modulus (GPa) = 57.99556 96.14980 77.07268
# Shear Modulus (GPa) = 50.58892 21.76861 36.17876
#
# Velocity S-wave (km/s) = 5.05934 3.31880 4.27851
# Velocity P-wave (km/s) = 7.96704 7.95837 7.96271
#
# Compressibility (1/GPa) = 0.01724270
#
# Stress axis : x y z
#
# Youngs Moduli (GPa) = 126.16389 87.35145 45.94137
#
# Poissons Ratio (x) = 0.44531 0.17062
# Poissons Ratio (y) = 0.64317 0.14414
# Poissons Ratio (z) = 0.46855 0.27407
#
# Static dielectric constant tensor:
#      x y z
#    x 1.730840 0.000000 0.000000 
#    y 0.000000 1.704580 0.000000 
#    z 0.000000 0.000000 1.708140 
# 
# From -- ./inp_files/8720.got.cif
#   From: 2010.05.17/outbox.cif.g08.bks.cpg/sg47_5_cif.got.tgz:8720.got - 2010.06.03 20:15:42.
