data_PCOD9388886
_publ_section_title
;
Structure prediction by ZEFSAII (Michael W. Deem and Ramdas Pophale) SiO2 
 PCOD9388886
Probable space group: P M M M
;
_chemical_formula_sum "Si O2"
_cell_formula_units_Z 36
_cell_length_a 14.012314
_cell_length_b 14.660414
_cell_length_c 7.318684
_cell_angle_alpha 90.000000
_cell_angle_beta 90.000000
_cell_angle_gamma 90.000000
_cell_volume 1503.450353
_symmetry_space_group_name_H-M "P M M M"
_symmetry_group_IT_number 47
_symmetry_cell_setting 'orthorhombic'
loop_
_space_group_symop_operation_xyz
x,y,z
-x,-y,z
x,-y,-z
-x,y,-z
-x,-y,-z
x,y,-z
-x,y,z
x,-y,z
loop_
_atom_site_type_symbol
_atom_site_label
_atom_site_fract_x
_atom_site_fract_y
_atom_site_fract_z
Si Si1 0.389098 0.101611 0.778235
Si Si2 0.893079 0.303827 0.206055
Si Si3 0.885456 0.097231 0.711510
Si Si4 0.500000 0.604650 0.777469
Si Si5 0.308482 0.708244 0.776057
O O1 0.500000 0.118173 0.730094
O O2 0.326025 0.186667 0.718365
O O3 0.363702 0.000000 0.714281
O O4 0.385362 0.100461 0.000000
O O5 0.872869 0.194666 0.196452
O O6 0.792073 0.334410 0.288555
O O7 0.000000 0.316128 0.287223
O O8 0.898579 0.340081 0.000000
O O9 0.855996 0.103669 0.500000
O O10 0.000000 0.089567 0.711818
O O11 0.848936 0.000000 0.787845
O O12 0.500000 0.500000 0.721711
O O13 0.403039 0.654398 0.719794
O O14 0.500000 0.608049 0.000000
O O15 0.305592 0.707001 0.000000
#
# Coordination Sequence:
#
# PCOD9388886 Si02
#       5
#     8   8   8   4   8
#     4   8  12  18  29  45  67  96 127 159 199 241
#     4   9  17  26  37  57  85 114 139 168 212 259
#     4   8  14  25  39  54  77 113 154 188 211 236
#     4   9  16  26  41  59  78 105 141 177 214 254
#     4   9  15  24  37  54  80 108 136 174 213 247
#
# _framework density 23.944921000000001
#
# number of rings (size 3 to 8) (size 9 to 14) (size 15 to 20)
#    0.000    3.444    1.111    1.333    0.000    1.333 
#    0.000    4.444    0.000    0.667    0.000    5.444 
#    0.000    3.556    0.000    5.556    0.000    5.778 
#
# Total GULP energy -200666.626015 kJ/mol
# GULP energy per Si atom -5574.072945 kJ/mol
# Density = 2.389042 g / cm^3
# Si number density = 23.944921 Si / 1000 Ang^3
#
#
#
# Elastic Constant Matrix: (Units=GPa)
#
#
# Indices 1 2 3 4 5 6 
#
# 1 261.3043 54.6363 6.9602 0.0000 0.0000 0.0000
# 2 54.6363 52.6618 -1.9499 0.0000 0.0000 0.0000
# 3 6.9602 -1.9499 92.8188 0.0000 0.0000 0.0000
# 4 0.0000 0.0000 0.0000 -7.0784 0.0000 0.0000
# 5 0.0000 0.0000 0.0000 0.0000 -14.8944 0.0000
# 6 0.0000 0.0000 0.0000 0.0000 0.0000 -3.2542
#
#
#
# Elastic Compliance Matrix: (Units=1/GPa)
#
#
# Indices 1 2 3 4 5 6 
#
# 1 0.004908 -0.005110 -0.000475 0.000000 0.000000 0.000000
# 2 -0.005110 0.024323 0.000894 0.000000 0.000000 0.000000
# 3 -0.000475 0.000894 0.010828 0.000000 0.000000 0.000000
# 4 0.000000 0.000000 0.000000 -0.141275 0.000000 0.000000
# 5 0.000000 0.000000 0.000000 0.000000 -0.067139 0.000000
# 6 0.000000 0.000000 0.000000 0.000000 0.000000 -0.307294
#
#
# Mechanical properties :
#
#
# Convention : Reuss Voigt Hill
#
# Bulk Modulus (GPa) = 32.59689 58.45313 45.52501
# Shear Modulus (GPa) = -10.96392 18.09714 3.56661
#
# Velocity S-wave (km/s) = -2.14214 2.75213 1.22178
# Velocity P-wave (km/s) = 2.74308 5.87907 4.58737
#
# Compressibility (1/GPa) = 0.03067777
#
# Stress axis : x y z
#
# Youngs Moduli (GPa) = 203.74942 41.11268 92.35218
#
# Poissons Ratio (x) = 0.21007 0.04390
# Poissons Ratio (y) = 1.04108 -0.08257
# Poissons Ratio (z) = 0.09686 -0.03676
#
# Static dielectric constant tensor:
#      x y z
#    x 1.974020 0.000000 0.000000 
#    y 0.000000 1.897340 0.000000 
#    z 0.000000 0.000000 1.890210 
# 
# From -- ./inp_files/5535.got.cif
#   From: 2010.05.17/outbox.cif.g08.bks.cpg/sg47_3_cif.got.tgz:5535.got - 2010.06.03 20:15:42.
