data_PCOD9388551
_publ_section_title
;
Structure prediction by ZEFSAII (Michael W. Deem and Ramdas Pophale) SiO2 
 PCOD9388551
Probable space group: P M M M
;
_chemical_formula_sum "Si O2"
_cell_formula_units_Z 52
_cell_length_a 8.548213
_cell_length_b 21.432874
_cell_length_c 13.745929
_cell_angle_alpha 90.000000
_cell_angle_beta 90.000000
_cell_angle_gamma 90.000000
_cell_volume 2518.429758
_symmetry_space_group_name_H-M "P M M M"
_symmetry_group_IT_number 47
_symmetry_cell_setting 'orthorhombic'
loop_
_space_group_symop_operation_xyz
x,y,z
-x,-y,z
x,-y,-z
-x,y,-z
-x,-y,-z
x,y,-z
-x,y,z
x,-y,z
loop_
_atom_site_type_symbol
_atom_site_label
_atom_site_fract_x
_atom_site_fract_y
_atom_site_fract_z
Si Si1 0.310663 0.701821 0.391690
Si Si2 0.687596 0.382001 0.893014
Si Si3 0.812965 0.926105 0.388442
Si Si4 0.690439 0.568144 0.313973
Si Si5 0.822844 0.000000 0.115395
Si Si6 0.317420 0.873678 0.802355
Si Si7 0.183194 0.256072 0.812104
O O1 0.265340 0.722599 0.500000
O O2 0.500000 0.706553 0.383186
O O3 0.266990 0.628754 0.376398
O O4 0.234725 0.736635 0.300732
O O5 0.500000 0.388879 0.894525
O O6 0.742967 0.419332 0.797570
O O7 0.727726 0.309909 0.871096
O O8 0.747475 0.400328 0.000000
O O9 0.772306 0.911987 0.500000
O O10 0.723180 0.884832 0.310925
O O11 0.000000 0.917594 0.376787
O O12 0.780415 0.000000 0.371995
O O13 0.500000 0.567410 0.313618
O O14 0.743696 0.500000 0.347539
O O15 0.736799 0.062296 0.148696
O O16 0.000000 0.000000 0.156159
O O17 0.830974 0.000000 0.000000
O O18 0.500000 0.863205 0.815293
O O19 0.226525 0.813786 0.842071
O O20 0.000000 0.267187 0.821585
#
# Coordination Sequence:
#
# PCOD9388551 Si02
#       7
#     8   8   8   8   4   8   8
#     4   9  18  34  55  80 113 150 189 234 279 324
#     4   9  18  34  55  79 109 143 181 230 283 332
#     4   9  18  34  57  83 113 147 179 214 259 316
#     4   8  14  26  48  82 118 147 180 224 276 333
#     4  11  25  45  66  87 114 147 183 224 272 331
#     4  12  24  39  61  87 115 146 181 228 281 332
#     4  11  23  38  57  79 107 145 188 233 278 332
#
# _framework density 20.647784999999999
#
# number of rings (size 3 to 8) (size 9 to 14) (size 15 to 20)
#    0.000    2.231    0.769    4.385    0.000    3.385 
#    0.000    3.846    0.000    7.385    0.000    8.615 
#    0.000    0.000    0.000    0.000    0.000    0.000 
#
# Total GULP energy -290375.141562 kJ/mol
# GULP energy per Si atom -5584.137338 kJ/mol
# Density = 2.060079 g / cm^3
# Si number density = 20.647785 Si / 1000 Ang^3
#
#
#
# Elastic Constant Matrix: (Units=GPa)
#
#
# Indices 1 2 3 4 5 6 
#
# 1 10.2989 -15.1696 -0.5149 0.0000 0.0000 0.0000
# 2 -15.1696 63.1736 -20.6001 0.0000 0.0000 0.0000
# 3 -0.5149 -20.6001 44.5550 0.0000 0.0000 0.0000
# 4 0.0000 0.0000 0.0000 -1.5455 0.0000 0.0000
# 5 0.0000 0.0000 0.0000 0.0000 25.0209 0.0000
# 6 0.0000 0.0000 0.0000 0.0000 0.0000 -55.8218
#
#
#
# Elastic Compliance Matrix: (Units=1/GPa)
#
#
# Indices 1 2 3 4 5 6 
#
# 1 0.170417 0.048943 0.024598 0.000000 0.000000 0.000000
# 2 0.048943 0.032696 0.015682 0.000000 0.000000 0.000000
# 3 0.024598 0.015682 0.029979 0.000000 0.000000 0.000000
# 4 0.000000 0.000000 0.000000 -0.647044 0.000000 0.000000
# 5 0.000000 0.000000 0.000000 0.000000 0.039967 0.000000
# 6 0.000000 0.000000 0.000000 0.000000 0.000000 -0.017914
#
#
# Mechanical properties :
#
#
# Convention : Reuss Voigt Hill
#
# Bulk Modulus (GPa) = 2.42990 5.05093 3.74042
# Shear Modulus (GPa) = -11.54290 3.81820 -3.86235
#
# Velocity S-wave (km/s) = -2.36696 1.36133 -1.36918
# Velocity P-wave (km/s) = 2.50811 2.21867 0.82708
#
# Compressibility (1/GPa) = 0.41153872
#
# Stress axis : x y z
#
# Youngs Moduli (GPa) = 5.86795 30.58513 33.35641
#
# Poissons Ratio (x) = -1.49692 -0.82051
# Poissons Ratio (y) = -0.28719 -0.52311
# Poissons Ratio (z) = -0.14434 -0.47965
#
# Static dielectric constant tensor:
#      x y z
#    x 1.711160 0.000000 0.000000 
#    y 0.000000 1.735050 0.000000 
#    z 0.000000 0.000000 1.754120 
# 
# From -- ./inp_files/21432.got.cif
#   From: 2010.05.17/outbox.cif.g08.bks.cpg/sg47_11_cif.got.tgz:21432.got - 2010.06.03 20:15:42.
