data_PCOD9388871
_publ_section_title
;
Structure prediction by ZEFSAII (Michael W. Deem and Ramdas Pophale) SiO2 
 PCOD9388871
Probable space group: P M M M
;
_chemical_formula_sum "Si O2"
_cell_formula_units_Z 52
_cell_length_a 13.138426
_cell_length_b 23.642700
_cell_length_c 7.269373
_cell_angle_alpha 90.000000
_cell_angle_beta 90.000000
_cell_angle_gamma 90.000000
_cell_volume 2258.069810
_symmetry_space_group_name_H-M "P M M M"
_symmetry_group_IT_number 47
_symmetry_cell_setting 'orthorhombic'
loop_
_space_group_symop_operation_xyz
x,y,z
-x,-y,z
x,-y,-z
-x,y,-z
-x,-y,-z
x,y,-z
-x,y,z
x,-y,z
loop_
_atom_site_type_symbol
_atom_site_label
_atom_site_fract_x
_atom_site_fract_y
_atom_site_fract_z
Si Si1 0.158775 0.563443 0.207984
Si Si2 0.325752 0.850461 0.776853
Si Si3 0.608932 0.567692 0.288007
Si Si4 0.610366 0.724182 0.776856
Si Si5 0.110662 0.190563 0.223848
Si Si6 0.828595 0.316691 0.224696
Si Si7 0.500000 0.935061 0.224720
O O1 0.142585 0.500000 0.288848
O O2 0.280938 0.574414 0.198660
O O3 0.124536 0.623729 0.289570
O O4 0.119851 0.560362 0.000000
O O5 0.373711 0.789778 0.728042
O O6 0.208480 0.845502 0.716147
O O7 0.399438 0.900600 0.716009
O O8 0.324689 0.852710 0.000000
O O9 0.615010 0.586193 0.500000
O O10 0.500000 0.587905 0.208352
O O11 0.600687 0.500000 0.290602
O O12 0.500000 0.706042 0.710241
O O13 0.710171 0.690496 0.718416
O O14 0.610318 0.721364 0.000000
O O15 0.122926 0.256613 0.278259
O O16 0.000000 0.169693 0.281541
O O17 0.113449 0.190791 0.000000
O O18 0.832727 0.318319 0.000000
O O19 0.500000 0.000000 0.282791
O O20 0.500000 0.934504 0.000000
#
# Coordination Sequence:
#
# PCOD9388871 Si02
#       7
#     8   8   8   8   8   8   4
#     4   9  16  24  33  46  66  89 111 143 190 238
#     4   8  12  18  27  39  54  73 101 133 168 211
#     4   8  14  24  35  45  60  87 122 152 176 214
#     4   8  11  16  26  37  52  73  96 125 160 200
#     4   8  13  21  33  45  57  78 108 140 171 209
#     4   8  14  21  29  44  62  80 103 133 174 221
#     4   9  14  18  26  40  58  78 101 137 182 221
#
# _framework density 23.028518999999999
#
# number of rings (size 3 to 8) (size 9 to 14) (size 15 to 20)
#    0.000    3.769    0.769    2.308    0.000    0.923 
#    0.000    3.077    0.000    0.923    0.000    6.462 
#    0.000    0.615    0.000    3.846    0.000    4.000 
#
# Total GULP energy -289860.273976 kJ/mol
# GULP energy per Si atom -5574.236038 kJ/mol
# Density = 2.297610 g / cm^3
# Si number density = 23.028519 Si / 1000 Ang^3
#
#
#
# Elastic Constant Matrix: (Units=GPa)
#
#
# Indices 1 2 3 4 5 6 
#
# 1 166.7280 65.8926 6.2685 0.0000 0.0000 0.0000
# 2 65.8926 179.6149 4.5746 0.0000 0.0000 0.0000
# 3 6.2685 4.5746 99.5544 0.0000 0.0000 0.0000
# 4 0.0000 0.0000 0.0000 -22.6801 0.0000 0.0000
# 5 0.0000 0.0000 0.0000 0.0000 -17.8888 0.0000
# 6 0.0000 0.0000 0.0000 0.0000 0.0000 -114.9745
#
#
#
# Elastic Compliance Matrix: (Units=1/GPa)
#
#
# Indices 1 2 3 4 5 6 
#
# 1 0.007025 -0.002569 -0.000324 0.000000 0.000000 0.000000
# 2 -0.002569 0.006513 -0.000138 0.000000 0.000000 0.000000
# 3 -0.000324 -0.000138 0.010072 0.000000 0.000000 0.000000
# 4 0.000000 0.000000 0.000000 -0.044092 0.000000 0.000000
# 5 0.000000 0.000000 0.000000 0.000000 -0.055901 0.000000
# 6 0.000000 0.000000 0.000000 0.000000 0.000000 -0.008698
#
#
# Mechanical properties :
#
#
# Convention : Reuss Voigt Hill
#
# Bulk Modulus (GPa) = 56.98487 66.59653 61.79070
# Shear Modulus (GPa) = -68.33531 -6.49790 -37.41660
#
# Velocity S-wave (km/s) = -5.45331 -1.68161 -4.03525
# Velocity P-wave (km/s) = 3.85389 5.02111 2.27586
#
# Compressibility (1/GPa) = 0.01754852
#
# Stress axis : x y z
#
# Youngs Moduli (GPa) = 142.34313 153.52924 99.29003
#
# Poissons Ratio (x) = 0.39442 0.03220
# Poissons Ratio (y) = 0.36568 0.01366
# Poissons Ratio (z) = 0.04616 0.02112
#
# Static dielectric constant tensor:
#      x y z
#    x 1.850410 0.000000 0.000000 
#    y 0.000000 1.830990 0.000000 
#    z 0.000000 0.000000 1.880820 
# 
# From -- ./inp_files/7584.got.cif
#   From: 2010.05.17/outbox.cif.g08.bks.cpg/sg47_4_cif.got.tgz:7584.got - 2010.06.03 20:15:42.
