data_PCOD9388808
_publ_section_title
;
Structure prediction by ZEFSAII (Michael W. Deem and Ramdas Pophale) SiO2 
 PCOD9388808
Probable space group: P M M M
;
_chemical_formula_sum "Si O2"
_cell_formula_units_Z 40
_cell_length_a 9.580362
_cell_length_b 27.098002
_cell_length_c 7.427184
_cell_angle_alpha 90.000000
_cell_angle_beta 90.000000
_cell_angle_gamma 90.000000
_cell_volume 1928.161350
_symmetry_space_group_name_H-M "P M M M"
_symmetry_group_IT_number 47
_symmetry_cell_setting 'orthorhombic'
loop_
_space_group_symop_operation_xyz
x,y,z
-x,-y,z
x,-y,-z
-x,y,-z
-x,-y,-z
x,y,-z
-x,y,z
x,-y,z
loop_
_atom_site_type_symbol
_atom_site_label
_atom_site_fract_x
_atom_site_fract_y
_atom_site_fract_z
Si Si1 0.157632 0.798811 0.784365
Si Si2 0.838660 0.500000 0.219767
Si Si3 0.661009 0.404651 0.779961
Si Si4 0.670660 0.000000 0.290820
Si Si5 0.162222 0.689232 0.219396
Si Si6 0.657369 0.893819 0.715152
O O1 0.205216 0.744439 0.722088
O O2 0.251864 0.845600 0.744587
O O3 0.000000 0.806600 0.717313
O O4 0.151024 0.795380 0.000000
O O5 0.753801 0.548580 0.275773
O O6 0.000000 0.500000 0.278224
O O7 0.840781 0.500000 0.000000
O O8 0.500000 0.408105 0.722587
O O9 0.736633 0.354363 0.720768
O O10 0.660105 0.404665 0.000000
O O11 0.712941 0.053297 0.213715
O O12 0.500000 0.000000 0.286266
O O13 0.715121 0.000000 0.500000
O O14 0.000000 0.681306 0.271665
O O15 0.163881 0.688309 0.000000
O O16 0.647872 0.900169 0.500000
O O17 0.500000 0.886211 0.783964
#
# Coordination Sequence:
#
# PCOD9388808 Si02
#       6
#     8   4   8   4   8   8
#     4   9  18  31  45  63  89 119 149 181 218 262
#     4   9  15  21  29  41  61  93 130 165 204 251
#     4   9  15  21  30  46  67  91 125 170 212 247
#     4   7  12  26  46  65  86 112 142 177 216 259
#     4   8  14  25  38  50  69 101 137 168 202 250
#     4   9  17  30  49  70  89 112 145 183 221 262
#
# _framework density 20.745151
#
# number of rings (size 3 to 8) (size 9 to 14) (size 15 to 20)
#    0.000    3.400    0.000    3.300    0.000    5.200 
#    0.000    3.000    0.000    4.800    0.000    0.000 
#    0.000    0.000    0.000    0.900    0.000   17.800 
#
# Total GULP energy -222990.739843 kJ/mol
# GULP energy per Si atom -5574.768496 kJ/mol
# Density = 2.069793 g / cm^3
# Si number density = 20.745151 Si / 1000 Ang^3
#
#
#
# Elastic Constant Matrix: (Units=GPa)
#
#
# Indices 1 2 3 4 5 6 
#
# 1 136.4464 142.3983 3.8576 0.0000 0.0000 0.0000
# 2 142.3983 266.3283 7.0972 0.0000 0.0000 0.0000
# 3 3.8576 7.0972 63.4191 0.0000 0.0000 0.0000
# 4 0.0000 0.0000 0.0000 18.5621 0.0000 0.0000
# 5 0.0000 0.0000 0.0000 0.0000 4.2106 0.0000
# 6 0.0000 0.0000 0.0000 0.0000 0.0000 42.7142
#
#
#
# Elastic Compliance Matrix: (Units=1/GPa)
#
#
# Indices 1 2 3 4 5 6 
#
# 1 0.016581 -0.008865 -0.000017 0.000000 0.000000 0.000000
# 2 -0.008865 0.008506 -0.000413 0.000000 0.000000 0.000000
# 3 -0.000017 -0.000413 0.015815 0.000000 0.000000 0.000000
# 4 0.000000 0.000000 0.000000 0.053873 0.000000 0.000000
# 5 0.000000 0.000000 0.000000 0.000000 0.237496 0.000000
# 6 0.000000 0.000000 0.000000 0.000000 0.000000 0.023411
#
#
# Mechanical properties :
#
#
# Convention : Reuss Voigt Hill
#
# Bulk Modulus (GPa) = 44.81543 85.87778 65.34661
# Shear Modulus (GPa) = 13.09898 33.95340 23.52619
#
# Velocity S-wave (km/s) = 2.51554 4.04999 3.37123
# Velocity P-wave (km/s) = 5.48516 7.95967 6.83533
#
# Compressibility (1/GPa) = 0.02231374
#
# Stress axis : x y z
#
# Youngs Moduli (GPa) = 60.30989 117.56937 63.22986
#
# Poissons Ratio (x) = 1.04225 0.00104
# Poissons Ratio (y) = 0.53465 0.02609
# Poissons Ratio (z) = 0.00100 0.04851
#
# Static dielectric constant tensor:
#      x y z
#    x 1.705000 0.000000 0.000000 
#    y 0.000000 1.754860 0.000000 
#    z 0.000000 0.000000 1.830180 
# 
# From -- ./inp_files/1809.got.cif
#   From: 2010.05.17/outbox.cif.g08.bks.cpg/sg47_1_cif.got.tgz:1809.got - 2010.06.03 20:15:42.
