data_PCOD9388999
_publ_section_title
;
Structure prediction by ZEFSAII (Michael W. Deem and Ramdas Pophale) SiO2 
 PCOD9388999
Probable space group: P M M M
;
_chemical_formula_sum "Si O2"
_cell_formula_units_Z 44
_cell_length_a 8.858675
_cell_length_b 7.870698
_cell_length_c 32.196434
_cell_angle_alpha 90.000000
_cell_angle_beta 90.000000
_cell_angle_gamma 90.000000
_cell_volume 2244.862735
_symmetry_space_group_name_H-M "P M M M"
_symmetry_group_IT_number 47
_symmetry_cell_setting 'orthorhombic'
loop_
_space_group_symop_operation_xyz
x,y,z
-x,-y,z
x,-y,-z
-x,y,-z
-x,-y,-z
x,y,-z
-x,y,z
x,-y,z
loop_
_atom_site_type_symbol
_atom_site_label
_atom_site_fract_x
_atom_site_fract_y
_atom_site_fract_z
Si Si1 0.171921 0.707265 0.306024
Si Si2 0.327705 0.703630 0.777950
Si Si3 0.318186 0.695638 0.392937
Si Si4 0.327406 0.201238 0.133306
Si Si5 0.684444 0.000000 0.547708
Si Si6 0.323900 0.295889 0.955281
O O1 0.173108 0.500000 0.304509
O O2 0.242565 0.768243 0.262720
O O3 0.263161 0.751921 0.347387
O O4 0.000000 0.763592 0.309848
O O5 0.500000 0.770090 0.777922
O O6 0.334816 0.500000 0.774455
O O7 0.257687 0.741470 0.823084
O O8 0.500000 0.693770 0.392817
O O9 0.267410 0.500000 0.400324
O O10 0.267767 0.831319 0.427288
O O11 0.500000 0.274948 0.132752
O O12 0.255011 0.245567 0.088942
O O13 0.338124 0.000000 0.134918
O O14 0.500000 0.000000 0.547582
O O15 0.734381 0.000000 0.500000
O O16 0.500000 0.237317 0.954525
O O17 0.325490 0.500000 0.955986
O O18 0.259791 0.237931 0.000000
#
# Coordination Sequence:
#
# PCOD9388999 Si02
#       6
#     8   8   8   8   4   8
#     4   9  17  30  49  71  94 121 156 198 240 282
#     4   9  16  27  44  63  85 116 151 186 227 277
#     4   9  17  31  52  76 102 133 167 202 242 287
#     4   9  16  24  34  52  79 109 142 180 221 266
#     4   9  18  32  51  79 109 133 165 207 244 281
#     4   8  13  21  33  49  71 102 139 176 216 265
#
# _framework density 19.600306
#
# number of rings (size 3 to 8) (size 9 to 14) (size 15 to 20)
#    0.000    3.182    0.000    1.636    0.000    5.091 
#    1.636    4.091    0.000    1.091    0.000    2.545 
#    0.000    0.727    0.000    8.364    0.000   10.727 
#
# Total GULP energy -244974.366644 kJ/mol
# GULP energy per Si atom -5567.599242 kJ/mol
# Density = 1.955570 g / cm^3
# Si number density = 19.600306 Si / 1000 Ang^3
#
#
#
# Elastic Constant Matrix: (Units=GPa)
#
#
# Indices 1 2 3 4 5 6 
#
# 1 7.8738 11.5020 24.8332 0.0000 0.0000 0.0000
# 2 11.5020 54.4160 57.8551 0.0000 0.0000 0.0000
# 3 24.8332 57.8551 224.5528 0.0000 0.0000 0.0000
# 4 0.0000 0.0000 0.0000 149.0760 0.0000 0.0000
# 5 0.0000 0.0000 0.0000 0.0000 -6.9761 0.0000
# 6 0.0000 0.0000 0.0000 0.0000 0.0000 2.8546
#
#
#
# Elastic Compliance Matrix: (Units=1/GPa)
#
#
# Indices 1 2 3 4 5 6 
#
# 1 0.223805 -0.028911 -0.017302 0.000000 0.000000 0.000000
# 2 -0.028911 0.029045 -0.004286 0.000000 0.000000 0.000000
# 3 -0.017302 -0.004286 0.007471 0.000000 0.000000 0.000000
# 4 0.000000 0.000000 0.000000 0.006708 0.000000 0.000000
# 5 0.000000 0.000000 0.000000 0.000000 -0.143347 0.000000
# 6 0.000000 0.000000 0.000000 0.000000 0.000000 0.350310
#
#
# Mechanical properties :
#
#
# Convention : Reuss Voigt Hill
#
# Bulk Modulus (GPa) = 6.27653 52.80259 29.53956
# Shear Modulus (GPa) = 7.96055 41.83439 24.89747
#
# Velocity S-wave (km/s) = 2.01749 4.62494 3.56794
# Velocity P-wave (km/s) = 2.93875 7.45106 5.66368
#
# Compressibility (1/GPa) = 0.15932359
#
# Stress axis : x y z
#
# Youngs Moduli (GPa) = 4.46817 34.42962 133.85137
#
# Poissons Ratio (x) = 0.99539 2.31587
# Poissons Ratio (y) = 0.12918 0.57369
# Poissons Ratio (z) = 0.07731 0.14757
#
# Static dielectric constant tensor:
#      x y z
#    x 1.664800 0.000000 0.000000 
#    y 0.000000 1.701890 0.000000 
#    z 0.000000 0.000000 1.724940 
# 
# From -- ./inp_files/2092.got.cif
#   From: 2010.05.17/outbox.cif.g08.bks.cpg/sg47_2_cif.got.tgz:2092.got - 2010.06.03 20:15:42.
