data_PCOD9388322
_publ_section_title
;
Structure prediction by ZEFSAII (Michael W. Deem and Ramdas Pophale) SiO2 
 PCOD9388322
Probable space group: P M M M
;
_chemical_formula_sum "Si O2"
_cell_formula_units_Z 52
_cell_length_a 12.285398
_cell_length_b 8.713581
_cell_length_c 29.322169
_cell_angle_alpha 90.000000
_cell_angle_beta 90.000000
_cell_angle_gamma 90.000000
_cell_volume 3138.932638
_symmetry_space_group_name_H-M "P M M M"
_symmetry_group_IT_number 47
_symmetry_cell_setting 'orthorhombic'
loop_
_space_group_symop_operation_xyz
x,y,z
-x,-y,z
x,-y,-z
-x,y,-z
-x,-y,-z
x,y,-z
-x,y,z
x,-y,z
loop_
_atom_site_type_symbol
_atom_site_label
_atom_site_fract_x
_atom_site_fract_y
_atom_site_fract_z
Si Si1 0.875295 0.186413 0.000000
Si Si2 0.872432 0.313650 0.831478
Si Si3 0.867951 0.677576 0.270304
Si Si4 0.729849 0.815100 0.913335
Si Si5 0.125058 0.815359 0.364651
Si Si6 0.500000 0.326405 0.555108
Si Si7 0.500000 0.684556 0.053999
Si Si8 0.729191 0.184901 0.552137
O O1 0.807558 0.232717 0.955544
O O2 0.000000 0.241886 0.000000
O O3 0.879141 0.000000 0.000000
O O4 0.869381 0.500000 0.832501
O O5 0.839048 0.263997 0.780144
O O6 0.790526 0.245759 0.868405
O O7 0.000000 0.269731 0.839686
O O8 0.835461 0.500000 0.273595
O O9 0.829571 0.762587 0.315732
O O10 0.000000 0.683227 0.270519
O O11 0.609649 0.749030 0.922734
O O12 0.723885 0.000000 0.912347
O O13 0.188336 0.759627 0.409234
O O14 0.000000 0.763595 0.367564
O O15 0.126145 0.000000 0.365287
O O16 0.500000 0.500000 0.572704
O O17 0.500000 0.333252 0.500000
O O18 0.609599 0.238130 0.566851
O O19 0.500000 0.500000 0.056673
O O20 0.500000 0.728166 0.000000
O O21 0.750854 0.238423 0.500000
O O22 0.732709 0.000000 0.550971
#
# Coordination Sequence:
#
# PCOD9388322 Si02
#       8
#     4   8   8   8   8   4   4   8
#     4   9  18  31  47  72 106 135 156 187 236 287
#     4   9  18  33  52  76 105 133 164 203 249 299
#     4   8  15  29  48  68  94 130 165 197 237 288
#     4  11  21  34  54  77 104 134 168 207 246 289
#     4   9  17  28  44  69  98 126 159 198 237 283
#     4   9  17  29  45  64  85 112 153 201 238 272
#     4  11  23  39  57  74  99 136 179 213 243 289
#     4   9  17  29  45  65  92 126 159 193 239 292
#
# _framework density 16.566140999999998
#
# number of rings (size 3 to 8) (size 9 to 14) (size 15 to 20)
#    0.000    2.692    0.769    2.308    0.000    3.692 
#    0.000    3.077    0.000    2.769    0.000    8.615 
#    0.000    0.000    0.000    0.000    0.000    0.000 
#
# Total GULP energy -289628.482624 kJ/mol
# GULP energy per Si atom -5569.778512 kJ/mol
# Density = 1.652844 g / cm^3
# Si number density = 16.566141 Si / 1000 Ang^3
#
#
#
# Elastic Constant Matrix: (Units=GPa)
#
#
# Indices 1 2 3 4 5 6 
#
# 1 112.4106 25.7822 82.9284 0.0000 0.0000 0.0000
# 2 25.7822 21.4360 33.1185 0.0000 0.0000 0.0000
# 3 82.9284 33.1185 158.7693 0.0000 0.0000 0.0000
# 4 0.0000 0.0000 0.0000 22.0389 0.0000 0.0000
# 5 0.0000 0.0000 0.0000 0.0000 0.2393 0.0000
# 6 0.0000 0.0000 0.0000 0.0000 0.0000 16.2680
#
#
#
# Elastic Compliance Matrix: (Units=1/GPa)
#
#
# Indices 1 2 3 4 5 6 
#
# 1 0.015591 -0.009104 -0.006244 0.000000 0.000000 0.000000
# 2 -0.009104 0.074151 -0.010712 0.000000 0.000000 0.000000
# 3 -0.006244 -0.010712 0.011794 0.000000 0.000000 0.000000
# 4 0.000000 0.000000 0.000000 0.045374 0.000000 0.000000
# 5 0.000000 0.000000 0.000000 0.000000 4.178421 0.000000
# 6 0.000000 0.000000 0.000000 0.000000 0.000000 0.061471
#
#
# Mechanical properties :
#
#
# Convention : Reuss Voigt Hill
#
# Bulk Modulus (GPa) = 20.23687 64.03046 42.13367
# Shear Modulus (GPa) = 1.12223 17.76169 9.44196
#
# Velocity S-wave (km/s) = 0.82395 3.27795 2.38996
# Velocity P-wave (km/s) = 3.62595 7.28436 5.75367
#
# Compressibility (1/GPa) = 0.04941475
#
# Stress axis : x y z
#
# Youngs Moduli (GPa) = 64.14117 13.48594 84.78606
#
# Poissons Ratio (x) = 0.12278 0.52942
# Poissons Ratio (y) = 0.58397 0.90824
# Poissons Ratio (z) = 0.40051 0.14446
#
# Static dielectric constant tensor:
#      x y z
#    x 1.539550 0.000000 0.000000 
#    y 0.000000 1.565120 0.000000 
#    z 0.000000 0.000000 1.570890 
# 
# From -- ./inp_files/34561.got.cif
#   From: 2010.05.17/outbox.cif.g08.bks.cpg/sg47_18_cif.got.tgz:34561.got - 2010.06.03 20:15:42.
