data_PCOD9388135
_publ_section_title
;
Structure prediction by ZEFSAII (Michael W. Deem and Ramdas Pophale) SiO2 
 PCOD9388135
Probable space group: P M M M
;
_chemical_formula_sum "Si O2"
_cell_formula_units_Z 45
_cell_length_a 7.191260
_cell_length_b 20.480788
_cell_length_c 13.947145
_cell_angle_alpha 90.000000
_cell_angle_beta 90.000000
_cell_angle_gamma 90.000000
_cell_volume 2054.172776
_symmetry_space_group_name_H-M "P M M M"
_symmetry_group_IT_number 47
_symmetry_cell_setting 'orthorhombic'
loop_
_space_group_symop_operation_xyz
x,y,z
-x,-y,z
x,-y,-z
-x,y,-z
-x,-y,-z
x,y,-z
-x,y,z
x,-y,z
loop_
_atom_site_type_symbol
_atom_site_label
_atom_site_fract_x
_atom_site_fract_y
_atom_site_fract_z
Si Si1 0.725632 0.423899 0.609558
Si Si2 0.275074 0.622958 0.000000
Si Si3 0.273814 0.182663 0.250345
Si Si4 0.000000 0.500000 0.000000
Si Si5 0.725362 0.670455 0.784922
Si Si6 0.274545 0.071370 0.889917
Si Si7 0.274601 0.928488 0.610445
O O1 0.781670 0.403883 0.500000
O O2 0.500000 0.421913 0.609386
O O3 0.778974 0.500000 0.622345
O O4 0.785702 0.380477 0.701212
O O5 0.226935 0.656225 0.896636
O O6 0.162203 0.556456 0.000000
O O7 0.500000 0.614767 0.000000
O O8 0.500000 0.185680 0.251223
O O9 0.212191 0.256834 0.243476
O O10 0.215228 0.136387 0.162959
O O11 0.213920 0.137327 0.338388
O O12 0.500000 0.668836 0.782577
O O13 0.500000 0.070784 0.883619
O O14 0.214315 0.000000 0.853761
O O15 0.222858 0.074843 0.000000
O O16 0.225259 0.925641 0.500000
O O17 0.500000 0.929147 0.618236
O O18 0.213971 0.000000 0.646611
#
# Coordination Sequence:
#
# PCOD9388135 Si02
#       7
#     8   4   8   1   8   8   8
#     4   8  14  25  41  62  90 125 165 207 257 322
#     4  10  23  41  61  90 120 145 186 236 281 337
#     4   9  15  21  32  51  78 118 162 209 267 324
#     4  12  26  44  68  90 110 156 192 224 284 340
#     4   9  18  29  45  71 104 138 171 223 285 333
#     4   8  13  19  27  40  62 100 151 199 242 297
#     4   8  13  20  29  44  74 123 182 234 275 322
#
# _framework density 21.90663
#
# number of rings (size 3 to 8) (size 9 to 14) (size 15 to 20)
#    0.000    3.378    0.000    2.267    2.489    2.844 
#    0.000    3.556    0.000    0.000    0.000    1.244 
#    0.000    0.000    0.000    6.400    0.000   18.311 
#
# Total GULP energy -250525.352198 kJ/mol
# GULP energy per Si atom -5567.230049 kJ/mol
# Density = 2.185677 g / cm^3
# Si number density = 21.906630 Si / 1000 Ang^3
#
#
#
# Elastic Constant Matrix: (Units=GPa)
#
#
# Indices 1 2 3 4 5 6 
#
# 1 111.8823 14.1535 7.5691 0.0000 0.0000 0.0000
# 2 14.1535 218.6349 128.0979 0.0000 0.0000 0.0000
# 3 7.5691 128.0979 206.3072 0.0000 0.0000 0.0000
# 4 0.0000 0.0000 0.0000 13.4140 0.0000 0.0000
# 5 0.0000 0.0000 0.0000 0.0000 -29.7714 0.0000
# 6 0.0000 0.0000 0.0000 0.0000 0.0000 26.0419
#
#
#
# Elastic Compliance Matrix: (Units=1/GPa)
#
#
# Indices 1 2 3 4 5 6 
#
# 1 0.009012 -0.000613 0.000050 0.000000 0.000000 0.000000
# 2 -0.000613 0.007231 -0.004467 0.000000 0.000000 0.000000
# 3 0.000050 -0.004467 0.007619 0.000000 0.000000 0.000000
# 4 0.000000 0.000000 0.000000 0.074549 0.000000 0.000000
# 5 0.000000 0.000000 0.000000 0.000000 -0.033589 0.000000
# 6 0.000000 0.000000 0.000000 0.000000 0.000000 0.038400
#
#
# Mechanical properties :
#
#
# Convention : Reuss Voigt Hill
#
# Bulk Modulus (GPa) = 72.45397 92.94060 82.69729
# Shear Modulus (GPa) = 42.41520 27.73714 35.07617
#
# Velocity S-wave (km/s) = 4.40498 3.56216 4.00580
# Velocity P-wave (km/s) = 7.68229 7.70951 7.69591
#
# Compressibility (1/GPa) = 0.01380187
#
# Stress axis : x y z
#
# Youngs Moduli (GPa) = 110.96207 138.29702 131.25010
#
# Poissons Ratio (x) = 0.08471 -0.00652
# Poissons Ratio (y) = 0.06797 0.58632
# Poissons Ratio (z) = -0.00551 0.61780
#
# Static dielectric constant tensor:
#      x y z
#    x 1.829000 0.000000 0.000000 
#    y 0.000000 1.721180 0.000000 
#    z 0.000000 0.000000 1.814760 
# 
# From -- ./inp_files/21325.got.cif
#   From: 2010.05.17/outbox.cif.g08.bks.cpg/sg47_11_cif.got.tgz:21325.got - 2010.06.03 20:15:42.
