data_PCOD9388106
_publ_section_title
;
Structure prediction by ZEFSAII (Michael W. Deem and Ramdas Pophale) SiO2 
 PCOD9388106
Probable space group: P M M M
;
_chemical_formula_sum "Si O2"
_cell_formula_units_Z 44
_cell_length_a 9.223598
_cell_length_b 31.690865
_cell_length_c 7.633160
_cell_angle_alpha 90.000000
_cell_angle_beta 90.000000
_cell_angle_gamma 90.000000
_cell_volume 2231.201667
_symmetry_space_group_name_H-M "P M M M"
_symmetry_group_IT_number 47
_symmetry_cell_setting 'orthorhombic'
loop_
_space_group_symop_operation_xyz
x,y,z
-x,-y,z
x,-y,-z
-x,y,-z
-x,-y,-z
x,y,-z
-x,y,z
x,-y,z
loop_
_atom_site_type_symbol
_atom_site_label
_atom_site_fract_x
_atom_site_fract_y
_atom_site_fract_z
Si Si1 0.164310 0.782526 0.709984
Si Si2 0.664194 0.863349 0.709215
Si Si3 0.171347 0.449632 0.500000
Si Si4 0.166010 0.310338 0.209767
Si Si5 0.331095 0.045396 0.789454
Si Si6 0.672664 0.604557 0.790693
O O1 0.156997 0.786813 0.500000
O O2 0.251106 0.822796 0.778578
O O3 0.225763 0.735962 0.745075
O O4 0.000000 0.782706 0.779517
O O5 0.654511 0.858536 0.500000
O O6 0.500000 0.864027 0.780735
O O7 0.733588 0.909471 0.738955
O O8 0.187485 0.500000 0.500000
O O9 0.247197 0.429566 0.670732
O O10 0.000000 0.439395 0.500000
O O11 0.263071 0.349818 0.264053
O O12 0.000000 0.313652 0.278616
O O13 0.158010 0.312231 0.000000
O O14 0.500000 0.046243 0.729387
O O15 0.269363 0.000000 0.729656
O O16 0.332374 0.044579 0.000000
O O17 0.500000 0.603223 0.763525
O O18 0.699742 0.598686 0.000000
#
# Coordination Sequence:
#
# PCOD9388106 Si02
#       6
#     8   8   4   8   8   8
#     4   9  18  31  46  66  95 132 168 204 251 308
#     4   9  17  28  42  63  89 115 149 195 244 295
#     4  11  25  43  65  93 123 161 209 251 290 345
#     4   9  18  33  53  77 105 140 183 226 268 322
#     4   8  14  25  41  61  84 110 143 186 238 295
#     4  10  22  40  62  91 126 160 196 245 303 355
#
# _framework density 19.720314999999999
#
# number of rings (size 3 to 8) (size 9 to 14) (size 15 to 20)
#    0.000    2.818    0.000    1.364    1.273    4.000 
#    0.000    3.636    0.000    0.545    0.000    3.818 
#    0.000    0.000    0.000    0.000    0.000    0.000 
#
# Total GULP energy -245207.192107 kJ/mol
# GULP energy per Si atom -5572.890730 kJ/mol
# Density = 1.967543 g / cm^3
# Si number density = 19.720315 Si / 1000 Ang^3
#
#
#
# Elastic Constant Matrix: (Units=GPa)
#
#
# Indices 1 2 3 4 5 6 
#
# 1 70.2886 80.1295 30.5061 0.0000 0.0000 0.0000
# 2 80.1295 189.3738 39.0933 0.0000 0.0000 0.0000
# 3 30.5061 39.0933 55.3909 0.0000 0.0000 0.0000
# 4 0.0000 0.0000 0.0000 32.5215 0.0000 0.0000
# 5 0.0000 0.0000 0.0000 0.0000 12.0650 0.0000
# 6 0.0000 0.0000 0.0000 0.0000 0.0000 31.5462
#
#
#
# Elastic Compliance Matrix: (Units=1/GPa)
#
#
# Indices 1 2 3 4 5 6 
#
# 1 0.030996 -0.011227 -0.009147 0.000000 0.000000 0.000000
# 2 -0.011227 0.010248 -0.001049 0.000000 0.000000 0.000000
# 3 -0.009147 -0.001049 0.023832 0.000000 0.000000 0.000000
# 4 0.000000 0.000000 0.000000 0.030749 0.000000 0.000000
# 5 0.000000 0.000000 0.000000 0.000000 0.082885 0.000000
# 6 0.000000 0.000000 0.000000 0.000000 0.000000 0.031700
#
#
# Mechanical properties :
#
#
# Convention : Reuss Voigt Hill
#
# Bulk Modulus (GPa) = 44.98718 68.27901 56.63310
# Shear Modulus (GPa) = 19.18177 26.24816 22.71497
#
# Velocity S-wave (km/s) = 3.12218 3.65227 3.39758
# Velocity P-wave (km/s) = 5.98828 7.24461 6.64620
#
# Compressibility (1/GPa) = 0.02222856
#
# Stress axis : x y z
#
# Youngs Moduli (GPa) = 32.26251 97.58374 41.96082
#
# Poissons Ratio (x) = 1.09556 0.38382
# Poissons Ratio (y) = 0.36221 0.04403
# Poissons Ratio (z) = 0.29511 0.10240
#
# Static dielectric constant tensor:
#      x y z
#    x 1.689720 0.000000 0.000000 
#    y 0.000000 1.718440 0.000000 
#    z 0.000000 0.000000 1.713260 
# 
# From -- ./inp_files/1994.got.cif
#   From: 2010.05.17/outbox.cif.g08.bks.cpg/sg47_1_cif.got.tgz:1994.got - 2010.06.03 20:15:42.
