data_PCOD9388277
_publ_section_title
;
Structure prediction by ZEFSAII (Michael W. Deem and Ramdas Pophale) SiO2 
 PCOD9388277
Probable space group: P M M M
;
_chemical_formula_sum "Si O2"
_cell_formula_units_Z 52
_cell_length_a 29.753920
_cell_length_b 13.288442
_cell_length_c 8.271865
_cell_angle_alpha 90.000000
_cell_angle_beta 90.000000
_cell_angle_gamma 90.000000
_cell_volume 3270.556786
_symmetry_space_group_name_H-M "P M M M"
_symmetry_group_IT_number 47
_symmetry_cell_setting 'orthorhombic'
loop_
_space_group_symop_operation_xyz
x,y,z
-x,-y,z
x,-y,-z
-x,y,-z
-x,-y,-z
x,y,-z
-x,y,z
x,-y,z
loop_
_atom_site_type_symbol
_atom_site_label
_atom_site_fract_x
_atom_site_fract_y
_atom_site_fract_z
Si Si1 0.620320 0.282565 0.189941
Si Si2 0.616224 0.500000 0.684875
Si Si3 0.722091 0.281558 0.694834
Si Si4 0.551484 0.114194 0.304800
Si Si5 0.052255 0.122660 0.500000
Si Si6 0.205995 0.883152 0.695797
Si Si7 0.274656 0.500000 0.687350
Si Si8 0.893243 0.878018 0.181976
O O1 0.603143 0.394275 0.236543
O O2 0.669790 0.266522 0.264990
O O3 0.585909 0.197228 0.244754
O O4 0.625935 0.278816 0.000000
O O5 0.601251 0.500000 0.500000
O O6 0.670843 0.500000 0.686861
O O7 0.724823 0.286664 0.500000
O O8 0.754347 0.191463 0.747419
O O9 0.737472 0.391501 0.759798
O O10 0.552015 0.115272 0.500000
O O11 0.500000 0.134411 0.253194
O O12 0.563167 0.000000 0.253174
O O13 0.076802 0.156558 0.334524
O O14 0.000000 0.150882 0.500000
O O15 0.054637 0.000000 0.500000
O O16 0.200527 0.876766 0.500000
O O17 0.158705 0.855531 0.777289
O O18 0.216067 0.000000 0.733507
O O19 0.259435 0.500000 0.500000
O O20 0.896773 0.000000 0.180277
O O21 0.905221 0.843138 0.000000
#
# Coordination Sequence:
#
# PCOD9388277 Si02
#       8
#     8   4   8   8   4   8   4   8
#     4  11  21  32  49  75 103 123 147 190 240 284
#     4   9  17  33  54  70  91 125 159 188 223 275
#     4   9  17  29  46  65  88 124 160 188 221 267
#     4   9  19  37  58  74  90 120 160 194 227 276
#     4   9  16  26  40  58  82 113 155 201 234 271
#     4   9  16  27  42  60  85 119 159 195 228 269
#     4   7  12  25  43  62  82 109 151 190 221 260
#     4   9  16  26  40  57  82 117 152 189 235 282
#
# _framework density 15.899433999999999
#
# number of rings (size 3 to 8) (size 9 to 14) (size 15 to 20)
#    0.000    2.846    0.769    3.000    0.000    2.154 
#    0.000    4.231    0.000    2.308    0.000    0.000 
#    0.000    0.000    0.000    1.385    0.000    2.615 
#
# Total GULP energy -289513.627438 kJ/mol
# GULP energy per Si atom -5567.569758 kJ/mol
# Density = 1.586325 g / cm^3
# Si number density = 15.899434 Si / 1000 Ang^3
#
#
#
# Elastic Constant Matrix: (Units=GPa)
#
#
# Indices 1 2 3 4 5 6 
#
# 1 83.7367 67.3336 32.8253 0.0000 0.0000 0.0000
# 2 67.3336 96.6020 33.7063 0.0000 0.0000 0.0000
# 3 32.8253 33.7063 49.7014 0.0000 0.0000 0.0000
# 4 0.0000 0.0000 0.0000 0.7194 0.0000 0.0000
# 5 0.0000 0.0000 0.0000 0.0000 -0.6445 0.0000
# 6 0.0000 0.0000 0.0000 0.0000 0.0000 -3.9479
#
#
#
# Elastic Compliance Matrix: (Units=1/GPa)
#
#
# Indices 1 2 3 4 5 6 
#
# 1 0.028978 -0.017712 -0.007127 0.000000 0.000000 0.000000
# 2 -0.017712 0.024386 -0.004840 0.000000 0.000000 0.000000
# 3 -0.007127 -0.004840 0.028110 0.000000 0.000000 0.000000
# 4 0.000000 0.000000 0.000000 1.390142 0.000000 0.000000
# 5 0.000000 0.000000 0.000000 0.000000 -1.551493 0.000000
# 6 0.000000 0.000000 0.000000 0.000000 0.000000 -0.253299
#
#
# Mechanical properties :
#
#
# Convention : Reuss Voigt Hill
#
# Bulk Modulus (GPa) = 45.21623 55.30784 50.26204
# Shear Modulus (GPa) = -18.76554 5.63704 -6.56425
#
# Velocity S-wave (km/s) = -3.43923 1.88497 -2.03410
# Velocity P-wave (km/s) = 3.56786 6.29278 5.11511
#
# Compressibility (1/GPa) = 0.02211595
#
# Stress axis : x y z
#
# Youngs Moduli (GPa) = 34.50871 41.00710 35.57474
#
# Poissons Ratio (x) = 0.72630 0.25354
# Poissons Ratio (y) = 0.61121 0.17219
# Poissons Ratio (z) = 0.24595 0.19849
#
# Static dielectric constant tensor:
#      x y z
#    x 1.515080 0.000000 0.000000 
#    y 0.000000 1.579630 0.000000 
#    z 0.000000 0.000000 1.555010 
# 
# From -- ./inp_files/14151.got.cif
#   From: 2010.05.17/outbox.cif.g08.bks.cpg/sg47_8_cif.got.tgz:14151.got - 2010.06.03 20:15:42.
