data_PCOD9388883
_publ_section_title
;
Structure prediction by ZEFSAII (Michael W. Deem and Ramdas Pophale) SiO2 
 PCOD9388883
Probable space group: P M M M
;
_chemical_formula_sum "Si O2"
_cell_formula_units_Z 56
_cell_length_a 30.593028
_cell_length_b 7.578163
_cell_length_c 14.199904
_cell_angle_alpha 90.000000
_cell_angle_beta 90.000000
_cell_angle_gamma 90.000000
_cell_volume 3292.090874
_symmetry_space_group_name_H-M "P M M M"
_symmetry_group_IT_number 47
_symmetry_cell_setting 'orthorhombic'
loop_
_space_group_symop_operation_xyz
x,y,z
-x,-y,z
x,-y,-z
-x,y,-z
-x,-y,-z
x,y,-z
-x,y,z
x,-y,z
loop_
_atom_site_type_symbol
_atom_site_label
_atom_site_fract_x
_atom_site_fract_y
_atom_site_fract_z
Si Si1 0.906159 0.291857 0.606860
Si Si2 0.000000 0.791946 0.393209
Si Si3 0.364749 0.784796 0.393987
Si Si4 0.811436 0.790743 0.607338
Si Si5 0.724703 0.215550 0.292801
Si Si6 0.320938 0.215340 0.105504
Si Si7 0.589634 0.784850 0.205621
Si Si8 0.500000 0.783920 0.890651
O O1 0.907788 0.213688 0.500000
O O2 0.903066 0.500000 0.599146
O O3 0.953368 0.254675 0.651768
O O4 0.860026 0.232934 0.648897
O O5 0.000000 0.711562 0.500000
O O6 0.000000 0.000000 0.401966
O O7 0.373747 0.724319 0.500000
O O8 0.316026 0.734185 0.359671
O O9 0.398114 0.728677 0.311814
O O10 0.365453 0.000000 0.394967
O O11 0.811306 0.718717 0.500000
O O12 0.770905 0.720929 0.667424
O O13 0.804551 0.000000 0.599822
O O14 0.712278 0.272271 0.187281
O O15 0.725210 0.000000 0.291825
O O16 0.369482 0.266668 0.139895
O O17 0.320427 0.000000 0.104612
O O18 0.311758 0.276168 0.000000
O O19 0.543751 0.725805 0.163186
O O20 0.588929 0.000000 0.206218
O O21 0.500000 0.000000 0.890495
O O22 0.500000 0.729810 0.000000
#
# Coordination Sequence:
#
# PCOD9388883 Si02
#       8
#     8   4   8   8   8   8   8   4
#     4   9  16  24  33  46  66  92 120 149 180 211
#     4   9  15  23  35  49  65  89 124 159 184 207
#     4   8  12  18  26  34  46  65  89 120 158 197
#     4   9  15  22  32  46  64  86 113 144 174 203
#     4   8  13  19  28  42  57  74  98 128 163 202
#     4   8  12  18  27  38  53  72  93 121 161 205
#     4   8  13  18  23  32  44  61  89 122 158 201
#     4   9  14  18  23  29  39  57  84 122 164 203
#
# _framework density 17.010466999999998
#
# number of rings (size 3 to 8) (size 9 to 14) (size 15 to 20)
#    0.000    3.571    0.000    3.214    0.000    6.000 
#    0.000    0.357    0.000    2.143    0.000    0.000 
#    0.000    0.571    0.000    0.643    0.000   15.214 
#
# Total GULP energy -311744.845584 kJ/mol
# GULP energy per Si atom -5566.872243 kJ/mol
# Density = 1.697175 g / cm^3
# Si number density = 17.010467 Si / 1000 Ang^3
#
#
#
# Elastic Constant Matrix: (Units=GPa)
#
#
# Indices 1 2 3 4 5 6 
#
# 1 173.3989 4.7175 78.3952 0.0000 0.0000 0.0000
# 2 4.7175 38.7621 4.2258 0.0000 0.0000 0.0000
# 3 78.3952 4.2258 118.7595 0.0000 0.0000 0.0000
# 4 0.0000 0.0000 0.0000 -4.9317 0.0000 0.0000
# 5 0.0000 0.0000 0.0000 0.0000 16.6150 0.0000
# 6 0.0000 0.0000 0.0000 0.0000 0.0000 -44.0926
#
#
#
# Elastic Compliance Matrix: (Units=1/GPa)
#
#
# Indices 1 2 3 4 5 6 
#
# 1 0.008227 -0.000411 -0.005416 0.000000 0.000000 0.000000
# 2 -0.000411 0.025919 -0.000651 0.000000 0.000000 0.000000
# 3 -0.005416 -0.000651 0.012019 0.000000 0.000000 0.000000
# 4 0.000000 0.000000 0.000000 -0.202768 0.000000 0.000000
# 5 0.000000 0.000000 0.000000 0.000000 0.060186 0.000000
# 6 0.000000 0.000000 0.000000 0.000000 0.000000 -0.022680
#
#
# Mechanical properties :
#
#
# Convention : Reuss Voigt Hill
#
# Bulk Modulus (GPa) = 30.11223 56.17750 43.14487
# Shear Modulus (GPa) = -52.59246 9.75693 -21.41776
#
# Velocity S-wave (km/s) = -5.56640 2.39756 -3.55222
# Velocity P-wave (km/s) = 4.85515 6.38446 2.93162
#
# Compressibility (1/GPa) = 0.03320910
#
# Stress axis : x y z
#
# Youngs Moduli (GPa) = 121.55262 38.58113 83.20292
#
# Poissons Ratio (x) = 0.01585 0.45064
# Poissons Ratio (y) = 0.04993 0.05417
# Poissons Ratio (z) = 0.65834 0.02512
#
# Static dielectric constant tensor:
#      x y z
#    x 1.603930 0.000000 0.000000 
#    y 0.000000 1.630610 0.000000 
#    z 0.000000 0.000000 1.563880 
# 
# From -- ./inp_files/25834.got.cif
#   From: 2010.05.17/outbox.cif.g08.bks.cpg/sg47_13_cif.got.tgz:25834.got - 2010.06.03 20:15:42.
