data_PCOD9388164
_publ_section_title
;
Structure prediction by ZEFSAII (Michael W. Deem and Ramdas Pophale) SiO2 
 PCOD9388164
Probable space group: P M M M
;
_chemical_formula_sum "Si O2"
_cell_formula_units_Z 64
_cell_length_a 29.768702
_cell_length_b 14.679618
_cell_length_c 9.144099
_cell_angle_alpha 90.000000
_cell_angle_beta 90.000000
_cell_angle_gamma 90.000000
_cell_volume 3995.908843
_symmetry_space_group_name_H-M "P M M M"
_symmetry_group_IT_number 47
_symmetry_cell_setting 'orthorhombic'
loop_
_space_group_symop_operation_xyz
x,y,z
-x,-y,z
x,-y,-z
-x,y,-z
-x,-y,-z
x,y,-z
-x,y,z
x,-y,z
loop_
_atom_site_type_symbol
_atom_site_label
_atom_site_fract_x
_atom_site_fract_y
_atom_site_fract_z
Si Si1 0.548349 0.389609 0.672651
Si Si2 0.872938 0.890844 0.170074
Si Si3 0.732420 0.276481 0.675050
Si Si4 0.808442 0.391586 0.170745
Si Si5 0.049945 0.221409 0.325703
Si Si6 0.769759 0.894114 0.176028
Si Si7 0.913927 0.605236 0.825383
Si Si8 0.353401 0.605620 0.321415
O O1 0.547743 0.366158 0.500000
O O2 0.500000 0.359182 0.735736
O O3 0.548873 0.500000 0.679741
O O4 0.597240 0.361972 0.731208
O O5 0.910692 0.840857 0.261744
O O6 0.821621 0.870791 0.215663
O O7 0.878104 0.000000 0.178009
O O8 0.877462 0.863311 0.000000
O O9 0.732590 0.270188 0.500000
O O10 0.774785 0.335461 0.729818
O O11 0.737684 0.177355 0.746038
O O12 0.687412 0.329838 0.722458
O O13 0.800626 0.500000 0.186118
O O14 0.861017 0.375756 0.203293
O O15 0.801102 0.367271 0.000000
O O16 0.053044 0.224031 0.500000
O O17 0.057230 0.321894 0.260667
O O18 0.000000 0.188095 0.284738
O O19 0.761811 0.000000 0.214075
O O20 0.766632 0.886521 0.000000
O O21 0.922972 0.500000 0.786798
O O22 0.920640 0.614540 0.000000
O O23 0.354759 0.604954 0.500000
O O24 0.346038 0.500000 0.276922
#
# Coordination Sequence:
#
# PCOD9388164 Si02
#       8
#     8   8   8   8   8   8   8   8
#     4   7   9  15  29  47  70 109 158 195 219 249
#     4   9  19  37  59  77  90 110 144 182 217 256
#     4  11  20  27  41  67  97 124 147 177 222 272
#     4   9  18  32  48  66  90 120 153 186 216 251
#     4  11  24  37  49  71 101 125 142 168 214 267
#     4   9  19  36  54  69  87 113 146 184 222 260
#     4   9  19  36  55  71  87 114 155 195 222 246
#     4   8  14  23  33  52  88 126 154 183 220 260
#
# _framework density 16.016382
#
# number of rings (size 3 to 8) (size 9 to 14) (size 15 to 20)
#    0.000    2.875    0.000    4.500    0.000    7.000 
#    0.000    5.000    0.000    0.000    0.000    0.000 
#    0.000    2.500    0.000   20.375    0.000   12.750 
#
# Total GULP energy -356664.061279 kJ/mol
# GULP energy per Si atom -5572.875957 kJ/mol
# Density = 1.597993 g / cm^3
# Si number density = 16.016382 Si / 1000 Ang^3
#
#
#
# Elastic Constant Matrix: (Units=GPa)
#
#
# Indices 1 2 3 4 5 6 
#
# 1 94.3413 60.8868 35.1567 0.0000 0.0000 0.0000
# 2 60.8868 58.5844 24.2593 0.0000 0.0000 0.0000
# 3 35.1567 24.2593 20.0743 0.0000 0.0000 0.0000
# 4 0.0000 0.0000 0.0000 3.4918 0.0000 0.0000
# 5 0.0000 0.0000 0.0000 0.0000 76.6096 0.0000
# 6 0.0000 0.0000 0.0000 0.0000 0.0000 12.8793
#
#
#
# Elastic Compliance Matrix: (Units=1/GPa)
#
#
# Indices 1 2 3 4 5 6 
#
# 1 0.047166 -0.029654 -0.046768 0.000000 0.000000 0.000000
# 2 -0.029654 0.052811 -0.011887 0.000000 0.000000 0.000000
# 3 -0.046768 -0.011887 0.146087 0.000000 0.000000 0.000000
# 4 0.000000 0.000000 0.000000 0.286382 0.000000 0.000000
# 5 0.000000 0.000000 0.000000 0.000000 0.013053 0.000000
# 6 0.000000 0.000000 0.000000 0.000000 0.000000 0.077644
#
#
# Mechanical properties :
#
#
# Convention : Reuss Voigt Hill
#
# Bulk Modulus (GPa) = 14.39968 45.95619 30.17794
# Shear Modulus (GPa) = 6.07600 22.10930 14.09265
#
# Velocity S-wave (km/s) = 1.94983 3.71943 2.96951
# Velocity P-wave (km/s) = 3.75223 6.87030 5.53536
#
# Compressibility (1/GPa) = 0.06944598
#
# Stress axis : x y z
#
# Youngs Moduli (GPa) = 21.20157 18.93547 6.84525
#
# Poissons Ratio (x) = 0.56151 0.32014
# Poissons Ratio (y) = 0.62871 0.08137
# Poissons Ratio (z) = 0.99155 0.22509
#
# Static dielectric constant tensor:
#      x y z
#    x 1.560690 0.000000 0.000000 
#    y 0.000000 1.533560 0.000000 
#    z 0.000000 0.000000 1.532390 
# 
# From -- ./inp_files/14296.got.cif
#   From: 2010.05.17/outbox.cif.g08.bks.cpg/sg47_8_cif.got.tgz:14296.got - 2010.06.03 20:15:42.
