data_PCOD9388257
_publ_section_title
;
Structure prediction by ZEFSAII (Michael W. Deem and Ramdas Pophale) SiO2 
 PCOD9388257
Probable space group: P M M M
;
_chemical_formula_sum "Si O2"
_cell_formula_units_Z 64
_cell_length_a 22.758410
_cell_length_b 15.069167
_cell_length_c 7.813237
_cell_angle_alpha 90.000000
_cell_angle_beta 90.000000
_cell_angle_gamma 90.000000
_cell_volume 2679.551824
_symmetry_space_group_name_H-M "P M M M"
_symmetry_group_IT_number 47
_symmetry_cell_setting 'orthorhombic'
loop_
_space_group_symop_operation_xyz
x,y,z
-x,-y,z
x,-y,-z
-x,y,-z
-x,-y,-z
x,y,-z
-x,y,z
x,-y,z
loop_
_atom_site_type_symbol
_atom_site_label
_atom_site_fract_x
_atom_site_fract_y
_atom_site_fract_z
Si Si1 0.689988 0.829646 0.691686
Si Si2 0.564101 0.106445 0.199009
Si Si3 0.562310 0.606283 0.801003
Si Si4 0.812126 0.352394 0.210326
Si Si5 0.687782 0.639900 0.193131
Si Si6 0.937209 0.362063 0.799296
Si Si7 0.810358 0.143860 0.203080
Si Si8 0.936211 0.155799 0.296113
O O1 0.695734 0.795040 0.500000
O O2 0.624974 0.868259 0.712877
O O3 0.693964 0.745931 0.816141
O O4 0.747709 0.889525 0.725713
O O5 0.500000 0.137836 0.265909
O O6 0.562021 0.000000 0.201551
O O7 0.567971 0.134734 0.000000
O O8 0.500000 0.637730 0.725935
O O9 0.560039 0.500000 0.805679
O O10 0.624944 0.627129 0.719089
O O11 0.563665 0.637932 0.000000
O O12 0.749804 0.391569 0.268127
O O13 0.874050 0.391818 0.270329
O O14 0.812726 0.247959 0.258864
O O15 0.811572 0.355850 0.000000
O O16 0.683115 0.602898 0.000000
O O17 0.935675 0.254252 0.787356
O O18 0.000000 0.390112 0.723280
O O19 0.938026 0.386049 0.000000
O O20 0.874772 0.108387 0.252634
O O21 0.806625 0.138789 0.000000
O O22 0.936209 0.168428 0.500000
O O23 0.000000 0.115173 0.249046
#
# Coordination Sequence:
#
# PCOD9388257 Si02
#       8
#     8   8   8   8   8   8   8   8
#     4  11  21  31  46  70  99 125 150 186 233 280
#     4   9  19  37  58  75  92 119 155 190 223 265
#     4   8  14  25  42  64  86 108 141 187 231 266
#     4   7  11  19  31  48  69  95 130 172 213 252
#     4   9  16  27  43  62  86 116 148 182 223 272
#     4   8  12  18  28  41  61  95 137 174 208 253
#     4   9  16  27  41  56  80 116 156 191 223 266
#     4   9  15  21  31  51  80 112 146 185 229 273
#
# _framework density 23.884589999999999
#
# number of rings (size 3 to 8) (size 9 to 14) (size 15 to 20)
#    0.000    3.250    0.000    4.125    0.000    1.750 
#    0.000    1.875    0.000    0.375    0.000    0.875 
#    0.000    1.000    0.000   12.250    0.000    9.500 
#
# Total GULP energy -356318.550292 kJ/mol
# GULP energy per Si atom -5567.477348 kJ/mol
# Density = 2.383023 g / cm^3
# Si number density = 23.884590 Si / 1000 Ang^3
#
#
#
# Elastic Constant Matrix: (Units=GPa)
#
#
# Indices 1 2 3 4 5 6 
#
# 1 342.5514 15.6942 22.2617 0.0000 0.0000 0.0000
# 2 15.6942 50.8645 2.1098 0.0000 0.0000 0.0000
# 3 22.2617 2.1098 64.3029 0.0000 0.0000 0.0000
# 4 0.0000 0.0000 0.0000 551.8574 0.0000 0.0000
# 5 0.0000 0.0000 0.0000 0.0000 8.5882 0.0000
# 6 0.0000 0.0000 0.0000 0.0000 0.0000 46.4803
#
#
#
# Elastic Compliance Matrix: (Units=1/GPa)
#
#
# Indices 1 2 3 4 5 6 
#
# 1 0.003026 -0.000892 -0.001018 0.000000 0.000000 0.000000
# 2 -0.000892 0.019950 -0.000346 0.000000 0.000000 0.000000
# 3 -0.001018 -0.000346 0.015915 0.000000 0.000000 0.000000
# 4 0.000000 0.000000 0.000000 0.001812 0.000000 0.000000
# 5 0.000000 0.000000 0.000000 0.000000 0.116439 0.000000
# 6 0.000000 0.000000 0.000000 0.000000 0.000000 0.021514
#
#
# Mechanical properties :
#
#
# Convention : Reuss Voigt Hill
#
# Bulk Modulus (GPa) = 29.08718 59.76112 44.42415
# Shear Modulus (GPa) = 25.69002 149.22873 87.45938
#
# Velocity S-wave (km/s) = 3.28318 7.91295 6.05780
# Velocity P-wave (km/s) = 5.15529 10.41928 8.22005
#
# Compressibility (1/GPa) = 0.03437941
#
# Stress axis : x y z
#
# Youngs Moduli (GPa) = 330.43620 50.12654 62.83249
#
# Poissons Ratio (x) = 0.04469 0.06399
# Poissons Ratio (y) = 0.29459 0.02173
# Poissons Ratio (z) = 0.33653 0.01734
#
# Static dielectric constant tensor:
#      x y z
#    x 2.070960 0.000000 0.000000 
#    y 0.000000 1.912770 0.000000 
#    z 0.000000 0.000000 1.863050 
# 
# From -- ./inp_files/11818.got.cif
#   From: 2010.05.17/outbox.cif.g08.bks.cpg/sg47_6_cif.got.tgz:11818.got - 2010.06.03 20:15:42.
