data_PCOD9388232
_publ_section_title
;
Structure prediction by ZEFSAII (Michael W. Deem and Ramdas Pophale) SiO2 
 PCOD9388232
Probable space group: P M M M
;
_chemical_formula_sum "Si O2"
_cell_formula_units_Z 64
_cell_length_a 15.239807
_cell_length_b 7.605324
_cell_length_c 29.628356
_cell_angle_alpha 90.000000
_cell_angle_beta 90.000000
_cell_angle_gamma 90.000000
_cell_volume 3434.035194
_symmetry_space_group_name_H-M "P M M M"
_symmetry_group_IT_number 47
_symmetry_cell_setting 'orthorhombic'
loop_
_space_group_symop_operation_xyz
x,y,z
-x,-y,z
x,-y,-z
-x,y,-z
-x,-y,-z
x,y,-z
-x,y,z
x,-y,z
loop_
_atom_site_type_symbol
_atom_site_label
_atom_site_fract_x
_atom_site_fract_y
_atom_site_fract_z
Si Si1 0.782213 0.792591 0.267878
Si Si2 0.900216 0.289656 0.646523
Si Si3 0.280357 0.284326 0.950602
Si Si4 0.096870 0.706514 0.917922
Si Si5 0.100269 0.212660 0.186221
Si Si6 0.601191 0.286040 0.868013
Si Si7 0.106219 0.708251 0.451440
Si Si8 0.401186 0.710739 0.233460
O O1 0.834284 0.741903 0.312732
O O2 0.832027 0.718860 0.223550
O O3 0.679273 0.751146 0.266141
O O4 0.790512 0.000000 0.264220
O O5 0.907228 0.500000 0.641485
O O6 0.867610 0.220247 0.597669
O O7 0.000000 0.224271 0.655860
O O8 0.280189 0.500000 0.949149
O O9 0.180435 0.222467 0.944122
O O10 0.337022 0.223282 0.908079
O O11 0.314063 0.233590 0.000000
O O12 0.091775 0.500000 0.929122
O O13 0.116127 0.721023 0.864390
O O14 0.000000 0.783671 0.925960
O O15 0.000000 0.260573 0.198924
O O16 0.104254 0.000000 0.184099
O O17 0.500000 0.239618 0.876599
O O18 0.606184 0.500000 0.867600
O O19 0.622873 0.225269 0.817221
O O20 0.136059 0.782679 0.500000
O O21 0.127790 0.500000 0.452308
O O22 0.000000 0.720603 0.450976
O O23 0.500000 0.774465 0.244615
O O24 0.406737 0.500000 0.230943
#
# Coordination Sequence:
#
# PCOD9388232 Si02
#       8
#     8   8   8   8   8   8   8   8
#     4  11  21  30  43  64  92 122 147 179 225 271
#     4   9  17  28  43  65  93 126 162 194 223 259
#     4   9  16  24  36  57  83 106 126 154 197 248
#     4   9  17  28  42  59  77 101 136 173 204 237
#     4   9  18  31  44  59  82 113 146 176 209 251
#     4   8  14  25  41  60  80 102 129 162 202 249
#     4   7  10  19  37  60  85 115 154 197 231 254
#     4   9  18  33  51  67  84 110 145 184 222 261
#
# _framework density 18.636966000000001
#
# number of rings (size 3 to 8) (size 9 to 14) (size 15 to 20)
#    0.000    3.125    0.000    3.375    0.000    3.500 
#    0.000    3.750    0.000    0.750    0.000    3.500 
#    0.000    0.500    0.000   16.500    0.000   10.625 
#
# Total GULP energy -356658.690544 kJ/mol
# GULP energy per Si atom -5572.792040 kJ/mol
# Density = 1.859455 g / cm^3
# Si number density = 18.636966 Si / 1000 Ang^3
#
#
#
# Elastic Constant Matrix: (Units=GPa)
#
#
# Indices 1 2 3 4 5 6 
#
# 1 87.8755 2.3674 68.9875 0.0000 0.0000 0.0000
# 2 2.3674 39.4551 -1.0871 0.0000 0.0000 0.0000
# 3 68.9875 -1.0871 83.4484 0.0000 0.0000 0.0000
# 4 0.0000 0.0000 0.0000 96.8751 0.0000 0.0000
# 5 0.0000 0.0000 0.0000 0.0000 11.8969 0.0000
# 6 0.0000 0.0000 0.0000 0.0000 0.0000 -25.7417
#
#
#
# Elastic Compliance Matrix: (Units=1/GPa)
#
#
# Indices 1 2 3 4 5 6 
#
# 1 0.032709 -0.002709 -0.027076 0.000000 0.000000 0.000000
# 2 -0.002709 0.025579 0.002572 0.000000 0.000000 0.000000
# 3 -0.027076 0.002572 0.034401 0.000000 0.000000 0.000000
# 4 0.000000 0.000000 0.000000 0.010323 0.000000 0.000000
# 5 0.000000 0.000000 0.000000 0.000000 0.084055 0.000000
# 6 0.000000 0.000000 0.000000 0.000000 0.000000 -0.038847
#
#
# Mechanical properties :
#
#
# Convention : Reuss Voigt Hill
#
# Bulk Modulus (GPa) = 26.13413 39.03496 32.58454
# Shear Modulus (GPa) = 23.21279 25.97348 24.59314
#
# Velocity S-wave (km/s) = 3.53303 3.73722 3.63656
# Velocity P-wave (km/s) = 5.54042 6.29387 5.92912
#
# Compressibility (1/GPa) = 0.03826414
#
# Stress axis : x y z
#
# Youngs Moduli (GPa) = 30.57258 39.09510 29.06892
#
# Poissons Ratio (x) = 0.10589 0.78707
# Poissons Ratio (y) = 0.08281 -0.07478
# Poissons Ratio (z) = 0.82779 -0.10057
#
# Static dielectric constant tensor:
#      x y z
#    x 1.768720 0.000000 0.000000 
#    y 0.000000 1.717850 0.000000 
#    z 0.000000 0.000000 1.680130 
# 
# From -- ./inp_files/34717.got.cif
#   From: 2010.05.17/outbox.cif.g08.bks.cpg/sg47_18_cif.got.tgz:34717.got - 2010.06.03 20:15:42.
