data_PCOD9388906
_publ_section_title
;
Structure prediction by ZEFSAII (Michael W. Deem and Ramdas Pophale) SiO2 
 PCOD9388906
Probable space group: P M M M
;
_chemical_formula_sum "Si O2"
_cell_formula_units_Z 40
_cell_length_a 10.192118
_cell_length_b 7.389045
_cell_length_c 26.863621
_cell_angle_alpha 90.000000
_cell_angle_beta 90.000000
_cell_angle_gamma 90.000000
_cell_volume 2023.099796
_symmetry_space_group_name_H-M "P M M M"
_symmetry_group_IT_number 47
_symmetry_cell_setting 'orthorhombic'
loop_
_space_group_symop_operation_xyz
x,y,z
-x,-y,z
x,-y,-z
-x,y,-z
-x,-y,-z
x,y,-z
-x,y,z
x,-y,z
loop_
_atom_site_type_symbol
_atom_site_label
_atom_site_fract_x
_atom_site_fract_y
_atom_site_fract_z
Si Si1 0.149450 0.786646 0.163235
Si Si2 0.152684 0.282573 0.946543
Si Si3 0.349786 0.220507 0.640842
Si Si4 0.150590 0.220606 0.443745
Si Si5 0.349661 0.220942 0.753807
O O1 0.206463 0.769035 0.107302
O O2 0.246794 0.713820 0.205150
O O3 0.000000 0.711894 0.164234
O O4 0.137923 0.000000 0.172745
O O5 0.152816 0.500000 0.947452
O O6 0.000000 0.222445 0.945873
O O7 0.209325 0.221126 0.000000
O O8 0.500000 0.275302 0.630941
O O9 0.249558 0.282804 0.598765
O O10 0.315317 0.274908 0.697283
O O11 0.348178 0.000000 0.640327
O O12 0.186851 0.275750 0.500000
O O13 0.000000 0.275081 0.434451
O O14 0.152175 0.000000 0.443289
O O15 0.500000 0.276243 0.763884
O O16 0.349427 0.000000 0.754668
#
# Coordination Sequence:
#
# PCOD9388906 Si02
#       5
#     8   8   8   8   8
#     4   9  16  24  37  59  79  93 119 159 191 215
#     4   8  14  25  40  57  78 103 126 148 181 225
#     4   8  13  20  29  40  54  77 111 145 175 212
#     4   8  13  19  25  35  53  77 106 142 183 220
#     4   8  14  24  35  47  67  94 119 145 184 230
#
# _framework density 19.771640000000001
#
# number of rings (size 3 to 8) (size 9 to 14) (size 15 to 20)
#    0.000    3.800    0.000    2.400    0.000    1.600 
#    0.000    8.000    0.000    1.200    0.000    4.200 
#    0.000    0.000    0.000    0.000    0.000    1.000 
#
# Total GULP energy -222764.850676 kJ/mol
# GULP energy per Si atom -5569.121267 kJ/mol
# Density = 1.972664 g / cm^3
# Si number density = 19.771640 Si / 1000 Ang^3
#
#
#
# Elastic Constant Matrix: (Units=GPa)
#
#
# Indices 1 2 3 4 5 6 
#
# 1 95.0950 4.7581 129.4596 0.0000 0.0000 0.0000
# 2 4.7581 65.7250 3.9685 0.0000 0.0000 0.0000
# 3 129.4596 3.9685 227.9747 0.0000 0.0000 0.0000
# 4 0.0000 0.0000 0.0000 62.2037 0.0000 0.0000
# 5 0.0000 0.0000 0.0000 0.0000 -18.8749 0.0000
# 6 0.0000 0.0000 0.0000 0.0000 0.0000 -8.6733
#
#
#
# Elastic Compliance Matrix: (Units=1/GPa)
#
#
# Indices 1 2 3 4 5 6 
#
# 1 0.046547 -0.001776 -0.026402 0.000000 0.000000 0.000000
# 2 -0.001776 0.015299 0.000742 0.000000 0.000000 0.000000
# 3 -0.026402 0.000742 0.019366 0.000000 0.000000 0.000000
# 4 0.000000 0.000000 0.000000 0.016076 0.000000 0.000000
# 5 0.000000 0.000000 0.000000 0.000000 -0.052980 0.000000
# 6 0.000000 0.000000 0.000000 0.000000 0.000000 -0.115297
#
#
# Mechanical properties :
#
#
# Convention : Reuss Voigt Hill
#
# Bulk Modulus (GPa) = 37.96304 73.90743 55.93524
# Shear Modulus (GPa) = -681.49206 23.63834 -328.92686
#
# Velocity S-wave (km/s) = -18.58574 3.46145 -12.91217
# Velocity P-wave (km/s) = 21.00787 7.31007 13.92648
#
# Compressibility (1/GPa) = 0.02634141
#
# Stress axis : x y z
#
# Youngs Moduli (GPa) = 21.48347 65.36527 51.63602
#
# Poissons Ratio (x) = 0.11606 1.36329
# Poissons Ratio (y) = 0.03815 -0.03831
# Poissons Ratio (z) = 0.56720 -0.04850
#
# Static dielectric constant tensor:
#      x y z
#    x 1.663010 0.000000 0.000000 
#    y 0.000000 1.769680 0.000000 
#    z 0.000000 0.000000 1.706820 
# 
# From -- ./inp_files/1647.got.cif
#   From: 2010.05.17/outbox.cif.g08.bks.cpg/sg47_1_cif.got.tgz:1647.got - 2010.06.03 20:15:42.
