data_PCOD9388406
_publ_section_title
;
Structure prediction by ZEFSAII (Michael W. Deem and Ramdas Pophale) SiO2 
 PCOD9388406
Probable space group: P M M M
;
_chemical_formula_sum "Si O2"
_cell_formula_units_Z 44
_cell_length_a 21.895993
_cell_length_b 7.928048
_cell_length_c 14.170159
_cell_angle_alpha 90.000000
_cell_angle_beta 90.000000
_cell_angle_gamma 90.000000
_cell_volume 2459.833093
_symmetry_space_group_name_H-M "P M M M"
_symmetry_group_IT_number 47
_symmetry_cell_setting 'orthorhombic'
loop_
_space_group_symop_operation_xyz
x,y,z
-x,-y,z
x,-y,-z
-x,y,-z
-x,-y,-z
x,y,-z
-x,y,z
x,-y,z
loop_
_atom_site_type_symbol
_atom_site_label
_atom_site_fract_x
_atom_site_fract_y
_atom_site_fract_z
Si Si1 0.627064 0.303084 0.201186
Si Si2 0.808767 0.206763 0.706446
Si Si3 0.749396 0.801436 0.104386
Si Si4 0.500000 0.798173 0.891561
Si Si5 0.683922 0.203849 0.606093
Si Si6 0.932250 0.205757 0.609776
O O1 0.637513 0.500000 0.188150
O O2 0.679900 0.212429 0.141005
O O3 0.560665 0.257789 0.162959
O O4 0.638535 0.260335 0.311001
O O5 0.791162 0.267601 0.811104
O O6 0.752265 0.255374 0.638713
O O7 0.874193 0.264296 0.669134
O O8 0.809183 0.000000 0.707113
O O9 0.763496 0.000000 0.098195
O O10 0.756052 0.726989 0.000000
O O11 0.500000 0.000000 0.895006
O O12 0.500000 0.734571 0.000000
O O13 0.670497 0.263247 0.500000
O O14 0.683051 0.000000 0.605383
O O15 0.924804 0.253325 0.500000
O O16 0.000000 0.260227 0.641260
O O17 0.931885 0.000000 0.612277
#
# Coordination Sequence:
#
# PCOD9388406 Si02
#       6
#     8   8   8   4   8   8
#     4  11  22  34  50  74 101 123 147 186 234 278
#     4   8  13  22  38  60  85 116 155 193 227 268
#     4   9  17  30  47  65  87 118 156 194 232 277
#     4  11  23  39  58  75  94 123 157 190 224 269
#     4   9  17  31  51  71  93 125 162 194 225 269
#     4   8  12  17  28  51  84 118 149 184 229 278
#
# _framework density 17.887391999999998
#
# number of rings (size 3 to 8) (size 9 to 14) (size 15 to 20)
#    0.000    2.818    0.000    4.636    0.000    5.818 
#    0.000    0.455    0.000    3.273    0.000    3.818 
#    0.000   11.636    0.000   46.545    0.000   43.636 
#
# Total GULP energy -245269.302167 kJ/mol
# GULP energy per Si atom -5574.302322 kJ/mol
# Density = 1.784668 g / cm^3
# Si number density = 17.887392 Si / 1000 Ang^3
#
#
#
# Elastic Constant Matrix: (Units=GPa)
#
#
# Indices 1 2 3 4 5 6 
#
# 1 145.0414 -5.8217 84.6998 0.0000 0.0000 0.0000
# 2 -5.8217 19.5749 2.3982 0.0000 0.0000 0.0000
# 3 84.6998 2.3982 149.1934 0.0000 0.0000 0.0000
# 4 0.0000 0.0000 0.0000 -6.5506 0.0000 0.0000
# 5 0.0000 0.0000 0.0000 0.0000 19.8872 0.0000
# 6 0.0000 0.0000 0.0000 0.0000 0.0000 -22.7295
#
#
#
# Elastic Compliance Matrix: (Units=1/GPa)
#
#
# Indices 1 2 3 4 5 6 
#
# 1 0.010603 0.003899 -0.006082 0.000000 0.000000 0.000000
# 2 0.003899 0.052620 -0.003059 0.000000 0.000000 0.000000
# 3 -0.006082 -0.003059 0.010205 0.000000 0.000000 0.000000
# 4 0.000000 0.000000 0.000000 -0.152659 0.000000 0.000000
# 5 0.000000 0.000000 0.000000 0.000000 0.050284 0.000000
# 6 0.000000 0.000000 0.000000 0.000000 0.000000 -0.043996
#
#
# Mechanical properties :
#
#
# Convention : Reuss Voigt Hill
#
# Bulk Modulus (GPa) = 15.88754 52.92913 34.40833
# Shear Modulus (GPa) = -120.54913 13.62365 -53.46274
#
# Velocity S-wave (km/s) = -8.21825 2.76277 -5.47297
# Velocity P-wave (km/s) = 9.00842 6.31123 4.54533
#
# Compressibility (1/GPa) = 0.06294242
#
# Stress axis : x y z
#
# Youngs Moduli (GPa) = 94.31463 19.00412 97.99323
#
# Poissons Ratio (x) = -0.07409 0.59600
# Poissons Ratio (y) = -0.36769 0.29977
# Poissons Ratio (z) = 0.57363 0.05814
#
# Static dielectric constant tensor:
#      x y z
#    x 1.677890 0.000000 0.000000 
#    y 0.000000 1.638030 0.000000 
#    z 0.000000 0.000000 1.627090 
# 
# From -- ./inp_files/24907.got.cif
#   From: 2010.05.17/outbox.cif.g08.bks.cpg/sg47_13_cif.got.tgz:24907.got - 2010.06.03 20:15:42.
