data_PCOD9388266
_publ_section_title
;
Structure prediction by ZEFSAII (Michael W. Deem and Ramdas Pophale) SiO2 
 PCOD9388266
Probable space group: P M M M
;
_chemical_formula_sum "Si O2"
_cell_formula_units_Z 28
_cell_length_a 18.966911
_cell_length_b 7.676037
_cell_length_c 11.898184
_cell_angle_alpha 90.000000
_cell_angle_beta 90.000000
_cell_angle_gamma 90.000000
_cell_volume 1732.265064
_symmetry_space_group_name_H-M "P M M M"
_symmetry_group_IT_number 47
_symmetry_cell_setting 'orthorhombic'
loop_
_space_group_symop_operation_xyz
x,y,z
-x,-y,z
x,-y,-z
-x,y,-z
-x,-y,-z
x,y,-z
-x,y,z
x,-y,z
loop_
_atom_site_type_symbol
_atom_site_label
_atom_site_fract_x
_atom_site_fract_y
_atom_site_fract_z
Si Si1 0.580093 0.000000 0.636226
Si Si2 0.082439 0.000000 0.865648
Si Si3 0.082966 0.790525 0.500000
Si Si4 0.841479 0.699782 0.730391
Si Si5 0.689656 0.705265 0.366525
O O1 0.625520 0.170116 0.667083
O O2 0.500000 0.000000 0.678764
O O3 0.576355 0.000000 0.500000
O O4 0.121352 0.167610 0.814404
O O5 0.000000 0.000000 0.830407
O O6 0.085417 0.000000 0.000000
O O7 0.118638 0.715871 0.388723
O O8 0.000000 0.753659 0.500000
O O9 0.092671 0.000000 0.500000
O O10 0.844798 0.500000 0.769269
O O11 0.760266 0.745411 0.702893
O O12 0.704323 0.735144 0.500000
O O13 0.673628 0.500000 0.353950
#
# Coordination Sequence:
#
# PCOD9388266 Si02
#       5
#     4   4   4   8   8
#     4   9  17  26  40  64  96 139 175 193 220 273
#     4  11  25  41  53  69  97 135 176 216 259 303
#     4  11  21  31  49  78 105 128 156 204 266 311
#     4  11  21  35  55  76  99 131 169 210 257 307
#     4   9  17  29  46  70  99 129 161 199 245 294
#
# _framework density 16.163809000000001
#
# number of rings (size 3 to 8) (size 9 to 14) (size 15 to 20)
#    0.000    1.857    2.857    2.143    0.000    4.000 
#    0.000    4.286    0.000    0.000    0.000    0.000 
#    0.000    9.143    0.000   25.143    0.000    1.143 
#
# Total GULP energy -156285.003112 kJ/mol
# GULP energy per Si atom -5581.607254 kJ/mol
# Density = 1.612702 g / cm^3
# Si number density = 16.163809 Si / 1000 Ang^3
#
#
#
# Elastic Constant Matrix: (Units=GPa)
#
#
# Indices 1 2 3 4 5 6 
#
# 1 156.9840 92.1999 34.8312 0.0000 0.0000 0.0000
# 2 92.1999 102.0122 34.1623 0.0000 0.0000 0.0000
# 3 34.8312 34.1623 44.0376 0.0000 0.0000 0.0000
# 4 0.0000 0.0000 0.0000 -5.3678 0.0000 0.0000
# 5 0.0000 0.0000 0.0000 0.0000 -5.0630 0.0000
# 6 0.0000 0.0000 0.0000 0.0000 0.0000 -4.7315
#
#
#
# Elastic Compliance Matrix: (Units=1/GPa)
#
#
# Indices 1 2 3 4 5 6 
#
# 1 0.013666 -0.011796 -0.001658 0.000000 0.000000 0.000000
# 2 -0.011796 0.023426 -0.008842 0.000000 0.000000 0.000000
# 3 -0.001658 -0.008842 0.030879 0.000000 0.000000 0.000000
# 4 0.000000 0.000000 0.000000 -0.186297 0.000000 0.000000
# 5 0.000000 0.000000 0.000000 0.000000 -0.197512 0.000000
# 6 0.000000 0.000000 0.000000 0.000000 0.000000 -0.211351
#
#
# Mechanical properties :
#
#
# Convention : Reuss Voigt Hill
#
# Bulk Modulus (GPa) = 42.77691 69.49117 56.13404
# Shear Modulus (GPa) = -10.53070 6.42358 -2.05356
#
# Velocity S-wave (km/s) = -2.55522 1.99566 -1.12837
# Velocity P-wave (km/s) = 4.22097 6.95668 5.75378
#
# Compressibility (1/GPa) = 0.02337710
#
# Stress axis : x y z
#
# Youngs Moduli (GPa) = 73.17283 42.68822 32.38481
#
# Poissons Ratio (x) = 0.50357 0.05370
# Poissons Ratio (y) = 0.86318 0.28635
# Poissons Ratio (z) = 0.12133 0.37746
#
# Static dielectric constant tensor:
#      x y z
#    x 1.537160 0.000000 0.000000 
#    y 0.000000 1.565740 0.000000 
#    z 0.000000 0.000000 1.507510 
# 
# From -- ./inp_files/18126.got.cif
#   From: 2010.05.17/outbox.cif.g08.bks.cpg/sg47_10_cif.got.tgz:18126.got - 2010.06.03 20:15:42.
