data_PCOD9388869
_publ_section_title
;
Structure prediction by ZEFSAII (Michael W. Deem and Ramdas Pophale) SiO2 
 PCOD9388869
Probable space group: P M M M
;
_chemical_formula_sum "Si O2"
_cell_formula_units_Z 56
_cell_length_a 7.432142
_cell_length_b 19.384270
_cell_length_c 19.787978
_cell_angle_alpha 90.000000
_cell_angle_beta 90.000000
_cell_angle_gamma 90.000000
_cell_volume 2850.787645
_symmetry_space_group_name_H-M "P M M M"
_symmetry_group_IT_number 47
_symmetry_cell_setting 'orthorhombic'
loop_
_space_group_symop_operation_xyz
x,y,z
-x,-y,z
x,-y,-z
-x,y,-z
-x,-y,-z
x,y,-z
-x,y,z
x,-y,z
loop_
_atom_site_type_symbol
_atom_site_label
_atom_site_fract_x
_atom_site_fract_y
_atom_site_fract_z
Si Si1 0.214509 0.416858 0.428108
Si Si2 0.786969 0.789571 0.074893
Si Si3 0.214258 0.710932 0.794116
Si Si4 0.282976 0.077481 0.843116
Si Si5 0.779361 0.579341 0.719936
Si Si6 0.719276 0.919939 0.576403
Si Si7 0.283999 0.156853 0.709444
O O1 0.287455 0.390494 0.500000
O O2 0.236297 0.500000 0.428449
O O3 0.281676 0.395697 0.354663
O O4 0.000000 0.403722 0.428680
O O5 0.711958 0.743908 0.136757
O O6 0.766515 0.868380 0.099072
O O7 0.000000 0.775627 0.071681
O O8 0.712208 0.778310 0.000000
O O9 0.281638 0.635674 0.773691
O O10 0.241757 0.765827 0.733599
O O11 0.000000 0.704940 0.802513
O O12 0.500000 0.075898 0.840291
O O13 0.219657 0.108301 0.771201
O O14 0.218446 0.000000 0.853957
O O15 0.724068 0.500000 0.731045
O O16 0.000000 0.578676 0.718865
O O17 0.777007 0.901616 0.500000
O O18 0.500000 0.918528 0.576158
O O19 0.781347 0.870472 0.637009
O O20 0.769882 0.000000 0.589396
O O21 0.500000 0.151325 0.707802
#
# Coordination Sequence:
#
# PCOD9388869 Si02
#       7
#     8   8   8   8   8   8   8
#     4   7   9  14  26  46  72  98 121 147 182 224
#     4   9  18  31  44  58  80 111 139 160 191 242
#     4   9  17  29  44  61  81 105 134 167 203 245
#     4   9  17  28  43  64  86 106 132 169 207 236
#     4   8  13  22  38  58  77 100 132 167 200 234
#     4   8  13  22  39  62  83 106 142 182 209 231
#     4   9  16  27  43  61  83 110 138 168 203 242
#
# _framework density 19.643694
#
# number of rings (size 3 to 8) (size 9 to 14) (size 15 to 20)
#    0.000    3.571    0.000    2.143    0.000    2.571 
#    0.000    2.143    0.000    3.429    0.000    4.000 
#    0.000    0.000    0.000   14.286    0.000   10.286 
#
# Total GULP energy -311912.789814 kJ/mol
# GULP energy per Si atom -5569.871247 kJ/mol
# Density = 1.959898 g / cm^3
# Si number density = 19.643694 Si / 1000 Ang^3
#
#
#
# Elastic Constant Matrix: (Units=GPa)
#
#
# Indices 1 2 3 4 5 6 
#
# 1 60.3065 0.2051 6.5469 0.0000 0.0000 0.0000
# 2 0.2051 118.0647 89.0144 0.0000 0.0000 0.0000
# 3 6.5469 89.0144 153.2460 0.0000 0.0000 0.0000
# 4 0.0000 0.0000 0.0000 12.7874 0.0000 0.0000
# 5 0.0000 0.0000 0.0000 0.0000 203.3549 0.0000
# 6 0.0000 0.0000 0.0000 0.0000 0.0000 10.7478
#
#
#
# Elastic Compliance Matrix: (Units=1/GPa)
#
#
# Indices 1 2 3 4 5 6 
#
# 1 0.016714 0.000906 -0.001240 0.000000 0.000000 0.000000
# 2 0.000906 0.015118 -0.008820 0.000000 0.000000 0.000000
# 3 -0.001240 -0.008820 0.011702 0.000000 0.000000 0.000000
# 4 0.000000 0.000000 0.000000 0.078202 0.000000 0.000000
# 5 0.000000 0.000000 0.000000 0.000000 0.004918 0.000000
# 6 0.000000 0.000000 0.000000 0.000000 0.000000 0.093042
#
#
# Mechanical properties :
#
#
# Convention : Reuss Voigt Hill
#
# Bulk Modulus (GPa) = 39.64388 58.12779 48.88584
# Shear Modulus (GPa) = 20.29116 61.10142 40.69629
#
# Velocity S-wave (km/s) = 3.21746 5.58322 4.55656
# Velocity P-wave (km/s) = 5.83335 8.43910 7.25419
#
# Compressibility (1/GPa) = 0.02522457
#
# Stress axis : x y z
#
# Youngs Moduli (GPa) = 59.83177 66.14424 85.45644
#
# Poissons Ratio (x) = -0.05994 0.10600
# Poissons Ratio (y) = -0.05422 0.75376
# Poissons Ratio (z) = 0.07421 0.58342
#
# Static dielectric constant tensor:
#      x y z
#    x 1.853410 0.000000 0.000000 
#    y 0.000000 1.662470 0.000000 
#    z 0.000000 0.000000 1.718710 
# 
# From -- ./inp_files/27658.got.cif
#   From: 2010.05.17/outbox.cif.g08.bks.cpg/sg47_14_cif.got.tgz:27658.got - 2010.06.03 20:15:42.
