data_PCOD9388080
_publ_section_title
;
Structure prediction by ZEFSAII (Michael W. Deem and Ramdas Pophale) SiO2 
 PCOD9388080
Probable space group: P M M M
;
_chemical_formula_sum "Si O2"
_cell_formula_units_Z 52
_cell_length_a 20.541375
_cell_length_b 9.389913
_cell_length_c 14.698411
_cell_angle_alpha 90.000000
_cell_angle_beta 90.000000
_cell_angle_gamma 90.000000
_cell_volume 2835.054856
_symmetry_space_group_name_H-M "P M M M"
_symmetry_group_IT_number 47
_symmetry_cell_setting 'orthorhombic'
loop_
_space_group_symop_operation_xyz
x,y,z
-x,-y,z
x,-y,-z
-x,y,-z
-x,-y,-z
x,y,-z
-x,y,z
x,-y,z
loop_
_atom_site_type_symbol
_atom_site_label
_atom_site_fract_x
_atom_site_fract_y
_atom_site_fract_z
Si Si1 0.574704 0.329874 0.720364
Si Si2 0.302668 0.670463 0.605442
Si Si3 0.075640 0.332367 0.390778
Si Si4 0.000000 0.660590 0.889803
Si Si5 0.579151 0.834885 0.899578
Si Si6 0.809903 0.169549 0.289285
Si Si7 0.870180 0.830836 0.104641
O O1 0.500000 0.284682 0.702539
O O2 0.574227 0.500000 0.732984
O O3 0.624586 0.297001 0.639961
O O4 0.598926 0.257325 0.813391
O O5 0.293885 0.707452 0.500000
O O6 0.292516 0.500000 0.614725
O O7 0.251536 0.753767 0.666683
O O8 0.083129 0.313745 0.500000
O O9 0.088015 0.500000 0.371541
O O10 0.126232 0.234712 0.337797
O O11 0.000000 0.302289 0.368042
O O12 0.065243 0.745329 0.866932
O O13 0.000000 0.500000 0.853093
O O14 0.000000 0.652980 0.000000
O O15 0.500000 0.831024 0.900795
O O16 0.598252 0.000000 0.888368
O O17 0.601087 0.786164 0.000000
O O18 0.816462 0.196975 0.181161
O O19 0.807265 0.000000 0.303346
O O20 0.884660 0.000000 0.106459
O O21 0.853198 0.793872 0.000000
#
# Coordination Sequence:
#
# PCOD9388080 Si02
#       7
#     8   8   8   4   8   8   8
#     4   9  18  33  55  83 110 137 177 228 274 320
#     4  10  22  40  59  78 105 142 178 216 274 342
#     4   9  19  36  56  78 106 141 178 217 267 322
#     4   9  17  29  49  79 108 135 174 221 263 304
#     4   8  14  26  46  74 109 146 178 208 250 308
#     4  11  23  36  55  81 107 139 182 226 266 313
#     4   9  19  36  54  73 105 146 181 216 263 318
#
# _framework density 18.341797
#
# number of rings (size 3 to 8) (size 9 to 14) (size 15 to 20)
#    0.000    2.692    0.000    2.077    1.077    6.154 
#    0.000    4.615    0.000    2.769    0.000    3.231 
#    0.000    0.000    0.000    0.000    0.000    0.000 
#
# Total GULP energy -290016.593765 kJ/mol
# GULP energy per Si atom -5577.242188 kJ/mol
# Density = 1.830005 g / cm^3
# Si number density = 18.341797 Si / 1000 Ang^3
#
#
#
# Elastic Constant Matrix: (Units=GPa)
#
#
# Indices 1 2 3 4 5 6 
#
# 1 81.1817 43.8936 66.4127 0.0000 0.0000 0.0000
# 2 43.8936 39.9010 54.1613 0.0000 0.0000 0.0000
# 3 66.4127 54.1613 113.5043 0.0000 0.0000 0.0000
# 4 0.0000 0.0000 0.0000 25.9893 0.0000 0.0000
# 5 0.0000 0.0000 0.0000 0.0000 30.6318 0.0000
# 6 0.0000 0.0000 0.0000 0.0000 0.0000 14.2759
#
#
#
# Elastic Compliance Matrix: (Units=1/GPa)
#
#
# Indices 1 2 3 4 5 6 
#
# 1 0.031517 -0.027361 -0.005385 0.000000 0.000000 0.000000
# 2 -0.027361 0.094894 -0.029272 0.000000 0.000000 0.000000
# 3 -0.005385 -0.029272 0.025929 0.000000 0.000000 0.000000
# 4 0.000000 0.000000 0.000000 0.038477 0.000000 0.000000
# 5 0.000000 0.000000 0.000000 0.000000 0.032646 0.000000
# 6 0.000000 0.000000 0.000000 0.000000 0.000000 0.070048
#
#
# Mechanical properties :
#
#
# Convention : Reuss Voigt Hill
#
# Bulk Modulus (GPa) = 35.33039 62.61358 48.97198
# Shear Modulus (GPa) = 11.71011 18.85404 15.28207
#
# Velocity S-wave (km/s) = 2.52948 3.20961 2.88962
# Velocity P-wave (km/s) = 5.27589 6.92435 6.15555
#
# Compressibility (1/GPa) = 0.02830424
#
# Stress axis : x y z
#
# Youngs Moduli (GPa) = 31.72875 10.53808 38.56735
#
# Poissons Ratio (x) = 0.28834 0.20768
# Poissons Ratio (y) = 0.86814 1.12892
# Poissons Ratio (z) = 0.17086 0.30847
#
# Static dielectric constant tensor:
#      x y z
#    x 1.626540 0.000000 0.000000 
#    y 0.000000 1.609420 0.000000 
#    z 0.000000 0.000000 1.648280 
# 
# From -- ./inp_files/24979.got.cif
#   From: 2010.05.17/outbox.cif.g08.bks.cpg/sg47_13_cif.got.tgz:24979.got - 2010.06.03 20:15:42.
