data_PCOD9388938
_publ_section_title
;
Structure prediction by ZEFSAII (Michael W. Deem and Ramdas Pophale) SiO2 
 PCOD9388938
Probable space group: P M M M
;
_chemical_formula_sum "Si O2"
_cell_formula_units_Z 52
_cell_length_a 7.317312
_cell_length_b 9.526831
_cell_length_c 34.583415
_cell_angle_alpha 90.000000
_cell_angle_beta 90.000000
_cell_angle_gamma 90.000000
_cell_volume 2410.837346
_symmetry_space_group_name_H-M "P M M M"
_symmetry_group_IT_number 47
_symmetry_cell_setting 'orthorhombic'
loop_
_space_group_symop_operation_xyz
x,y,z
-x,-y,z
x,-y,-z
-x,y,-z
-x,-y,-z
x,y,-z
-x,y,z
x,-y,z
loop_
_atom_site_type_symbol
_atom_site_label
_atom_site_fract_x
_atom_site_fract_y
_atom_site_fract_z
Si Si1 0.276983 0.338807 0.117091
Si Si2 0.282098 0.659802 0.735444
Si Si3 0.777288 0.338103 0.500000
Si Si4 0.722393 0.838256 0.956486
Si Si5 0.276737 0.161135 0.808152
Si Si6 0.776768 0.838582 0.424996
Si Si7 0.782277 0.340033 0.352277
O O1 0.500000 0.338790 0.116965
O O2 0.218744 0.500000 0.119475
O O3 0.217431 0.263405 0.077641
O O4 0.220459 0.249472 0.154359
O O5 0.500000 0.651678 0.740297
O O6 0.210936 0.500000 0.738952
O O7 0.215138 0.761487 0.769072
O O8 0.249473 0.708560 0.691608
O O9 0.718000 0.500000 0.500000
O O10 0.720718 0.253973 0.538226
O O11 0.000000 0.339947 0.500000
O O12 0.500000 0.836818 0.956349
O O13 0.776434 0.000000 0.949311
O O14 0.779542 0.798909 0.000000
O O15 0.500000 0.160184 0.808066
O O16 0.218053 0.000000 0.810075
O O17 0.715299 0.763184 0.385584
O O18 0.000000 0.840138 0.424994
O O19 0.718151 0.000000 0.427771
O O20 0.710958 0.500000 0.355869
O O21 0.000000 0.348523 0.357366
#
# Coordination Sequence:
#
# PCOD9388938 Si02
#       7
#     8   8   4   8   8   8   8
#     4   9  15  21  30  44  62  85 115 153 195 236
#     4   9  17  29  44  61  81 105 135 171 206 239
#     4   9  15  23  37  57  82 111 140 169 202 240
#     4   8  13  20  28  38  55  81 113 149 189 233
#     4   9  16  25  37  52  70  93 123 160 200 240
#     4   9  16  25  38  58  84 111 138 169 203 238
#     4   9  17  29  44  62  85 112 139 166 200 243
#
# _framework density 21.569271000000001
#
# number of rings (size 3 to 8) (size 9 to 14) (size 15 to 20)
#    0.000    3.154    0.000    2.077    0.000    7.385 
#    0.000    1.538    0.000    0.000    0.000    0.538 
#    0.000    4.308    0.000    0.000    0.000    0.769 
#
# Total GULP energy -290421.624025 kJ/mol
# GULP energy per Si atom -5585.031231 kJ/mol
# Density = 2.152018 g / cm^3
# Si number density = 21.569271 Si / 1000 Ang^3
#
#
#
# Elastic Constant Matrix: (Units=GPa)
#
#
# Indices 1 2 3 4 5 6 
#
# 1 86.5982 6.7966 2.3957 0.0000 0.0000 0.0000
# 2 6.7966 205.3507 174.5394 0.0000 0.0000 0.0000
# 3 2.3957 174.5394 245.5021 0.0000 0.0000 0.0000
# 4 0.0000 0.0000 0.0000 39.1222 0.0000 0.0000
# 5 0.0000 0.0000 0.0000 0.0000 6.6220 0.0000
# 6 0.0000 0.0000 0.0000 0.0000 0.0000 -12.6777
#
#
#
# Elastic Compliance Matrix: (Units=1/GPa)
#
#
# Indices 1 2 3 4 5 6 
#
# 1 0.011593 -0.000727 0.000403 0.000000 0.000000 0.000000
# 2 -0.000727 0.012351 -0.008774 0.000000 0.000000 0.000000
# 3 0.000403 -0.008774 0.010307 0.000000 0.000000 0.000000
# 4 0.000000 0.000000 0.000000 0.025561 0.000000 0.000000
# 5 0.000000 0.000000 0.000000 0.000000 0.151012 0.000000
# 6 0.000000 0.000000 0.000000 0.000000 0.000000 -0.078878
#
#
# Mechanical properties :
#
#
# Convention : Reuss Voigt Hill
#
# Bulk Modulus (GPa) = 62.27596 100.54603 81.41099
# Shear Modulus (GPa) = 32.15572 30.19459 31.17515
#
# Velocity S-wave (km/s) = 3.86529 3.74557 3.80590
# Velocity P-wave (km/s) = 6.98970 8.08841 7.55904
#
# Compressibility (1/GPa) = 0.01605756
#
# Stress axis : x y z
#
# Youngs Moduli (GPa) = 86.25555 80.96250 97.01866
#
# Poissons Ratio (x) = 0.05883 -0.03915
# Poissons Ratio (y) = 0.06268 0.85125
# Poissons Ratio (z) = -0.03480 0.71037
#
# Static dielectric constant tensor:
#      x y z
#    x 1.951800 0.000000 0.000000 
#    y 0.000000 1.728980 0.000000 
#    z 0.000000 0.000000 1.736530 
# 
# From -- ./inp_files/4823.got.cif
#   From: 2010.05.17/outbox.cif.g08.bks.cpg/sg47_3_cif.got.tgz:4823.got - 2010.06.03 20:15:42.
