data_PCOD9388359
_publ_section_title
;
Structure prediction by ZEFSAII (Michael W. Deem and Ramdas Pophale) SiO2 
 PCOD9388359
Probable space group: P M M M
;
_chemical_formula_sum "Si O2"
_cell_formula_units_Z 52
_cell_length_a 21.413073
_cell_length_b 7.838504
_cell_length_c 13.547734
_cell_angle_alpha 90.000000
_cell_angle_beta 90.000000
_cell_angle_gamma 90.000000
_cell_volume 2273.939171
_symmetry_space_group_name_H-M "P M M M"
_symmetry_group_IT_number 47
_symmetry_cell_setting 'orthorhombic'
loop_
_space_group_symop_operation_xyz
x,y,z
-x,-y,z
x,-y,-z
-x,y,-z
-x,-y,-z
x,y,-z
-x,y,z
x,-y,z
loop_
_atom_site_type_symbol
_atom_site_label
_atom_site_fract_x
_atom_site_fract_y
_atom_site_fract_z
Si Si1 0.072565 0.706129 0.612838
Si Si2 0.297736 0.793285 0.607172
Si Si3 0.735855 0.691822 0.823751
Si Si4 0.567894 0.791576 0.678574
Si Si5 0.870714 0.801244 0.809226
Si Si6 0.606875 0.803163 0.892546
Si Si7 0.000000 0.198260 0.883269
O O1 0.085336 0.756767 0.500000
O O2 0.075723 0.500000 0.618245
O O3 0.120006 0.782846 0.691550
O O4 0.000000 0.754657 0.635103
O O5 0.273506 0.738228 0.500000
O O6 0.266892 0.721876 0.705733
O O7 0.370887 0.743957 0.617589
O O8 0.293683 0.000000 0.612239
O O9 0.717856 0.500000 0.847246
O O10 0.807383 0.723432 0.850299
O O11 0.681683 0.802090 0.873567
O O12 0.500000 0.737300 0.641948
O O13 0.578027 0.730559 0.791729
O O14 0.568424 0.000000 0.680173
O O15 0.935157 0.722153 0.848714
O O16 0.868511 0.000000 0.835965
O O17 0.586125 0.000000 0.895902
O O18 0.593077 0.726123 0.000000
O O19 0.000000 0.000000 0.846556
O O20 0.000000 0.193549 0.000000
#
# Coordination Sequence:
#
# PCOD9388359 Si02
#       7
#     8   8   8   8   8   8   4
#     4   9  18  33  53  77 107 140 169 202 252 312
#     4   9  18  34  55  79 109 145 185 226 266 313
#     4  11  23  37  54  77 106 141 181 226 272 321
#     4   8  14  26  48  82 117 142 171 217 271 322
#     4  11  21  36  58  82 106 136 175 219 268 320
#     4   9  18  34  55  78 106 141 180 223 270 319
#     4   9  20  38  58  81 106 132 165 207 258 317
#
# _framework density 22.867805000000001
#
# number of rings (size 3 to 8) (size 9 to 14) (size 15 to 20)
#    0.000    2.538    0.769    3.231    0.000    2.769 
#    0.000    5.385    0.000   10.615    0.000    8.615 
#    0.000    0.000    0.000    0.000    0.000    0.000 
#
# Total GULP energy -290261.827662 kJ/mol
# GULP energy per Si atom -5581.958224 kJ/mol
# Density = 2.281576 g / cm^3
# Si number density = 22.867805 Si / 1000 Ang^3
#
#
#
# Elastic Constant Matrix: (Units=GPa)
#
#
# Indices 1 2 3 4 5 6 
#
# 1 81.8282 -2.7570 -19.3966 0.0000 0.0000 0.0000
# 2 -2.7570 39.4243 -5.0469 0.0000 0.0000 0.0000
# 3 -19.3966 -5.0469 44.7193 0.0000 0.0000 0.0000
# 4 0.0000 0.0000 0.0000 158.4830 0.0000 0.0000
# 5 0.0000 0.0000 0.0000 0.0000 -2.4631 0.0000
# 6 0.0000 0.0000 0.0000 0.0000 0.0000 -22.7103
#
#
#
# Elastic Compliance Matrix: (Units=1/GPa)
#
#
# Indices 1 2 3 4 5 6 
#
# 1 0.013739 0.001749 0.006157 0.000000 0.000000 0.000000
# 2 0.001749 0.025960 0.003688 0.000000 0.000000 0.000000
# 3 0.006157 0.003688 0.025448 0.000000 0.000000 0.000000
# 4 0.000000 0.000000 0.000000 0.006310 0.000000 0.000000
# 5 0.000000 0.000000 0.000000 0.000000 -0.405994 0.000000
# 6 0.000000 0.000000 0.000000 0.000000 0.000000 -0.044033
#
#
# Mechanical properties :
#
#
# Convention : Reuss Voigt Hill
#
# Bulk Modulus (GPa) = 11.32062 12.39676 11.85869
# Shear Modulus (GPa) = -13.42958 39.54006 13.05524
#
# Velocity S-wave (km/s) = -2.42599 4.16272 2.39194
# Velocity P-wave (km/s) = 1.69884 5.34202 3.58128
#
# Compressibility (1/GPa) = 0.08833441
#
# Stress axis : x y z
#
# Youngs Moduli (GPa) = 72.78549 38.52150 39.29530
#
# Poissons Ratio (x) = -0.06737 -0.24192
# Poissons Ratio (y) = -0.12730 -0.14493
# Poissons Ratio (z) = -0.44811 -0.14208
#
# Static dielectric constant tensor:
#      x y z
#    x 1.862490 0.000000 0.000000 
#    y 0.000000 1.855900 0.000000 
#    z 0.000000 0.000000 1.862990 
# 
# From -- ./inp_files/21433.got.cif
#   From: 2010.05.17/outbox.cif.g08.bks.cpg/sg47_11_cif.got.tgz:21433.got - 2010.06.03 20:15:42.
