data_PCOD9388632
_publ_section_title
;
Structure prediction by ZEFSAII (Michael W. Deem and Ramdas Pophale) SiO2 
 PCOD9388632
Probable space group: P M M M
;
_chemical_formula_sum "Si O2"
_cell_formula_units_Z 44
_cell_length_a 7.940996
_cell_length_b 9.387310
_cell_length_c 30.463646
_cell_angle_alpha 90.000000
_cell_angle_beta 90.000000
_cell_angle_gamma 90.000000
_cell_volume 2270.900036
_symmetry_space_group_name_H-M "P M M M"
_symmetry_group_IT_number 47
_symmetry_cell_setting 'orthorhombic'
loop_
_space_group_symop_operation_xyz
x,y,z
-x,-y,z
x,-y,-z
-x,y,-z
-x,-y,-z
x,y,-z
-x,y,z
x,-y,z
loop_
_atom_site_type_symbol
_atom_site_label
_atom_site_fract_x
_atom_site_fract_y
_atom_site_fract_z
Si Si1 0.203581 0.668606 0.816352
Si Si2 0.797682 0.339145 0.282258
Si Si3 0.700052 0.841257 0.366481
Si Si4 0.000000 0.666189 0.052573
Si Si5 0.693029 0.829945 0.901840
Si Si6 0.797056 0.663463 0.548500
O O1 0.239918 0.500000 0.823171
O O2 0.257486 0.705633 0.766604
O O3 0.287130 0.766392 0.852907
O O4 0.000000 0.684672 0.819873
O O5 0.734655 0.500000 0.290440
O O6 0.753406 0.239722 0.322540
O O7 0.000000 0.346379 0.279888
O O8 0.500000 0.850453 0.365283
O O9 0.745971 0.757250 0.410482
O O10 0.773400 0.000000 0.367543
O O11 0.165621 0.746795 0.070384
O O12 0.000000 0.500000 0.067388
O O13 0.000000 0.668433 0.000000
O O14 0.500000 0.805794 0.916861
O O15 0.724476 0.000000 0.902381
O O16 0.739888 0.713063 0.500000
O O17 0.739324 0.500000 0.554288
O O18 0.000000 0.660784 0.547707
#
# Coordination Sequence:
#
# PCOD9388632 Si02
#       6
#     8   8   8   4   8   8
#     4   9  18  35  60  88 118 155 200 249 300 354
#     4   9  19  36  58  83 110 145 192 240 283 333
#     4  11  24  37  49  73 111 148 181 223 275 332
#     4  11  25  45  69  95 125 165 215 269 316 363
#     4  11  24  40  62  95 132 169 208 254 313 378
#     4   9  19  37  60  82 101 126 168 222 276 334
#
# _framework density 19.375575999999999
#
# number of rings (size 3 to 8) (size 9 to 14) (size 15 to 20)
#    0.000    2.091    0.909    3.545    0.000    9.091 
#    0.000   10.000    0.000    0.000    0.000    0.000 
#    0.000    0.000    0.000    0.000    0.000    0.000 
#
# Total GULP energy -245644.152417 kJ/mol
# GULP energy per Si atom -5582.821646 kJ/mol
# Density = 1.933148 g / cm^3
# Si number density = 19.375576 Si / 1000 Ang^3
#
#
#
# Elastic Constant Matrix: (Units=GPa)
#
#
# Indices 1 2 3 4 5 6 
#
# 1 76.3228 53.1533 44.5102 0.0000 0.0000 0.0000
# 2 53.1533 117.5637 84.9642 0.0000 0.0000 0.0000
# 3 44.5102 84.9642 139.3960 0.0000 0.0000 0.0000
# 4 0.0000 0.0000 0.0000 -34.5571 0.0000 0.0000
# 5 0.0000 0.0000 0.0000 0.0000 -28.6912 0.0000
# 6 0.0000 0.0000 0.0000 0.0000 0.0000 27.0996
#
#
#
# Elastic Compliance Matrix: (Units=1/GPa)
#
#
# Indices 1 2 3 4 5 6 
#
# 1 0.019300 -0.007636 -0.001508 0.000000 0.000000 0.000000
# 2 -0.007636 0.018224 -0.008670 0.000000 0.000000 0.000000
# 3 -0.001508 -0.008670 0.012940 0.000000 0.000000 0.000000
# 4 0.000000 0.000000 0.000000 -0.028938 0.000000 0.000000
# 5 0.000000 0.000000 0.000000 0.000000 -0.034854 0.000000
# 6 0.000000 0.000000 0.000000 0.000000 0.000000 0.036901
#
#
# Mechanical properties :
#
#
# Convention : Reuss Voigt Hill
#
# Bulk Modulus (GPa) = 67.40459 77.61532 72.50996
# Shear Modulus (GPa) = 77.94792 2.81393 40.38092
#
# Velocity S-wave (km/s) = 6.34959 1.20642 4.57016
# Velocity P-wave (km/s) = 9.41384 6.48737 8.08413
#
# Compressibility (1/GPa) = 0.01483578
#
# Stress axis : x y z
#
# Youngs Moduli (GPa) = 51.81446 54.87297 77.28110
#
# Poissons Ratio (x) = 0.41899 0.11658
# Poissons Ratio (y) = 0.39564 0.67000
# Poissons Ratio (z) = 0.07816 0.47573
#
# Static dielectric constant tensor:
#      x y z
#    x 1.694230 0.000000 0.000000 
#    y 0.000000 1.728120 0.000000 
#    z 0.000000 0.000000 1.684010 
# 
# From -- ./inp_files/33941.got.cif
#   From: 2010.05.17/outbox.cif.g08.bks.cpg/sg47_17_cif.got.tgz:33941.got - 2010.06.03 20:15:42.
