data_PCOD9388884
_publ_section_title
;
Structure prediction by ZEFSAII (Michael W. Deem and Ramdas Pophale) SiO2 
 PCOD9388884
Probable space group: P M M M
;
_chemical_formula_sum "Si O2"
_cell_formula_units_Z 44
_cell_length_a 18.310005
_cell_length_b 7.336320
_cell_length_c 15.030297
_cell_angle_alpha 90.000000
_cell_angle_beta 90.000000
_cell_angle_gamma 90.000000
_cell_volume 2018.990575
_symmetry_space_group_name_H-M "P M M M"
_symmetry_group_IT_number 47
_symmetry_cell_setting 'orthorhombic'
loop_
_space_group_symop_operation_xyz
x,y,z
-x,-y,z
x,-y,-z
-x,y,-z
-x,-y,-z
x,y,-z
-x,y,z
x,-y,z
loop_
_atom_site_type_symbol
_atom_site_label
_atom_site_fract_x
_atom_site_fract_y
_atom_site_fract_z
Si Si1 0.857825 0.722326 0.785558
Si Si2 0.417456 0.713011 0.208182
Si Si3 0.085288 0.721601 0.598643
Si Si4 0.000000 0.722123 0.102580
Si Si5 0.281026 0.723054 0.101566
Si Si6 0.414528 0.781002 0.404690
O O1 0.857646 0.500000 0.784762
O O2 0.868989 0.782295 0.683832
O O3 0.927839 0.777909 0.843979
O O4 0.784199 0.781239 0.833870
O O5 0.500000 0.790736 0.206837
O O6 0.424622 0.500000 0.187671
O O7 0.358540 0.787557 0.139798
O O8 0.385850 0.723816 0.308776
O O9 0.108981 0.781172 0.500000
O O10 0.086613 0.500000 0.598479
O O11 0.000000 0.772567 0.610593
O O12 0.000000 0.500000 0.101778
O O13 0.000000 0.781163 0.000000
O O14 0.281381 0.500000 0.102653
O O15 0.268786 0.778252 0.000000
O O16 0.382831 0.719016 0.500000
O O17 0.500000 0.724252 0.404396
O O18 0.413101 0.000000 0.405133
#
# Coordination Sequence:
#
# PCOD9388884 Si02
#       6
#     8   8   8   4   8   8
#     4   9  14  21  31  45  65  91 127 169 209 250
#     4   9  17  28  42  61  84 113 149 182 212 251
#     4   8  12  18  28  41  58  83 116 153 194 242
#     4   9  14  18  27  43  61  85 121 164 204 244
#     4   9  17  27  37  50  72 104 141 182 222 255
#     4   8  14  26  45  67  88 110 137 171 214 261
#
# _framework density 21.793066
#
# number of rings (size 3 to 8) (size 9 to 14) (size 15 to 20)
#    0.000    3.364    0.909    1.636    0.000    2.909 
#    0.000    4.545    0.000    3.818    0.000    2.545 
#    0.000    0.000    0.000    0.818    0.000    7.727 
#
# Total GULP energy -245392.148423 kJ/mol
# GULP energy per Si atom -5577.094282 kJ/mol
# Density = 2.174346 g / cm^3
# Si number density = 21.793066 Si / 1000 Ang^3
#
#
#
# Elastic Constant Matrix: (Units=GPa)
#
#
# Indices 1 2 3 4 5 6 
#
# 1 110.3882 6.7272 97.7381 0.0000 0.0000 0.0000
# 2 6.7272 82.3791 2.8885 0.0000 0.0000 0.0000
# 3 97.7381 2.8885 223.3363 0.0000 0.0000 0.0000
# 4 0.0000 0.0000 0.0000 17.8934 0.0000 0.0000
# 5 0.0000 0.0000 0.0000 0.0000 37.6975 0.0000
# 6 0.0000 0.0000 0.0000 0.0000 0.0000 -19.2769
#
#
#
# Elastic Compliance Matrix: (Units=1/GPa)
#
#
# Indices 1 2 3 4 5 6 
#
# 1 0.014869 -0.000987 -0.006494 0.000000 0.000000 0.000000
# 2 -0.000987 0.012210 0.000274 0.000000 0.000000 0.000000
# 3 -0.006494 0.000274 0.007316 0.000000 0.000000 0.000000
# 4 0.000000 0.000000 0.000000 0.055886 0.000000 0.000000
# 5 0.000000 0.000000 0.000000 0.000000 0.026527 0.000000
# 6 0.000000 0.000000 0.000000 0.000000 0.000000 -0.051876
#
#
# Mechanical properties :
#
#
# Convention : Reuss Voigt Hill
#
# Bulk Modulus (GPa) = 50.04735 70.09013 60.06874
# Shear Modulus (GPa) = 58.13425 27.84613 42.99019
#
# Velocity S-wave (km/s) = 5.17044 3.57844 4.44628
# Velocity P-wave (km/s) = 7.65894 7.02176 7.34726
#
# Compressibility (1/GPa) = 0.01998108
#
# Stress axis : x y z
#
# Youngs Moduli (GPa) = 67.25287 81.90036 136.68386
#
# Poissons Ratio (x) = 0.08080 0.88768
# Poissons Ratio (y) = 0.06635 -0.03743
# Poissons Ratio (z) = 0.43677 -0.02243
#
# Static dielectric constant tensor:
#      x y z
#    x 1.761200 0.000000 0.000000 
#    y 0.000000 1.826460 0.000000 
#    z 0.000000 0.000000 1.795580 
# 
# From -- ./inp_files/23483.got.cif
#   From: 2010.05.17/outbox.cif.g08.bks.cpg/sg47_12_cif.got.tgz:23483.got - 2010.06.03 20:15:42.
