data_PCOD9388861
_publ_section_title
;
Structure prediction by ZEFSAII (Michael W. Deem and Ramdas Pophale) SiO2 
 PCOD9388861
Probable space group: P M M M
;
_chemical_formula_sum "Si O2"
_cell_formula_units_Z 52
_cell_length_a 9.261397
_cell_length_b 7.337464
_cell_length_c 35.668271
_cell_angle_alpha 90.000000
_cell_angle_beta 90.000000
_cell_angle_gamma 90.000000
_cell_volume 2423.843315
_symmetry_space_group_name_H-M "P M M M"
_symmetry_group_IT_number 47
_symmetry_cell_setting 'orthorhombic'
loop_
_space_group_symop_operation_xyz
x,y,z
-x,-y,z
x,-y,-z
-x,y,-z
-x,-y,-z
x,y,-z
-x,y,z
x,-y,z
loop_
_atom_site_type_symbol
_atom_site_label
_atom_site_fract_x
_atom_site_fract_y
_atom_site_fract_z
Si Si1 0.673724 0.280717 0.040396
Si Si2 0.333457 0.281543 0.879164
Si Si3 0.166369 0.777618 0.425223
Si Si4 0.664613 0.216072 0.796972
Si Si5 0.834218 0.777224 0.724114
Si Si6 0.333591 0.777629 0.500000
Si Si7 0.333834 0.777704 0.350531
O O1 0.500000 0.249055 0.041048
O O2 0.692796 0.500000 0.039610
O O3 0.729704 0.216000 0.080976
O O4 0.727912 0.211506 0.000000
O O5 0.500000 0.214813 0.877287
O O6 0.338734 0.500000 0.881802
O O7 0.269286 0.240999 0.838486
O O8 0.250695 0.719975 0.462504
O O9 0.247658 0.719842 0.387501
O O10 0.000000 0.720030 0.425660
O O11 0.166616 0.000000 0.425220
O O12 0.500000 0.289865 0.796603
O O13 0.758496 0.285206 0.762449
O O14 0.653046 0.000000 0.791533
O O15 0.744965 0.720523 0.687565
O O16 0.000000 0.719691 0.721907
O O17 0.834144 0.000000 0.724264
O O18 0.500000 0.720018 0.500000
O O19 0.333407 0.000000 0.500000
O O20 0.500000 0.719785 0.351528
O O21 0.333643 0.000000 0.350602
#
# Coordination Sequence:
#
# PCOD9388861 Si02
#       7
#     8   8   8   8   8   4   8
#     4   7   9  14  26  45  68  93 121 151 180 212
#     4   8  13  21  34  52  73  98 127 155 183 220
#     4   9  15  21  28  38  53  74 101 135 177 223
#     4   9  16  25  37  53  73  96 121 151 188 226
#     4   9  16  25  36  49  65  86 113 144 178 218
#     4   9  15  21  27  35  49  71 101 137 178 223
#     4   9  15  22  32  45  60  78 103 138 179 219
#
# _framework density 21.453533
#
# number of rings (size 3 to 8) (size 9 to 14) (size 15 to 20)
#    0.000    3.462    0.000    3.000    0.000    6.462 
#    0.000    0.000    0.000    0.923    0.000    3.231 
#    0.000    0.615    0.000    7.692    0.000    7.077 
#
# Total GULP energy -289939.013500 kJ/mol
# GULP energy per Si atom -5575.750260 kJ/mol
# Density = 2.140470 g / cm^3
# Si number density = 21.453533 Si / 1000 Ang^3
#
#
#
# Elastic Constant Matrix: (Units=GPa)
#
#
# Indices 1 2 3 4 5 6 
#
# 1 135.5581 4.7788 120.9756 0.0000 0.0000 0.0000
# 2 4.7788 81.1687 4.9759 0.0000 0.0000 0.0000
# 3 120.9756 4.9759 289.5845 0.0000 0.0000 0.0000
# 4 0.0000 0.0000 0.0000 6.0008 0.0000 0.0000
# 5 0.0000 0.0000 0.0000 0.0000 -11.1728 0.0000
# 6 0.0000 0.0000 0.0000 0.0000 0.0000 -9.2086
#
#
#
# Elastic Compliance Matrix: (Units=1/GPa)
#
#
# Indices 1 2 3 4 5 6 
#
# 1 0.011774 -0.000392 -0.004912 0.000000 0.000000 0.000000
# 2 -0.000392 0.012346 -0.000048 0.000000 0.000000 0.000000
# 3 -0.004912 -0.000048 0.005506 0.000000 0.000000 0.000000
# 4 0.000000 0.000000 0.000000 0.166644 0.000000 0.000000
# 5 0.000000 0.000000 0.000000 0.000000 -0.089503 0.000000
# 6 0.000000 0.000000 0.000000 0.000000 0.000000 -0.108594
#
#
# Mechanical properties :
#
#
# Convention : Reuss Voigt Hill
#
# Bulk Modulus (GPa) = 52.84980 85.30799 69.07889
# Shear Modulus (GPa) = 329.26966 22.16262 175.71614
#
# Velocity S-wave (km/s) = 12.40216 3.21760 9.05998
# Velocity P-wave (km/s) = 15.15826 7.32491 11.90435
#
# Compressibility (1/GPa) = 0.01892155
#
# Stress axis : x y z
#
# Youngs Moduli (GPa) = 84.92994 80.99741 181.61653
#
# Poissons Ratio (x) = 0.03176 0.89212
# Poissons Ratio (y) = 0.03330 0.00878
# Poissons Ratio (z) = 0.41718 0.00392
#
# Static dielectric constant tensor:
#      x y z
#    x 1.710790 0.000000 0.000000 
#    y 0.000000 1.923940 0.000000 
#    z 0.000000 0.000000 1.794700 
# 
# From -- ./inp_files/34276.got.cif
#   From: 2010.05.17/outbox.cif.g08.bks.cpg/sg47_18_cif.got.tgz:34276.got - 2010.06.03 20:15:42.
