data_PCOD9388828
_publ_section_title
;
Structure prediction by ZEFSAII (Michael W. Deem and Ramdas Pophale) SiO2 
 PCOD9388828
Probable space group: P M M M
;
_chemical_formula_sum "Si O2"
_cell_formula_units_Z 44
_cell_length_a 9.393642
_cell_length_b 30.142806
_cell_length_c 7.377650
_cell_angle_alpha 90.000000
_cell_angle_beta 90.000000
_cell_angle_gamma 90.000000
_cell_volume 2088.986972
_symmetry_space_group_name_H-M "P M M M"
_symmetry_group_IT_number 47
_symmetry_cell_setting 'orthorhombic'
loop_
_space_group_symop_operation_xyz
x,y,z
-x,-y,z
x,-y,-z
-x,y,-z
-x,-y,-z
x,y,-z
-x,y,z
x,-y,z
loop_
_atom_site_type_symbol
_atom_site_label
_atom_site_fract_x
_atom_site_fract_y
_atom_site_fract_z
Si Si1 0.837818 0.096985 0.214101
Si Si2 0.670553 0.547698 0.218169
Si Si3 0.336550 0.818334 0.778257
Si Si4 0.161878 0.000000 0.285356
Si Si5 0.334182 0.355490 0.778669
Si Si6 0.163627 0.731199 0.778734
O O1 0.742310 0.137000 0.284444
O O2 0.000000 0.097156 0.288509
O O3 0.774484 0.047563 0.235264
O O4 0.850184 0.104541 0.000000
O O5 0.500000 0.547936 0.250807
O O6 0.726082 0.500000 0.286027
O O7 0.721008 0.595967 0.281752
O O8 0.688973 0.547254 0.000000
O O9 0.500000 0.816678 0.720307
O O10 0.250130 0.774730 0.722227
O O11 0.337224 0.818538 0.000000
O O12 0.152555 0.000000 0.500000
O O13 0.000000 0.000000 0.208186
O O14 0.500000 0.350392 0.725826
O O15 0.241401 0.313827 0.719844
O O16 0.333164 0.355897 0.000000
O O17 0.000000 0.733058 0.721217
O O18 0.164363 0.730995 0.000000
#
# Coordination Sequence:
#
# PCOD9388828 Si02
#       6
#     8   8   8   4   8   8
#     4   9  16  27  44  64  84 106 133 163 193 225
#     4   7   9  13  21  32  44  60  88 127 167 207
#     4   9  16  25  37  53  72  93 118 149 185 225
#     4   9  17  29  46  67  88 110 136 163 190 224
#     4   8  12  17  25  36  50  70  97 130 170 216
#     4   9  15  21  29  42  61  83 106 135 175 223
#
# _framework density 21.062840999999999
#
# number of rings (size 3 to 8) (size 9 to 14) (size 15 to 20)
#    0.000    3.545    0.000    3.000    0.000    5.455 
#    0.000    0.455    0.000    3.818    0.000    3.818 
#    0.000    0.000    0.000    0.000    0.000    0.000 
#
# Total GULP energy -245239.297779 kJ/mol
# GULP energy per Si atom -5573.620404 kJ/mol
# Density = 2.101490 g / cm^3
# Si number density = 21.062841 Si / 1000 Ang^3
#
#
#
# Elastic Constant Matrix: (Units=GPa)
#
#
# Indices 1 2 3 4 5 6 
#
# 1 111.2701 116.1078 4.7783 0.0000 0.0000 0.0000
# 2 116.1078 282.0301 3.6946 0.0000 0.0000 0.0000
# 3 4.7783 3.6946 72.2019 0.0000 0.0000 0.0000
# 4 0.0000 0.0000 0.0000 -39.9753 0.0000 0.0000
# 5 0.0000 0.0000 0.0000 0.0000 -16.9745 0.0000
# 6 0.0000 0.0000 0.0000 0.0000 0.0000 41.9395
#
#
#
# Elastic Compliance Matrix: (Units=1/GPa)
#
#
# Indices 1 2 3 4 5 6 
#
# 1 0.015792 -0.006492 -0.000713 0.000000 0.000000 0.000000
# 2 -0.006492 0.006217 0.000112 0.000000 0.000000 0.000000
# 3 -0.000713 0.000112 0.013892 0.000000 0.000000 0.000000
# 4 0.000000 0.000000 0.000000 -0.025015 0.000000 0.000000
# 5 0.000000 0.000000 0.000000 0.000000 -0.058912 0.000000
# 6 0.000000 0.000000 0.000000 0.000000 0.000000 0.023844
#
#
# Mechanical properties :
#
#
# Convention : Reuss Voigt Hill
#
# Bulk Modulus (GPa) = 46.05398 79.40707 62.73052
# Shear Modulus (GPa) = -1812.65627 19.72603 -896.46512
#
# Velocity S-wave (km/s) = -29.36771 3.06360 -20.65281
# Velocity P-wave (km/s) = 33.58627 7.09198 23.21359
#
# Compressibility (1/GPa) = 0.02171365
#
# Stress axis : x y z
#
# Youngs Moduli (GPa) = 63.32308 160.85099 71.98633
#
# Poissons Ratio (x) = 1.04425 0.05132
# Poissons Ratio (y) = 0.41109 -0.00803
# Poissons Ratio (z) = 0.04514 -0.01794
#
# Static dielectric constant tensor:
#      x y z
#    x 1.709370 0.000000 0.000000 
#    y 0.000000 1.782990 0.000000 
#    z 0.000000 0.000000 1.790890 
# 
# From -- ./inp_files/2057.got.cif
#   From: 2010.05.17/outbox.cif.g08.bks.cpg/sg47_2_cif.got.tgz:2057.got - 2010.06.03 20:15:42.
