data_PCOD9388521
_publ_section_title
;
Structure prediction by ZEFSAII (Michael W. Deem and Ramdas Pophale) SiO2 
 PCOD9388521
Probable space group: P M M M
;
_chemical_formula_sum "Si O2"
_cell_formula_units_Z 40
_cell_length_a 7.418794
_cell_length_b 7.475649
_cell_length_c 31.865123
_cell_angle_alpha 90.000000
_cell_angle_beta 90.000000
_cell_angle_gamma 90.000000
_cell_volume 1767.249279
_symmetry_space_group_name_H-M "P M M M"
_symmetry_group_IT_number 47
_symmetry_cell_setting 'orthorhombic'
loop_
_space_group_symop_operation_xyz
x,y,z
-x,-y,z
x,-y,-z
-x,y,-z
-x,-y,-z
x,y,-z
-x,y,z
x,-y,z
loop_
_atom_site_type_symbol
_atom_site_label
_atom_site_fract_x
_atom_site_fract_y
_atom_site_fract_z
Si Si1 0.215349 0.298220 0.864413
Si Si2 0.279312 0.000000 0.702280
Si Si3 0.279634 0.293851 0.363474
Si Si4 0.787393 0.282269 0.045162
Si Si5 0.713781 0.717105 0.545120
Si Si6 0.711844 0.000000 0.796878
O O1 0.283244 0.500000 0.857497
O O2 0.285346 0.225626 0.909420
O O3 0.000000 0.309821 0.869893
O O4 0.244595 0.171062 0.825260
O O5 0.223572 0.171424 0.675035
O O6 0.500000 0.000000 0.702744
O O7 0.211777 0.000000 0.749926
O O8 0.500000 0.291737 0.364821
O O9 0.225198 0.500000 0.358446
O O10 0.217822 0.224802 0.409344
O O11 0.776423 0.500000 0.046063
O O12 0.000000 0.235514 0.044067
O O13 0.711138 0.224183 0.000000
O O14 0.787930 0.778227 0.500000
O O15 0.500000 0.758396 0.544455
O O16 0.729144 0.500000 0.545695
O O17 0.500000 0.000000 0.791303
#
# Coordination Sequence:
#
# PCOD9388521 Si02
#       6
#     8   4   8   8   8   4
#     4   9  18  34  56  78  99 126 161 201 244 290
#     4   9  18  29  38  52  75 107 151 193 226 265
#     4   8  13  22  35  48  66  96 134 178 223 264
#     4   7  10  20  43  74 100 119 146 189 237 281
#     4   7   9  14  26  44  64  87 119 163 215 264
#     4  11  23  35  48  69  99 133 167 207 250 289
#
# _framework density 22.634046000000001
#
# number of rings (size 3 to 8) (size 9 to 14) (size 15 to 20)
#    0.000    3.800    0.000    3.900    0.000    1.200 
#    0.000    3.000    0.000    6.600    0.000    2.800 
#    0.000    0.000    0.000    0.000    0.000    8.000 
#
# Total GULP energy -222951.045962 kJ/mol
# GULP energy per Si atom -5573.776149 kJ/mol
# Density = 2.258253 g / cm^3
# Si number density = 22.634046 Si / 1000 Ang^3
#
#
#
# Elastic Constant Matrix: (Units=GPa)
#
#
# Indices 1 2 3 4 5 6 
#
# 1 70.7783 1.6863 12.7238 0.0000 0.0000 0.0000
# 2 1.6863 106.5762 100.0804 0.0000 0.0000 0.0000
# 3 12.7238 100.0804 307.9446 0.0000 0.0000 0.0000
# 4 0.0000 0.0000 0.0000 42.8850 0.0000 0.0000
# 5 0.0000 0.0000 0.0000 0.0000 3.1946 0.0000
# 6 0.0000 0.0000 0.0000 0.0000 0.0000 -13.3484
#
#
#
# Elastic Compliance Matrix: (Units=1/GPa)
#
#
# Indices 1 2 3 4 5 6 
#
# 1 0.014251 0.000471 -0.000742 0.000000 0.000000 0.000000
# 2 0.000471 0.013520 -0.004413 0.000000 0.000000 0.000000
# 3 -0.000742 -0.004413 0.004712 0.000000 0.000000 0.000000
# 4 0.000000 0.000000 0.000000 0.023318 0.000000 0.000000
# 5 0.000000 0.000000 0.000000 0.000000 0.313030 0.000000
# 6 0.000000 0.000000 0.000000 0.000000 0.000000 -0.074915
#
#
# Mechanical properties :
#
#
# Convention : Reuss Voigt Hill
#
# Bulk Modulus (GPa) = 43.26226 79.36445 61.31335
# Shear Modulus (GPa) = 16.07773 31.26681 23.67227
#
# Velocity S-wave (km/s) = 2.66810 3.72076 3.23750
# Velocity P-wave (km/s) = 5.35229 7.32114 6.41272
#
# Compressibility (1/GPa) = 0.02311484
#
# Stress axis : x y z
#
# Youngs Moduli (GPa) = 70.17159 73.96520 212.20996
#
# Poissons Ratio (x) = -0.03486 0.15746
# Poissons Ratio (y) = -0.03307 0.93656
# Poissons Ratio (z) = 0.05207 0.32644
#
# Static dielectric constant tensor:
#      x y z
#    x 1.950990 0.000000 0.000000 
#    y 0.000000 1.822560 0.000000 
#    z 0.000000 0.000000 1.876100 
# 
# From -- ./inp_files/33037.got.cif
#   From: 2010.05.17/outbox.cif.g08.bks.cpg/sg47_17_cif.got.tgz:33037.got - 2010.06.03 20:15:42.
