data_PCOD9388138
_publ_section_title
;
Structure prediction by ZEFSAII (Michael W. Deem and Ramdas Pophale) SiO2 
 PCOD9388138
Probable space group: P M M M
;
_chemical_formula_sum "Si O2"
_cell_formula_units_Z 48
_cell_length_a 8.821092
_cell_length_b 14.412269
_cell_length_c 21.087455
_cell_angle_alpha 90.000000
_cell_angle_beta 90.000000
_cell_angle_gamma 90.000000
_cell_volume 2680.889291
_symmetry_space_group_name_H-M "P M M M"
_symmetry_group_IT_number 47
_symmetry_cell_setting 'orthorhombic'
loop_
_space_group_symop_operation_xyz
x,y,z
-x,-y,z
x,-y,-z
-x,y,-z
-x,-y,-z
x,y,-z
-x,y,z
x,-y,z
loop_
_atom_site_type_symbol
_atom_site_label
_atom_site_fract_x
_atom_site_fract_y
_atom_site_fract_z
Si Si1 0.816887 0.108196 0.752265
Si Si2 0.317676 0.393928 0.574494
Si Si3 0.318227 0.213173 0.872746
Si Si4 0.181511 0.790060 0.622224
Si Si5 0.817622 0.606576 0.073984
Si Si6 0.315552 0.106257 0.000000
Si Si7 0.320885 0.110474 0.500000
O O1 0.747940 0.161925 0.811790
O O2 0.772092 0.159178 0.687097
O O3 0.000000 0.110989 0.756372
O O4 0.770677 0.000000 0.751786
O O5 0.278811 0.378549 0.500000
O O6 0.500000 0.386579 0.579280
O O7 0.275228 0.500000 0.590464
O O8 0.240890 0.314941 0.616107
O O9 0.500000 0.211896 0.870164
O O10 0.259734 0.317676 0.881915
O O11 0.267487 0.158559 0.936316
O O12 0.247998 0.845181 0.562367
O O13 0.000000 0.790747 0.618682
O O14 0.778009 0.500000 0.089203
O O15 0.000000 0.615087 0.077839
O O16 0.774698 0.622966 0.000000
O O17 0.500000 0.106055 0.000000
O O18 0.264011 0.000000 0.000000
O O19 0.500000 0.130943 0.500000
O O20 0.298907 0.000000 0.500000
#
# Coordination Sequence:
#
# PCOD9388138 Si02
#       7
#     8   8   8   8   8   4   4
#     4  10  23  42  59  78 112 156 196 234 281 338
#     4   9  18  34  57  85 118 152 184 226 281 337
#     4  11  21  35  57  85 115 148 187 235 287 338
#     4  11  22  37  59  86 114 147 189 238 286 333
#     4   9  18  34  57  84 115 151 188 229 280 338
#     4   9  18  32  50  77 112 142 175 227 284 333
#     4  11  23  37  56  83 114 147 187 234 282 339
#
# _framework density 17.904506999999999
#
# number of rings (size 3 to 8) (size 9 to 14) (size 15 to 20)
#    0.000    2.000    1.667    3.250    0.000    4.333 
#    0.000    2.500    0.000    3.000    0.000    0.000 
#    0.000    0.000    0.000    0.000    0.000    0.000 
#
# Total GULP energy -268037.812046 kJ/mol
# GULP energy per Si atom -5584.121084 kJ/mol
# Density = 1.786376 g / cm^3
# Si number density = 17.904507 Si / 1000 Ang^3
#
#
#
# Elastic Constant Matrix: (Units=GPa)
#
#
# Indices 1 2 3 4 5 6 
#
# 1 31.1515 53.2043 45.7803 0.0000 0.0000 0.0000
# 2 53.2043 172.1246 103.5734 0.0000 0.0000 0.0000
# 3 45.7803 103.5734 155.5319 0.0000 0.0000 0.0000
# 4 0.0000 0.0000 0.0000 33.1405 0.0000 0.0000
# 5 0.0000 0.0000 0.0000 0.0000 24.8636 0.0000
# 6 0.0000 0.0000 0.0000 0.0000 0.0000 30.5042
#
#
#
# Elastic Compliance Matrix: (Units=1/GPa)
#
#
# Indices 1 2 3 4 5 6 
#
# 1 0.078909 -0.017379 -0.011654 0.000000 0.000000 0.000000
# 2 -0.017379 0.013522 -0.003889 0.000000 0.000000 0.000000
# 3 -0.011654 -0.003889 0.012450 0.000000 0.000000 0.000000
# 4 0.000000 0.000000 0.000000 0.030175 0.000000 0.000000
# 5 0.000000 0.000000 0.000000 0.000000 0.040220 0.000000
# 6 0.000000 0.000000 0.000000 0.000000 0.000000 0.032782
#
#
# Mechanical properties :
#
#
# Convention : Reuss Voigt Hill
#
# Bulk Modulus (GPa) = 25.61649 84.88043 55.24846
# Shear Modulus (GPa) = 17.42695 28.11831 22.77263
#
# Velocity S-wave (km/s) = 3.12320 3.96720 3.57023
# Velocity P-wave (km/s) = 5.22917 8.27618 6.92240
#
# Compressibility (1/GPa) = 0.03903735
#
# Stress axis : x y z
#
# Youngs Moduli (GPa) = 12.67289 73.95448 80.32304
#
# Poissons Ratio (x) = 1.28522 0.93605
# Poissons Ratio (y) = 0.22024 0.31240
# Poissons Ratio (z) = 0.14768 0.28763
#
# Static dielectric constant tensor:
#      x y z
#    x 1.601300 0.000000 0.000000 
#    y 0.000000 1.614050 0.000000 
#    z 0.000000 0.000000 1.582340 
# 
# From -- ./inp_files/26502.got.cif
#   From: 2010.05.17/outbox.cif.g08.bks.cpg/sg47_14_cif.got.tgz:26502.got - 2010.06.03 20:15:42.
