data_PCOD9388908
_publ_section_title
;
Structure prediction by ZEFSAII (Michael W. Deem and Ramdas Pophale) SiO2 
 PCOD9388908
Probable space group: P M M M
;
_chemical_formula_sum "Si O2"
_cell_formula_units_Z 52
_cell_length_a 9.929311
_cell_length_b 37.029685
_cell_length_c 7.755787
_cell_angle_alpha 90.000000
_cell_angle_beta 90.000000
_cell_angle_gamma 90.000000
_cell_volume 2851.642014
_symmetry_space_group_name_H-M "P M M M"
_symmetry_group_IT_number 47
_symmetry_cell_setting 'orthorhombic'
loop_
_space_group_symop_operation_xyz
x,y,z
-x,-y,z
x,-y,-z
-x,y,-z
-x,-y,-z
x,y,-z
-x,y,z
x,-y,z
loop_
_atom_site_type_symbol
_atom_site_label
_atom_site_fract_x
_atom_site_fract_y
_atom_site_fract_z
Si Si1 0.335384 0.958561 0.000000
Si Si2 0.655327 0.829410 0.794855
Si Si3 0.663902 0.907346 0.691168
Si Si4 0.654615 0.249385 0.292355
Si Si5 0.344456 0.540414 0.289441
Si Si6 0.155260 0.605009 0.289477
Si Si7 0.844638 0.686154 0.289390
O O1 0.291530 0.935536 0.834558
O O2 0.500000 0.959152 0.000000
O O3 0.290657 0.000000 0.000000
O O4 0.500000 0.827169 0.730992
O O5 0.714048 0.866339 0.719498
O O6 0.713091 0.790104 0.752974
O O7 0.652698 0.834069 0.000000
O O8 0.697334 0.919670 0.500000
O O9 0.500000 0.905242 0.705657
O O10 0.649548 0.251454 0.500000
O O11 0.500000 0.251871 0.227635
O O12 0.746161 0.282284 0.229147
O O13 0.341783 0.540763 0.500000
O O14 0.500000 0.545567 0.238529
O O15 0.301689 0.500000 0.236138
O O16 0.250512 0.572850 0.228604
O O17 0.158110 0.604689 0.500000
O O18 0.195949 0.645563 0.236291
O O19 0.000000 0.599378 0.238554
O O20 0.842910 0.686563 0.500000
O O21 0.000000 0.692029 0.237633
#
# Coordination Sequence:
#
# PCOD9388908 Si02
#       7
#     4   8   8   8   8   8   8
#     4   9  16  24  32  46  70 100 139 183 223 267
#     4   9  15  24  37  52  72  96 123 160 208 255
#     4   9  15  23  35  49  68  98 135 175 220 266
#     4   9  16  24  36  56  75  91 122 166 201 235
#     4   8  13  19  25  35  53  77 107 146 192 237
#     4   8  13  20  29  40  54  77 111 147 183 228
#     4   8  14  24  35  47  67  94 121 152 196 248
#
# _framework density 18.235109000000001
#
# number of rings (size 3 to 8) (size 9 to 14) (size 15 to 20)
#    0.000    3.462    0.769    1.846    0.000    3.077 
#    0.000    6.154    0.000    0.462    0.000    0.000 
#    0.000    0.000    0.000    0.000    0.000    2.308 
#
# Total GULP energy -289544.004150 kJ/mol
# GULP energy per Si atom -5568.153926 kJ/mol
# Density = 1.819360 g / cm^3
# Si number density = 18.235109 Si / 1000 Ang^3
#
#
#
# Elastic Constant Matrix: (Units=GPa)
#
#
# Indices 1 2 3 4 5 6 
#
# 1 32.5704 64.8589 15.3391 0.0000 0.0000 0.0000
# 2 64.8589 203.7249 46.2208 0.0000 0.0000 0.0000
# 3 15.3391 46.2208 52.1996 0.0000 0.0000 0.0000
# 4 0.0000 0.0000 0.0000 24.5602 0.0000 0.0000
# 5 0.0000 0.0000 0.0000 0.0000 -1.5739 0.0000
# 6 0.0000 0.0000 0.0000 0.0000 0.0000 -4.8872
#
#
#
# Elastic Compliance Matrix: (Units=1/GPa)
#
#
# Indices 1 2 3 4 5 6 
#
# 1 0.083947 -0.026441 -0.001256 0.000000 0.000000 0.000000
# 2 -0.026441 0.014471 -0.005043 0.000000 0.000000 0.000000
# 3 -0.001256 -0.005043 0.023992 0.000000 0.000000 0.000000
# 4 0.000000 0.000000 0.000000 0.040716 0.000000 0.000000
# 5 0.000000 0.000000 0.000000 0.000000 -0.635374 0.000000
# 6 0.000000 0.000000 0.000000 0.000000 0.000000 -0.204616
#
#
# Mechanical properties :
#
#
# Convention : Reuss Voigt Hill
#
# Bulk Modulus (GPa) = 17.56558 60.14805 38.85682
# Shear Modulus (GPa) = -8.44014 14.42491 2.99238
#
# Velocity S-wave (km/s) = -2.15373 2.81561 1.28241
# Velocity P-wave (km/s) = 1.86253 6.60504 4.85261
#
# Compressibility (1/GPa) = 0.05692951
#
# Stress axis : x y z
#
# Youngs Moduli (GPa) = 11.91225 69.10516 41.68047
#
# Poissons Ratio (x) = 1.82720 0.05234
# Poissons Ratio (y) = 0.31497 0.21021
# Poissons Ratio (z) = 0.01496 0.34853
#
# Static dielectric constant tensor:
#      x y z
#    x 1.597420 0.000000 0.000000 
#    y 0.000000 1.637720 0.000000 
#    z 0.000000 0.000000 1.704260 
# 
# From -- ./inp_files/4540.got.cif
#   From: 2010.05.17/outbox.cif.g08.bks.cpg/sg47_3_cif.got.tgz:4540.got - 2010.06.03 20:15:42.
