data_PCOD9388410
_publ_section_title
;
Structure prediction by ZEFSAII (Michael W. Deem and Ramdas Pophale) SiO2 
 PCOD9388410
Probable space group: P M M M
;
_chemical_formula_sum "Si O2"
_cell_formula_units_Z 46
_cell_length_a 13.927497
_cell_length_b 7.830765
_cell_length_c 23.372957
_cell_angle_alpha 90.000000
_cell_angle_beta 90.000000
_cell_angle_gamma 90.000000
_cell_volume 2549.123782
_symmetry_space_group_name_H-M "P M M M"
_symmetry_group_IT_number 47
_symmetry_cell_setting 'orthorhombic'
loop_
_space_group_symop_operation_xyz
x,y,z
-x,-y,z
x,-y,-z
-x,y,-z
-x,-y,-z
x,y,-z
-x,y,z
x,-y,z
loop_
_atom_site_type_symbol
_atom_site_label
_atom_site_fract_x
_atom_site_fract_y
_atom_site_fract_z
Si Si1 0.893439 0.706383 0.831208
Si Si2 0.608759 0.703863 0.000000
Si Si3 0.804713 0.292169 0.710204
Si Si4 0.835949 0.500000 0.500000
Si Si5 0.306423 0.196404 0.121361
Si Si6 0.115630 0.195480 0.587621
Si Si7 0.393749 0.699434 0.238618
O O1 0.891536 0.500000 0.833848
O O2 0.867943 0.753739 0.765784
O O3 0.806482 0.771366 0.869765
O O4 0.000000 0.765278 0.846674
O O5 0.660645 0.757869 0.941921
O O6 0.604756 0.500000 0.000000
O O7 0.500000 0.772118 0.000000
O O8 0.804723 0.500000 0.706522
O O9 0.847031 0.218881 0.652209
O O10 0.696312 0.231523 0.725118
O O11 0.841734 0.652595 0.549344
O O12 0.362327 0.293104 0.172059
O O13 0.327804 0.000000 0.132179
O O14 0.000000 0.216088 0.585399
O O15 0.137218 0.000000 0.569217
O O16 0.500000 0.775417 0.246441
O O17 0.399639 0.500000 0.253946
#
# Coordination Sequence:
#
# PCOD9388410 Si02
#       7
#     8   4   8   2   8   8   8
#     4   9  18  34  56  78 104 142 182 216 257 312
#     4  11  23  39  58  75  96 133 179 222 264 319
#     4   9  17  31  52  78 108 141 176 220 270 313
#     4  12  23  38  56  74 111 152 183 224 264 308
#     4  11  22  34  51  78 110 138 169 216 271 321
#     4  11  22  34  52  79 109 145 185 221 265 319
#     4   9  18  34  55  78 106 141 179 217 262 318
#
# _framework density 18.045414999999998
#
# number of rings (size 3 to 8) (size 9 to 14) (size 15 to 20)
#    0.000    2.000    0.870    4.957    0.000    7.652 
#    0.000    0.435    0.000    2.609    0.000    1.217 
#    0.000    1.391    0.000    0.000    0.000    0.000 
#
# Total GULP energy -256119.106968 kJ/mol
# GULP energy per Si atom -5567.806673 kJ/mol
# Density = 1.800434 g / cm^3
# Si number density = 18.045415 Si / 1000 Ang^3
#
#
#
# Elastic Constant Matrix: (Units=GPa)
#
#
# Indices 1 2 3 4 5 6 
#
# 1 66.8212 10.0040 17.4091 0.0000 0.0000 0.0000
# 2 10.0040 66.9769 16.5905 0.0000 0.0000 0.0000
# 3 17.4091 16.5905 92.3832 0.0000 0.0000 0.0000
# 4 0.0000 0.0000 0.0000 -158.7285 0.0000 0.0000
# 5 0.0000 0.0000 0.0000 0.0000 -150.6949 0.0000
# 6 0.0000 0.0000 0.0000 0.0000 0.0000 -14.3937
#
#
#
# Elastic Compliance Matrix: (Units=1/GPa)
#
#
# Indices 1 2 3 4 5 6 
#
# 1 0.015923 -0.001711 -0.002693 0.000000 0.000000 0.000000
# 2 -0.001711 0.015810 -0.002517 0.000000 0.000000 0.000000
# 3 -0.002693 -0.002517 0.011784 0.000000 0.000000 0.000000
# 4 0.000000 0.000000 0.000000 -0.006300 0.000000 0.000000
# 5 0.000000 0.000000 0.000000 0.000000 -0.006636 0.000000
# 6 0.000000 0.000000 0.000000 0.000000 0.000000 -0.069475
#
#
# Mechanical properties :
#
#
# Convention : Reuss Voigt Hill
#
# Bulk Modulus (GPa) = 33.69925 34.90985 34.30455
# Shear Modulus (GPa) = -329.81085 -52.61824 -191.21454
#
# Velocity S-wave (km/s) = -13.53381 -5.40575 -10.30500
# Velocity P-wave (km/s) = 15.01677 4.42439 11.06975
#
# Compressibility (1/GPa) = 0.02967425
#
# Stress axis : x y z
#
# Youngs Moduli (GPa) = 62.80146 63.25307 84.86103
#
# Poissons Ratio (x) = 0.10824 0.22856
# Poissons Ratio (y) = 0.10747 0.21357
# Poissons Ratio (z) = 0.16914 0.15919
#
# Static dielectric constant tensor:
#      x y z
#    x 1.637780 0.000000 0.000000 
#    y 0.000000 1.659910 0.000000 
#    z 0.000000 0.000000 1.392550 
# 
# From -- ./inp_files/30785.got.cif
#   From: 2010.05.17/outbox.cif.g08.bks.cpg/sg47_16_cif.got.tgz:30785.got - 2010.06.03 20:15:42.
