data_PCOD9388420
_publ_section_title
;
Structure prediction by ZEFSAII (Michael W. Deem and Ramdas Pophale) SiO2 
 PCOD9388420
Probable space group: P M M M
;
_chemical_formula_sum "Si O2"
_cell_formula_units_Z 48
_cell_length_a 9.219714
_cell_length_b 36.233879
_cell_length_c 7.598972
_cell_angle_alpha 90.000000
_cell_angle_beta 90.000000
_cell_angle_gamma 90.000000
_cell_volume 2538.558191
_symmetry_space_group_name_H-M "P M M M"
_symmetry_group_IT_number 47
_symmetry_cell_setting 'orthorhombic'
loop_
_space_group_symop_operation_xyz
x,y,z
-x,-y,z
x,-y,-z
-x,y,-z
-x,-y,-z
x,y,-z
-x,y,z
x,-y,z
loop_
_atom_site_type_symbol
_atom_site_label
_atom_site_fract_x
_atom_site_fract_y
_atom_site_fract_z
Si Si1 0.333976 0.191804 0.284937
Si Si2 0.831012 0.960319 0.211511
Si Si3 0.823944 0.675812 0.000000
Si Si4 0.825619 0.409130 0.000000
Si Si5 0.327698 0.543048 0.292457
Si Si6 0.834863 0.880051 0.709593
Si Si7 0.174204 0.733159 0.294383
O O1 0.333317 0.190975 0.500000
O O2 0.500000 0.193338 0.227407
O O3 0.256257 0.154450 0.222420
O O4 0.248071 0.228728 0.235701
O O5 0.768053 0.920721 0.262323
O O6 0.000000 0.959579 0.271167
O O7 0.769147 0.000000 0.271732
O O8 0.831778 0.961042 0.000000
O O9 0.779952 0.699353 0.171012
O O10 0.776193 0.633540 0.000000
O O11 0.000000 0.674986 0.000000
O O12 0.763347 0.430287 0.169351
O O13 0.000000 0.410277 0.000000
O O14 0.301189 0.549154 0.500000
O O15 0.500000 0.548149 0.260919
O O16 0.294703 0.500000 0.253892
O O17 0.845472 0.875308 0.500000
O O18 0.000000 0.879726 0.781168
O O19 0.209102 0.726701 0.500000
O O20 0.000000 0.737392 0.280977
#
# Coordination Sequence:
#
# PCOD9388420 Si02
#       7
#     8   8   4   4   8   8   8
#     4   9  17  30  48  69  94 121 148 188 244 294
#     4   8  14  25  40  59  85 114 143 178 220 264
#     4   9  20  36  52  77 108 138 175 213 256 318
#     4  11  22  34  53  84 120 150 180 229 291 342
#     4   9  19  37  59  81 109 151 200 241 278 327
#     4   9  16  26  43  67  90 112 144 184 225 275
#     4   9  17  33  56  74  93 128 170 208 247 297
#
# _framework density 18.908373000000001
#
# number of rings (size 3 to 8) (size 9 to 14) (size 15 to 20)
#    0.000    3.000    0.000    2.000    0.000    4.667 
#    1.500    6.250    0.000    2.500    0.000    3.500 
#    0.000    0.000    0.000    0.000    0.000    0.000 
#
# Total GULP energy -267555.787977 kJ/mol
# GULP energy per Si atom -5574.078916 kJ/mol
# Density = 1.886534 g / cm^3
# Si number density = 18.908373 Si / 1000 Ang^3
#
#
#
# Elastic Constant Matrix: (Units=GPa)
#
#
# Indices 1 2 3 4 5 6 
#
# 1 44.7931 69.3826 33.2157 0.0000 0.0000 0.0000
# 2 69.3826 212.6449 71.9196 0.0000 0.0000 0.0000
# 3 33.2157 71.9196 68.0260 0.0000 0.0000 0.0000
# 4 0.0000 0.0000 0.0000-3625.5245 0.0000 0.0000
# 5 0.0000 0.0000 0.0000 0.0000 9.4930 0.0000
# 6 0.0000 0.0000 0.0000 0.0000 0.0000 -12.4492
#
#
#
# Elastic Compliance Matrix: (Units=1/GPa)
#
#
# Indices 1 2 3 4 5 6 
#
# 1 0.050051 -0.012554 -0.011166 0.000000 0.000000 0.000000
# 2 -0.012554 0.010469 -0.004938 0.000000 0.000000 0.000000
# 3 -0.011166 -0.004938 0.025373 0.000000 0.000000 0.000000
# 4 0.000000 0.000000 0.000000 -0.000276 0.000000 0.000000
# 5 0.000000 0.000000 0.000000 0.000000 0.105340 0.000000
# 6 0.000000 0.000000 0.000000 0.000000 0.000000 -0.080326
#
#
# Mechanical properties :
#
#
# Convention : Reuss Voigt Hill
#
# Bulk Modulus (GPa) = 34.99414 74.94441 54.96927
# Shear Modulus (GPa) = 28.17303 -715.63307 -343.73002
#
# Velocity S-wave (km/s) = 3.86421 -19.47552 -13.49748
# Velocity P-wave (km/s) = 6.20136 21.58718 14.62103
#
# Compressibility (1/GPa) = 0.02857622
#
# Stress axis : x y z
#
# Youngs Moduli (GPa) = 19.97964 95.51840 39.41133
#
# Poissons Ratio (x) = 1.19917 0.44006
# Poissons Ratio (y) = 0.25083 0.19463
# Poissons Ratio (z) = 0.22309 0.47171
#
# Static dielectric constant tensor:
#      x y z
#    x 1.634320 0.000000 0.000000 
#    y 0.000000 1.657880 0.000000 
#    z 0.000000 0.000000 1.680590 
# 
# From -- ./inp_files/2696.got.cif
#   From: 2010.05.17/outbox.cif.g08.bks.cpg/sg47_2_cif.got.tgz:2696.got - 2010.06.03 20:15:42.
