data_PCOD9388822
_publ_section_title
;
Structure prediction by ZEFSAII (Michael W. Deem and Ramdas Pophale) SiO2 
 PCOD9388822
Probable space group: P M M M
;
_chemical_formula_sum "Si O2"
_cell_formula_units_Z 52
_cell_length_a 14.189827
_cell_length_b 22.513508
_cell_length_c 7.344042
_cell_angle_alpha 90.000000
_cell_angle_beta 90.000000
_cell_angle_gamma 90.000000
_cell_volume 2346.148101
_symmetry_space_group_name_H-M "P M M M"
_symmetry_group_IT_number 47
_symmetry_cell_setting 'orthorhombic'
loop_
_space_group_symop_operation_xyz
x,y,z
-x,-y,z
x,-y,-z
-x,y,-z
-x,-y,-z
x,y,-z
-x,y,z
x,-y,z
loop_
_atom_site_type_symbol
_atom_site_label
_atom_site_fract_x
_atom_site_fract_y
_atom_site_fract_z
Si Si1 0.114344 0.435458 0.218119
Si Si2 0.110791 0.305817 0.778660
Si Si3 0.391729 0.373026 0.783874
Si Si4 0.788883 0.815678 0.222430
Si Si5 0.607492 0.500000 0.713156
Si Si6 0.890460 0.065537 0.221664
Si Si7 0.607458 0.756794 0.221776
O O1 0.146598 0.500000 0.289936
O O2 0.147780 0.370598 0.284844
O O3 0.000000 0.434437 0.242339
O O4 0.130733 0.436213 0.000000
O O5 0.158129 0.244586 0.718946
O O6 0.000000 0.302741 0.735426
O O7 0.119448 0.307110 0.000000
O O8 0.500000 0.378170 0.713985
O O9 0.345261 0.437080 0.756601
O O10 0.356912 0.308980 0.719928
O O11 0.396741 0.367198 0.000000
O O12 0.834167 0.876941 0.284982
O O13 0.681019 0.806242 0.278296
O O14 0.793477 0.816136 0.000000
O O15 0.500000 0.500000 0.796043
O O16 0.596848 0.500000 0.500000
O O17 0.000000 0.071226 0.273273
O O18 0.856773 0.000000 0.279194
O O19 0.887928 0.065945 0.000000
O O20 0.500000 0.763980 0.281344
O O21 0.606532 0.757250 0.000000
#
# Coordination Sequence:
#
# PCOD9388822 Si02
#       7
#     8   8   8   8   4   8   8
#     4   7   9  13  20  28  39  57  77  96 126 173
#     4   8  12  16  23  36  51  66  87 117 156 203
#     4   8  13  22  35  48  65  93 125 155 193 240
#     4   9  14  19  29  41  54  72 102 145 178 202
#     4   9  15  21  33  55  75  89 116 161 206 244
#     4   8  13  20  29  42  60  80 101 128 169 223
#     4   8  14  23  33  43  55  78 117 157 183 208
#
# _framework density 22.163988
#
# number of rings (size 3 to 8) (size 9 to 14) (size 15 to 20)
#    0.000    3.923    0.000    3.462    0.000    2.769 
#    0.000    0.000    1.692    0.462    0.000    3.231 
#    0.000    0.000    0.000    0.000    0.000    6.923 
#
# Total GULP energy -289922.868847 kJ/mol
# GULP energy per Si atom -5575.439786 kJ/mol
# Density = 2.211354 g / cm^3
# Si number density = 22.163988 Si / 1000 Ang^3
#
#
#
# Elastic Constant Matrix: (Units=GPa)
#
#
# Indices 1 2 3 4 5 6 
#
# 1 84.4418 103.9815 0.4619 0.0000 0.0000 0.0000
# 2 103.9815 254.0818 8.2136 0.0000 0.0000 0.0000
# 3 0.4619 8.2136 80.4151 0.0000 0.0000 0.0000
# 4 0.0000 0.0000 0.0000 -87.5085 0.0000 0.0000
# 5 0.0000 0.0000 0.0000 0.0000 -18.7384 0.0000
# 6 0.0000 0.0000 0.0000 0.0000 0.0000 23.6101
#
#
#
# Elastic Compliance Matrix: (Units=1/GPa)
#
#
# Indices 1 2 3 4 5 6 
#
# 1 0.023933 -0.009822 0.000866 0.000000 0.000000 0.000000
# 2 -0.009822 0.007980 -0.000759 0.000000 0.000000 0.000000
# 3 0.000866 -0.000759 0.012508 0.000000 0.000000 0.000000
# 4 0.000000 0.000000 0.000000 -0.011427 0.000000 0.000000
# 5 0.000000 0.000000 0.000000 0.000000 -0.053366 0.000000
# 6 0.000000 0.000000 0.000000 0.000000 0.000000 0.042355
#
#
# Mechanical properties :
#
#
# Convention : Reuss Voigt Hill
#
# Bulk Modulus (GPa) = 40.01524 71.58367 55.79946
# Shear Modulus (GPa) = 100.51632 3.89140 52.20386
#
# Velocity S-wave (km/s) = 6.74164 1.32648 4.85846
# Velocity P-wave (km/s) = 8.87090 5.89181 7.53015
#
# Compressibility (1/GPa) = 0.02499048
#
# Stress axis : x y z
#
# Youngs Moduli (GPa) = 41.78308 125.31229 79.94892
#
# Poissons Ratio (x) = 1.23088 -0.06922
# Poissons Ratio (y) = 0.41041 0.06065
# Poissons Ratio (z) = -0.03618 0.09507
#
# Static dielectric constant tensor:
#      x y z
#    x 1.831620 0.000000 0.000000 
#    y 0.000000 1.823090 0.000000 
#    z 0.000000 0.000000 1.823960 
# 
# From -- ./inp_files/7096.got.cif
#   From: 2010.05.17/outbox.cif.g08.bks.cpg/sg47_4_cif.got.tgz:7096.got - 2010.06.03 20:15:42.
