data_PCOD9388983
_publ_section_title
;
Structure prediction by ZEFSAII (Michael W. Deem and Ramdas Pophale) SiO2 
 PCOD9388983
Probable space group: P M M M
;
_chemical_formula_sum "Si O2"
_cell_formula_units_Z 44
_cell_length_a 7.437549
_cell_length_b 7.965683
_cell_length_c 32.667017
_cell_angle_alpha 90.000000
_cell_angle_beta 90.000000
_cell_angle_gamma 90.000000
_cell_volume 1935.362571
_symmetry_space_group_name_H-M "P M M M"
_symmetry_group_IT_number 47
_symmetry_cell_setting 'orthorhombic'
loop_
_space_group_symop_operation_xyz
x,y,z
-x,-y,z
x,-y,-z
-x,y,-z
-x,-y,-z
x,y,-z
-x,y,z
x,-y,z
loop_
_atom_site_type_symbol
_atom_site_label
_atom_site_fract_x
_atom_site_fract_y
_atom_site_fract_z
Si Si1 0.294589 0.698645 0.219617
Si Si2 0.294755 0.798893 0.693998
Si Si3 0.720151 0.194207 0.604308
Si Si4 0.214980 0.194873 0.043859
Si Si5 0.719471 0.500000 0.452991
Si Si6 0.285071 0.190669 0.132030
O O1 0.500000 0.770458 0.220090
O O2 0.305446 0.500000 0.221085
O O3 0.209113 0.754817 0.262427
O O4 0.214842 0.742152 0.175300
O O5 0.500000 0.730110 0.695294
O O6 0.218243 0.750128 0.649850
O O7 0.303951 0.000000 0.692149
O O8 0.500000 0.192572 0.605634
O O9 0.775109 0.331669 0.571109
O O10 0.774409 0.000000 0.596512
O O11 0.253300 0.275489 0.087951
O O12 0.000000 0.188674 0.041945
O O13 0.281119 0.000000 0.045089
O O14 0.277709 0.267081 0.000000
O O15 0.500000 0.500000 0.452809
O O16 0.777897 0.500000 0.500000
O O17 0.500000 0.189597 0.135652
O O18 0.217727 0.000000 0.128569
#
# Coordination Sequence:
#
# PCOD9388983 Si02
#       6
#     8   8   8   8   4   8
#     4   9  16  23  33  50  71  95 117 140 177 227
#     4   8  13  21  32  45  61  82 109 141 178 223
#     4   8  14  22  30  40  54  74 103 142 186 232
#     4   8  14  25  41  60  79  99 127 162 195 227
#     4   9  16  22  28  38  52  74 106 146 190 235
#     4   9  16  25  38  57  80 101 121 152 194 236
#
# _framework density 22.734759
#
# number of rings (size 3 to 8) (size 9 to 14) (size 15 to 20)
#    0.000    3.545    0.000    2.182    1.273    2.909 
#    0.000    3.636    0.000    1.091    0.000    3.818 
#    0.000    0.000    0.000    0.000    0.000    0.000 
#
# Total GULP energy -245001.034872 kJ/mol
# GULP energy per Si atom -5568.205338 kJ/mol
# Density = 2.268301 g / cm^3
# Si number density = 22.734759 Si / 1000 Ang^3
#
#
#
# Elastic Constant Matrix: (Units=GPa)
#
#
# Indices 1 2 3 4 5 6 
#
# 1 68.5410 1.5141 12.7230 0.0000 0.0000 0.0000
# 2 1.5141 61.2350 83.4767 0.0000 0.0000 0.0000
# 3 12.7230 83.4767 305.7474 0.0000 0.0000 0.0000
# 4 0.0000 0.0000 0.0000 101.0076 0.0000 0.0000
# 5 0.0000 0.0000 0.0000 0.0000 26.1562 0.0000
# 6 0.0000 0.0000 0.0000 0.0000 0.0000 -9.8069
#
#
#
# Elastic Compliance Matrix: (Units=1/GPa)
#
#
# Indices 1 2 3 4 5 6 
#
# 1 0.014725 0.000751 -0.000818 0.000000 0.000000 0.000000
# 2 0.000751 0.026050 -0.007144 0.000000 0.000000 0.000000
# 3 -0.000818 -0.007144 0.005255 0.000000 0.000000 0.000000
# 4 0.000000 0.000000 0.000000 0.009900 0.000000 0.000000
# 5 0.000000 0.000000 0.000000 0.000000 0.038232 0.000000
# 6 0.000000 0.000000 0.000000 0.000000 0.000000 -0.101969
#
#
# Mechanical properties :
#
#
# Convention : Reuss Voigt Hill
#
# Bulk Modulus (GPa) = 31.63658 70.10564 50.87111
# Shear Modulus (GPa) = 291.52755 45.99204 168.75979
#
# Velocity S-wave (km/s) = 11.33615 4.50264 8.62502
# Velocity P-wave (km/s) = 13.61213 7.61150 11.02781
#
# Compressibility (1/GPa) = 0.03160898
#
# Stress axis : x y z
#
# Youngs Moduli (GPa) = 67.91166 38.38731 190.29199
#
# Poissons Ratio (x) = -0.02881 0.15560
# Poissons Ratio (y) = -0.05097 1.35937
# Poissons Ratio (z) = 0.05553 0.27422
#
# Static dielectric constant tensor:
#      x y z
#    x 1.946550 0.000000 0.000000 
#    y 0.000000 1.803850 0.000000 
#    z 0.000000 0.000000 1.918860 
# 
# From -- ./inp_files/2242.got.cif
#   From: 2010.05.17/outbox.cif.g08.bks.cpg/sg47_2_cif.got.tgz:2242.got - 2010.06.03 20:15:42.
