data_PCOD9388413
_publ_section_title
;
Structure prediction by ZEFSAII (Michael W. Deem and Ramdas Pophale) SiO2 
 PCOD9388413
Probable space group: P M M M
;
_chemical_formula_sum "Si O2"
_cell_formula_units_Z 44
_cell_length_a 14.034718
_cell_length_b 8.063810
_cell_length_c 20.203660
_cell_angle_alpha 90.000000
_cell_angle_beta 90.000000
_cell_angle_gamma 90.000000
_cell_volume 2286.514861
_symmetry_space_group_name_H-M "P M M M"
_symmetry_group_IT_number 47
_symmetry_cell_setting 'orthorhombic'
loop_
_space_group_symop_operation_xyz
x,y,z
-x,-y,z
x,-y,-z
-x,y,-z
-x,-y,-z
x,y,-z
-x,y,z
x,-y,z
loop_
_atom_site_type_symbol
_atom_site_label
_atom_site_fract_x
_atom_site_fract_y
_atom_site_fract_z
Si Si1 0.781967 0.803512 0.702308
Si Si2 0.616133 0.303489 0.071438
Si Si3 0.114810 0.191078 0.163697
Si Si4 0.883760 0.500000 0.924467
Si Si5 0.391728 0.300260 0.215570
Si Si6 0.892071 0.699027 0.574106
O O1 0.850741 0.755572 0.763440
O O2 0.678511 0.745223 0.725679
O O3 0.820791 0.742349 0.632586
O O4 0.782187 0.000000 0.699717
O O5 0.500000 0.294276 0.072213
O O6 0.639654 0.500000 0.070747
O O7 0.644200 0.234825 0.143634
O O8 0.647716 0.232740 0.000000
O O9 0.147255 0.332266 0.112454
O O10 0.000000 0.190256 0.162595
O O11 0.145332 0.000000 0.150420
O O12 0.000000 0.500000 0.923715
O O13 0.852598 0.500000 0.000000
O O14 0.500000 0.242810 0.226114
O O15 0.393797 0.500000 0.210185
O O16 0.866115 0.758299 0.500000
O O17 0.896395 0.500000 0.571313
O O18 0.000000 0.759447 0.588939
#
# Coordination Sequence:
#
# PCOD9388413 Si02
#       6
#     8   8   8   4   8   8
#     4  11  22  34  52  78 110 148 181 214 267 329
#     4   7  10  20  41  67  92 119 158 214 275 323
#     4   9  19  34  51  76 108 140 180 229 278 331
#     4   9  18  32  52  76 100 140 192 231 276 330
#     4   9  18  32  51  75 103 139 185 234 279 323
#     4   9  19  36  59  88 117 142 170 210 263 321
#
# _framework density 19.243258999999998
#
# number of rings (size 3 to 8) (size 9 to 14) (size 15 to 20)
#    0.000    3.000    0.000    3.273    2.545    2.182 
#    0.000    3.636    0.000    2.182    0.000    6.364 
#    0.000    0.000    0.000    0.000    0.000    0.000 
#
# Total GULP energy -245372.942313 kJ/mol
# GULP energy per Si atom -5576.657780 kJ/mol
# Density = 1.919946 g / cm^3
# Si number density = 19.243259 Si / 1000 Ang^3
#
#
#
# Elastic Constant Matrix: (Units=GPa)
#
#
# Indices 1 2 3 4 5 6 
#
# 1 83.5387 20.6595 77.8935 0.0000 0.0000 0.0000
# 2 20.6595 38.0713 44.4890 0.0000 0.0000 0.0000
# 3 77.8935 44.4890 188.3953 0.0000 0.0000 0.0000
# 4 0.0000 0.0000 0.0000 -17.9902 0.0000 0.0000
# 5 0.0000 0.0000 0.0000 0.0000 1.1429 0.0000
# 6 0.0000 0.0000 0.0000 0.0000 0.0000 5.5292
#
#
#
# Elastic Compliance Matrix: (Units=1/GPa)
#
#
# Indices 1 2 3 4 5 6 
#
# 1 0.019552 -0.001607 -0.007704 0.000000 0.000000 0.000000
# 2 -0.001607 0.036409 -0.007934 0.000000 0.000000 0.000000
# 3 -0.007704 -0.007934 0.010367 0.000000 0.000000 0.000000
# 4 0.000000 0.000000 0.000000 -0.055586 0.000000 0.000000
# 5 0.000000 0.000000 0.000000 0.000000 0.874997 0.000000
# 6 0.000000 0.000000 0.000000 0.000000 0.000000 0.180858
#
#
# Mechanical properties :
#
#
# Convention : Reuss Voigt Hill
#
# Bulk Modulus (GPa) = 31.40849 66.23216 48.82032
# Shear Modulus (GPa) = 4.49762 8.86725 6.68243
#
# Velocity S-wave (km/s) = 1.53046 2.14895 1.86552
# Velocity P-wave (km/s) = 4.41365 6.37577 5.48319
#
# Compressibility (1/GPa) = 0.03183853
#
# Stress axis : x y z
#
# Youngs Moduli (GPa) = 51.14682 27.46542 96.46063
#
# Poissons Ratio (x) = 0.04413 0.74317
# Poissons Ratio (y) = 0.08218 0.76529
# Poissons Ratio (z) = 0.39405 0.21790
#
# Static dielectric constant tensor:
#      x y z
#    x 1.722680 0.000000 0.000000 
#    y 0.000000 1.678120 0.000000 
#    z 0.000000 0.000000 1.691230 
# 
# From -- ./inp_files/27874.got.cif
#   From: 2010.05.17/outbox.cif.g08.bks.cpg/sg47_14_cif.got.tgz:27874.got - 2010.06.03 20:15:42.
