data_PCOD9388824
_publ_section_title
;
Structure prediction by ZEFSAII (Michael W. Deem and Ramdas Pophale) SiO2 
 PCOD9388824
Probable space group: P M M M
;
_chemical_formula_sum "Si O2"
_cell_formula_units_Z 44
_cell_length_a 9.973801
_cell_length_b 30.042150
_cell_length_c 7.383833
_cell_angle_alpha 90.000000
_cell_angle_beta 90.000000
_cell_angle_gamma 90.000000
_cell_volume 2212.450561
_symmetry_space_group_name_H-M "P M M M"
_symmetry_group_IT_number 47
_symmetry_cell_setting 'orthorhombic'
loop_
_space_group_symop_operation_xyz
x,y,z
-x,-y,z
x,-y,-z
-x,y,-z
-x,-y,-z
x,y,-z
-x,y,z
x,-y,z
loop_
_atom_site_type_symbol
_atom_site_label
_atom_site_fract_x
_atom_site_fract_y
_atom_site_fract_z
Si Si1 0.152508 0.402518 0.786060
Si Si2 0.345855 0.325145 0.221070
Si Si3 0.844168 0.854827 0.778619
Si Si4 0.839611 0.952152 0.218076
Si Si5 0.654342 0.775162 0.779422
Si Si6 0.152455 0.500000 0.285287
O O1 0.246758 0.363586 0.713690
O O2 0.211788 0.452267 0.765754
O O3 0.000000 0.402305 0.711625
O O4 0.141363 0.394685 0.000000
O O5 0.500000 0.332750 0.275947
O O6 0.306626 0.274975 0.275591
O O7 0.345198 0.325741 0.000000
O O8 0.792214 0.903672 0.718974
O O9 0.752964 0.813987 0.717960
O O10 0.000000 0.849759 0.725390
O O11 0.843104 0.855100 0.000000
O O12 0.000000 0.951989 0.251665
O O13 0.786901 0.000000 0.285650
O O14 0.822934 0.952597 0.000000
O O15 0.500000 0.782749 0.725039
O O16 0.656138 0.775622 0.000000
O O17 0.144484 0.500000 0.500000
O O18 0.000000 0.500000 0.208830
#
# Coordination Sequence:
#
# PCOD9388824 Si02
#       6
#     8   8   8   8   8   4
#     4   9  16  26  42  62  79  96 123 156 181 204
#     4   8  14  24  36  50  69  92 115 139 173 217
#     4   8  12  16  23  35  48  64  90 124 160 198
#     4   7   9  13  20  29  41  58  83 117 156 196
#     4   8  13  20  28  38  55  78  99 121 157 206
#     4   9  17  29  44  61  82 106 126 145 178 222
#
# _framework density 19.887449
#
# number of rings (size 3 to 8) (size 9 to 14) (size 15 to 20)
#    0.000    3.909    0.000    3.000    0.000    1.818 
#    0.000    4.091    0.000    3.818    0.000    3.818 
#    0.000    0.000    0.000    0.000    0.000    0.000 
#
# Total GULP energy -244945.269916 kJ/mol
# GULP energy per Si atom -5566.937953 kJ/mol
# Density = 1.984218 g / cm^3
# Si number density = 19.887449 Si / 1000 Ang^3
#
#
#
# Elastic Constant Matrix: (Units=GPa)
#
#
# Indices 1 2 3 4 5 6 
#
# 1 64.4798 106.1553 3.4484 0.0000 0.0000 0.0000
# 2 106.1553 256.2949 4.0679 0.0000 0.0000 0.0000
# 3 3.4484 4.0679 67.2502 0.0000 0.0000 0.0000
# 4 0.0000 0.0000 0.0000 -37.1362 0.0000 0.0000
# 5 0.0000 0.0000 0.0000 0.0000 -13.9367 0.0000
# 6 0.0000 0.0000 0.0000 0.0000 0.0000 10.3241
#
#
#
# Elastic Compliance Matrix: (Units=1/GPa)
#
#
# Indices 1 2 3 4 5 6 
#
# 1 0.048864 -0.020219 -0.001283 0.000000 0.000000 0.000000
# 2 -0.020219 0.012272 0.000294 0.000000 0.000000 0.000000
# 3 -0.001283 0.000294 0.014918 0.000000 0.000000 0.000000
# 4 0.000000 0.000000 0.000000 -0.026928 0.000000 0.000000
# 5 0.000000 0.000000 0.000000 0.000000 -0.071753 0.000000
# 6 0.000000 0.000000 0.000000 0.000000 0.000000 0.096860
#
#
# Mechanical properties :
#
#
# Convention : Reuss Voigt Hill
#
# Bulk Modulus (GPa) = 29.72675 68.37424 49.05049
# Shear Modulus (GPa) = 39.10513 10.14046 24.62279
#
# Velocity S-wave (km/s) = 4.43913 2.26053 3.52249
# Velocity P-wave (km/s) = 6.42297 6.42406 6.42351
#
# Compressibility (1/GPa) = 0.03363974
#
# Stress axis : x y z
#
# Youngs Moduli (GPa) = 20.46478 81.48902 67.03397
#
# Poissons Ratio (x) = 1.64762 0.08598
# Poissons Ratio (y) = 0.41378 -0.01974
# Poissons Ratio (z) = 0.02625 -0.02400
#
# Static dielectric constant tensor:
#      x y z
#    x 1.659820 0.000000 0.000000 
#    y 0.000000 1.736580 0.000000 
#    z 0.000000 0.000000 1.749220 
# 
# From -- ./inp_files/2001.got.cif
#   From: 2010.05.17/outbox.cif.g08.bks.cpg/sg47_2_cif.got.tgz:2001.got - 2010.06.03 20:15:42.
