data_PCOD9388204
_publ_section_title
;
Structure prediction by ZEFSAII (Michael W. Deem and Ramdas Pophale) SiO2 
 PCOD9388204
Probable space group: P M M M
;
_chemical_formula_sum "Si O2"
_cell_formula_units_Z 52
_cell_length_a 12.479836
_cell_length_b 8.691081
_cell_length_c 25.442406
_cell_angle_alpha 90.000000
_cell_angle_beta 90.000000
_cell_angle_gamma 90.000000
_cell_volume 2759.566438
_symmetry_space_group_name_H-M "P M M M"
_symmetry_group_IT_number 47
_symmetry_cell_setting 'orthorhombic'
loop_
_space_group_symop_operation_xyz
x,y,z
-x,-y,z
x,-y,-z
-x,y,-z
-x,-y,-z
x,y,-z
-x,y,z
x,-y,z
loop_
_atom_site_type_symbol
_atom_site_label
_atom_site_fract_x
_atom_site_fract_y
_atom_site_fract_z
Si Si1 0.871342 0.820179 0.056422
Si Si2 0.378894 0.322537 0.331625
Si Si3 0.000000 0.316053 0.749106
Si Si4 0.373937 0.315267 0.500000
Si Si5 0.171856 0.179259 0.828145
Si Si6 0.000000 0.685100 0.374062
Si Si7 0.378766 0.674971 0.205522
Si Si8 0.774763 0.180053 0.407979
O O1 0.843318 0.752914 0.113229
O O2 0.000000 0.819928 0.055128
O O3 0.836672 0.000000 0.057172
O O4 0.834155 0.753478 0.000000
O O5 0.500000 0.283875 0.349719
O O6 0.356827 0.500000 0.347956
O O7 0.378932 0.319891 0.268802
O O8 0.288894 0.212368 0.354058
O O9 0.898383 0.258896 0.782883
O O10 0.000000 0.500000 0.748060
O O11 0.000000 0.264727 0.687873
O O12 0.374651 0.500000 0.500000
O O13 0.500000 0.265177 0.500000
O O14 0.305014 0.255462 0.549435
O O15 0.295195 0.203025 0.814841
O O16 0.140307 0.000000 0.829294
O O17 0.107846 0.745639 0.402081
O O18 0.000000 0.500000 0.375071
O O19 0.500000 0.700666 0.187545
O O20 0.346434 0.500000 0.190846
O O21 0.785864 0.000000 0.418820
#
# Coordination Sequence:
#
# PCOD9388204 Si02
#       8
#     8   8   4   4   8   4   8   8
#     4   8  14  27  47  71 101 137 175 217 272 334
#     4   9  18  35  58  81 108 147 191 226 265 329
#     4  11  23  37  55  81 115 154 188 220 267 330
#     4  11  25  46  71  94 117 151 193 229 266 325
#     4  11  20  31  52  81 109 137 178 233 283 325
#     4  11  25  44  62  80 112 161 203 222 253 330
#     4   9  19  35  53  74 105 147 188 223 267 330
#     4  12  25  40  61  91 122 148 181 234 289 324
#
# _framework density 18.843540000000001
#
# number of rings (size 3 to 8) (size 9 to 14) (size 15 to 20)
#    0.000    1.923    0.769    5.308    0.000    8.923 
#    0.000    3.077    0.000    2.769    0.000    3.231 
#    0.000    0.000    0.000    0.000    0.000    0.000 
#
# Total GULP energy -290000.807130 kJ/mol
# GULP energy per Si atom -5576.938599 kJ/mol
# Density = 1.880065 g / cm^3
# Si number density = 18.843540 Si / 1000 Ang^3
#
#
#
# Elastic Constant Matrix: (Units=GPa)
#
#
# Indices 1 2 3 4 5 6 
#
# 1 109.7011 40.4524 46.7845 0.0000 0.0000 0.0000
# 2 40.4524 56.0203 26.4519 0.0000 0.0000 0.0000
# 3 46.7845 26.4519 83.1723 0.0000 0.0000 0.0000
# 4 0.0000 0.0000 0.0000 20.6047 0.0000 0.0000
# 5 0.0000 0.0000 0.0000 0.0000 12.5927 0.0000
# 6 0.0000 0.0000 0.0000 0.0000 0.0000 8.5049
#
#
#
# Elastic Compliance Matrix: (Units=1/GPa)
#
#
# Indices 1 2 3 4 5 6 
#
# 1 0.014358 -0.007713 -0.005623 0.000000 0.000000 0.000000
# 2 -0.007713 0.025148 -0.003660 0.000000 0.000000 0.000000
# 3 -0.005623 -0.003660 0.016350 0.000000 0.000000 0.000000
# 4 0.000000 0.000000 0.000000 0.048533 0.000000 0.000000
# 5 0.000000 0.000000 0.000000 0.000000 0.079411 0.000000
# 6 0.000000 0.000000 0.000000 0.000000 0.000000 0.117579
#
#
# Mechanical properties :
#
#
# Convention : Reuss Voigt Hill
#
# Bulk Modulus (GPa) = 45.73552 52.91902 49.32727
# Shear Modulus (GPa) = 14.59178 17.35412 15.97295
#
# Velocity S-wave (km/s) = 2.78576 3.03802 2.91462
# Velocity P-wave (km/s) = 5.88822 6.36007 6.12869
#
# Compressibility (1/GPa) = 0.02186485
#
# Stress axis : x y z
#
# Youngs Moduli (GPa) = 69.64766 39.76464 61.16076
#
# Poissons Ratio (x) = 0.30669 0.34394
# Poissons Ratio (y) = 0.53717 0.22383
# Poissons Ratio (z) = 0.39166 0.14552
#
# Static dielectric constant tensor:
#      x y z
#    x 1.644540 0.000000 0.000000 
#    y 0.000000 1.662850 0.000000 
#    z 0.000000 0.000000 1.716650 
# 
# From -- ./inp_files/33639.got.cif
#   From: 2010.05.17/outbox.cif.g08.bks.cpg/sg47_17_cif.got.tgz:33639.got - 2010.06.03 20:15:42.
