data_PCOD9388733
_publ_section_title
;
Structure prediction by ZEFSAII (Michael W. Deem and Ramdas Pophale) SiO2 
 PCOD9388733
Probable space group: P M M M
;
_chemical_formula_sum "Si O2"
_cell_formula_units_Z 52
_cell_length_a 7.683373
_cell_length_b 34.466842
_cell_length_c 10.286223
_cell_angle_alpha 90.000000
_cell_angle_beta 90.000000
_cell_angle_gamma 90.000000
_cell_volume 2724.014066
_symmetry_space_group_name_H-M "P M M M"
_symmetry_group_IT_number 47
_symmetry_cell_setting 'orthorhombic'
loop_
_space_group_symop_operation_xyz
x,y,z
-x,-y,z
x,-y,-z
-x,y,-z
-x,-y,-z
x,y,-z
-x,y,z
x,-y,z
loop_
_atom_site_type_symbol
_atom_site_label
_atom_site_fract_x
_atom_site_fract_y
_atom_site_fract_z
Si Si1 0.200790 0.000000 0.342095
Si Si2 0.291178 0.609287 0.353412
Si Si3 0.708990 0.303763 0.353240
Si Si4 0.208855 0.456537 0.146632
Si Si5 0.213709 0.915040 0.650417
Si Si6 0.787560 0.150615 0.149380
Si Si7 0.208587 0.761903 0.854029
O O1 0.275586 0.041987 0.306574
O O2 0.198016 0.000000 0.500000
O O3 0.000000 0.000000 0.296852
O O4 0.227761 0.600398 0.500000
O O5 0.500000 0.611256 0.359877
O O6 0.228578 0.652743 0.317812
O O7 0.250142 0.576369 0.250016
O O8 0.771811 0.294980 0.500000
O O9 0.500000 0.305502 0.358978
O O10 0.751808 0.270909 0.250042
O O11 0.271540 0.500000 0.182170
O O12 0.000000 0.458447 0.140324
O O13 0.272128 0.447668 0.000000
O O14 0.264387 0.908334 0.500000
O O15 0.271146 0.881328 0.747425
O O16 0.000000 0.916107 0.651211
O O17 0.730221 0.194603 0.181043
O O18 0.000000 0.150209 0.152230
O O19 0.736780 0.142271 0.000000
O O20 0.000000 0.764375 0.861469
O O21 0.273071 0.752580 0.000000
#
# Coordination Sequence:
#
# PCOD9388733 Si02
#       7
#     4   8   8   8   8   8   8
#     4   7  10  16  25  39  61  89 124 167 208 245
#     4   9  19  35  52  71  96 124 154 189 229 272
#     4   9  19  35  51  68  93 122 151 187 230 272
#     4   9  19  35  52  72 100 130 158 190 227 265
#     4   8  12  18  29  44  63  92 131 170 207 250
#     4   8  14  24  35  49  74 104 132 169 215 256
#     4   9  18  31  46  66  91 118 150 187 226 270
#
# _framework density 19.089475
#
# number of rings (size 3 to 8) (size 9 to 14) (size 15 to 20)
#    0.000    3.462    0.000    3.231    0.000    3.692 
#    0.000    8.846    0.000    2.308    0.000    0.000 
#    0.000    0.000    0.000    0.692    0.000   14.308 
#
# Total GULP energy -289622.070029 kJ/mol
# GULP energy per Si atom -5569.655193 kJ/mol
# Density = 1.904603 g / cm^3
# Si number density = 19.089475 Si / 1000 Ang^3
#
#
#
# Elastic Constant Matrix: (Units=GPa)
#
#
# Indices 1 2 3 4 5 6 
#
# 1 29.5594 9.5140 6.8435 0.0000 0.0000 0.0000
# 2 9.5140 217.8313 155.1653 0.0000 0.0000 0.0000
# 3 6.8435 155.1653 142.5929 0.0000 0.0000 0.0000
# 4 0.0000 0.0000 0.0000 71.2914 0.0000 0.0000
# 5 0.0000 0.0000 0.0000 0.0000 16.4241 0.0000
# 6 0.0000 0.0000 0.0000 0.0000 0.0000 24.0611
#
#
#
# Elastic Compliance Matrix: (Units=1/GPa)
#
#
# Indices 1 2 3 4 5 6 
#
# 1 0.034313 -0.001448 -0.000071 0.000000 0.000000 0.000000
# 2 -0.001448 0.020475 -0.022211 0.000000 0.000000 0.000000
# 3 -0.000071 -0.022211 0.031186 0.000000 0.000000 0.000000
# 4 0.000000 0.000000 0.000000 0.014027 0.000000 0.000000
# 5 0.000000 0.000000 0.000000 0.000000 0.060886 0.000000
# 6 0.000000 0.000000 0.000000 0.000000 0.000000 0.041561
#
#
# Mechanical properties :
#
#
# Convention : Reuss Voigt Hill
#
# Bulk Modulus (GPa) = 25.96503 81.44771 53.70637
# Shear Modulus (GPa) = 19.02973 36.91937 27.97455
#
# Velocity S-wave (km/s) = 3.16075 4.40252 3.83226
# Velocity P-wave (km/s) = 5.19151 8.28262 6.91207
#
# Compressibility (1/GPa) = 0.03851333
#
# Stress axis : x y z
#
# Youngs Moduli (GPa) = 29.14377 48.83890 32.06560
#
# Poissons Ratio (x) = 0.07071 0.00228
# Poissons Ratio (y) = 0.04220 0.71222
# Poissons Ratio (z) = 0.00208 1.08478
#
# Static dielectric constant tensor:
#      x y z
#    x 1.729810 0.000000 0.000000 
#    y 0.000000 1.673730 0.000000 
#    z 0.000000 0.000000 1.645040 
# 
# From -- ./inp_files/15451.got.cif
#   From: 2010.05.17/outbox.cif.g08.bks.cpg/sg47_8_cif.got.tgz:15451.got - 2010.06.03 20:15:42.
