data_PCOD9388519
_publ_section_title
;
Structure prediction by ZEFSAII (Michael W. Deem and Ramdas Pophale) SiO2 
 PCOD9388519
Probable space group: P M M M
;
_chemical_formula_sum "Si O2"
_cell_formula_units_Z 52
_cell_length_a 7.580384
_cell_length_b 27.716810
_cell_length_c 14.230149
_cell_angle_alpha 90.000000
_cell_angle_beta 90.000000
_cell_angle_gamma 90.000000
_cell_volume 2989.812123
_symmetry_space_group_name_H-M "P M M M"
_symmetry_group_IT_number 47
_symmetry_cell_setting 'orthorhombic'
loop_
_space_group_symop_operation_xyz
x,y,z
-x,-y,z
x,-y,-z
-x,y,-z
-x,-y,-z
x,y,-z
-x,y,z
x,-y,z
loop_
_atom_site_type_symbol
_atom_site_label
_atom_site_fract_x
_atom_site_fract_y
_atom_site_fract_z
Si Si1 0.212013 0.948088 0.390836
Si Si2 0.284659 0.647973 0.394354
Si Si3 0.289940 0.842811 0.607237
Si Si4 0.284811 0.253147 0.706790
Si Si5 0.710603 0.399860 0.793932
Si Si6 0.791418 0.500000 0.893846
Si Si7 0.715687 0.696985 0.894798
O O1 0.272775 0.947084 0.500000
O O2 0.262231 0.896164 0.350511
O O3 0.000000 0.949090 0.391785
O O4 0.272225 0.000000 0.350772
O O5 0.223111 0.638058 0.500000
O O6 0.500000 0.646817 0.396511
O O7 0.235292 0.701809 0.359851
O O8 0.225198 0.611672 0.311804
O O9 0.218670 0.841916 0.500000
O O10 0.500000 0.836313 0.600286
O O11 0.221443 0.797806 0.666965
O O12 0.500000 0.252433 0.707545
O O13 0.228806 0.266705 0.812299
O O14 0.500000 0.394602 0.789612
O O15 0.745602 0.451861 0.836784
O O16 0.772909 0.356464 0.861489
O O17 0.000000 0.500000 0.903219
O O18 0.714573 0.500000 0.000000
O O19 0.500000 0.697147 0.895937
O O20 0.775658 0.707751 0.000000
#
# Coordination Sequence:
#
# PCOD9388519 Si02
#       7
#     8   8   8   8   8   4   8
#     4   8  14  24  35  46  65  97 132 160 187 220
#     4   8  13  23  41  64  87 108 131 160 192 226
#     4   9  15  21  32  52  76 100 125 153 184 219
#     4   8  13  20  32  54  82 106 126 152 189 229
#     4   9  17  29  47  68  84 102 132 166 194 224
#     4  11  23  35  46  61  82 106 129 159 204 249
#     4   8  13  22  38  60  82 101 124 156 191 225
#
# _framework density 17.392398
#
# number of rings (size 3 to 8) (size 9 to 14) (size 15 to 20)
#    0.000    3.462    0.000    3.462    0.000    3.385 
#    0.000    1.923    0.000    6.462    0.000    0.000 
#    0.000    0.615    0.000    7.692    0.000    1.538 
#
# Total GULP energy -289507.551928 kJ/mol
# GULP energy per Si atom -5567.452922 kJ/mol
# Density = 1.735281 g / cm^3
# Si number density = 17.392398 Si / 1000 Ang^3
#
#
#
# Elastic Constant Matrix: (Units=GPa)
#
#
# Indices 1 2 3 4 5 6 
#
# 1 34.7009 1.0441 6.2848 0.0000 0.0000 0.0000
# 2 1.0441 167.8120 84.9858 0.0000 0.0000 0.0000
# 3 6.2848 84.9858 135.8859 0.0000 0.0000 0.0000
# 4 0.0000 0.0000 0.0000 18.1377 0.0000 0.0000
# 5 0.0000 0.0000 0.0000 0.0000 -2.8305 0.0000
# 6 0.0000 0.0000 0.0000 0.0000 0.0000 47.6235
#
#
#
# Elastic Compliance Matrix: (Units=1/GPa)
#
#
# Indices 1 2 3 4 5 6 
#
# 1 0.029123 0.000733 -0.001805 0.000000 0.000000 0.000000
# 2 0.000733 0.008740 -0.005500 0.000000 0.000000 0.000000
# 3 -0.001805 -0.005500 0.010882 0.000000 0.000000 0.000000
# 4 0.000000 0.000000 0.000000 0.055134 0.000000 0.000000
# 5 0.000000 0.000000 0.000000 0.000000 -0.353299 0.000000
# 6 0.000000 0.000000 0.000000 0.000000 0.000000 0.020998
#
#
# Mechanical properties :
#
#
# Convention : Reuss Voigt Hill
#
# Bulk Modulus (GPa) = 28.08966 58.11425 43.10196
# Shear Modulus (GPa) = -24.58078 28.99174 2.20548
#
# Velocity S-wave (km/s) = -3.76347 4.08722 1.12731
# Velocity P-wave (km/s) = 1.64298 7.46726 5.15076
#
# Compressibility (1/GPa) = 0.03560028
#
# Stress axis : x y z
#
# Youngs Moduli (GPa) = 34.33759 114.41796 91.89117
#
# Poissons Ratio (x) = -0.08389 0.16591
# Poissons Ratio (y) = -0.02517 0.50540
# Poissons Ratio (z) = 0.06200 0.62930
#
# Static dielectric constant tensor:
#      x y z
#    x 1.649510 0.000000 0.000000 
#    y 0.000000 1.630420 0.000000 
#    z 0.000000 0.000000 1.593410 
# 
# From -- ./inp_files/22026.got.cif
#   From: 2010.05.17/outbox.cif.g08.bks.cpg/sg47_12_cif.got.tgz:22026.got - 2010.06.03 20:15:42.
