data_PCOD9388927
_publ_section_title
;
Structure prediction by ZEFSAII (Michael W. Deem and Ramdas Pophale) SiO2 
 PCOD9388927
Probable space group: P M M M
;
_chemical_formula_sum "Si O2"
_cell_formula_units_Z 52
_cell_length_a 35.096196
_cell_length_b 9.920412
_cell_length_c 7.344380
_cell_angle_alpha 90.000000
_cell_angle_beta 90.000000
_cell_angle_gamma 90.000000
_cell_volume 2557.083413
_symmetry_space_group_name_H-M "P M M M"
_symmetry_group_IT_number 47
_symmetry_cell_setting 'orthorhombic'
loop_
_space_group_symop_operation_xyz
x,y,z
-x,-y,z
x,-y,-z
-x,y,-z
-x,-y,-z
x,y,-z
-x,y,z
x,-y,z
loop_
_atom_site_type_symbol
_atom_site_label
_atom_site_fract_x
_atom_site_fract_y
_atom_site_fract_z
Si Si1 0.344832 0.845402 0.221762
Si Si2 0.193320 0.344445 0.218199
Si Si3 0.431119 0.845233 0.221677
Si Si4 0.109737 0.653266 0.715084
Si Si5 0.042874 0.155072 0.722049
Si Si6 0.276436 0.343011 0.778005
Si Si7 0.500000 0.344618 0.777518
O O1 0.387971 0.810563 0.277982
O O2 0.311790 0.745925 0.284725
O O3 0.337412 0.000000 0.275117
O O4 0.344743 0.842355 0.000000
O O5 0.192069 0.500000 0.283020
O O6 0.152192 0.285437 0.265147
O O7 0.234464 0.290370 0.278985
O O8 0.194675 0.346835 0.000000
O O9 0.462802 0.739196 0.280666
O O10 0.439445 0.000000 0.276903
O O11 0.431526 0.845542 0.000000
O O12 0.103157 0.641860 0.500000
O O13 0.109599 0.500000 0.789906
O O14 0.076129 0.746822 0.787568
O O15 0.043470 0.155606 0.500000
O O16 0.000000 0.195882 0.776077
O O17 0.048985 0.000000 0.777484
O O18 0.279866 0.500000 0.725200
O O19 0.277043 0.340983 0.000000
O O20 0.500000 0.500000 0.719230
O O21 0.500000 0.345328 0.000000
#
# Coordination Sequence:
#
# PCOD9388927 Si02
#       7
#     8   8   8   8   8   8   4
#     4   8  13  20  29  41  56  73  96 131 172 206
#     4   8  14  25  39  54  75 102 125 146 182 229
#     4   8  13  20  27  33  45  68  93 118 158 209
#     4   9  16  25  40  62  81  96 122 160 189 209
#     4   8  14  25  40  57  78 103 126 148 181 224
#     4   8  13  21  33  46  59  80 109 135 162 203
#     4   9  15  19  23  33  47  63  89 127 164 197
#
# _framework density 20.335667999999998
#
# number of rings (size 3 to 8) (size 9 to 14) (size 15 to 20)
#    0.000    3.769    0.000    2.538    0.000    1.846 
#    0.000    5.385    0.000    1.846    0.000    3.231 
#    0.000    0.000    0.000    0.000    0.000    0.000 
#
# Total GULP energy -289735.494135 kJ/mol
# GULP energy per Si atom -5571.836426 kJ/mol
# Density = 2.028938 g / cm^3
# Si number density = 20.335668 Si / 1000 Ang^3
#
#
#
# Elastic Constant Matrix: (Units=GPa)
#
#
# Indices 1 2 3 4 5 6 
#
# 1 242.2569 132.5162 5.0230 0.0000 0.0000 0.0000
# 2 132.5162 103.4681 4.2321 0.0000 0.0000 0.0000
# 3 5.0230 4.2321 75.3555 0.0000 0.0000 0.0000
# 4 0.0000 0.0000 0.0000 -11.2577 0.0000 0.0000
# 5 0.0000 0.0000 0.0000 0.0000 6.1604 0.0000
# 6 0.0000 0.0000 0.0000 0.0000 0.0000 155.1596
#
#
#
# Elastic Compliance Matrix: (Units=1/GPa)
#
#
# Indices 1 2 3 4 5 6 
#
# 1 0.013786 -0.017660 0.000073 0.000000 0.000000 0.000000
# 2 -0.017660 0.032309 -0.000637 0.000000 0.000000 0.000000
# 3 0.000073 -0.000637 0.013301 0.000000 0.000000 0.000000
# 4 0.000000 0.000000 0.000000 -0.088828 0.000000 0.000000
# 5 0.000000 0.000000 0.000000 0.000000 0.162327 0.000000
# 6 0.000000 0.000000 0.000000 0.000000 0.000000 0.006445
#
#
# Mechanical properties :
#
#
# Convention : Reuss Voigt Hill
#
# Bulk Modulus (GPa) = 43.57734 78.29145 60.93440
# Shear Modulus (GPa) = 27.25726 48.63309 37.94518
#
# Velocity S-wave (km/s) = 3.66507 4.89562 4.32434
# Velocity P-wave (km/s) = 6.27582 8.39877 7.41368
#
# Compressibility (1/GPa) = 0.02294770
#
# Stress axis : x y z
#
# Youngs Moduli (GPa) = 72.53551 30.95159 75.18025
#
# Poissons Ratio (x) = 0.54660 -0.00548
# Poissons Ratio (y) = 1.28096 0.04791
# Poissons Ratio (z) = -0.00528 0.01973
#
# Static dielectric constant tensor:
#      x y z
#    x 1.730860 0.000000 0.000000 
#    y 0.000000 1.680100 0.000000 
#    z 0.000000 0.000000 1.862040 
# 
# From -- ./inp_files/20037.got.cif
#   From: 2010.05.17/outbox.cif.g08.bks.cpg/sg47_11_cif.got.tgz:20037.got - 2010.06.03 20:15:42.
