data_PCOD9388439
_publ_section_title
;
Structure prediction by ZEFSAII (Michael W. Deem and Ramdas Pophale) SiO2 
 PCOD9388439
Probable space group: P M M M
;
_chemical_formula_sum "Si O2"
_cell_formula_units_Z 48
_cell_length_a 10.086731
_cell_length_b 18.304010
_cell_length_c 14.684831
_cell_angle_alpha 90.000000
_cell_angle_beta 90.000000
_cell_angle_gamma 90.000000
_cell_volume 2711.225472
_symmetry_space_group_name_H-M "P M M M"
_symmetry_group_IT_number 47
_symmetry_cell_setting 'orthorhombic'
loop_
_space_group_symop_operation_xyz
x,y,z
-x,-y,z
x,-y,-z
-x,y,-z
-x,-y,-z
x,y,-z
-x,y,z
x,-y,z
loop_
_atom_site_type_symbol
_atom_site_label
_atom_site_fract_x
_atom_site_fract_y
_atom_site_fract_z
Si Si1 0.839350 0.582818 0.896681
Si Si2 0.000000 0.912596 0.604946
Si Si3 0.247483 0.151589 0.713300
Si Si4 0.500000 0.088234 0.609346
Si Si5 0.649142 0.585708 0.390865
Si Si6 0.160744 0.681758 0.273253
Si Si7 0.844865 0.087990 0.103689
O O1 0.796283 0.500000 0.871664
O O2 0.804203 0.643583 0.823115
O O3 0.000000 0.581182 0.898284
O O4 0.794750 0.598085 0.000000
O O5 0.126248 0.884217 0.658721
O O6 0.000000 0.887548 0.500000
O O7 0.000000 0.000000 0.605340
O O8 0.375026 0.125343 0.658162
O O9 0.220473 0.237698 0.717801
O O10 0.242001 0.121874 0.816574
O O11 0.500000 0.100430 0.500000
O O12 0.500000 0.000000 0.623246
O O13 0.653397 0.591931 0.500000
O O14 0.500000 0.609192 0.361429
O O15 0.663200 0.500000 0.368038
O O16 0.766765 0.631526 0.347289
O O17 0.000000 0.683819 0.282403
O O18 0.000000 0.108857 0.118289
O O19 0.838869 0.000000 0.109255
O O20 0.809438 0.109035 0.000000
#
# Coordination Sequence:
#
# PCOD9388439 Si02
#       7
#     8   4   8   4   8   8   8
#     4   8  15  30  54  83 117 157 195 230 273 331
#     4  11  22  38  61  83 110 151 197 247 299 356
#     4  12  23  39  58  88 121 153 195 246 306 358
#     4  11  26  46  65  83 108 153 209 259 309 366
#     4   9  20  39  60  80 107 151 198 233 276 340
#     4  11  22  35  54  89 123 151 186 236 295 347
#     4   9  17  32  58  88 116 150 191 235 287 349
#
# _framework density 17.704170999999999
#
# number of rings (size 3 to 8) (size 9 to 14) (size 15 to 20)
#    0.000    2.000    1.667    4.000    1.167    4.667 
#    0.000    2.917    0.000    2.000    0.000    2.333 
#    0.000    0.000    0.000    0.000    0.000    0.000 
#
# Total GULP energy -267747.176179 kJ/mol
# GULP energy per Si atom -5578.066170 kJ/mol
# Density = 1.766388 g / cm^3
# Si number density = 17.704171 Si / 1000 Ang^3
#
#
#
# Elastic Constant Matrix: (Units=GPa)
#
#
# Indices 1 2 3 4 5 6 
#
# 1 108.1603 57.8343 62.4249 0.0000 0.0000 0.0000
# 2 57.8343 107.2411 68.9942 0.0000 0.0000 0.0000
# 3 62.4249 68.9942 125.0934 0.0000 0.0000 0.0000
# 4 0.0000 0.0000 0.0000 -112.2768 0.0000 0.0000
# 5 0.0000 0.0000 0.0000 0.0000 50.7209 0.0000
# 6 0.0000 0.0000 0.0000 0.0000 0.0000 26.5657
#
#
#
# Elastic Compliance Matrix: (Units=1/GPa)
#
#
# Indices 1 2 3 4 5 6 
#
# 1 0.014474 -0.004896 -0.004522 0.000000 0.000000 0.000000
# 2 -0.004896 0.016110 -0.006442 0.000000 0.000000 0.000000
# 3 -0.004522 -0.006442 0.013804 0.000000 0.000000 0.000000
# 4 0.000000 0.000000 0.000000 -0.008907 0.000000 0.000000
# 5 0.000000 0.000000 0.000000 0.000000 0.019716 0.000000
# 6 0.000000 0.000000 0.000000 0.000000 0.000000 0.037643
#
#
# Mechanical properties :
#
#
# Convention : Reuss Voigt Hill
#
# Bulk Modulus (GPa) = 78.94861 79.88906 79.41884
# Shear Modulus (GPa) = 38.82557 3.08471 20.95514
#
# Velocity S-wave (km/s) = 4.68805 1.32142 3.44412
# Velocity P-wave (km/s) = 8.60196 6.89569 7.79565
#
# Compressibility (1/GPa) = 0.01266647
#
# Stress axis : x y z
#
# Youngs Moduli (GPa) = 69.09154 62.07492 72.44413
#
# Poissons Ratio (x) = 0.30392 0.32762
# Poissons Ratio (y) = 0.33827 0.46667
# Poissons Ratio (z) = 0.31245 0.39988
#
# Static dielectric constant tensor:
#      x y z
#    x 1.515290 0.000000 0.000000 
#    y 0.000000 1.598790 0.000000 
#    z 0.000000 0.000000 1.609460 
# 
# From -- ./inp_files/21159.got.cif
#   From: 2010.05.17/outbox.cif.g08.bks.cpg/sg47_11_cif.got.tgz:21159.got - 2010.06.03 20:15:42.
