data_PCOD9388424
_publ_section_title
;
Structure prediction by ZEFSAII (Michael W. Deem and Ramdas Pophale) SiO2 
 PCOD9388424
Probable space group: P M M M
;
_chemical_formula_sum "Si O2"
_cell_formula_units_Z 58
_cell_length_a 15.934906
_cell_length_b 23.847824
_cell_length_c 7.554544
_cell_angle_alpha 90.000000
_cell_angle_beta 90.000000
_cell_angle_gamma 90.000000
_cell_volume 2870.823673
_symmetry_space_group_name_H-M "P M M M"
_symmetry_group_IT_number 47
_symmetry_cell_setting 'orthorhombic'
loop_
_space_group_symop_operation_xyz
x,y,z
-x,-y,z
x,-y,-z
-x,y,-z
-x,-y,-z
x,y,-z
-x,y,z
x,-y,z
loop_
_atom_site_type_symbol
_atom_site_label
_atom_site_fract_x
_atom_site_fract_y
_atom_site_fract_z
Si Si1 0.406003 0.771986 0.712087
Si Si2 0.131628 0.934043 0.701576
Si Si3 0.595934 0.354901 0.284055
Si Si4 0.093819 0.234863 0.789033
Si Si5 0.000000 0.899436 0.000000
Si Si6 0.745411 0.435549 0.716815
Si Si7 0.244627 0.842859 0.210173
Si Si8 0.093927 0.634296 0.286423
O O1 0.410414 0.768501 0.500000
O O2 0.500000 0.785427 0.777021
O O3 0.383746 0.708785 0.773638
O O4 0.334623 0.816367 0.753496
O O5 0.101216 0.928568 0.500000
O O6 0.221253 0.903414 0.714348
O O7 0.133891 0.000000 0.744965
O O8 0.072325 0.904591 0.844434
O O9 0.597001 0.355417 0.500000
O O10 0.500000 0.367606 0.230776
O O11 0.665492 0.399026 0.225123
O O12 0.171423 0.199015 0.719100
O O13 0.109290 0.300849 0.761866
O O14 0.000000 0.222147 0.717886
O O15 0.088722 0.224353 0.000000
O O16 0.745594 0.435151 0.500000
O O17 0.741023 0.500000 0.772777
O O18 0.831147 0.405329 0.775420
O O19 0.237225 0.845751 0.000000
O O20 0.092964 0.631474 0.500000
O O21 0.000000 0.619322 0.223534
#
# Coordination Sequence:
#
# PCOD9388424 Si02
#       8
#     8   8   8   8   2   8   8   8
#     4   9  18  34  55  78 105 139 181 229 283 344
#     4  11  24  40  61  88 120 164 208 245 292 342
#     4   8  14  25  42  64  92 126 162 206 264 329
#     4   9  19  33  49  71 101 135 170 213 269 328
#     4  12  23  42  64  86 124 166 210 258 285 328
#     4   9  16  24  37  60  89 121 159 205 256 314
#     4  11  22  34  56  82 114 148 183 234 287 338
#     4   9  17  29  44  62  87 121 162 207 255 311
#
# _framework density 20.20326
#
# number of rings (size 3 to 8) (size 9 to 14) (size 15 to 20)
#    0.000    2.483    0.690    2.897    0.966    3.586 
#    0.000    2.759    0.000    0.828    0.000    4.828 
#    0.000    0.000    0.000   11.862    0.000    9.655 
#
# Total GULP energy -323326.242660 kJ/mol
# GULP energy per Si atom -5574.590391 kJ/mol
# Density = 2.015728 g / cm^3
# Si number density = 20.203260 Si / 1000 Ang^3
#
#
#
# Elastic Constant Matrix: (Units=GPa)
#
#
# Indices 1 2 3 4 5 6 
#
# 1 120.1780 67.0607 14.9262 0.0000 0.0000 0.0000
# 2 67.0607 76.6544 11.8272 0.0000 0.0000 0.0000
# 3 14.9262 11.8272 64.6337 0.0000 0.0000 0.0000
# 4 0.0000 0.0000 0.0000 34.3854 0.0000 0.0000
# 5 0.0000 0.0000 0.0000 0.0000 14.2600 0.0000
# 6 0.0000 0.0000 0.0000 0.0000 0.0000-2295.8938
#
#
#
# Elastic Compliance Matrix: (Units=1/GPa)
#
#
# Indices 1 2 3 4 5 6 
#
# 1 0.016346 -0.014116 -0.001192 0.000000 0.000000 0.000000
# 2 -0.014116 0.025616 -0.001427 0.000000 0.000000 0.000000
# 3 -0.001192 -0.001427 0.016008 0.000000 0.000000 0.000000
# 4 0.000000 0.000000 0.000000 0.029082 0.000000 0.000000
# 5 0.000000 0.000000 0.000000 0.000000 0.070126 0.000000
# 6 0.000000 0.000000 0.000000 0.000000 0.000000 -0.000436
#
#
# Mechanical properties :
#
#
# Convention : Reuss Voigt Hill
#
# Bulk Modulus (GPa) = 40.81842 49.89936 45.35889
# Shear Modulus (GPa) = 25.20415 -438.27289 -206.53437
#
# Velocity S-wave (km/s) = 3.53587 -14.74458 -10.12177
# Velocity P-wave (km/s) = 6.07598 16.28244 10.68177
#
# Compressibility (1/GPa) = 0.02449874
#
# Stress axis : x y z
#
# Youngs Moduli (GPa) = 61.17636 39.03879 62.46795
#
# Poissons Ratio (x) = 0.55109 0.07445
# Poissons Ratio (y) = 0.86360 0.08916
# Poissons Ratio (z) = 0.07291 0.05572
#
# Static dielectric constant tensor:
#      x y z
#    x 1.742900 0.000000 0.000000 
#    y 0.000000 1.713980 0.000000 
#    z 0.000000 0.000000 1.762410 
# 
# From -- ./inp_files/7751.got.cif
#   From: 2010.05.17/outbox.cif.g08.bks.cpg/sg47_4_cif.got.tgz:7751.got - 2010.06.03 20:15:42.
