data_PCOD9388176
_publ_section_title
;
Structure prediction by ZEFSAII (Michael W. Deem and Ramdas Pophale) SiO2 
 PCOD9388176
Probable space group: P M M M
;
_chemical_formula_sum "Si O2"
_cell_formula_units_Z 56
_cell_length_a 19.766108
_cell_length_b 7.588037
_cell_length_c 19.610544
_cell_angle_alpha 90.000000
_cell_angle_beta 90.000000
_cell_angle_gamma 90.000000
_cell_volume 2941.306245
_symmetry_space_group_name_H-M "P M M M"
_symmetry_group_IT_number 47
_symmetry_cell_setting 'orthorhombic'
loop_
_space_group_symop_operation_xyz
x,y,z
-x,-y,z
x,-y,-z
-x,y,-z
-x,-y,-z
x,y,-z
-x,y,z
x,-y,z
loop_
_atom_site_type_symbol
_atom_site_label
_atom_site_fract_x
_atom_site_fract_y
_atom_site_fract_z
Si Si1 0.301510 0.703306 0.798306
Si Si2 0.074650 0.287635 0.299922
Si Si3 0.657004 0.708952 0.424190
Si Si4 0.214731 0.283761 0.923151
Si Si5 0.779292 0.795656 0.666988
Si Si6 0.074827 0.714745 0.858540
Si Si7 0.422786 0.716515 0.708077
O O1 0.316546 0.500000 0.814678
O O2 0.266724 0.780160 0.865356
O O3 0.247281 0.704968 0.736316
O O4 0.370101 0.778509 0.765792
O O5 0.074378 0.500000 0.300100
O O6 0.140813 0.230072 0.340423
O O7 0.082750 0.231756 0.220700
O O8 0.000000 0.228259 0.323147
O O9 0.648894 0.783366 0.500000
O O10 0.644558 0.500000 0.428287
O O11 0.732742 0.732491 0.395044
O O12 0.607164 0.775890 0.364918
O O13 0.214628 0.500000 0.921106
O O14 0.139070 0.227455 0.901840
O O15 0.230979 0.230528 0.000000
O O16 0.764948 0.000000 0.676676
O O17 0.074967 0.500000 0.859110
O O18 0.000000 0.770818 0.881964
O O19 0.500000 0.769742 0.717945
O O20 0.420636 0.500000 0.708005
#
# Coordination Sequence:
#
# PCOD9388176 Si02
#       7
#     8   8   8   8   8   8   8
#     4   9  16  29  46  63  89 120 156 196 231 277
#     4   9  16  28  47  67  88 118 157 199 238 274
#     4   9  18  32  50  71  95 123 151 180 219 271
#     4   9  15  22  37  61  87 117 154 198 240 273
#     4  11  20  29  46  69  94 123 155 191 229 271
#     4   8  13  21  35  57  84 112 144 186 232 273
#     4   8  14  25  45  72  95 118 150 187 224 263
#
# _framework density 19.039159000000001
#
# number of rings (size 3 to 8) (size 9 to 14) (size 15 to 20)
#    0.000    3.000    1.429    3.000    0.000    1.143 
#    0.000    2.857    0.000    8.143    0.000   10.000 
#    0.000    2.286    0.000    5.143    0.000    5.714 
#
# Total GULP energy -312127.936246 kJ/mol
# GULP energy per Si atom -5573.713147 kJ/mol
# Density = 1.899583 g / cm^3
# Si number density = 19.039159 Si / 1000 Ang^3
#
#
#
# Elastic Constant Matrix: (Units=GPa)
#
#
# Indices 1 2 3 4 5 6 
#
# 1 165.8804 -2.0844 75.2772 0.0000 0.0000 0.0000
# 2 -2.0844 42.5559 4.2602 0.0000 0.0000 0.0000
# 3 75.2772 4.2602 103.1597 0.0000 0.0000 0.0000
# 4 0.0000 0.0000 0.0000 -15.4384 0.0000 0.0000
# 5 0.0000 0.0000 0.0000 0.0000 5.2181 0.0000
# 6 0.0000 0.0000 0.0000 0.0000 0.0000 -24.3966
#
#
#
# Elastic Compliance Matrix: (Units=1/GPa)
#
#
# Indices 1 2 3 4 5 6 
#
# 1 0.009065 0.001111 -0.006661 0.000000 0.000000 0.000000
# 2 0.001111 0.023732 -0.001791 0.000000 0.000000 0.000000
# 3 -0.006661 -0.001791 0.014628 0.000000 0.000000 0.000000
# 4 0.000000 0.000000 0.000000 -0.064773 0.000000 0.000000
# 5 0.000000 0.000000 0.000000 0.000000 0.191642 0.000000
# 6 0.000000 0.000000 0.000000 0.000000 0.000000 -0.040989
#
#
# Mechanical properties :
#
#
# Convention : Reuss Voigt Hill
#
# Bulk Modulus (GPa) = 30.53984 51.83356 41.18670
# Shear Modulus (GPa) = 31.46625 8.68614 20.07620
#
# Velocity S-wave (km/s) = 4.06977 2.13826 3.25078
# Velocity P-wave (km/s) = 6.17733 5.77754 5.98078
#
# Compressibility (1/GPa) = 0.03274411
#
# Stress axis : x y z
#
# Youngs Moduli (GPa) = 110.31318 42.13691 68.36132
#
# Poissons Ratio (x) = -0.04681 0.45534
# Poissons Ratio (y) = -0.12254 0.12241
# Poissons Ratio (z) = 0.73478 0.07545
#
# Static dielectric constant tensor:
#      x y z
#    x 1.667090 0.000000 0.000000 
#    y 0.000000 1.692310 0.000000 
#    z 0.000000 0.000000 1.644070 
# 
# From -- ./inp_files/9841.got.cif
#   From: 2010.05.17/outbox.cif.g08.bks.cpg/sg47_5_cif.got.tgz:9841.got - 2010.06.03 20:15:42.
