data_PCOD9388169
_publ_section_title
;
Structure prediction by ZEFSAII (Michael W. Deem and Ramdas Pophale) SiO2 
 PCOD9388169
Probable space group: P M M M
;
_chemical_formula_sum "Si O2"
_cell_formula_units_Z 40
_cell_length_a 19.976885
_cell_length_b 13.862402
_cell_length_c 10.432624
_cell_angle_alpha 90.000000
_cell_angle_beta 90.000000
_cell_angle_gamma 90.000000
_cell_volume 2889.081636
_symmetry_space_group_name_H-M "P M M M"
_symmetry_group_IT_number 47
_symmetry_cell_setting 'orthorhombic'
loop_
_space_group_symop_operation_xyz
x,y,z
-x,-y,z
x,-y,-z
-x,y,-z
-x,-y,-z
x,y,-z
-x,y,z
x,-y,z
loop_
_atom_site_type_symbol
_atom_site_label
_atom_site_fract_x
_atom_site_fract_y
_atom_site_fract_z
Si Si1 0.079797 0.115788 0.500000
Si Si2 0.921841 0.613641 0.153264
Si Si3 0.078468 0.113827 0.000000
Si Si4 0.853739 0.794357 0.248346
Si Si5 0.279408 0.115995 0.844924
Si Si6 0.571836 0.115871 0.846792
O O1 0.114448 0.161439 0.375632
O O2 0.000000 0.135179 0.500000
O O3 0.088524 0.000000 0.500000
O O4 0.912731 0.500000 0.178350
O O5 0.872570 0.682161 0.232026
O O6 0.000000 0.637822 0.180595
O O7 0.911948 0.628506 0.000000
O O8 0.110116 0.156986 0.126761
O O9 0.000000 0.133645 0.000000
O O10 0.089874 0.000000 0.000000
O O11 0.776765 0.824173 0.229168
O O12 0.354463 0.146814 0.803084
O O13 0.271339 0.000000 0.823881
O O14 0.272877 0.129853 0.000000
O O15 0.500000 0.152821 0.795374
O O16 0.571435 0.000000 0.829951
O O17 0.571382 0.132595 0.000000
#
# Coordination Sequence:
#
# PCOD9388169 Si02
#       6
#     4   8   4   8   8   8
#     4  11  24  36  43  57  88 124 151 176 213 263
#     4   9  17  30  48  67  83 102 136 184 232 270
#     4  11  20  28  43  63  80 104 141 176 209 255
#     4  12  20  31  46  62  84 112 144 183 222 255
#     4   9  15  23  38  61  85 108 138 175 211 253
#     4   7  10  17  30  51  81 111 133 159 201 249
#
# _framework density 13.845231
#
# number of rings (size 3 to 8) (size 9 to 14) (size 15 to 20)
#    0.000    2.400    2.000    6.000    0.000    1.600 
#    0.000    0.500    0.000    1.800    0.000    0.700 
#    0.000    4.800    0.000    7.400    0.000    2.400 
#
# Total GULP energy -222696.231561 kJ/mol
# GULP energy per Si atom -5567.405789 kJ/mol
# Density = 1.381372 g / cm^3
# Si number density = 13.845231 Si / 1000 Ang^3
#
#
#
# Elastic Constant Matrix: (Units=GPa)
#
#
# Indices 1 2 3 4 5 6 
#
# 1 170.2054 36.4537 38.6377 0.0000 0.0000 0.0000
# 2 36.4537 62.3503 21.4418 0.0000 0.0000 0.0000
# 3 38.6377 21.4418 60.0902 0.0000 0.0000 0.0000
# 4 0.0000 0.0000 0.0000 16.4518 0.0000 0.0000
# 5 0.0000 0.0000 0.0000 0.0000 15.5167 0.0000
# 6 0.0000 0.0000 0.0000 0.0000 0.0000 34.6153
#
#
#
# Elastic Compliance Matrix: (Units=1/GPa)
#
#
# Indices 1 2 3 4 5 6 
#
# 1 0.007355 -0.003048 -0.003641 0.000000 0.000000 0.000000
# 2 -0.003048 0.019545 -0.005014 0.000000 0.000000 0.000000
# 3 -0.003641 -0.005014 0.020772 0.000000 0.000000 0.000000
# 4 0.000000 0.000000 0.000000 0.060783 0.000000 0.000000
# 5 0.000000 0.000000 0.000000 0.000000 0.064447 0.000000
# 6 0.000000 0.000000 0.000000 0.000000 0.000000 0.028889
#
#
# Mechanical properties :
#
#
# Convention : Reuss Voigt Hill
#
# Bulk Modulus (GPa) = 41.21248 53.96805 47.59026
# Shear Modulus (GPa) = 21.43290 26.39096 23.91193
#
# Velocity S-wave (km/s) = 3.93878 4.37067 4.16033
# Velocity P-wave (km/s) = 7.10749 8.03334 7.58456
#
# Compressibility (1/GPa) = 0.02426449
#
# Stress axis : x y z
#
# Youngs Moduli (GPa) = 135.96874 51.16479 48.14085
#
# Poissons Ratio (x) = 0.15593 0.17530
# Poissons Ratio (y) = 0.41439 0.24140
# Poissons Ratio (z) = 0.49513 0.25656
#
# Static dielectric constant tensor:
#      x y z
#    x 1.500540 0.000000 0.000000 
#    y 0.000000 1.456720 0.000000 
#    z 0.000000 0.000000 1.431770 
# 
# From -- ./inp_files/10799.got.cif
#   From: 2010.05.17/outbox.cif.g08.bks.cpg/sg47_6_cif.got.tgz:10799.got - 2010.06.03 20:15:42.
