data_PCOD9388987
_publ_section_title
;
Structure prediction by ZEFSAII (Michael W. Deem and Ramdas Pophale) SiO2 
 PCOD9388987
Probable space group: P M M M
;
_chemical_formula_sum "Si O2"
_cell_formula_units_Z 52
_cell_length_a 13.186260
_cell_length_b 7.318797
_cell_length_c 23.255078
_cell_angle_alpha 90.000000
_cell_angle_beta 90.000000
_cell_angle_gamma 90.000000
_cell_volume 2244.290838
_symmetry_space_group_name_H-M "P M M M"
_symmetry_group_IT_number 47
_symmetry_cell_setting 'orthorhombic'
loop_
_space_group_symop_operation_xyz
x,y,z
-x,-y,z
x,-y,-z
-x,y,-z
-x,-y,-z
x,y,-z
-x,y,z
x,-y,z
loop_
_atom_site_type_symbol
_atom_site_label
_atom_site_fract_x
_atom_site_fract_y
_atom_site_fract_z
Si Si1 0.884332 0.277757 0.566278
Si Si2 0.170233 0.788602 0.937857
Si Si3 0.692337 0.276345 0.639291
Si Si4 0.110696 0.221723 0.187005
Si Si5 0.611785 0.278517 0.891231
Si Si6 0.500000 0.277622 0.434970
Si Si7 0.325635 0.706583 0.233721
O O1 0.860726 0.224152 0.500000
O O2 0.883433 0.500000 0.566601
O O3 0.799252 0.217947 0.611623
O O4 0.000000 0.220992 0.579350
O O5 0.123382 0.714155 0.879103
O O6 0.291704 0.782717 0.927772
O O7 0.138602 0.000000 0.939591
O O8 0.145339 0.707563 0.000000
O O9 0.695929 0.500000 0.642344
O O10 0.601477 0.222853 0.597606
O O11 0.665116 0.210695 0.703355
O O12 0.205230 0.295832 0.221791
O O13 0.000000 0.271969 0.208983
O O14 0.118850 0.000000 0.187216
O O15 0.500000 0.224592 0.911580
O O16 0.616295 0.500000 0.890796
O O17 0.628002 0.214458 0.825077
O O18 0.500000 0.500000 0.435285
O O19 0.500000 0.214825 0.500000
O O20 0.366357 0.500000 0.236864
#
# Coordination Sequence:
#
# PCOD9388987 Si02
#       7
#     8   8   8   8   8   4   8
#     4   8  13  21  32  47  73 109 143 176 220 272
#     4   9  18  32  49  70  93 115 146 188 229 273
#     4   9  16  24  37  58  84 117 154 191 229 270
#     4   9  18  33  51  69  92 122 151 183 228 278
#     4   9  18  31  46  63  88 123 156 187 227 273
#     4   9  16  24  36  58  91 127 158 191 234 284
#     4   9  18  30  45  67  92 120 154 193 229 267
#
# _framework density 23.169900999999999
#
# number of rings (size 3 to 8) (size 9 to 14) (size 15 to 20)
#    0.000    3.154    0.000    0.923    1.077    4.000 
#    0.000    4.615    0.000    0.000    0.000    4.308 
#    0.000    3.077    0.000    8.462    0.000    6.462 
#
# Total GULP energy -290306.644393 kJ/mol
# GULP energy per Si atom -5582.820084 kJ/mol
# Density = 2.311716 g / cm^3
# Si number density = 23.169901 Si / 1000 Ang^3
#
#
#
# Elastic Constant Matrix: (Units=GPa)
#
#
# Indices 1 2 3 4 5 6 
#
# 1 72.1672 -6.3895 -5.8375 0.0000 0.0000 0.0000
# 2 -6.3895 95.1105 0.6992 0.0000 0.0000 0.0000
# 3 -5.8375 0.6992 102.1417 0.0000 0.0000 0.0000
# 4 0.0000 0.0000 0.0000 -9.0256 0.0000 0.0000
# 5 0.0000 0.0000 0.0000 0.0000 -12.4258 0.0000
# 6 0.0000 0.0000 0.0000 0.0000 0.0000 -4.6680
#
#
#
# Elastic Compliance Matrix: (Units=1/GPa)
#
#
# Indices 1 2 3 4 5 6 
#
# 1 0.014004 0.000935 0.000794 0.000000 0.000000 0.000000
# 2 0.000935 0.010577 -0.000019 0.000000 0.000000 0.000000
# 3 0.000794 -0.000019 0.009836 0.000000 0.000000 0.000000
# 4 0.000000 0.000000 0.000000 -0.110796 0.000000 0.000000
# 5 0.000000 0.000000 0.000000 0.000000 -0.080477 0.000000
# 6 0.000000 0.000000 0.000000 0.000000 0.000000 -0.214224
#
#
# Mechanical properties :
#
#
# Convention : Reuss Voigt Hill
#
# Bulk Modulus (GPa) = 26.42963 27.37376 26.90170
# Shear Modulus (GPa) = -13.81642 13.50592 -0.15525
#
# Velocity S-wave (km/s) = -2.44459 2.41697 -0.25914
# Velocity P-wave (km/s) = 1.86107 4.43046 3.39798
#
# Compressibility (1/GPa) = 0.03783633
#
# Stress axis : x y z
#
# Youngs Moduli (GPa) = 71.40965 94.54450 101.66918
#
# Poissons Ratio (x) = -0.08839 -0.08072
# Poissons Ratio (y) = -0.06676 0.00193
# Poissons Ratio (z) = -0.05669 0.00179
#
# Static dielectric constant tensor:
#      x y z
#    x 1.824890 0.000000 0.000000 
#    y 0.000000 1.984780 0.000000 
#    z 0.000000 0.000000 1.839950 
# 
# From -- ./inp_files/30847.got.cif
#   From: 2010.05.17/outbox.cif.g08.bks.cpg/sg47_16_cif.got.tgz:30847.got - 2010.06.03 20:15:42.
