data_PCOD9388301
_publ_section_title
;
Structure prediction by ZEFSAII (Michael W. Deem and Ramdas Pophale) SiO2 
 PCOD9388301
Probable space group: P M M M
;
_chemical_formula_sum "Si O2"
_cell_formula_units_Z 40
_cell_length_a 8.699468
_cell_length_b 11.138485
_cell_length_c 22.961564
_cell_angle_alpha 90.000000
_cell_angle_beta 90.000000
_cell_angle_gamma 90.000000
_cell_volume 2224.950152
_symmetry_space_group_name_H-M "P M M M"
_symmetry_group_IT_number 47
_symmetry_cell_setting 'orthorhombic'
loop_
_space_group_symop_operation_xyz
x,y,z
-x,-y,z
x,-y,-z
-x,y,-z
-x,-y,-z
x,y,-z
-x,y,z
x,-y,z
loop_
_atom_site_type_symbol
_atom_site_label
_atom_site_fract_x
_atom_site_fract_y
_atom_site_fract_z
Si Si1 0.830653 0.359084 0.000000
Si Si2 0.187425 0.863289 0.356395
Si Si3 0.184802 0.138996 0.221634
Si Si4 0.824366 0.000000 0.068997
Si Si5 0.319371 0.755968 0.111546
Si Si6 0.187176 0.365033 0.568011
O O1 0.748681 0.326865 0.060634
O O2 0.846804 0.500000 0.000000
O O3 0.000000 0.298774 0.000000
O O4 0.230580 0.842795 0.288836
O O5 0.240314 0.750896 0.395420
O O6 0.000000 0.864348 0.358585
O O7 0.235935 0.000000 0.373114
O O8 0.250819 0.236473 0.176732
O O9 0.000000 0.144333 0.218806
O O10 0.229465 0.000000 0.206883
O O11 0.730009 0.885402 0.087860
O O12 0.000000 0.000000 0.092540
O O13 0.835661 0.000000 0.000000
O O14 0.500000 0.738720 0.114729
O O15 0.229190 0.352102 0.500000
O O16 0.235749 0.500000 0.587428
O O17 0.000000 0.364606 0.570646
#
# Coordination Sequence:
#
# PCOD9388301 Si02
#       6
#     4   8   8   4   8   8
#     4  11  25  44  61  74  95 133 175 209 250 309
#     4   8  14  24  38  58  84 121 166 203 242 295
#     4   9  17  30  48  68  97 133 165 202 245 296
#     4  11  21  33  53  79 106 132 161 200 247 300
#     4  12  23  34  54  80 105 129 161 208 259 305
#     4   8  13  21  34  55  86 121 155 198 252 302
#
# _framework density 17.977931999999999
#
# number of rings (size 3 to 8) (size 9 to 14) (size 15 to 20)
#    0.000    2.400    2.000    4.200    0.000    1.600 
#    0.000    3.000    0.000    3.600    0.000    0.000 
#    0.000    0.800    0.000    6.600    0.000    8.000 
#
# Total GULP energy -222680.509654 kJ/mol
# GULP energy per Si atom -5567.012741 kJ/mol
# Density = 1.793701 g / cm^3
# Si number density = 17.977932 Si / 1000 Ang^3
#
#
#
# Elastic Constant Matrix: (Units=GPa)
#
#
# Indices 1 2 3 4 5 6 
#
# 1 42.1180 17.5157 24.6722 0.0000 0.0000 0.0000
# 2 17.5157 124.2709 80.8794 0.0000 0.0000 0.0000
# 3 24.6722 80.8794 118.1838 0.0000 0.0000 0.0000
# 4 0.0000 0.0000 0.0000 -38.6888 0.0000 0.0000
# 5 0.0000 0.0000 0.0000 0.0000 -9.8912 0.0000
# 6 0.0000 0.0000 0.0000 0.0000 0.0000 19.9377
#
#
#
# Elastic Compliance Matrix: (Units=1/GPa)
#
#
# Indices 1 2 3 4 5 6 
#
# 1 0.027055 -0.000248 -0.005478 0.000000 0.000000 0.000000
# 2 -0.000248 0.014512 -0.009879 0.000000 0.000000 0.000000
# 3 -0.005478 -0.009879 0.016366 0.000000 0.000000 0.000000
# 4 0.000000 0.000000 0.000000 -0.025847 0.000000 0.000000
# 5 0.000000 0.000000 0.000000 0.000000 -0.101100 0.000000
# 6 0.000000 0.000000 0.000000 0.000000 0.000000 0.050156
#
#
# Mechanical properties :
#
#
# Convention : Reuss Voigt Hill
#
# Bulk Modulus (GPa) = 37.42300 58.96748 48.19524
# Shear Modulus (GPa) = 235.18250 5.03857 120.11053
#
# Velocity S-wave (km/s) = 11.44995 1.67592 8.18260
# Velocity P-wave (km/s) = 13.98796 6.05112 10.77681
#
# Compressibility (1/GPa) = 0.02672154
#
# Stress axis : x y z
#
# Youngs Moduli (GPa) = 36.96165 68.91013 61.10208
#
# Poissons Ratio (x) = 0.01707 0.33475
# Poissons Ratio (y) = 0.00916 0.60365
# Poissons Ratio (z) = 0.20249 0.68079
#
# Static dielectric constant tensor:
#      x y z
#    x 1.617810 0.000000 0.000000 
#    y 0.000000 1.611420 0.000000 
#    z 0.000000 0.000000 1.664070 
# 
# From -- ./inp_files/29357.got.cif
#   From: 2010.05.17/outbox.cif.g08.bks.cpg/sg47_15_cif.got.tgz:29357.got - 2010.06.03 20:15:42.
