data_PCOD9388058
_publ_section_title
;
Structure prediction by ZEFSAII (Michael W. Deem and Ramdas Pophale) SiO2 
 PCOD9388058
Probable space group: P M M M
;
_chemical_formula_sum "Si O2"
_cell_formula_units_Z 48
_cell_length_a 9.100334
_cell_length_b 14.777453
_cell_length_c 17.739188
_cell_angle_alpha 90.000000
_cell_angle_beta 90.000000
_cell_angle_gamma 90.000000
_cell_volume 2385.561709
_symmetry_space_group_name_H-M "P M M M"
_symmetry_group_IT_number 47
_symmetry_cell_setting 'orthorhombic'
loop_
_space_group_symop_operation_xyz
x,y,z
-x,-y,z
x,-y,-z
-x,y,-z
-x,-y,-z
x,y,-z
-x,y,z
x,-y,z
loop_
_atom_site_type_symbol
_atom_site_label
_atom_site_fract_x
_atom_site_fract_y
_atom_site_fract_z
Si Si1 0.166084 0.109168 0.690592
Si Si2 0.323611 0.244494 0.585745
Si Si3 0.345133 0.894087 0.170644
Si Si4 0.325012 0.606314 0.293222
Si Si5 0.171254 0.391232 0.135706
Si Si6 0.755367 0.898704 0.000000
Si Si7 0.321430 0.708933 0.000000
O O1 0.268058 0.156187 0.629490
O O2 0.217733 0.138782 0.774713
O O3 0.000000 0.138561 0.678363
O O4 0.170615 0.000000 0.684890
O O5 0.268620 0.249242 0.500000
O O6 0.500000 0.242696 0.583302
O O7 0.281671 0.330233 0.637215
O O8 0.500000 0.848171 0.188986
O O9 0.355283 0.000000 0.190296
O O10 0.324577 0.896058 0.080983
O O11 0.500000 0.618827 0.278497
O O12 0.302703 0.500000 0.309970
O O13 0.232771 0.629435 0.218750
O O14 0.177259 0.500000 0.126034
O O15 0.000000 0.363965 0.126918
O O16 0.277533 0.346173 0.074287
O O17 0.796785 0.793121 0.000000
O O18 0.829202 0.000000 0.000000
O O19 0.500000 0.730498 0.000000
#
# Coordination Sequence:
#
# PCOD9388058 Si02
#       7
#     8   8   8   8   8   4   4
#     4  10  22  39  58  83 117 157 199 243 292 341
#     4  10  22  39  61  90 120 150 188 235 288 351
#     4   9  17  33  57  80 106 146 195 243 288 337
#     4   9  19  38  64  91 119 151 188 234 290 351
#     4  10  22  41  62  85 118 158 198 242 294 350
#     4  10  22  39  58  84 119 159 203 247 292 342
#     4  12  24  35  57  91 122 157 203 252 295 338
#
# _framework density 20.121047000000001
#
# number of rings (size 3 to 8) (size 9 to 14) (size 15 to 20)
#    0.000    2.167    0.000    2.250    2.333    6.500 
#    0.000    4.583    0.000    4.500    0.000    3.500 
#    0.000    0.000    0.000    0.000    0.000    0.000 
#
# Total GULP energy -267345.278122 kJ/mol
# GULP energy per Si atom -5569.693294 kJ/mol
# Density = 2.007525 g / cm^3
# Si number density = 20.121047 Si / 1000 Ang^3
#
#
#
# Elastic Constant Matrix: (Units=GPa)
#
#
# Indices 1 2 3 4 5 6 
#
# 1 45.0952 24.8433 40.9379 0.0000 0.0000 0.0000
# 2 24.8433 60.6092 36.4799 0.0000 0.0000 0.0000
# 3 40.9379 36.4799 130.6866 0.0000 0.0000 0.0000
# 4 0.0000 0.0000 0.0000 26.7846 0.0000 0.0000
# 5 0.0000 0.0000 0.0000 0.0000 -24.9613 0.0000
# 6 0.0000 0.0000 0.0000 0.0000 0.0000 11.0744
#
#
#
# Elastic Compliance Matrix: (Units=1/GPa)
#
#
# Indices 1 2 3 4 5 6 
#
# 1 0.034841 -0.009269 -0.008326 0.000000 0.000000 0.000000
# 2 -0.009269 0.022297 -0.003320 0.000000 0.000000 0.000000
# 3 -0.008326 -0.003320 0.011187 0.000000 0.000000 0.000000
# 4 0.000000 0.000000 0.000000 0.037335 0.000000 0.000000
# 5 0.000000 0.000000 0.000000 0.000000 -0.040062 0.000000
# 6 0.000000 0.000000 0.000000 0.000000 0.000000 0.090298
#
#
# Mechanical properties :
#
#
# Convention : Reuss Voigt Hill
#
# Bulk Modulus (GPa) = 37.74667 48.99036 43.36852
# Shear Modulus (GPa) = 24.20612 11.52153 17.86382
#
# Velocity S-wave (km/s) = 3.47223 2.39552 2.98286
# Velocity P-wave (km/s) = 5.90556 5.66145 5.78480
#
# Compressibility (1/GPa) = 0.02649240
#
# Stress axis : x y z
#
# Youngs Moduli (GPa) = 28.70205 44.84891 89.38912
#
# Poissons Ratio (x) = 0.41572 0.74430
# Poissons Ratio (y) = 0.26605 0.29681
# Poissons Ratio (z) = 0.23899 0.14892
#
# Static dielectric constant tensor:
#      x y z
#    x 1.715180 0.000000 0.000000 
#    y 0.000000 1.745830 0.000000 
#    z 0.000000 0.000000 1.689540 
# 
# From -- ./inp_files/21061.got.cif
#   From: 2010.05.17/outbox.cif.g08.bks.cpg/sg47_11_cif.got.tgz:21061.got - 2010.06.03 20:15:42.
