data_PCOD9388240
_publ_section_title
;
Structure prediction by ZEFSAII (Michael W. Deem and Ramdas Pophale) SiO2 
 PCOD9388240
Probable space group: P M M M
;
_chemical_formula_sum "Si O2"
_cell_formula_units_Z 52
_cell_length_a 27.300669
_cell_length_b 14.163345
_cell_length_c 8.764208
_cell_angle_alpha 90.000000
_cell_angle_beta 90.000000
_cell_angle_gamma 90.000000
_cell_volume 3388.845736
_symmetry_space_group_name_H-M "P M M M"
_symmetry_group_IT_number 47
_symmetry_cell_setting 'orthorhombic'
loop_
_space_group_symop_operation_xyz
x,y,z
-x,-y,z
x,-y,-z
-x,y,-z
-x,-y,-z
x,y,-z
-x,y,z
x,-y,z
loop_
_atom_site_type_symbol
_atom_site_label
_atom_site_fract_x
_atom_site_fract_y
_atom_site_fract_z
Si Si1 0.602879 0.889650 0.184125
Si Si2 0.241844 0.392436 0.184694
Si Si3 0.148380 0.712766 0.318588
Si Si4 0.701219 0.210210 0.814856
Si Si5 0.500000 0.885521 0.676953
Si Si6 0.056435 0.610164 0.183515
Si Si7 0.801498 0.891756 0.184354
O O1 0.649294 0.829195 0.239311
O O2 0.550609 0.854889 0.245413
O O3 0.609536 0.000000 0.228240
O O4 0.699124 0.790394 0.000000
O O5 0.251837 0.500000 0.230467
O O6 0.190374 0.355712 0.250088
O O7 0.282637 0.315512 0.231987
O O8 0.238522 0.389317 0.000000
O O9 0.151196 0.711440 0.500000
O O10 0.096110 0.675799 0.262347
O O11 0.161587 0.816655 0.256521
O O12 0.746574 0.142170 0.772649
O O13 0.601596 0.112910 0.000000
O O14 0.500000 0.859901 0.500000
O O15 0.500000 0.000000 0.689022
O O16 0.065545 0.500000 0.222679
O O17 0.000000 0.631863 0.223545
O O18 0.061052 0.618137 0.000000
O O19 0.809693 0.000000 0.228697
O O20 0.804730 0.885069 0.000000
#
# Coordination Sequence:
#
# PCOD9388240 Si02
#       7
#     8   8   8   8   4   8   8
#     4   9  15  24  40  60  82 108 138 173 213 257
#     4   9  17  30  47  65  88 119 152 183 215 256
#     4  11  21  30  44  68  97 124 147 177 219 264
#     4   8  14  25  43  67  88 108 141 182 220 256
#     4   9  17  27  37  53  80 111 140 170 207 253
#     4   9  18  33  52  71  90 115 149 187 224 263
#     4   9  17  31  50  68  88 118 154 186 216 256
#
# _framework density 15.344457
#
# number of rings (size 3 to 8) (size 9 to 14) (size 15 to 20)
#    0.000    2.846    0.000    3.923    0.000    5.846 
#    0.000    3.846    0.000    4.154    0.000    3.769 
#    0.000    4.308    0.000    0.000    0.000    0.000 
#
# Total GULP energy -289737.162343 kJ/mol
# GULP energy per Si atom -5571.868507 kJ/mol
# Density = 1.530953 g / cm^3
# Si number density = 15.344457 Si / 1000 Ang^3
#
#
#
# Elastic Constant Matrix: (Units=GPa)
#
#
# Indices 1 2 3 4 5 6 
#
# 1 134.7150 81.6096 34.1843 0.0000 0.0000 0.0000
# 2 81.6096 122.1625 32.1668 0.0000 0.0000 0.0000
# 3 34.1843 32.1668 20.2715 0.0000 0.0000 0.0000
# 4 0.0000 0.0000 0.0000 4.3398 0.0000 0.0000
# 5 0.0000 0.0000 0.0000 0.0000 -9.5804 0.0000
# 6 0.0000 0.0000 0.0000 0.0000 0.0000 23.4124
#
#
#
# Elastic Compliance Matrix: (Units=1/GPa)
#
#
# Indices 1 2 3 4 5 6 
#
# 1 0.015029 -0.005783 -0.016167 0.000000 0.000000 0.000000
# 2 -0.005783 0.016286 -0.016091 0.000000 0.000000 0.000000
# 3 -0.016167 -0.016091 0.102126 0.000000 0.000000 0.000000
# 4 0.000000 0.000000 0.000000 0.230427 0.000000 0.000000
# 5 0.000000 0.000000 0.000000 0.000000 -0.104380 0.000000
# 6 0.000000 0.000000 0.000000 0.000000 0.000000 0.042712
#
#
# Mechanical properties :
#
#
# Convention : Reuss Voigt Hill
#
# Bulk Modulus (GPa) = 17.43393 63.67449 40.55421
# Shear Modulus (GPa) = 12.58173 12.24691 12.41432
#
# Velocity S-wave (km/s) = 2.86659 2.82819 2.84745
# Velocity P-wave (km/s) = 4.72682 7.22853 6.10715
#
# Compressibility (1/GPa) = 0.05735940
#
# Stress axis : x y z
#
# Youngs Moduli (GPa) = 66.53929 61.40305 9.79182
#
# Poissons Ratio (x) = 0.35508 0.15831
# Poissons Ratio (y) = 0.38478 0.15756
# Poissons Ratio (z) = 1.07575 0.98802
#
# Static dielectric constant tensor:
#      x y z
#    x 1.500700 0.000000 0.000000 
#    y 0.000000 1.505790 0.000000 
#    z 0.000000 0.000000 1.508390 
# 
# From -- ./inp_files/12518.got.cif
#   From: 2010.05.17/outbox.cif.g08.bks.cpg/sg47_7_cif.got.tgz:12518.got - 2010.06.03 20:15:42.
