data_PCOD9388597
_publ_section_title
;
Structure prediction by ZEFSAII (Michael W. Deem and Ramdas Pophale) SiO2 
 PCOD9388597
Probable space group: P M M M
;
_chemical_formula_sum "Si O2"
_cell_formula_units_Z 36
_cell_length_a 9.750210
_cell_length_b 24.500893
_cell_length_c 7.995242
_cell_angle_alpha 90.000000
_cell_angle_beta 90.000000
_cell_angle_gamma 90.000000
_cell_volume 1909.974182
_symmetry_space_group_name_H-M "P M M M"
_symmetry_group_IT_number 47
_symmetry_cell_setting 'orthorhombic'
loop_
_space_group_symop_operation_xyz
x,y,z
-x,-y,z
x,-y,-z
-x,y,-z
-x,-y,-z
x,y,-z
-x,y,z
x,-y,z
loop_
_atom_site_type_symbol
_atom_site_label
_atom_site_fract_x
_atom_site_fract_y
_atom_site_fract_z
Si Si1 0.657574 0.560554 0.798322
Si Si2 0.833008 0.779515 0.693342
Si Si3 0.157273 0.898527 0.702224
Si Si4 0.843742 0.661646 0.701574
Si Si5 0.655876 0.000000 0.800474
O O1 0.500000 0.567802 0.742475
O O2 0.704123 0.500000 0.742007
O O3 0.750737 0.610408 0.743310
O O4 0.657013 0.559934 0.000000
O O5 0.785561 0.780196 0.500000
O O6 0.797320 0.838593 0.767338
O O7 0.792065 0.720816 0.766972
O O8 0.000000 0.778549 0.690934
O O9 0.152012 0.894855 0.500000
O O10 0.000000 0.909445 0.758429
O O11 0.259242 0.946701 0.747418
O O12 0.849088 0.666622 0.500000
O O13 0.000000 0.653096 0.761264
O O14 0.500000 0.000000 0.733646
O O15 0.649032 0.000000 0.000000
#
# Coordination Sequence:
#
# PCOD9388597 Si02
#       5
#     8   8   8   8   4
#     4   9  19  35  50  64  89 128 169 203 235 275
#     4   7  12  26  48  73  99 122 146 185 235 282
#     4   9  17  32  56  79  94 117 159 201 234 277
#     4   9  17  30  50  76 102 124 149 188 239 289
#     4  11  24  37  46  64 100 137 162 191 236 282
#
# _framework density 18.848423
#
# number of rings (size 3 to 8) (size 9 to 14) (size 15 to 20)
#    0.000    3.222    0.000    4.000    0.000    4.444 
#    0.000    5.556    0.000   10.667    0.000    0.000 
#    0.000    0.000    0.000    0.000    0.000    0.000 
#
# Total GULP energy -200442.278541 kJ/mol
# GULP energy per Si atom -5567.841071 kJ/mol
# Density = 1.880552 g / cm^3
# Si number density = 18.848423 Si / 1000 Ang^3
#
#
#
# Elastic Constant Matrix: (Units=GPa)
#
#
# Indices 1 2 3 4 5 6 
#
# 1 84.4366 105.7778 9.5376 0.0000 0.0000 0.0000
# 2 105.7778 245.6594 14.3476 0.0000 0.0000 0.0000
# 3 9.5376 14.3476 15.2402 0.0000 0.0000 0.0000
# 4 0.0000 0.0000 0.0000 100.3735 0.0000 0.0000
# 5 0.0000 0.0000 0.0000 0.0000 22.3662 0.0000
# 6 0.0000 0.0000 0.0000 0.0000 0.0000 -20.9825
#
#
#
# Elastic Compliance Matrix: (Units=1/GPa)
#
#
# Indices 1 2 3 4 5 6 
#
# 1 0.026242 -0.010942 -0.006122 0.000000 0.000000 0.000000
# 2 -0.010942 0.008870 -0.001503 0.000000 0.000000 0.000000
# 3 -0.006122 -0.001503 0.070862 0.000000 0.000000 0.000000
# 4 0.000000 0.000000 0.000000 0.009963 0.000000 0.000000
# 5 0.000000 0.000000 0.000000 0.000000 0.044710 0.000000
# 6 0.000000 0.000000 0.000000 0.000000 0.000000 -0.047659
#
#
# Mechanical properties :
#
#
# Convention : Reuss Voigt Hill
#
# Bulk Modulus (GPa) = 14.52624 67.18468 40.85546
# Shear Modulus (GPa) = 28.89032 34.72965 31.80998
#
# Velocity S-wave (km/s) = 3.91931 4.29718 4.11259
# Velocity P-wave (km/s) = 5.31083 7.76808 6.65387
#
# Compressibility (1/GPa) = 0.06884095
#
# Stress axis : x y z
#
# Youngs Moduli (GPa) = 38.10627 112.73994 14.11202
#
# Poissons Ratio (x) = 1.23361 0.08639
# Poissons Ratio (y) = 0.41696 0.02121
# Poissons Ratio (z) = 0.23327 0.16942
#
# Static dielectric constant tensor:
#      x y z
#    x 1.626440 0.000000 0.000000 
#    y 0.000000 1.700470 0.000000 
#    z 0.000000 0.000000 1.685980 
# 
# From -- ./inp_files/1405.got.cif
#   From: 2010.05.17/outbox.cif.g08.bks.cpg/sg47_1_cif.got.tgz:1405.got - 2010.06.03 20:15:42.
