data_PCOD9388804
_publ_section_title
;
Structure prediction by ZEFSAII (Michael W. Deem and Ramdas Pophale) SiO2 
 PCOD9388804
Probable space group: P M M M
;
_chemical_formula_sum "Si O2"
_cell_formula_units_Z 44
_cell_length_a 19.709859
_cell_length_b 14.479434
_cell_length_c 7.374555
_cell_angle_alpha 90.000000
_cell_angle_beta 90.000000
_cell_angle_gamma 90.000000
_cell_volume 2104.606571
_symmetry_space_group_name_H-M "P M M M"
_symmetry_group_IT_number 47
_symmetry_cell_setting 'orthorhombic'
loop_
_space_group_symop_operation_xyz
x,y,z
-x,-y,z
x,-y,-z
-x,y,-z
-x,-y,-z
x,y,-z
-x,y,z
x,-y,z
loop_
_atom_site_type_symbol
_atom_site_label
_atom_site_fract_x
_atom_site_fract_y
_atom_site_fract_z
Si Si1 0.837211 0.103605 0.278728
Si Si2 0.923146 0.719064 0.279253
Si Si3 0.423784 0.700368 0.216283
Si Si4 0.582691 0.500000 0.207382
Si Si5 0.712662 0.779566 0.283859
Si Si6 0.204655 0.603240 0.278926
O O1 0.838440 0.102175 0.500000
O O2 0.890272 0.182911 0.223676
O O3 0.762518 0.139276 0.220896
O O4 0.851694 0.000000 0.217147
O O5 0.924096 0.719476 0.500000
O O6 0.870283 0.639146 0.226999
O O7 0.000000 0.707337 0.216930
O O8 0.500000 0.720515 0.282639
O O9 0.399979 0.599607 0.290272
O O10 0.366940 0.776947 0.246944
O O11 0.428748 0.688186 0.000000
O O12 0.500000 0.500000 0.203112
O O13 0.607923 0.500000 0.000000
O O14 0.719951 0.778755 0.500000
O O15 0.744202 0.682817 0.215811
O O16 0.206875 0.602259 0.500000
O O17 0.219663 0.500000 0.216782
#
# Coordination Sequence:
#
# PCOD9388804 Si02
#       6
#     8   8   8   4   8   8
#     4   8  14  25  39  55  78 107 137 172 214 251
#     4   8  13  20  31  51  78 108 143 173 198 240
#     4   9  17  29  44  61  83 110 137 168 208 247
#     4   7  12  24  39  55  77 105 132 155 188 238
#     4   9  17  27  41  61  82 108 142 174 204 246
#     4   8  14  23  33  49  78 112 139 166 203 242
#
# _framework density 20.90652
#
# number of rings (size 3 to 8) (size 9 to 14) (size 15 to 20)
#    0.000    3.727    0.000    3.273    1.273    1.091 
#    0.000    3.636    0.000    2.727    0.000    3.818 
#    0.000   11.636    0.000   13.091    0.000   14.545 
#
# Total GULP energy -245216.413967 kJ/mol
# GULP energy per Si atom -5573.100317 kJ/mol
# Density = 2.085894 g / cm^3
# Si number density = 20.906520 Si / 1000 Ang^3
#
#
#
# Elastic Constant Matrix: (Units=GPa)
#
#
# Indices 1 2 3 4 5 6 
#
# 1 76.5881 -17.4996 -5.1952 0.0000 0.0000 0.0000
# 2 -17.4996 41.0128 0.6016 0.0000 0.0000 0.0000
# 3 -5.1952 0.6016 73.1671 0.0000 0.0000 0.0000
# 4 0.0000 0.0000 0.0000 38.4452 0.0000 0.0000
# 5 0.0000 0.0000 0.0000 0.0000 16.1762 0.0000
# 6 0.0000 0.0000 0.0000 0.0000 0.0000 16.1825
#
#
#
# Elastic Compliance Matrix: (Units=1/GPa)
#
#
# Indices 1 2 3 4 5 6 
#
# 1 0.014537 0.006189 0.000981 0.000000 0.000000 0.000000
# 2 0.006189 0.027020 0.000217 0.000000 0.000000 0.000000
# 3 0.000981 0.000217 0.013735 0.000000 0.000000 0.000000
# 4 0.000000 0.000000 0.000000 0.026011 0.000000 0.000000
# 5 0.000000 0.000000 0.000000 0.000000 0.061819 0.000000
# 6 0.000000 0.000000 0.000000 0.000000 0.000000 0.061795
#
#
# Mechanical properties :
#
#
# Convention : Reuss Voigt Hill
#
# Bulk Modulus (GPa) = 14.27206 16.28684 15.27945
# Shear Modulus (GPa) = 23.41925 28.35152 25.88538
#
# Velocity S-wave (km/s) = 3.35055 3.68653 3.52255
# Velocity P-wave (km/s) = 4.67009 5.09195 4.88557
#
# Compressibility (1/GPa) = 0.07006698
#
# Stress axis : x y z
#
# Youngs Moduli (GPa) = 68.78788 37.00957 72.80546
#
# Poissons Ratio (x) = -0.22904 -0.07145
# Poissons Ratio (y) = -0.42570 -0.01582
# Poissons Ratio (z) = -0.06750 -0.00804
#
# Static dielectric constant tensor:
#      x y z
#    x 1.761900 0.000000 0.000000 
#    y 0.000000 1.733340 0.000000 
#    z 0.000000 0.000000 1.830310 
# 
# From -- ./inp_files/17417.got.cif
#   From: 2010.05.17/outbox.cif.g08.bks.cpg/sg47_9_cif.got.tgz:17417.got - 2010.06.03 20:15:42.
