data_PCOD9388144
_publ_section_title
;
Structure prediction by ZEFSAII (Michael W. Deem and Ramdas Pophale) SiO2 
 PCOD9388144
Probable space group: P M M M
;
_chemical_formula_sum "Si O2"
_cell_formula_units_Z 53
_cell_length_a 15.069098
_cell_length_b 21.591630
_cell_length_c 9.170240
_cell_angle_alpha 90.000000
_cell_angle_beta 90.000000
_cell_angle_gamma 90.000000
_cell_volume 2983.687870
_symmetry_space_group_name_H-M "P M M M"
_symmetry_group_IT_number 47
_symmetry_cell_setting 'orthorhombic'
loop_
_space_group_symop_operation_xyz
x,y,z
-x,-y,z
x,-y,-z
-x,y,-z
-x,-y,-z
x,y,-z
-x,y,z
x,-y,z
loop_
_atom_site_type_symbol
_atom_site_label
_atom_site_fract_x
_atom_site_fract_y
_atom_site_fract_z
Si Si1 0.896994 0.365408 0.826606
Si Si2 0.815867 0.000000 0.162070
Si Si3 0.394839 0.665264 0.828072
Si Si4 0.236106 0.125198 0.673805
Si Si5 0.395182 0.809418 0.173491
Si Si6 0.735565 0.570967 0.674111
Si Si7 0.105263 0.219469 0.171607
Si Si8 0.000000 0.000000 0.000000
O O1 0.829454 0.407103 0.738342
O O2 0.878803 0.292327 0.800584
O O3 0.000000 0.376960 0.790452
O O4 0.885867 0.375539 0.000000
O O5 0.789268 0.939198 0.250258
O O6 0.920621 0.000000 0.124628
O O7 0.772392 0.000000 0.000000
O O8 0.500000 0.655980 0.806410
O O9 0.375144 0.737119 0.793240
O O10 0.337360 0.617651 0.737121
O O11 0.375702 0.656822 0.000000
O O12 0.235161 0.120519 0.500000
O O13 0.331297 0.147898 0.732883
O O14 0.165263 0.176132 0.729806
O O15 0.500000 0.819403 0.199208
O O16 0.379065 0.818167 0.000000
O O17 0.737123 0.574565 0.500000
O O18 0.717098 0.500000 0.717091
O O19 0.000000 0.207888 0.192031
O O20 0.124970 0.207445 0.000000
#
# Coordination Sequence:
#
# PCOD9388144 Si02
#       8
#     8   4   8   8   8   8   8   1
#     4   9  19  37  58  80 103 135 184 238 282 325
#     4  10  23  43  64  82 110 154 203 237 270 318
#     4   9  19  37  61  86 110 139 184 237 282 324
#     4  12  24  36  55  88 124 152 184 230 283 334
#     4   9  19  38  63  88 113 147 189 232 277 331
#     4  11  24  37  50  74 110 149 184 222 278 346
#     4   9  19  35  57  81 109 144 184 228 277 334
#     4   8  24  44  70  84 102 160 218 240 266 320
#
# _framework density 17.763252999999999
#
# number of rings (size 3 to 8) (size 9 to 14) (size 15 to 20)
#    0.226    1.962    0.000    4.755    1.057    7.849 
#    0.000    6.792    0.000    2.264    0.000    0.000 
#    0.000    0.000    0.000    0.000    0.000    0.000 
#
# Total GULP energy -295671.714848 kJ/mol
# GULP energy per Si atom -5578.711601 kJ/mol
# Density = 1.772282 g / cm^3
# Si number density = 17.763253 Si / 1000 Ang^3
#
#
#
# Elastic Constant Matrix: (Units=GPa)
#
#
# Indices 1 2 3 4 5 6 
#
# 1 80.4973 70.3104 64.3561 0.0000 0.0000 0.0000
# 2 70.3104 91.2628 71.9785 0.0000 0.0000 0.0000
# 3 64.3561 71.9785 93.6225 0.0000 0.0000 0.0000
# 4 0.0000 0.0000 0.0000 34.8006 0.0000 0.0000
# 5 0.0000 0.0000 0.0000 0.0000 -87.8993 0.0000
# 6 0.0000 0.0000 0.0000 0.0000 0.0000 -149.7058
#
#
#
# Elastic Compliance Matrix: (Units=1/GPa)
#
#
# Indices 1 2 3 4 5 6 
#
# 1 0.041359 -0.023984 -0.009991 0.000000 0.000000 0.000000
# 2 -0.023984 0.041744 -0.015607 0.000000 0.000000 0.000000
# 3 -0.009991 -0.015607 0.029548 0.000000 0.000000 0.000000
# 4 0.000000 0.000000 0.000000 0.028735 0.000000 0.000000
# 5 0.000000 0.000000 0.000000 0.000000 -0.011377 0.000000
# 6 0.000000 0.000000 0.000000 0.000000 0.000000 -0.006680
#
#
# Mechanical properties :
#
#
# Convention : Reuss Voigt Hill
#
# Bulk Modulus (GPa) = 74.14391 75.40808 74.77599
# Shear Modulus (GPa) = 22.02737 -36.64505 -7.30884
#
# Velocity S-wave (km/s) = 3.52526 -4.54692 -2.03064
# Velocity P-wave (km/s) = 7.64203 3.87013 6.05717
#
# Compressibility (1/GPa) = 0.01348729
#
# Stress axis : x y z
#
# Youngs Moduli (GPa) = 24.17831 23.95545 33.84322
#
# Poissons Ratio (x) = 0.57455 0.33813
# Poissons Ratio (y) = 0.57989 0.52819
# Poissons Ratio (z) = 0.24157 0.37387
#
# Static dielectric constant tensor:
#      x y z
#    x 1.600710 0.000000 0.000000 
#    y 0.000000 1.597920 0.000000 
#    z 0.000000 0.000000 1.583320 
# 
# From -- ./inp_files/7122.got.cif
#   From: 2010.05.17/outbox.cif.g08.bks.cpg/sg47_4_cif.got.tgz:7122.got - 2010.06.03 20:15:42.
