data_PCOD9388449
_publ_section_title
;
Structure prediction by ZEFSAII (Michael W. Deem and Ramdas Pophale) SiO2 
 PCOD9388449
Probable space group: P M M M
;
_chemical_formula_sum "Si O2"
_cell_formula_units_Z 52
_cell_length_a 33.359305
_cell_length_b 8.436420
_cell_length_c 11.984827
_cell_angle_alpha 90.000000
_cell_angle_beta 90.000000
_cell_angle_gamma 90.000000
_cell_volume 3372.927110
_symmetry_space_group_name_H-M "P M M M"
_symmetry_group_IT_number 47
_symmetry_cell_setting 'orthorhombic'
loop_
_space_group_symop_operation_xyz
x,y,z
-x,-y,z
x,-y,-z
-x,y,-z
-x,-y,-z
x,y,-z
-x,y,z
x,-y,z
loop_
_atom_site_type_symbol
_atom_site_label
_atom_site_fract_x
_atom_site_fract_y
_atom_site_fract_z
Si Si1 0.500000 0.190138 0.129554
Si Si2 0.091903 0.822830 0.864147
Si Si3 0.046702 0.500000 0.864341
Si Si4 0.423449 0.310006 0.265062
Si Si5 0.259656 0.184311 0.135272
Si Si6 0.546587 0.189673 0.500000
Si Si7 0.824924 0.680747 0.135592
Si Si8 0.653987 0.308910 0.129025
O O1 0.460726 0.255254 0.190121
O O2 0.500000 0.000000 0.138140
O O3 0.500000 0.235852 0.000000
O O4 0.067475 0.665592 0.827898
O O5 0.138280 0.792799 0.831623
O O6 0.078726 0.000000 0.828203
O O7 0.090147 0.823010 0.000000
O O8 0.000000 0.500000 0.833990
O O9 0.049462 0.500000 0.000000
O O10 0.422673 0.500000 0.268176
O O11 0.431384 0.247463 0.388926
O O12 0.382323 0.253758 0.207025
O O13 0.219155 0.269081 0.175137
O O14 0.302312 0.254994 0.170110
O O15 0.257605 0.000000 0.163786
O O16 0.259485 0.197960 0.000000
O O17 0.500000 0.246495 0.500000
O O18 0.545481 0.000000 0.500000
O O19 0.833883 0.500000 0.167698
O O20 0.823904 0.685026 0.000000
O O21 0.653530 0.500000 0.126888
O O22 0.648359 0.254486 0.000000
#
# Coordination Sequence:
#
# PCOD9388449 Si02
#       8
#     4   8   4   8   8   4   8   8
#     4  11  23  36  51  74 101 125 147 173 214 261
#     4   9  15  22  31  42  56  76 107 147 191 241
#     4   9  16  24  30  38  54  76 106 146 196 248
#     4  11  22  36  56  75  93 118 151 186 216 253
#     4   9  16  24  36  56  79 104 132 158 189 238
#     4  11  23  39  57  75  96 118 146 184 226 260
#     4   9  14  21  33  47  65  89 117 152 192 233
#     4   9  18  32  47  66  92 118 141 168 207 255
#
# _framework density 15.416876
#
# number of rings (size 3 to 8) (size 9 to 14) (size 15 to 20)
#    0.000    2.385    1.538    2.308    0.000    6.769 
#    0.000    3.077    0.000    0.000    0.000    0.000 
#    0.000    0.000    0.000    0.000    0.000    0.000 
#
# Total GULP energy -289676.605678 kJ/mol
# GULP energy per Si atom -5570.703955 kJ/mol
# Density = 1.538179 g / cm^3
# Si number density = 15.416876 Si / 1000 Ang^3
#
#
#
# Elastic Constant Matrix: (Units=GPa)
#
#
# Indices 1 2 3 4 5 6 
#
# 1 115.4217 51.9419 27.2346 0.0000 0.0000 0.0000
# 2 51.9419 78.6856 19.4492 0.0000 0.0000 0.0000
# 3 27.2346 19.4492 47.3954 0.0000 0.0000 0.0000
# 4 0.0000 0.0000 0.0000 13.2758 0.0000 0.0000
# 5 0.0000 0.0000 0.0000 0.0000 -0.2448 0.0000
# 6 0.0000 0.0000 0.0000 0.0000 0.0000 10.3349
#
#
#
# Elastic Compliance Matrix: (Units=1/GPa)
#
#
# Indices 1 2 3 4 5 6 
#
# 1 0.013112 -0.007560 -0.004432 0.000000 0.000000 0.000000
# 2 -0.007560 0.018502 -0.003249 0.000000 0.000000 0.000000
# 3 -0.004432 -0.003249 0.024979 0.000000 0.000000 0.000000
# 4 0.000000 0.000000 0.000000 0.075325 0.000000 0.000000
# 5 0.000000 0.000000 0.000000 0.000000 -4.084712 0.000000
# 6 0.000000 0.000000 0.000000 0.000000 0.000000 0.096759
#
#
# Mechanical properties :
#
#
# Convention : Reuss Voigt Hill
#
# Bulk Modulus (GPa) = 38.29651 48.75045 43.52348
# Shear Modulus (GPa) = -1.30998 14.19832 6.44417
#
# Velocity S-wave (km/s) = -0.92279 3.03802 2.04671
# Velocity P-wave (km/s) = 4.87434 6.63297 5.82046
#
# Compressibility (1/GPa) = 0.02611204
#
# Stress axis : x y z
#
# Youngs Moduli (GPa) = 76.26775 54.04785 40.03370
#
# Poissons Ratio (x) = 0.40859 0.17743
# Poissons Ratio (y) = 0.57657 0.13005
# Poissons Ratio (z) = 0.33802 0.17557
#
# Static dielectric constant tensor:
#      x y z
#    x 1.529770 0.000000 0.000000 
#    y 0.000000 1.538310 0.000000 
#    z 0.000000 0.000000 1.471970 
# 
# From -- ./inp_files/20090.got.cif
#   From: 2010.05.17/outbox.cif.g08.bks.cpg/sg47_11_cif.got.tgz:20090.got - 2010.06.03 20:15:42.
