data_PCOD9388395
_publ_section_title
;
Structure prediction by ZEFSAII (Michael W. Deem and Ramdas Pophale) SiO2 
 PCOD9388395
Probable space group: P M M M
;
_chemical_formula_sum "Si O2"
_cell_formula_units_Z 44
_cell_length_a 13.928049
_cell_length_b 7.812669
_cell_length_c 19.318120
_cell_angle_alpha 90.000000
_cell_angle_beta 90.000000
_cell_angle_gamma 90.000000
_cell_volume 2102.105799
_symmetry_space_group_name_H-M "P M M M"
_symmetry_group_IT_number 47
_symmetry_cell_setting 'orthorhombic'
loop_
_space_group_symop_operation_xyz
x,y,z
-x,-y,z
x,-y,-z
-x,y,-z
-x,-y,-z
x,y,-z
-x,y,z
x,-y,z
loop_
_atom_site_type_symbol
_atom_site_label
_atom_site_fract_x
_atom_site_fract_y
_atom_site_fract_z
Si Si1 0.500000 0.195566 0.415866
Si Si2 0.288782 0.206155 0.421564
Si Si3 0.895010 0.199918 0.149039
Si Si4 0.196912 0.304925 0.286290
Si Si5 0.605510 0.792544 0.783287
Si Si6 0.299238 0.209011 0.922253
O O1 0.500000 0.185474 0.500000
O O2 0.395492 0.272316 0.399715
O O3 0.500000 0.000000 0.387912
O O4 0.268789 0.264609 0.500000
O O5 0.208237 0.248531 0.365470
O O6 0.298071 0.000000 0.423333
O O7 0.868507 0.208841 0.230448
O O8 0.804293 0.270916 0.106514
O O9 0.000000 0.276611 0.136208
O O10 0.899600 0.000000 0.130209
O O11 0.166437 0.500000 0.283588
O O12 0.304933 0.283019 0.257099
O O13 0.500000 0.739396 0.759758
O O14 0.623171 0.747296 0.863787
O O15 0.611963 0.000000 0.776987
O O16 0.296466 0.000000 0.923418
O O17 0.317830 0.267930 0.000000
#
# Coordination Sequence:
#
# PCOD9388395 Si02
#       6
#     4   8   8   8   8   8
#     4   7  12  24  43  67  91 119 156 193 230 275
#     4   9  17  31  51  73  98 130 168 206 246 294
#     4   9  18  34  55  76  98 127 165 205 248 303
#     4  11  22  33  48  72 103 134 166 207 252 298
#     4   9  18  32  49  69  97 137 179 211 241 285
#     4   8  14  26  47  78 108 126 152 203 260 303
#
# _framework density 20.931393
#
# number of rings (size 3 to 8) (size 9 to 14) (size 15 to 20)
#    0.000    3.000    0.000    3.818    1.273    1.818 
#    0.000    3.636    0.000   10.909    0.000   14.000 
#    0.000    0.000    0.000    0.000    0.000    0.000 
#
# Total GULP energy -245258.969836 kJ/mol
# GULP energy per Si atom -5574.067496 kJ/mol
# Density = 2.088375 g / cm^3
# Si number density = 20.931393 Si / 1000 Ang^3
#
#
#
# Elastic Constant Matrix: (Units=GPa)
#
#
# Indices 1 2 3 4 5 6 
#
# 1 27.5446 -5.2571 -21.1746 0.0000 0.0000 0.0000
# 2 -5.2571 25.9988 -8.0753 0.0000 0.0000 0.0000
# 3 -21.1746 -8.0753 78.1803 0.0000 0.0000 0.0000
# 4 0.0000 0.0000 0.0000 100.9317 0.0000 0.0000
# 5 0.0000 0.0000 0.0000 0.0000 12.3509 0.0000
# 6 0.0000 0.0000 0.0000 0.0000 0.0000 -6.5173
#
#
#
# Elastic Compliance Matrix: (Units=1/GPa)
#
#
# Indices 1 2 3 4 5 6 
#
# 1 0.051001 0.015087 0.015372 0.000000 0.000000 0.000000
# 2 0.015087 0.044201 0.008652 0.000000 0.000000 0.000000
# 3 0.015372 0.008652 0.017848 0.000000 0.000000 0.000000
# 4 0.000000 0.000000 0.000000 0.009908 0.000000 0.000000
# 5 0.000000 0.000000 0.000000 0.000000 0.080966 0.000000
# 6 0.000000 0.000000 0.000000 0.000000 0.000000 -0.153438
#
#
# Mechanical properties :
#
#
# Convention : Reuss Voigt Hill
#
# Bulk Modulus (GPa) = 5.22816 6.96774 6.09795
# Shear Modulus (GPa) = 138.80753 32.43512 85.62133
#
# Velocity S-wave (km/s) = 8.15227 3.94076 6.40269
# Velocity P-wave (km/s) = 9.54546 4.90328 7.58808
#
# Compressibility (1/GPa) = 0.19127198
#
# Stress axis : x y z
#
# Youngs Moduli (GPa) = 19.60741 22.62373 56.02895
#
# Poissons Ratio (x) = -0.34133 -0.86126
# Poissons Ratio (y) = -0.29582 -0.48475
# Poissons Ratio (z) = -0.30140 -0.19574
#
# Static dielectric constant tensor:
#      x y z
#    x 1.751440 0.000000 0.000000 
#    y 0.000000 1.800930 0.000000 
#    z 0.000000 0.000000 1.786110 
# 
# From -- ./inp_files/8960.got.cif
#   From: 2010.05.17/outbox.cif.g08.bks.cpg/sg47_5_cif.got.tgz:8960.got - 2010.06.03 20:15:42.
