data_PCOD9388962
_publ_section_title
;
Structure prediction by ZEFSAII (Michael W. Deem and Ramdas Pophale) SiO2 
 PCOD9388962
Probable space group: P M M M
;
_chemical_formula_sum "Si O2"
_cell_formula_units_Z 64
_cell_length_a 7.432401
_cell_length_b 22.365620
_cell_length_c 19.534358
_cell_angle_alpha 90.000000
_cell_angle_beta 90.000000
_cell_angle_gamma 90.000000
_cell_volume 3247.201340
_symmetry_space_group_name_H-M "P M M M"
_symmetry_group_IT_number 47
_symmetry_cell_setting 'orthorhombic'
loop_
_space_group_symop_operation_xyz
x,y,z
-x,-y,z
x,-y,-z
-x,y,-z
-x,-y,-z
x,y,-z
-x,y,z
x,-y,z
loop_
_atom_site_type_symbol
_atom_site_label
_atom_site_fract_x
_atom_site_fract_y
_atom_site_fract_z
Si Si1 0.710183 0.276051 0.576444
Si Si2 0.280471 0.172259 0.323556
Si Si3 0.795102 0.412215 0.575082
Si Si4 0.719379 0.069100 0.577384
Si Si5 0.716963 0.265320 0.779991
Si Si6 0.217988 0.434585 0.871498
Si Si7 0.214430 0.395617 0.721931
Si Si8 0.710291 0.306659 0.925878
O O1 0.718884 0.251455 0.500000
O O2 0.500000 0.287986 0.592418
O O3 0.776447 0.225402 0.625896
O O4 0.801780 0.340000 0.576516
O O5 0.500000 0.169487 0.322506
O O6 0.220020 0.111557 0.360407
O O7 0.224301 0.201728 0.251487
O O8 0.714668 0.428102 0.500000
O O9 0.713093 0.422880 0.650500
O O10 0.000000 0.434398 0.574479
O O11 0.774250 0.088023 0.500000
O O12 0.500000 0.070748 0.577242
O O13 0.772505 0.000000 0.586533
O O14 0.500000 0.264405 0.782518
O O15 0.758645 0.324016 0.733306
O O16 0.787389 0.278658 0.856156
O O17 0.274217 0.500000 0.895758
O O18 0.279139 0.424571 0.792771
O O19 0.279386 0.378019 0.914751
O O20 0.000000 0.432822 0.871189
O O21 0.000000 0.405140 0.718712
O O22 0.500000 0.290159 0.927307
O O23 0.788628 0.291078 0.000000
#
# Coordination Sequence:
#
# PCOD9388962 Si02
#       8
#     8   8   8   8   8   8   8   8
#     4   9  15  21  31  49  72  95 119 150 188 225
#     4   9  14  20  32  50  72  98 129 163 192 223
#     4   9  16  24  34  50  73  98 122 150 186 226
#     4   8  13  20  29  44  72 109 140 164 196 234
#     4   9  16  26  40  58  78  99 125 157 193 232
#     4   9  18  31  46  63  80 101 131 162 190 223
#     4   9  16  27  41  55  76 103 127 156 194 232
#     4   9  18  31  45  61  83 107 126 149 187 236
#
# _framework density 19.709281000000001
#
# number of rings (size 3 to 8) (size 9 to 14) (size 15 to 20)
#    0.000    3.125    1.250    0.750    0.000    2.250 
#    0.000    1.250    0.000    0.375    0.000    2.625 
#    0.000    2.500    0.000   25.250    0.000   18.000 
#
# Total GULP energy -356534.867915 kJ/mol
# GULP energy per Si atom -5570.857311 kJ/mol
# Density = 1.966442 g / cm^3
# Si number density = 19.709281 Si / 1000 Ang^3
#
#
#
# Elastic Constant Matrix: (Units=GPa)
#
#
# Indices 1 2 3 4 5 6 
#
# 1 61.3949 -1.8530 7.7773 0.0000 0.0000 0.0000
# 2 -1.8530 94.6944 43.0919 0.0000 0.0000 0.0000
# 3 7.7773 43.0919 138.9479 0.0000 0.0000 0.0000
# 4 0.0000 0.0000 0.0000 -0.8535 0.0000 0.0000
# 5 0.0000 0.0000 0.0000 0.0000 2.3828 0.0000
# 6 0.0000 0.0000 0.0000 0.0000 0.0000 66.3831
#
#
#
# Elastic Compliance Matrix: (Units=1/GPa)
#
#
# Indices 1 2 3 4 5 6 
#
# 1 0.016465 0.000863 -0.001189 0.000000 0.000000 0.000000
# 2 0.000863 0.012341 -0.003876 0.000000 0.000000 0.000000
# 3 -0.001189 -0.003876 0.008465 0.000000 0.000000 0.000000
# 4 0.000000 0.000000 0.000000 -1.171672 0.000000 0.000000
# 5 0.000000 0.000000 0.000000 0.000000 0.419683 0.000000
# 6 0.000000 0.000000 0.000000 0.000000 0.000000 0.015064
#
#
# Mechanical properties :
#
#
# Convention : Reuss Voigt Hill
#
# Bulk Modulus (GPa) = 34.64051 43.67441 39.15746
# Shear Modulus (GPa) = -7.33537 29.98387 11.32425
#
# Velocity S-wave (km/s) = -1.93129 3.90462 2.39961
# Velocity P-wave (km/s) = 3.55538 6.52193 5.25244
#
# Compressibility (1/GPa) = 0.02886794
#
# Stress axis : x y z
#
# Youngs Moduli (GPa) = 60.73594 81.03188 118.12714
#
# Poissons Ratio (x) = -0.06996 0.14049
# Poissons Ratio (y) = -0.05244 0.45781
# Poissons Ratio (z) = 0.07224 0.31405
#
# Static dielectric constant tensor:
#      x y z
#    x 1.789050 0.000000 0.000000 
#    y 0.000000 1.674410 0.000000 
#    z 0.000000 0.000000 1.770090 
# 
# From -- ./inp_files/18809.got.cif
#   From: 2010.05.17/outbox.cif.g08.bks.cpg/sg47_10_cif.got.tgz:18809.got - 2010.06.03 20:15:42.
