data_PCOD9388171
_publ_section_title
;
Structure prediction by ZEFSAII (Michael W. Deem and Ramdas Pophale) SiO2 
 PCOD9388171
Probable space group: P M M M
;
_chemical_formula_sum "Si O2"
_cell_formula_units_Z 64
_cell_length_a 28.741749
_cell_length_b 8.391472
_cell_length_c 15.149180
_cell_angle_alpha 90.000000
_cell_angle_beta 90.000000
_cell_angle_gamma 90.000000
_cell_volume 3653.763795
_symmetry_space_group_name_H-M "P M M M"
_symmetry_group_IT_number 47
_symmetry_cell_setting 'orthorhombic'
loop_
_space_group_symop_operation_xyz
x,y,z
-x,-y,z
x,-y,-z
-x,y,-z
-x,-y,-z
x,y,-z
-x,y,z
x,-y,z
loop_
_atom_site_type_symbol
_atom_site_label
_atom_site_fract_x
_atom_site_fract_y
_atom_site_fract_z
Si Si1 0.823786 0.194618 0.099673
Si Si2 0.135206 0.189414 0.278725
Si Si3 0.365747 0.809754 0.224928
Si Si4 0.282801 0.193955 0.100513
Si Si5 0.052985 0.308067 0.400101
Si Si6 0.219432 0.691979 0.602944
Si Si7 0.325698 0.692073 0.399823
Si Si8 0.446249 0.307715 0.099693
O O1 0.856571 0.249680 0.178913
O O2 0.770302 0.243425 0.118796
O O3 0.824010 0.000000 0.099485
O O4 0.835691 0.245639 0.000000
O O5 0.090600 0.255022 0.329455
O O6 0.181254 0.232520 0.334263
O O7 0.130909 0.000000 0.275205
O O8 0.321006 0.748150 0.169364
O O9 0.360133 0.750700 0.324595
O O10 0.411436 0.755853 0.172982
O O11 0.364138 0.000000 0.224901
O O12 0.283104 0.000000 0.102446
O O13 0.294510 0.241626 0.000000
O O14 0.065358 0.254275 0.500000
O O15 0.052745 0.500000 0.401682
O O16 0.000000 0.254942 0.381507
O O17 0.209806 0.729426 0.500000
O O18 0.217165 0.500000 0.611635
O O19 0.272538 0.743669 0.621747
O O20 0.336313 0.744913 0.500000
O O21 0.325401 0.500000 0.400195
O O22 0.500000 0.259808 0.114032
O O23 0.444846 0.500000 0.100773
O O24 0.432682 0.255589 0.000000
#
# Coordination Sequence:
#
# PCOD9388171 Si02
#       8
#     8   8   8   8   8   8   8   8
#     4   8  15  28  43  61  92 131 162 187 221 270
#     4  11  20  28  46  75  99 121 155 199 243 282
#     4  11  20  29  48  77 104 128 158 202 255 302
#     4   8  14  25  41  64  96 130 159 186 222 274
#     4   9  19  36  54  69  89 121 156 187 229 291
#     4   9  18  32  48  67  96 134 168 195 230 281
#     4   9  19  35  51  67  93 133 176 209 236 277
#     4   9  19  36  55  74  99 132 167 201 239 288
#
# _framework density 17.516183999999999
#
# number of rings (size 3 to 8) (size 9 to 14) (size 15 to 20)
#    0.000    2.750    0.000    4.500    0.000    5.000 
#    0.000    2.500    0.000    2.250    0.000   12.250 
#    0.000    0.000    0.000    0.000    0.000    0.000 
#
# Total GULP energy -356917.583369 kJ/mol
# GULP energy per Si atom -5576.837240 kJ/mol
# Density = 1.747632 g / cm^3
# Si number density = 17.516184 Si / 1000 Ang^3
#
#
#
# Elastic Constant Matrix: (Units=GPa)
#
#
# Indices 1 2 3 4 5 6 
#
# 1 98.0535 19.1491 99.5934 0.0000 0.0000 0.0000
# 2 19.1491 11.9108 21.3018 0.0000 0.0000 0.0000
# 3 99.5934 21.3018 142.5809 0.0000 0.0000 0.0000
# 4 0.0000 0.0000 0.0000 10.3986 0.0000 0.0000
# 5 0.0000 0.0000 0.0000 0.0000 32.4005 0.0000
# 6 0.0000 0.0000 0.0000 0.0000 0.0000 13.3063
#
#
#
# Elastic Compliance Matrix: (Units=1/GPa)
#
#
# Indices 1 2 3 4 5 6 
#
# 1 0.037881 -0.018530 -0.023692 0.000000 0.000000 0.000000
# 2 -0.018530 0.123635 -0.005528 0.000000 0.000000 0.000000
# 3 -0.023692 -0.005528 0.024388 0.000000 0.000000 0.000000
# 4 0.000000 0.000000 0.000000 0.096167 0.000000 0.000000
# 5 0.000000 0.000000 0.000000 0.000000 0.030864 0.000000
# 6 0.000000 0.000000 0.000000 0.000000 0.000000 0.075152
#
#
# Mechanical properties :
#
#
# Convention : Reuss Voigt Hill
#
# Bulk Modulus (GPa) = 11.06137 59.18152 35.12145
# Shear Modulus (GPa) = 9.73292 18.72115 14.22703
#
# Velocity S-wave (km/s) = 2.35979 3.27278 2.85304
# Velocity P-wave (km/s) = 3.70856 6.93842 5.56305
#
# Compressibility (1/GPa) = 0.09040468
#
# Stress axis : x y z
#
# Youngs Moduli (GPa) = 26.39848 8.08833 41.00364
#
# Poissons Ratio (x) = 0.14988 0.97144
# Poissons Ratio (y) = 0.48917 0.22666
# Poissons Ratio (z) = 0.62542 0.04471
#
# Static dielectric constant tensor:
#      x y z
#    x 1.581450 0.000000 0.000000 
#    y 0.000000 1.608770 0.000000 
#    z 0.000000 0.000000 1.608980 
# 
# From -- ./inp_files/25542.got.cif
#   From: 2010.05.17/outbox.cif.g08.bks.cpg/sg47_13_cif.got.tgz:25542.got - 2010.06.03 20:15:42.
