data_PCOD9388710
_publ_section_title
;
Structure prediction by ZEFSAII (Michael W. Deem and Ramdas Pophale) SiO2 
 PCOD9388710
Probable space group: P M M M
;
_chemical_formula_sum "Si O2"
_cell_formula_units_Z 64
_cell_length_a 14.690167
_cell_length_b 9.258763
_cell_length_c 25.039704
_cell_angle_alpha 90.000000
_cell_angle_beta 90.000000
_cell_angle_gamma 90.000000
_cell_volume 3405.719618
_symmetry_space_group_name_H-M "P M M M"
_symmetry_group_IT_number 47
_symmetry_cell_setting 'orthorhombic'
loop_
_space_group_symop_operation_xyz
x,y,z
-x,-y,z
x,-y,-z
-x,y,-z
-x,-y,-z
x,y,-z
-x,y,z
x,-y,z
loop_
_atom_site_type_symbol
_atom_site_label
_atom_site_fract_x
_atom_site_fract_y
_atom_site_fract_z
Si Si1 0.357977 0.836046 0.555978
Si Si2 0.108435 0.336870 0.330188
Si Si3 0.608930 0.329116 0.775901
Si Si4 0.604478 0.670251 0.064155
Si Si5 0.606898 0.657114 0.658780
Si Si6 0.735213 0.827528 0.142775
Si Si7 0.891459 0.325028 0.209585
Si Si8 0.139940 0.165858 0.559343
O O1 0.388956 0.767454 0.500000
O O2 0.383686 0.759280 0.609477
O O3 0.248921 0.838349 0.555447
O O4 0.390462 0.000000 0.557076
O O5 0.144715 0.500000 0.336797
O O6 0.136646 0.281755 0.270883
O O7 0.122361 0.250107 0.385423
O O8 0.000000 0.346867 0.324572
O O9 0.500000 0.313544 0.780665
O O10 0.629258 0.500000 0.785972
O O11 0.642910 0.296337 0.715911
O O12 0.659790 0.221117 0.814226
O O13 0.500000 0.713665 0.080418
O O14 0.613619 0.500000 0.078609
O O15 0.687334 0.759266 0.090088
O O16 0.607765 0.680866 0.000000
O O17 0.500000 0.642239 0.668747
O O18 0.644544 0.500000 0.644770
O O19 0.827595 0.752948 0.165793
O O20 0.745797 0.000000 0.138587
O O21 0.880266 0.500000 0.206560
O O22 0.000000 0.294678 0.202384
O O23 0.108478 0.220709 0.500000
O O24 0.107704 0.000000 0.564402
#
# Coordination Sequence:
#
# PCOD9388710 Si02
#       8
#     8   8   8   8   8   8   8   8
#     4   9  19  34  48  64  90 123 159 201 252 317
#     4   9  19  35  54  76  99 125 165 220 276 327
#     4   9  19  36  54  74 107 148 187 227 271 327
#     4   9  19  38  64  92 124 165 209 245 275 317
#     4   9  19  34  50  69  92 121 162 214 265 309
#     4  12  24  34  54  89 123 156 190 231 286 339
#     4   9  20  40  61  80 108 149 196 243 289 340
#     4   9  19  34  49  68  97 130 163 203 258 331
#
# _framework density 18.791916000000001
#
# number of rings (size 3 to 8) (size 9 to 14) (size 15 to 20)
#    0.000    2.625    0.000    4.125    1.750    5.500 
#    0.000    6.875    0.000    0.375    0.000    2.625 
#    0.000    0.000    0.000    0.000    0.000    0.000 
#
# Total GULP energy -356329.879501 kJ/mol
# GULP energy per Si atom -5567.654367 kJ/mol
# Density = 1.874914 g / cm^3
# Si number density = 18.791916 Si / 1000 Ang^3
#
#
#
# Elastic Constant Matrix: (Units=GPa)
#
#
# Indices 1 2 3 4 5 6 
#
# 1 100.7330 31.6041 34.4323 0.0000 0.0000 0.0000
# 2 31.6041 54.2002 46.2946 0.0000 0.0000 0.0000
# 3 34.4323 46.2946 111.8080 0.0000 0.0000 0.0000
# 4 0.0000 0.0000 0.0000 53.4303 0.0000 0.0000
# 5 0.0000 0.0000 0.0000 0.0000 -1.6307 0.0000
# 6 0.0000 0.0000 0.0000 0.0000 0.0000 21.7941
#
#
#
# Elastic Compliance Matrix: (Units=1/GPa)
#
#
# Indices 1 2 3 4 5 6 
#
# 1 0.012264 -0.006073 -0.001262 0.000000 0.000000 0.000000
# 2 -0.006073 0.031553 -0.011194 0.000000 0.000000 0.000000
# 3 -0.001262 -0.011194 0.013968 0.000000 0.000000 0.000000
# 4 0.000000 0.000000 0.000000 0.018716 0.000000 0.000000
# 5 0.000000 0.000000 0.000000 0.000000 -0.613241 0.000000
# 6 0.000000 0.000000 0.000000 0.000000 0.000000 0.045884
#
#
# Mechanical properties :
#
#
# Convention : Reuss Voigt Hill
#
# Bulk Modulus (GPa) = 48.25015 54.60037 51.42526
# Shear Modulus (GPa) = -11.18847 25.01275 6.91214
#
# Velocity S-wave (km/s) = -2.44270 3.65230 1.91996
# Velocity P-wave (km/s) = 4.21616 6.84865 5.68683
#
# Compressibility (1/GPa) = 0.02072532
#
# Stress axis : x y z
#
# Youngs Moduli (GPa) = 81.53915 31.69288 71.59376
#
# Poissons Ratio (x) = 0.19247 0.09037
# Poissons Ratio (y) = 0.49519 0.80145
# Poissons Ratio (z) = 0.10292 0.35478
#
# Static dielectric constant tensor:
#      x y z
#    x 1.694460 0.000000 0.000000 
#    y 0.000000 1.649280 0.000000 
#    z 0.000000 0.000000 1.743700 
# 
# From -- ./inp_files/32809.got.cif
#   From: 2010.05.17/outbox.cif.g08.bks.cpg/sg47_17_cif.got.tgz:32809.got - 2010.06.03 20:15:42.
