data_PCOD9388249
_publ_section_title
;
Structure prediction by ZEFSAII (Michael W. Deem and Ramdas Pophale) SiO2 
 PCOD9388249
Probable space group: P M M M
;
_chemical_formula_sum "Si O2"
_cell_formula_units_Z 48
_cell_length_a 18.623780
_cell_length_b 9.361247
_cell_length_c 22.550983
_cell_angle_alpha 90.000000
_cell_angle_beta 90.000000
_cell_angle_gamma 90.000000
_cell_volume 3931.579073
_symmetry_space_group_name_H-M "P M M M"
_symmetry_group_IT_number 47
_symmetry_cell_setting 'orthorhombic'
loop_
_space_group_symop_operation_xyz
x,y,z
-x,-y,z
x,-y,-z
-x,y,-z
-x,-y,-z
x,y,-z
-x,y,z
x,-y,z
loop_
_atom_site_type_symbol
_atom_site_label
_atom_site_fract_x
_atom_site_fract_y
_atom_site_fract_z
Si Si1 0.587248 0.335480 0.115390
Si Si2 0.779065 0.170306 0.569276
Si Si3 0.079150 0.667366 0.428095
Si Si4 0.413661 0.670120 0.249309
Si Si5 0.587630 0.836026 0.000000
Si Si6 0.500000 0.331924 0.428843
Si Si7 0.630622 0.171670 0.635079
O O1 0.500000 0.333252 0.115290
O O2 0.608734 0.500000 0.106544
O O3 0.608016 0.290920 0.181967
O O4 0.611728 0.241582 0.060145
O O5 0.767333 0.210620 0.500000
O O6 0.851069 0.246812 0.591798
O O7 0.707974 0.203400 0.606442
O O8 0.789943 0.000000 0.570895
O O9 0.078688 0.677462 0.500000
O O10 0.085906 0.500000 0.413346
O O11 0.000000 0.717676 0.407875
O O12 0.500000 0.690097 0.254918
O O13 0.400416 0.500000 0.257439
O O14 0.376257 0.764703 0.299047
O O15 0.500000 0.830815 0.000000
O O16 0.609266 0.000000 0.000000
O O17 0.500000 0.500000 0.411230
O O18 0.500000 0.324537 0.500000
O O19 0.430727 0.251593 0.402717
O O20 0.619503 0.000000 0.634259
#
# Coordination Sequence:
#
# PCOD9388249 Si02
#       7
#     8   8   8   8   4   4   8
#     4   8  14  24  37  50  66  90 114 140 176 217
#     4   9  18  30  41  55  75  96 118 145 181 227
#     4   8  14  25  41  60  78  93 111 137 171 213
#     4   9  17  29  42  54  69  91 122 156 186 223
#     4   9  15  21  31  51  73  89 107 139 176 213
#     4  11  23  35  45  55  67  88 121 158 195 235
#     4  11  21  31  43  57  73  94 120 155 195 229
#
# _framework density 12.208835000000001
#
# number of rings (size 3 to 8) (size 9 to 14) (size 15 to 20)
#    0.000    2.833    0.833    3.000    0.000    4.667 
#    0.000    5.000    0.000    0.000    0.000    0.000 
#    0.000    0.000    0.000    0.000    0.000    0.000 
#
# Total GULP energy -267235.922465 kJ/mol
# GULP energy per Si atom -5567.415051 kJ/mol
# Density = 1.218105 g / cm^3
# Si number density = 12.208835 Si / 1000 Ang^3
#
#
#
# Elastic Constant Matrix: (Units=GPa)
#
#
# Indices 1 2 3 4 5 6 
#
# 1 83.7944 47.8173 39.4620 0.0000 0.0000 0.0000
# 2 47.8173 60.1904 52.5233 0.0000 0.0000 0.0000
# 3 39.4620 52.5233 88.1999 0.0000 0.0000 0.0000
# 4 0.0000 0.0000 0.0000 17.1399 0.0000 0.0000
# 5 0.0000 0.0000 0.0000 0.0000 2.0570 0.0000
# 6 0.0000 0.0000 0.0000 0.0000 0.0000 15.9546
#
#
#
# Elastic Compliance Matrix: (Units=1/GPa)
#
#
# Indices 1 2 3 4 5 6 
#
# 1 0.021889 -0.018410 0.001170 0.000000 0.000000 0.000000
# 2 -0.018410 0.050071 -0.021581 0.000000 0.000000 0.000000
# 3 0.001170 -0.021581 0.023666 0.000000 0.000000 0.000000
# 4 0.000000 0.000000 0.000000 0.058343 0.000000 0.000000
# 5 0.000000 0.000000 0.000000 0.000000 0.486140 0.000000
# 6 0.000000 0.000000 0.000000 0.000000 0.000000 0.062678
#
#
# Mechanical properties :
#
#
# Convention : Reuss Voigt Hill
#
# Bulk Modulus (GPa) = 55.60446 56.86555 56.23501
# Shear Modulus (GPa) = 6.35790 13.18912 9.77351
#
# Velocity S-wave (km/s) = 2.28450 3.29035 2.83243
# Velocity P-wave (km/s) = 7.25272 7.81752 7.54041
#
# Compressibility (1/GPa) = 0.01798417
#
# Stress axis : x y z
#
# Youngs Moduli (GPa) = 45.68568 19.97160 42.25515
#
# Poissons Ratio (x) = 0.36768 -0.04943
# Poissons Ratio (y) = 0.84107 0.91189
# Poissons Ratio (z) = -0.05344 0.43100
#
# Static dielectric constant tensor:
#      x y z
#    x 1.377890 0.000000 0.000000 
#    y 0.000000 1.406480 0.000000 
#    z 0.000000 0.000000 1.398380 
# 
# From -- ./inp_files/31239.got.cif
#   From: 2010.05.17/outbox.cif.g08.bks.cpg/sg47_16_cif.got.tgz:31239.got - 2010.06.03 20:15:42.
