data_PCOD9388666
_publ_section_title
;
Structure prediction by ZEFSAII (Michael W. Deem and Ramdas Pophale) SiO2 
 PCOD9388666
Probable space group: P M M M
;
_chemical_formula_sum "Si O2"
_cell_formula_units_Z 44
_cell_length_a 31.306863
_cell_length_b 9.377024
_cell_length_c 7.694547
_cell_angle_alpha 90.000000
_cell_angle_beta 90.000000
_cell_angle_gamma 90.000000
_cell_volume 2258.851273
_symmetry_space_group_name_H-M "P M M M"
_symmetry_group_IT_number 47
_symmetry_cell_setting 'orthorhombic'
loop_
_space_group_symop_operation_xyz
x,y,z
-x,-y,z
x,-y,-z
-x,y,-z
-x,-y,-z
x,y,-z
-x,y,z
x,-y,z
loop_
_atom_site_type_symbol
_atom_site_label
_atom_site_fract_x
_atom_site_fract_y
_atom_site_fract_z
Si Si1 0.137850 0.838024 0.791104
Si Si2 0.599209 0.167920 0.801526
Si Si3 0.551110 0.666294 0.500000
Si Si4 0.954021 0.172852 0.207264
Si Si5 0.778391 0.661263 0.708718
Si Si6 0.316433 0.331717 0.289669
O O1 0.092186 0.776966 0.725535
O O2 0.180404 0.752348 0.752450
O O3 0.142409 0.000000 0.726017
O O4 0.133889 0.844426 0.000000
O O5 0.570116 0.254311 0.667460
O O6 0.646390 0.235548 0.787003
O O7 0.600242 0.000000 0.757472
O O8 0.584136 0.182654 0.000000
O O9 0.564552 0.500000 0.500000
O O10 0.500000 0.672651 0.500000
O O11 0.000000 0.221813 0.279714
O O12 0.953001 0.000000 0.224919
O O13 0.955168 0.202378 0.000000
O O14 0.775712 0.655194 0.500000
O O15 0.784056 0.500000 0.774144
O O16 0.731447 0.712405 0.766662
O O17 0.319285 0.321027 0.500000
O O18 0.321832 0.500000 0.246599
#
# Coordination Sequence:
#
# PCOD9388666 Si02
#       6
#     8   8   4   8   8   8
#     4   9  17  28  44  69  97 122 156 208 264 317
#     4  11  24  40  62  95 130 162 198 245 303 359
#     4  11  25  45  69  95 125 165 211 255 294 339
#     4   7  10  19  37  60  85 114 150 196 253 313
#     4   9  19  34  50  70  99 138 180 216 255 311
#     4   9  18  35  58  80 105 144 193 238 280 332
#
# _framework density 19.478928
#
# number of rings (size 3 to 8) (size 9 to 14) (size 15 to 20)
#    0.000    2.818    0.909    3.545    0.000    4.727 
#    0.000    7.273    0.000    1.091    0.000    6.364 
#    0.000    0.000    0.000    0.000    0.000    0.000 
#
# Total GULP energy -245248.482211 kJ/mol
# GULP energy per Si atom -5573.829141 kJ/mol
# Density = 1.943459 g / cm^3
# Si number density = 19.478928 Si / 1000 Ang^3
#
#
#
# Elastic Constant Matrix: (Units=GPa)
#
#
# Indices 1 2 3 4 5 6 
#
# 1 151.6953 73.7870 39.9960 0.0000 0.0000 0.0000
# 2 73.7870 85.8303 39.4387 0.0000 0.0000 0.0000
# 3 39.9960 39.4387 61.8556 0.0000 0.0000 0.0000
# 4 0.0000 0.0000 0.0000 19.9351 0.0000 0.0000
# 5 0.0000 0.0000 0.0000 0.0000 19.5444 0.0000
# 6 0.0000 0.0000 0.0000 0.0000 0.0000 29.8404
#
#
#
# Elastic Compliance Matrix: (Units=1/GPa)
#
#
# Indices 1 2 3 4 5 6 
#
# 1 0.011440 -0.009103 -0.001593 0.000000 0.000000 0.000000
# 2 -0.009103 0.023721 -0.009239 0.000000 0.000000 0.000000
# 3 -0.001593 -0.009239 0.023088 0.000000 0.000000 0.000000
# 4 0.000000 0.000000 0.000000 0.050163 0.000000 0.000000
# 5 0.000000 0.000000 0.000000 0.000000 0.051166 0.000000
# 6 0.000000 0.000000 0.000000 0.000000 0.000000 0.033512
#
#
# Mechanical properties :
#
#
# Convention : Reuss Voigt Hill
#
# Bulk Modulus (GPa) = 54.40886 67.31383 60.86134
# Shear Modulus (GPa) = 20.91307 23.60794 22.26050
#
# Velocity S-wave (km/s) = 3.28018 3.48512 3.38420
# Velocity P-wave (km/s) = 6.50683 7.12931 6.82517
#
# Compressibility (1/GPa) = 0.01837936
#
# Stress axis : x y z
#
# Youngs Moduli (GPa) = 87.41343 42.15589 43.31333
#
# Poissons Ratio (x) = 0.38373 0.06901
# Poissons Ratio (y) = 0.79569 0.40017
# Poissons Ratio (z) = 0.13928 0.38947
#
# Static dielectric constant tensor:
#      x y z
#    x 1.719110 0.000000 0.000000 
#    y 0.000000 1.656960 0.000000 
#    z 0.000000 0.000000 1.727850 
# 
# From -- ./inp_files/13605.got.cif
#   From: 2010.05.17/outbox.cif.g08.bks.cpg/sg47_7_cif.got.tgz:13605.got - 2010.06.03 20:15:42.
