data_PCOD9388012
_publ_section_title
;
Structure prediction by ZEFSAII (Michael W. Deem and Ramdas Pophale) SiO2 
 PCOD9388012
Probable space group: P M M M
;
_chemical_formula_sum "Si O2"
_cell_formula_units_Z 52
_cell_length_a 7.660383
_cell_length_b 14.190127
_cell_length_c 23.242652
_cell_angle_alpha 90.000000
_cell_angle_beta 90.000000
_cell_angle_gamma 90.000000
_cell_volume 2526.518287
_symmetry_space_group_name_H-M "P M M M"
_symmetry_group_IT_number 47
_symmetry_cell_setting 'orthorhombic'
loop_
_space_group_symop_operation_xyz
x,y,z
-x,-y,z
x,-y,-z
-x,y,-z
-x,-y,-z
x,y,-z
-x,y,z
x,-y,z
loop_
_atom_site_type_symbol
_atom_site_label
_atom_site_fract_x
_atom_site_fract_y
_atom_site_fract_z
Si Si1 0.000000 0.612247 0.747354
Si Si2 0.791371 0.106294 0.344591
Si Si3 0.706623 0.264337 0.564274
Si Si4 0.707586 0.892414 0.786610
Si Si5 0.289174 0.893617 0.000000
Si Si6 0.288267 0.762136 0.892143
Si Si7 0.300298 0.612915 0.665788
Si Si8 0.000000 0.611532 0.115985
O O1 0.827558 0.648318 0.715568
O O2 0.000000 0.500000 0.736231
O O3 0.000000 0.621245 0.814899
O O4 0.731613 0.173401 0.395700
O O5 0.739232 0.133893 0.279770
O O6 0.000000 0.105589 0.345879
O O7 0.725294 0.000000 0.353387
O O8 0.781277 0.257347 0.500000
O O9 0.500000 0.279060 0.558135
O O10 0.769361 0.349232 0.604880
O O11 0.500000 0.898264 0.795406
O O12 0.766737 0.815330 0.833044
O O13 0.777583 0.000000 0.795209
O O14 0.245114 0.834789 0.056710
O O15 0.500000 0.900092 0.000000
O O16 0.219981 0.000000 0.000000
O O17 0.500000 0.745069 0.891400
O O18 0.173931 0.668459 0.902347
O O19 0.500000 0.645706 0.674868
O O20 0.304257 0.500000 0.665371
O O21 0.000000 0.500000 0.101175
#
# Coordination Sequence:
#
# PCOD9388012 Si02
#       8
#     4   8   8   8   4   8   8   4
#     4   9  20  38  58  82 112 150 195 242 299 351
#     4  10  22  37  54  78 110 148 187 234 290 346
#     4  10  22  37  54  77 104 142 189 233 287 350
#     4   9  18  34  57  87 119 150 188 238 300 366
#     4   9  18  39  69 100 137 171 204 254 312 368
#     4  10  22  39  64  95 126 166 209 250 303 366
#     4   9  19  36  58  84 113 145 186 239 298 361
#     4  11  26  43  60  88 128 170 212 263 306 345
#
# _framework density 20.581685
#
# number of rings (size 3 to 8) (size 9 to 14) (size 15 to 20)
#    0.000    2.385    0.000    0.923    4.308    4.923 
#    0.000    6.923    0.000    2.769    0.000    0.000 
#    0.000    0.000    0.000    0.000    0.000    0.000 
#
# Total GULP energy -290153.776662 kJ/mol
# GULP energy per Si atom -5579.880320 kJ/mol
# Density = 2.053484 g / cm^3
# Si number density = 20.581685 Si / 1000 Ang^3
#
#
#
# Elastic Constant Matrix: (Units=GPa)
#
#
# Indices 1 2 3 4 5 6 
#
# 1 64.3300 32.9723 14.3037 0.0000 0.0000 0.0000
# 2 32.9723 103.9034 14.7191 0.0000 0.0000 0.0000
# 3 14.3037 14.7191 59.0926 0.0000 0.0000 0.0000
# 4 0.0000 0.0000 0.0000 23.0874 0.0000 0.0000
# 5 0.0000 0.0000 0.0000 0.0000 24.6509 0.0000
# 6 0.0000 0.0000 0.0000 0.0000 0.0000 19.3765
#
#
#
# Elastic Compliance Matrix: (Units=1/GPa)
#
#
# Indices 1 2 3 4 5 6 
#
# 1 0.019143 -0.005616 -0.003235 0.000000 0.000000 0.000000
# 2 -0.005616 0.011624 -0.001536 0.000000 0.000000 0.000000
# 3 -0.003235 -0.001536 0.018088 0.000000 0.000000 0.000000
# 4 0.000000 0.000000 0.000000 0.043314 0.000000 0.000000
# 5 0.000000 0.000000 0.000000 0.000000 0.040566 0.000000
# 6 0.000000 0.000000 0.000000 0.000000 0.000000 0.051609
#
#
# Mechanical properties :
#
#
# Convention : Reuss Voigt Hill
#
# Bulk Modulus (GPa) = 35.61118 39.03513 37.32316
# Shear Modulus (GPa) = 23.31237 24.44504 23.87870
#
# Velocity S-wave (km/s) = 3.36918 3.45005 3.40985
# Velocity P-wave (km/s) = 5.69869 5.90573 5.80313
#
# Compressibility (1/GPa) = 0.02808107
#
# Stress axis : x y z
#
# Youngs Moduli (GPa) = 52.23903 86.02733 55.28484
#
# Poissons Ratio (x) = 0.48317 0.17883
# Poissons Ratio (y) = 0.29340 0.08491
# Poissons Ratio (z) = 0.16897 0.13213
#
# Static dielectric constant tensor:
#      x y z
#    x 1.724050 0.000000 0.000000 
#    y 0.000000 1.751670 0.000000 
#    z 0.000000 0.000000 1.705350 
# 
# From -- ./inp_files/29634.got.cif
#   From: 2010.05.17/outbox.cif.g08.bks.cpg/sg47_15_cif.got.tgz:29634.got - 2010.06.03 20:15:42.
