data_PCOD9388492
_publ_section_title
;
Structure prediction by ZEFSAII (Michael W. Deem and Ramdas Pophale) SiO2 
 PCOD9388492
Probable space group: P M M M
;
_chemical_formula_sum "Si O2"
_cell_formula_units_Z 48
_cell_length_a 9.862404
_cell_length_b 8.575514
_cell_length_c 29.471650
_cell_angle_alpha 90.000000
_cell_angle_beta 90.000000
_cell_angle_gamma 90.000000
_cell_volume 2492.570209
_symmetry_space_group_name_H-M "P M M M"
_symmetry_group_IT_number 47
_symmetry_cell_setting 'orthorhombic'
loop_
_space_group_symop_operation_xyz
x,y,z
-x,-y,z
x,-y,-z
-x,y,-z
-x,-y,-z
x,y,-z
-x,y,z
x,-y,z
loop_
_atom_site_type_symbol
_atom_site_label
_atom_site_fract_x
_atom_site_fract_y
_atom_site_fract_z
Si Si1 0.657705 0.313580 0.293043
Si Si2 0.157984 0.813050 0.212183
Si Si3 0.741234 0.185277 0.390489
Si Si4 0.500000 0.681122 0.446115
Si Si5 0.342524 0.686530 0.130397
Si Si6 0.000000 0.190302 0.552502
Si Si7 0.154157 0.812275 0.946632
O O1 0.500000 0.261786 0.286786
O O2 0.659245 0.500000 0.288209
O O3 0.760594 0.241787 0.256637
O O4 0.707280 0.266494 0.343065
O O5 0.246818 0.753516 0.169924
O O6 0.000000 0.759131 0.211220
O O7 0.155388 0.000000 0.210996
O O8 0.625249 0.228067 0.425624
O O9 0.873716 0.239361 0.417108
O O10 0.749392 0.000000 0.382344
O O11 0.500000 0.500000 0.430774
O O12 0.500000 0.682894 0.500000
O O13 0.500000 0.740308 0.133311
O O14 0.343754 0.500000 0.134236
O O15 0.269442 0.735857 0.083803
O O16 0.000000 0.244426 0.500000
O O17 0.000000 0.000000 0.550437
O O18 0.000000 0.765675 0.932848
O O19 0.161703 0.000000 0.941659
O O20 0.169427 0.776339 0.000000
#
# Coordination Sequence:
#
# PCOD9388492 Si02
#       7
#     8   8   8   4   8   4   8
#     4  11  24  42  63  89 123 157 193 241 300 360
#     4  11  25  43  65  92 120 153 200 252 300 357
#     4  11  22  38  63  90 118 156 200 245 297 355
#     4  11  23  39  59  87 123 159 199 247 296 351
#     4  11  24  40  59  88 126 164 204 252 307 364
#     4   9  20  38  59  87 121 153 193 247 296 343
#     4   9  19  37  61  89 122 162 210 261 309 360
#
# _framework density 19.25723
#
# number of rings (size 3 to 8) (size 9 to 14) (size 15 to 20)
#    0.000    1.500    0.833    4.250    1.167   10.000 
#    0.000    3.750    0.000    3.000    0.000    0.000 
#    0.000    0.000    0.000    0.000    0.000    0.000 
#
# Total GULP energy -268105.794366 kJ/mol
# GULP energy per Si atom -5585.537383 kJ/mol
# Density = 1.921340 g / cm^3
# Si number density = 19.257230 Si / 1000 Ang^3
#
#
#
# Elastic Constant Matrix: (Units=GPa)
#
#
# Indices 1 2 3 4 5 6 
#
# 1 218.1230 37.8833 89.2152 0.0000 0.0000 0.0000
# 2 37.8833 36.6215 27.8573 0.0000 0.0000 0.0000
# 3 89.2152 27.8573 107.3690 0.0000 0.0000 0.0000
# 4 0.0000 0.0000 0.0000 33.3477 0.0000 0.0000
# 5 0.0000 0.0000 0.0000 0.0000 44.0432 0.0000
# 6 0.0000 0.0000 0.0000 0.0000 0.0000 -19.9700
#
#
#
# Elastic Compliance Matrix: (Units=1/GPa)
#
#
# Indices 1 2 3 4 5 6 
#
# 1 0.007320 -0.003670 -0.005130 0.000000 0.000000 0.000000
# 2 -0.003670 0.035861 -0.006255 0.000000 0.000000 0.000000
# 3 -0.005130 -0.006255 0.015200 0.000000 0.000000 0.000000
# 4 0.000000 0.000000 0.000000 0.029987 0.000000 0.000000
# 5 0.000000 0.000000 0.000000 0.000000 0.022705 0.000000
# 6 0.000000 0.000000 0.000000 0.000000 0.000000 -0.050075
#
#
# Mechanical properties :
#
#
# Convention : Reuss Voigt Hill
#
# Bulk Modulus (GPa) = 35.37295 74.66947 55.02121
# Shear Modulus (GPa) = 49.73575 25.29470 37.51522
#
# Velocity S-wave (km/s) = 5.08755 3.62818 4.41853
# Velocity P-wave (km/s) = 7.27457 7.51069 7.39357
#
# Compressibility (1/GPa) = 0.02827019
#
# Stress axis : x y z
#
# Youngs Moduli (GPa) = 136.60455 27.88571 65.79148
#
# Poissons Ratio (x) = 0.10234 0.33754
# Poissons Ratio (y) = 0.50133 0.41151
# Poissons Ratio (z) = 0.70085 0.17442
#
# Static dielectric constant tensor:
#      x y z
#    x 1.677560 0.000000 0.000000 
#    y 0.000000 1.663350 0.000000 
#    z 0.000000 0.000000 1.663960 
# 
# From -- ./inp_files/34139.got.cif
#   From: 2010.05.17/outbox.cif.g08.bks.cpg/sg47_18_cif.got.tgz:34139.got - 2010.06.03 20:15:42.
