data_PCOD9388195
_publ_section_title
;
Structure prediction by ZEFSAII (Michael W. Deem and Ramdas Pophale) SiO2 
 PCOD9388195
Probable space group: P M M M
;
_chemical_formula_sum "Si O2"
_cell_formula_units_Z 40
_cell_length_a 13.234446
_cell_length_b 7.990662
_cell_length_c 24.825968
_cell_angle_alpha 90.000000
_cell_angle_beta 90.000000
_cell_angle_gamma 90.000000
_cell_volume 2625.395389
_symmetry_space_group_name_H-M "P M M M"
_symmetry_group_IT_number 47
_symmetry_cell_setting 'orthorhombic'
loop_
_space_group_symop_operation_xyz
x,y,z
-x,-y,z
x,-y,-z
-x,y,-z
-x,-y,-z
x,y,-z
-x,y,z
x,-y,z
loop_
_atom_site_type_symbol
_atom_site_label
_atom_site_fract_x
_atom_site_fract_y
_atom_site_fract_z
Si Si1 0.500000 0.800301 0.938693
Si Si2 0.695605 0.698986 0.869816
Si Si3 0.376838 0.000000 0.562066
Si Si4 0.623094 0.693235 0.637000
Si Si5 0.886315 0.798572 0.061104
Si Si6 0.616626 0.296021 0.242579
O O1 0.600031 0.748719 0.906412
O O2 0.500000 0.000000 0.941770
O O3 0.500000 0.733351 0.000000
O O4 0.694769 0.500000 0.866282
O O5 0.799231 0.750465 0.897895
O O6 0.678579 0.764592 0.809055
O O7 0.345161 0.168060 0.593772
O O8 0.500000 0.000000 0.562388
O O9 0.344255 0.000000 0.500000
O O10 0.500000 0.690390 0.637588
O O11 0.654938 0.500000 0.626808
O O12 0.653169 0.748175 0.697549
O O13 0.000000 0.740297 0.074883
O O14 0.888972 0.000000 0.059316
O O15 0.862802 0.740085 0.000000
O O16 0.500000 0.241281 0.236054
O O17 0.615261 0.500000 0.242317
#
# Coordination Sequence:
#
# PCOD9388195 Si02
#       6
#     4   8   4   8   8   8
#     4  11  23  35  43  59  91 121 143 172 219 280
#     4  11  20  31  48  69  88 108 142 187 229 266
#     4   9  16  24  34  54  78 102 143 188 215 245
#     4   8  14  25  38  51  74 109 141 175 217 254
#     4   9  19  36  52  63  82 113 145 179 222 275
#     4   8  14  27  42  57  83 112 137 170 216 264
#
# _framework density 15.235799999999999
#
# number of rings (size 3 to 8) (size 9 to 14) (size 15 to 20)
#    0.000    2.800    1.000    3.300    0.000    4.400 
#    3.600    3.000    0.000    0.000    0.000    0.000 
#    0.000    0.000    0.000    0.000    0.000    2.000 
#
# Total GULP energy -222789.777476 kJ/mol
# GULP energy per Si atom -5569.744437 kJ/mol
# Density = 1.520112 g / cm^3
# Si number density = 15.235800 Si / 1000 Ang^3
#
#
#
# Elastic Constant Matrix: (Units=GPa)
#
#
# Indices 1 2 3 4 5 6 
#
# 1 60.3280 19.9283 56.2020 0.0000 0.0000 0.0000
# 2 19.9283 51.5310 51.6201 0.0000 0.0000 0.0000
# 3 56.2020 51.6201 161.6708 0.0000 0.0000 0.0000
# 4 0.0000 0.0000 0.0000 25.4980 0.0000 0.0000
# 5 0.0000 0.0000 0.0000 0.0000 9.6164 0.0000
# 6 0.0000 0.0000 0.0000 0.0000 0.0000 22.3578
#
#
#
# Elastic Compliance Matrix: (Units=1/GPa)
#
#
# Indices 1 2 3 4 5 6 
#
# 1 0.024583 -0.001391 -0.008102 0.000000 0.000000 0.000000
# 2 -0.001391 0.028610 -0.008651 0.000000 0.000000 0.000000
# 3 -0.008102 -0.008651 0.011764 0.000000 0.000000 0.000000
# 4 0.000000 0.000000 0.000000 0.039219 0.000000 0.000000
# 5 0.000000 0.000000 0.000000 0.000000 0.103989 0.000000
# 6 0.000000 0.000000 0.000000 0.000000 0.000000 0.044727
#
#
# Mechanical properties :
#
#
# Convention : Reuss Voigt Hill
#
# Bulk Modulus (GPa) = 34.88095 58.78117 46.83106
# Shear Modulus (GPa) = 16.73713 21.21306 18.97509
#
# Velocity S-wave (km/s) = 3.31802 3.73542 3.53289
# Velocity P-wave (km/s) = 6.13374 7.56764 6.88811
#
# Compressibility (1/GPa) = 0.02866894
#
# Stress axis : x y z
#
# Youngs Moduli (GPa) = 40.67809 34.95267 85.00421
#
# Poissons Ratio (x) = 0.04863 0.68868
# Poissons Ratio (y) = 0.05659 0.73540
# Poissons Ratio (z) = 0.32956 0.30239
#
# Static dielectric constant tensor:
#      x y z
#    x 1.451050 0.000000 0.000000 
#    y 0.000000 1.541440 0.000000 
#    z 0.000000 0.000000 1.536480 
# 
# From -- ./inp_files/10669.got.cif
#   From: 2010.05.17/outbox.cif.g08.bks.cpg/sg47_6_cif.got.tgz:10669.got - 2010.06.03 20:15:42.
