data_PCOD9388565
_publ_section_title
;
Structure prediction by ZEFSAII (Michael W. Deem and Ramdas Pophale) SiO2 
 PCOD9388565
Probable space group: P M M M
;
_chemical_formula_sum "Si O2"
_cell_formula_units_Z 52
_cell_length_a 9.179565
_cell_length_b 15.731586
_cell_length_c 19.818875
_cell_angle_alpha 90.000000
_cell_angle_beta 90.000000
_cell_angle_gamma 90.000000
_cell_volume 2862.026224
_symmetry_space_group_name_H-M "P M M M"
_symmetry_group_IT_number 47
_symmetry_cell_setting 'orthorhombic'
loop_
_space_group_symop_operation_xyz
x,y,z
-x,-y,z
x,-y,-z
-x,y,-z
-x,-y,-z
x,y,-z
-x,y,z
x,-y,z
loop_
_atom_site_type_symbol
_atom_site_label
_atom_site_fract_x
_atom_site_fract_y
_atom_site_fract_z
Si Si1 0.329954 0.847084 0.576911
Si Si2 0.673568 0.247978 0.213297
Si Si3 0.827573 0.097201 0.708850
Si Si4 0.670236 0.358464 0.577298
Si Si5 0.673429 0.327534 0.922926
Si Si6 0.826621 0.404324 0.711398
Si Si7 0.164040 0.500000 0.081962
O O1 0.293570 0.870923 0.500000
O O2 0.500000 0.868523 0.588891
O O3 0.229980 0.888699 0.632962
O O4 0.318419 0.744376 0.582011
O O5 0.500000 0.247886 0.224748
O O6 0.744276 0.164962 0.245318
O O7 0.702848 0.257224 0.133455
O O8 0.742193 0.330799 0.248915
O O9 0.000000 0.113090 0.711563
O O10 0.799324 0.000000 0.729115
O O11 0.705112 0.382392 0.500000
O O12 0.500000 0.380223 0.589688
O O13 0.772047 0.397561 0.634115
O O14 0.500000 0.343404 0.923023
O O15 0.752691 0.413974 0.900775
O O16 0.716750 0.306658 0.000000
O O17 0.794896 0.500000 0.736396
O O18 0.000000 0.390293 0.715283
O O19 0.000000 0.500000 0.108824
O O20 0.157948 0.500000 0.000000
#
# Coordination Sequence:
#
# PCOD9388565 Si02
#       7
#     8   8   8   8   8   8   4
#     4   9  18  34  57  84 112 144 184 230 280 334
#     4  11  23  39  61  85 111 147 189 232 279 333
#     4  11  24  40  59  85 116 148 183 228 284 342
#     4   9  18  34  56  80 107 143 189 238 284 330
#     4   9  19  36  57  82 113 148 187 231 278 327
#     4  11  24  38  53  79 115 153 191 233 281 332
#     4   9  17  29  49  81 117 151 186 221 262 319
#
# _framework density 18.168945999999998
#
# number of rings (size 3 to 8) (size 9 to 14) (size 15 to 20)
#    0.000    2.077    1.538    2.538    1.077    5.846 
#    0.000    4.615    0.000    0.462    0.000    3.231 
#    0.000    0.000    0.000    0.000    0.000    0.000 
#
# Total GULP energy -290429.746327 kJ/mol
# GULP energy per Si atom -5585.187429 kJ/mol
# Density = 1.812759 g / cm^3
# Si number density = 18.168946 Si / 1000 Ang^3
#
#
#
# Elastic Constant Matrix: (Units=GPa)
#
#
# Indices 1 2 3 4 5 6 
#
# 1 76.2382 70.1053 61.8942 0.0000 0.0000 0.0000
# 2 70.1053 104.4086 65.4031 0.0000 0.0000 0.0000
# 3 61.8942 65.4031 108.3170 0.0000 0.0000 0.0000
# 4 0.0000 0.0000 0.0000 8.5281 0.0000 0.0000
# 5 0.0000 0.0000 0.0000 0.0000 5.9897 0.0000
# 6 0.0000 0.0000 0.0000 0.0000 0.0000 -199.8503
#
#
#
# Elastic Compliance Matrix: (Units=1/GPa)
#
#
# Indices 1 2 3 4 5 6 
#
# 1 0.041041 -0.020694 -0.010956 0.000000 0.000000 0.000000
# 2 -0.020694 0.025838 -0.003777 0.000000 0.000000 0.000000
# 3 -0.010956 -0.003777 0.017773 0.000000 0.000000 0.000000
# 4 0.000000 0.000000 0.000000 0.117260 0.000000 0.000000
# 5 0.000000 0.000000 0.000000 0.000000 0.166953 0.000000
# 6 0.000000 0.000000 0.000000 0.000000 0.000000 -0.005004
#
#
# Mechanical properties :
#
#
# Convention : Reuss Voigt Hill
#
# Bulk Modulus (GPa) = 72.46997 75.97435 74.22216
# Shear Modulus (GPa) = 11.38137 -30.96242 -9.79053
#
# Velocity S-wave (km/s) = 2.50555 -4.13260 -2.32386
# Velocity P-wave (km/s) = 6.95296 4.37437 5.80856
#
# Compressibility (1/GPa) = 0.01379882
#
# Stress axis : x y z
#
# Youngs Moduli (GPa) = 24.36613 38.70206 56.26434
#
# Poissons Ratio (x) = 0.80089 0.61645
# Poissons Ratio (y) = 0.50422 0.21250
# Poissons Ratio (z) = 0.26696 0.14617
#
# Static dielectric constant tensor:
#      x y z
#    x 1.601370 0.000000 0.000000 
#    y 0.000000 1.613940 0.000000 
#    z 0.000000 0.000000 1.648680 
# 
# From -- ./inp_files/24984.got.cif
#   From: 2010.05.17/outbox.cif.g08.bks.cpg/sg47_13_cif.got.tgz:24984.got - 2010.06.03 20:15:42.
