data_PCOD9388369
_publ_section_title
;
Structure prediction by ZEFSAII (Michael W. Deem and Ramdas Pophale) SiO2 
 PCOD9388369
Probable space group: P M M M
;
_chemical_formula_sum "Si O2"
_cell_formula_units_Z 56
_cell_length_a 8.846004
_cell_length_b 14.372446
_cell_length_c 23.724037
_cell_angle_alpha 90.000000
_cell_angle_beta 90.000000
_cell_angle_gamma 90.000000
_cell_volume 3016.243574
_symmetry_space_group_name_H-M "P M M M"
_symmetry_group_IT_number 47
_symmetry_cell_setting 'orthorhombic'
loop_
_space_group_symop_operation_xyz
x,y,z
-x,-y,z
x,-y,-z
-x,y,-z
-x,-y,-z
x,y,-z
-x,y,z
x,-y,z
loop_
_atom_site_type_symbol
_atom_site_label
_atom_site_fract_x
_atom_site_fract_y
_atom_site_fract_z
Si Si1 0.818919 0.608556 0.220359
Si Si2 0.681850 0.893649 0.618598
Si Si3 0.818374 0.107111 0.934169
Si Si4 0.679997 0.707200 0.671416
Si Si5 0.828872 0.112945 0.500000
Si Si6 0.681266 0.286862 0.113407
Si Si7 0.178323 0.612042 0.436164
Si Si8 0.316134 0.393518 0.000000
O O1 0.772645 0.500000 0.219121
O O2 0.762365 0.656226 0.277617
O O3 0.749659 0.662975 0.167525
O O4 0.000000 0.612409 0.217851
O O5 0.500000 0.894378 0.614571
O O6 0.724375 0.815750 0.664048
O O7 0.746388 0.862868 0.557951
O O8 0.731783 0.000000 0.630240
O O9 0.738029 0.181883 0.895083
O O10 0.000000 0.117060 0.930285
O O11 0.780629 0.000000 0.920904
O O12 0.776416 0.123441 0.000000
O O13 0.500000 0.701755 0.679735
O O14 0.725490 0.658325 0.612824
O O15 0.000000 0.148401 0.500000
O O16 0.832920 0.000000 0.500000
O O17 0.500000 0.289297 0.116528
O O18 0.731404 0.341304 0.056736
O O19 0.220122 0.640815 0.500000
O O20 0.193399 0.500000 0.433144
O O21 0.000000 0.633236 0.427917
O O22 0.264535 0.500000 0.000000
O O23 0.500000 0.393652 0.000000
#
# Coordination Sequence:
#
# PCOD9388369 Si02
#       8
#     8   8   8   8   4   8   8   4
#     4  11  25  44  63  83 112 154 199 240 291 358
#     4   9  19  36  55  77 111 150 183 223 280 343
#     4   9  18  34  57  86 124 167 204 241 287 341
#     4  11  23  37  58  85 110 144 192 242 291 341
#     4   9  17  29  49  79 110 141 182 227 271 326
#     4  11  21  36  60  90 122 156 195 245 298 347
#     4   9  19  36  56  79 110 147 183 225 286 353
#     4   9  18  32  52  83 120 152 183 231 296 353
#
# _framework density 18.566139
#
# number of rings (size 3 to 8) (size 9 to 14) (size 15 to 20)
#    0.000    2.143    0.714    3.214    1.000    6.286 
#    0.000    2.143    0.000    4.286    0.000    0.000 
#    0.000    0.000    0.000    0.000    0.000    0.000 
#
# Total GULP energy -312719.437516 kJ/mol
# GULP energy per Si atom -5584.275670 kJ/mol
# Density = 1.852388 g / cm^3
# Si number density = 18.566139 Si / 1000 Ang^3
#
#
#
# Elastic Constant Matrix: (Units=GPa)
#
#
# Indices 1 2 3 4 5 6 
#
# 1 38.4996 47.9875 40.4059 0.0000 0.0000 0.0000
# 2 47.9875 140.2693 79.2240 0.0000 0.0000 0.0000
# 3 40.4059 79.2240 120.4306 0.0000 0.0000 0.0000
# 4 0.0000 0.0000 0.0000 35.7268 0.0000 0.0000
# 5 0.0000 0.0000 0.0000 0.0000 31.5804 0.0000
# 6 0.0000 0.0000 0.0000 0.0000 0.0000 26.2726
#
#
#
# Elastic Compliance Matrix: (Units=1/GPa)
#
#
# Indices 1 2 3 4 5 6 
#
# 1 0.050647 -0.012299 -0.008902 0.000000 0.000000 0.000000
# 2 -0.012299 0.014331 -0.005301 0.000000 0.000000 0.000000
# 3 -0.008902 -0.005301 0.014777 0.000000 0.000000 0.000000
# 4 0.000000 0.000000 0.000000 0.027990 0.000000 0.000000
# 5 0.000000 0.000000 0.000000 0.000000 0.031665 0.000000
# 6 0.000000 0.000000 0.000000 0.000000 0.000000 0.038062
#
#
# Mechanical properties :
#
#
# Convention : Reuss Voigt Hill
#
# Bulk Modulus (GPa) = 37.38105 70.49271 53.93688
# Shear Modulus (GPa) = 20.88612 27.48811 24.18711
#
# Velocity S-wave (km/s) = 3.35768 3.85197 3.61328
# Velocity P-wave (km/s) = 5.93378 7.60489 6.82071
#
# Compressibility (1/GPa) = 0.02675152
#
# Stress axis : x y z
#
# Youngs Moduli (GPa) = 19.74450 69.78047 67.67136
#
# Poissons Ratio (x) = 0.85823 0.60240
# Poissons Ratio (y) = 0.24284 0.35871
# Poissons Ratio (z) = 0.17576 0.36989
#
# Static dielectric constant tensor:
#      x y z
#    x 1.625210 0.000000 0.000000 
#    y 0.000000 1.668840 0.000000 
#    z 0.000000 0.000000 1.604300 
# 
# From -- ./inp_files/29795.got.cif
#   From: 2010.05.17/outbox.cif.g08.bks.cpg/sg47_15_cif.got.tgz:29795.got - 2010.06.03 20:15:42.
