data_PCOD9388407
_publ_section_title
;
Structure prediction by ZEFSAII (Michael W. Deem and Ramdas Pophale) SiO2 
 PCOD9388407
Probable space group: P M M M
;
_chemical_formula_sum "Si O2"
_cell_formula_units_Z 44
_cell_length_a 15.279581
_cell_length_b 7.809466
_cell_length_c 18.055570
_cell_angle_alpha 90.000000
_cell_angle_beta 90.000000
_cell_angle_gamma 90.000000
_cell_volume 2154.487540
_symmetry_space_group_name_H-M "P M M M"
_symmetry_group_IT_number 47
_symmetry_cell_setting 'orthorhombic'
loop_
_space_group_symop_operation_xyz
x,y,z
-x,-y,z
x,-y,-z
-x,y,-z
-x,-y,-z
x,y,-z
-x,y,z
x,-y,z
loop_
_atom_site_type_symbol
_atom_site_label
_atom_site_fract_x
_atom_site_fract_y
_atom_site_fract_z
Si Si1 0.898024 0.709680 0.000000
Si Si2 0.792800 0.291356 0.854454
Si Si3 0.155430 0.292233 0.305283
Si Si4 0.403540 0.697899 0.183029
Si Si5 0.349852 0.192758 0.338235
Si Si6 0.596527 0.296092 0.500000
Si Si7 0.000000 0.709165 0.414036
O O1 0.843494 0.764580 0.072333
O O2 0.899014 0.500000 0.000000
O O3 0.000000 0.763713 0.000000
O O4 0.787530 0.500000 0.855692
O O5 0.850784 0.248111 0.781781
O O6 0.691005 0.230367 0.845254
O O7 0.161064 0.500000 0.309500
O O8 0.247172 0.212495 0.326748
O O9 0.082652 0.238089 0.364062
O O10 0.500000 0.772511 0.163400
O O11 0.405147 0.500000 0.158767
O O12 0.394763 0.701414 0.272538
O O13 0.363627 0.243383 0.422494
O O14 0.380078 0.000000 0.326592
O O15 0.593807 0.500000 0.500000
O O16 0.500000 0.221406 0.500000
O O17 0.000000 0.500000 0.416346
O O18 0.000000 0.766677 0.500000
#
# Coordination Sequence:
#
# PCOD9388407 Si02
#       7
#     4   8   8   8   8   4   4
#     4   9  16  24  41  71 108 139 165 209 266 314
#     4   8  15  27  43  69 102 135 169 205 253 314
#     4   9  18  33  52  72 100 135 173 216 260 311
#     4   9  17  32  52  71  96 133 172 210 257 312
#     4  11  22  34  50  74 103 132 168 213 261 308
#     4  11  23  37  53  72  97 132 171 211 258 309
#     4   9  18  30  49  76  96 124 176 226 258 298
#
# _framework density 20.42249
#
# number of rings (size 3 to 8) (size 9 to 14) (size 15 to 20)
#    0.000    2.636    0.000    3.545    2.545    3.273 
#    0.000    0.909    0.000    3.273    0.000   10.182 
#    0.000   17.455    0.000    0.000    0.000    0.000 
#
# Total GULP energy -245103.277708 kJ/mol
# GULP energy per Si atom -5570.529039 kJ/mol
# Density = 2.037601 g / cm^3
# Si number density = 20.422490 Si / 1000 Ang^3
#
#
#
# Elastic Constant Matrix: (Units=GPa)
#
#
# Indices 1 2 3 4 5 6 
#
# 1 132.9773 4.9254 84.2419 0.0000 0.0000 0.0000
# 2 4.9254 27.1227 6.9458 0.0000 0.0000 0.0000
# 3 84.2419 6.9458 170.8006 0.0000 0.0000 0.0000
# 4 0.0000 0.0000 0.0000 -14.6322 0.0000 0.0000
# 5 0.0000 0.0000 0.0000 0.0000 17.8761 0.0000
# 6 0.0000 0.0000 0.0000 0.0000 0.0000 91.2267
#
#
#
# Elastic Compliance Matrix: (Units=1/GPa)
#
#
# Indices 1 2 3 4 5 6 
#
# 1 0.010948 -0.000612 -0.005375 0.000000 0.000000 0.000000
# 2 -0.000612 0.037292 -0.001215 0.000000 0.000000 0.000000
# 3 -0.005375 -0.001215 0.008555 0.000000 0.000000 0.000000
# 4 0.000000 0.000000 0.000000 -0.068343 0.000000 0.000000
# 5 0.000000 0.000000 0.000000 0.000000 0.055940 0.000000
# 6 0.000000 0.000000 0.000000 0.000000 0.000000 0.010962
#
#
# Mechanical properties :
#
#
# Convention : Reuss Voigt Hill
#
# Bulk Modulus (GPa) = 23.58934 58.12518 40.85726
# Shear Modulus (GPa) = 59.60394 34.54664 47.07529
#
# Velocity S-wave (km/s) = 5.40822 4.11737 4.80632
# Velocity P-wave (km/s) = 7.11155 7.15030 7.13095
#
# Compressibility (1/GPa) = 0.04239204
#
# Stress axis : x y z
#
# Youngs Moduli (GPa) = 91.34393 26.81564 116.88969
#
# Poissons Ratio (x) = 0.01640 0.62825
# Poissons Ratio (y) = 0.05587 0.14200
# Poissons Ratio (z) = 0.49095 0.03258
#
# Static dielectric constant tensor:
#      x y z
#    x 1.740220 0.000000 0.000000 
#    y 0.000000 1.738350 0.000000 
#    z 0.000000 0.000000 1.460120 
# 
# From -- ./inp_files/27901.got.cif
#   From: 2010.05.17/outbox.cif.g08.bks.cpg/sg47_14_cif.got.tgz:27901.got - 2010.06.03 20:15:42.
