data_PCOD9388429
_publ_section_title
;
Structure prediction by ZEFSAII (Michael W. Deem and Ramdas Pophale) SiO2 
 PCOD9388429
Probable space group: P M M M
;
_chemical_formula_sum "Si O2"
_cell_formula_units_Z 52
_cell_length_a 7.672585
_cell_length_b 19.710131
_cell_length_c 16.288105
_cell_angle_alpha 90.000000
_cell_angle_beta 90.000000
_cell_angle_gamma 90.000000
_cell_volume 2463.211931
_symmetry_space_group_name_H-M "P M M M"
_symmetry_group_IT_number 47
_symmetry_cell_setting 'orthorhombic'
loop_
_space_group_symop_operation_xyz
x,y,z
-x,-y,z
x,-y,-z
-x,y,-z
-x,-y,-z
x,y,-z
-x,y,z
x,-y,z
loop_
_atom_site_type_symbol
_atom_site_label
_atom_site_fract_x
_atom_site_fract_y
_atom_site_fract_z
Si Si1 0.801230 0.081298 0.586504
Si Si2 0.799285 0.425336 0.655629
Si Si3 0.698921 0.367321 0.823536
Si Si4 0.212852 0.281227 0.591955
Si Si5 0.792018 0.576454 0.000000
Si Si6 0.213655 0.924322 0.229892
Si Si7 0.210601 0.779340 0.235969
O O1 0.721167 0.104263 0.500000
O O2 0.724002 0.087199 0.676327
O O3 0.000000 0.109482 0.589466
O O4 0.817054 0.000000 0.580452
O O5 0.721030 0.500000 0.641662
O O6 0.800913 0.407821 0.752819
O O7 0.724990 0.357874 0.612768
O O8 0.000000 0.428697 0.627817
O O9 0.500000 0.383094 0.804885
O O10 0.730820 0.287510 0.811304
O O11 0.738113 0.387960 0.915978
O O12 0.266770 0.261980 0.500000
O O13 0.266323 0.233915 0.668666
O O14 0.000000 0.281958 0.593096
O O15 0.721555 0.500000 0.000000
O O16 0.000000 0.573770 0.000000
O O17 0.264274 0.850869 0.194469
O O18 0.000000 0.927162 0.230583
O O19 0.270128 0.000000 0.201951
O O20 0.000000 0.779238 0.237189
#
# Coordination Sequence:
#
# PCOD9388429 Si02
#       7
#     8   8   8   8   4   8   8
#     4   7   9  13  22  42  77 114 143 182 244 305
#     4   9  17  30  48  69  95 128 165 206 252 295
#     4  11  22  35  52  75 104 135 165 194 230 283
#     4   8  14  24  39  62  91 125 168 213 253 294
#     4  11  23  39  61  87 112 133 154 185 227 278
#     4   8  13  21  36  60  87 117 158 206 251 295
#     4   9  17  30  47  67  96 133 170 209 254 300
#
# _framework density 21.110648000000001
#
# number of rings (size 3 to 8) (size 9 to 14) (size 15 to 20)
#    0.000    3.154    0.000    4.385    0.000    3.692 
#    0.000    4.615    0.000    7.846    0.000    4.846 
#    0.000    4.308    0.000    9.385    0.000    9.231 
#
# Total GULP energy -289487.350717 kJ/mol
# GULP energy per Si atom -5567.064437 kJ/mol
# Density = 2.106260 g / cm^3
# Si number density = 21.110648 Si / 1000 Ang^3
#
#
#
# Elastic Constant Matrix: (Units=GPa)
#
#
# Indices 1 2 3 4 5 6 
#
# 1 42.9520 4.9324 -4.1248 0.0000 0.0000 0.0000
# 2 4.9324 170.7100 33.7004 0.0000 0.0000 0.0000
# 3 -4.1248 33.7004 65.7202 0.0000 0.0000 0.0000
# 4 0.0000 0.0000 0.0000 6.4594 0.0000 0.0000
# 5 0.0000 0.0000 0.0000 0.0000 64.0652 0.0000
# 6 0.0000 0.0000 0.0000 0.0000 0.0000 -43.0622
#
#
#
# Elastic Compliance Matrix: (Units=1/GPa)
#
#
# Indices 1 2 3 4 5 6 
#
# 1 0.023602 -0.001084 0.002037 0.000000 0.000000 0.000000
# 2 -0.001084 0.006567 -0.003436 0.000000 0.000000 0.000000
# 3 0.002037 -0.003436 0.017106 0.000000 0.000000 0.000000
# 4 0.000000 0.000000 0.000000 0.154812 0.000000 0.000000
# 5 0.000000 0.000000 0.000000 0.000000 0.015609 0.000000
# 6 0.000000 0.000000 0.000000 0.000000 0.000000 -0.023222
#
#
# Mechanical properties :
#
#
# Convention : Reuss Voigt Hill
#
# Bulk Modulus (GPa) = 23.63513 38.71091 31.17302
# Shear Modulus (GPa) = 23.41448 21.81742 22.61595
#
# Velocity S-wave (km/s) = 3.33398 3.21827 3.27663
# Velocity P-wave (km/s) = 5.10301 5.67332 5.39570
#
# Compressibility (1/GPa) = 0.04230990
#
# Stress axis : x y z
#
# Youngs Moduli (GPa) = 42.36935 152.26548 58.46007
#
# Poissons Ratio (x) = 0.16508 -0.11910
# Poissons Ratio (y) = 0.04593 0.20085
# Poissons Ratio (z) = -0.08632 0.52315
#
# Static dielectric constant tensor:
#      x y z
#    x 1.860120 0.000000 0.000000 
#    y 0.000000 1.828200 0.000000 
#    z 0.000000 0.000000 -11.060790 
# 
# From -- ./inp_files/21421.got.cif
#   From: 2010.05.17/outbox.cif.g08.bks.cpg/sg47_11_cif.got.tgz:21421.got - 2010.06.03 20:15:42.
