data_PCOD9388786
_publ_section_title
;
Structure prediction by ZEFSAII (Michael W. Deem and Ramdas Pophale) SiO2 
 PCOD9388786
Probable space group: P M M M
;
_chemical_formula_sum "Si O2"
_cell_formula_units_Z 40
_cell_length_a 7.612768
_cell_length_b 9.975274
_cell_length_c 27.047473
_cell_angle_alpha 90.000000
_cell_angle_beta 90.000000
_cell_angle_gamma 90.000000
_cell_volume 2053.970134
_symmetry_space_group_name_H-M "P M M M"
_symmetry_group_IT_number 47
_symmetry_cell_setting 'orthorhombic'
loop_
_space_group_symop_operation_xyz
x,y,z
-x,-y,z
x,-y,-z
-x,y,-z
-x,-y,-z
x,y,-z
-x,y,z
x,-y,z
loop_
_atom_site_type_symbol
_atom_site_label
_atom_site_fract_x
_atom_site_fract_y
_atom_site_fract_z
Si Si1 0.790889 0.347126 0.892170
Si Si2 0.715685 0.655141 0.608015
Si Si3 0.296175 0.663010 0.500000
Si Si4 0.789262 0.152616 0.193041
Si Si5 0.291011 0.652899 0.000000
Si Si6 0.288887 0.847164 0.695583
O O1 0.719459 0.500000 0.890764
O O2 0.720331 0.252314 0.848953
O O3 0.000000 0.357056 0.885097
O O4 0.763006 0.288590 0.947214
O O5 0.500000 0.656442 0.606778
O O6 0.766807 0.500000 0.615430
O O7 0.777697 0.701766 0.553500
O O8 0.774974 0.749469 0.652493
O O9 0.294993 0.500000 0.500000
O O10 0.500000 0.706273 0.500000
O O11 0.752938 0.199404 0.248887
O O12 0.000000 0.146173 0.187521
O O13 0.721134 0.000000 0.188302
O O14 0.218132 0.500000 0.000000
O O15 0.500000 0.646816 0.000000
O O16 0.500000 0.851662 0.691506
O O17 0.222612 0.000000 0.690431
#
# Coordination Sequence:
#
# PCOD9388786 Si02
#       6
#     8   8   4   8   4   8
#     4   9  17  30  48  67  86 110 141 175 207 240
#     4   8  13  22  37  57  81 109 139 169 204 249
#     4   7  10  18  33  53  78 107 136 166 202 245
#     4   9  18  32  47  62  83 113 145 173 205 248
#     4   9  17  29  46  69  94 116 138 167 206 250
#     4   9  17  28  41  59  84 110 135 169 213 252
#
# _framework density 19.47448
#
# number of rings (size 3 to 8) (size 9 to 14) (size 15 to 20)
#    0.000    3.400    0.000    1.500    0.000    2.800 
#    0.000    1.000    0.000    6.000    0.000    0.700 
#    0.000    5.600    0.000    0.000    0.000    0.000 
#
# Total GULP energy -222779.533523 kJ/mol
# GULP energy per Si atom -5569.488338 kJ/mol
# Density = 1.943016 g / cm^3
# Si number density = 19.474480 Si / 1000 Ang^3
#
#
#
# Elastic Constant Matrix: (Units=GPa)
#
#
# Indices 1 2 3 4 5 6 
#
# 1 39.8959 4.4807 -0.0895 0.0000 0.0000 0.0000
# 2 4.4807 66.6144 102.3394 0.0000 0.0000 0.0000
# 3 -0.0895 102.3394 235.6860 0.0000 0.0000 0.0000
# 4 0.0000 0.0000 0.0000 211.6270 0.0000 0.0000
# 5 0.0000 0.0000 0.0000 0.0000 22.2477 0.0000
# 6 0.0000 0.0000 0.0000 0.0000 0.0000 2.6394
#
#
#
# Elastic Compliance Matrix: (Units=1/GPa)
#
#
# Indices 1 2 3 4 5 6 
#
# 1 0.025658 -0.005229 0.002280 0.000000 0.000000 0.000000
# 2 -0.005229 0.046158 -0.020045 0.000000 0.000000 0.000000
# 3 0.002280 -0.020045 0.012948 0.000000 0.000000 0.000000
# 4 0.000000 0.000000 0.000000 0.004725 0.000000 0.000000
# 5 0.000000 0.000000 0.000000 0.000000 0.044949 0.000000
# 6 0.000000 0.000000 0.000000 0.000000 0.000000 0.378877
#
#
# Mechanical properties :
#
#
# Convention : Reuss Voigt Hill
#
# Bulk Modulus (GPa) = 25.78886 61.73973 43.76430
# Shear Modulus (GPa) = 8.73780 63.00051 35.86916
#
# Velocity S-wave (km/s) = 2.12050 5.69390 4.29634
# Velocity P-wave (km/s) = 4.38936 8.66020 6.86533
#
# Compressibility (1/GPa) = 0.03877643
#
# Stress axis : x y z
#
# Youngs Moduli (GPa) = 38.97476 21.66463 77.23426
#
# Poissons Ratio (x) = 0.11328 -0.17612
# Poissons Ratio (y) = 0.20380 1.54814
# Poissons Ratio (z) = -0.08887 0.43426
#
# Static dielectric constant tensor:
#      x y z
#    x 1.727480 0.000000 0.000000 
#    y 0.000000 1.673670 0.000000 
#    z 0.000000 0.000000 1.697010 
# 
# From -- ./inp_files/29336.got.cif
#   From: 2010.05.17/outbox.cif.g08.bks.cpg/sg47_15_cif.got.tgz:29336.got - 2010.06.03 20:15:42.
