data_PCOD9388971
_publ_section_title
;
Structure prediction by ZEFSAII (Michael W. Deem and Ramdas Pophale) SiO2 
 PCOD9388971
Probable space group: P M M M
;
_chemical_formula_sum "Si O2"
_cell_formula_units_Z 44
_cell_length_a 17.846512
_cell_length_b 16.038143
_cell_length_c 7.427917
_cell_angle_alpha 90.000000
_cell_angle_beta 90.000000
_cell_angle_gamma 90.000000
_cell_volume 2126.054886
_symmetry_space_group_name_H-M "P M M M"
_symmetry_group_IT_number 47
_symmetry_cell_setting 'orthorhombic'
loop_
_space_group_symop_operation_xyz
x,y,z
-x,-y,z
x,-y,-z
-x,y,-z
-x,-y,-z
x,y,-z
-x,y,z
x,-y,z
loop_
_atom_site_type_symbol
_atom_site_label
_atom_site_fract_x
_atom_site_fract_y
_atom_site_fract_z
Si Si1 0.000000 0.403405 0.279048
Si Si2 0.415506 0.404741 0.719371
Si Si3 0.300739 0.088863 0.289416
Si Si4 0.123080 0.090373 0.215275
Si Si5 0.703697 0.269048 0.278605
Si Si6 0.125079 0.723841 0.712720
O O1 0.928640 0.348817 0.218277
O O2 0.000000 0.500000 0.223074
O O3 0.000000 0.403621 0.500000
O O4 0.414818 0.404123 0.500000
O O5 0.500000 0.381214 0.774289
O O6 0.401679 0.500000 0.775237
O O7 0.351560 0.341757 0.779149
O O8 0.320675 0.087361 0.500000
O O9 0.209957 0.091155 0.276778
O O10 0.325018 0.178185 0.217093
O O11 0.324716 0.000000 0.209498
O O12 0.093354 0.181802 0.265871
O O13 0.091722 0.000000 0.277936
O O14 0.121082 0.088487 0.000000
O O15 0.704968 0.267665 0.500000
O O16 0.789707 0.279403 0.217074
O O17 0.130838 0.710330 0.500000
#
# Coordination Sequence:
#
# PCOD9388971 Si02
#       6
#     4   8   8   8   8   8
#     4   9  18  32  48  65  84 106 137 179 218 247
#     4   8  13  20  30  48  77 108 132 158 197 241
#     4   8  13  22  37  57  81 108 136 165 199 240
#     4   9  16  26  42  64  88 112 138 170 207 245
#     4   8  13  21  35  54  74 101 135 163 190 232
#     4   9  17  29  45  64  85 110 139 171 209 250
#
# _framework density 20.695608
#
# number of rings (size 3 to 8) (size 9 to 14) (size 15 to 20)
#    0.000    3.545    0.000    2.182    0.000    1.818 
#    0.000    4.545    0.000    4.364    0.000    3.818 
#    0.000   11.636    0.000   77.818    0.000   71.273 
#
# Total GULP energy -245023.836270 kJ/mol
# GULP energy per Si atom -5568.723552 kJ/mol
# Density = 2.064850 g / cm^3
# Si number density = 20.695608 Si / 1000 Ang^3
#
#
#
# Elastic Constant Matrix: (Units=GPa)
#
#
# Indices 1 2 3 4 5 6 
#
# 1 93.4916 103.1853 3.3091 0.0000 0.0000 0.0000
# 2 103.1853 227.7017 1.4827 0.0000 0.0000 0.0000
# 3 3.3091 1.4827 66.0762 0.0000 0.0000 0.0000
# 4 0.0000 0.0000 0.0000 -28.9204 0.0000 0.0000
# 5 0.0000 0.0000 0.0000 0.0000 -909.5873 0.0000
# 6 0.0000 0.0000 0.0000 0.0000 0.0000 -143.8622
#
#
#
# Elastic Compliance Matrix: (Units=1/GPa)
#
#
# Indices 1 2 3 4 5 6 
#
# 1 0.021447 -0.009713 -0.000856 0.000000 0.000000 0.000000
# 2 -0.009713 0.008792 0.000289 0.000000 0.000000 0.000000
# 3 -0.000856 0.000289 0.015170 0.000000 0.000000 0.000000
# 4 0.000000 0.000000 0.000000 -0.034578 0.000000 0.000000
# 5 0.000000 0.000000 0.000000 0.000000 -0.001099 0.000000
# 6 0.000000 0.000000 0.000000 0.000000 0.000000 -0.006951
#
#
# Mechanical properties :
#
#
# Convention : Reuss Voigt Hill
#
# Bulk Modulus (GPa) = 40.24414 67.02486 53.63450
# Shear Modulus (GPa) = 158.10826 -197.85451 -19.87312
#
# Velocity S-wave (km/s) = 8.75002 -9.78824 -3.10216
# Velocity P-wave (km/s) = 11.02596 9.76166 3.62504
#
# Compressibility (1/GPa) = 0.02484834
#
# Stress axis : x y z
#
# Youngs Moduli (GPa) = 46.62684 113.74614 65.91773
#
# Poissons Ratio (x) = 1.10485 0.05643
# Poissons Ratio (y) = 0.45290 -0.01906
# Poissons Ratio (z) = 0.03992 -0.03289
#
# Static dielectric constant tensor:
#      x y z
#    x 1.710500 0.000000 0.000000 
#    y 0.000000 1.770620 0.000000 
#    z 0.000000 0.000000 1.774670 
# 
# From -- ./inp_files/9017.got.cif
#   From: 2010.05.17/outbox.cif.g08.bks.cpg/sg47_5_cif.got.tgz:9017.got - 2010.06.03 20:15:42.
