data_PCOD9388826
_publ_section_title
;
Structure prediction by ZEFSAII (Michael W. Deem and Ramdas Pophale) SiO2 
 PCOD9388826
Probable space group: P M M M
;
_chemical_formula_sum "Si O2"
_cell_formula_units_Z 48
_cell_length_a 7.403228
_cell_length_b 9.742208
_cell_length_c 32.658748
_cell_angle_alpha 90.000000
_cell_angle_beta 90.000000
_cell_angle_gamma 90.000000
_cell_volume 2355.472586
_symmetry_space_group_name_H-M "P M M M"
_symmetry_group_IT_number 47
_symmetry_cell_setting 'orthorhombic'
loop_
_space_group_symop_operation_xyz
x,y,z
-x,-y,z
x,-y,-z
-x,y,-z
-x,-y,-z
x,y,-z
-x,y,z
x,-y,z
loop_
_atom_site_type_symbol
_atom_site_label
_atom_site_fract_x
_atom_site_fract_y
_atom_site_fract_z
Si Si1 0.283859 0.344210 0.955103
Si Si2 0.779145 0.658244 0.289327
Si Si3 0.784877 0.846092 0.122058
Si Si4 0.220684 0.159743 0.366313
Si Si5 0.217010 0.164592 0.456004
Si Si6 0.220061 0.159255 0.786943
O O1 0.500000 0.351125 0.957413
O O2 0.216800 0.500000 0.949424
O O3 0.245705 0.251198 0.916234
O O4 0.219831 0.294059 0.000000
O O5 0.721880 0.500000 0.289909
O O6 0.721985 0.743581 0.329298
O O7 0.719669 0.739537 0.248750
O O8 0.000000 0.658366 0.289311
O O9 0.720124 0.800575 0.167113
O O10 0.000000 0.856018 0.126233
O O11 0.714986 0.000000 0.114191
O O12 0.281192 0.210922 0.411330
O O13 0.000000 0.159110 0.366705
O O14 0.274418 0.000000 0.360560
O O15 0.285763 0.217787 0.500000
O O16 0.000000 0.184540 0.456390
O O17 0.247061 0.000000 0.455928
O O18 0.000000 0.161427 0.786037
O O19 0.272186 0.000000 0.779911
#
# Coordination Sequence:
#
# PCOD9388826 Si02
#       6
#     8   8   8   8   8   8
#     4   9  19  35  51  67  90 120 151 179 207 244
#     4   9  15  20  27  41  60  81 107 139 174 217
#     4   9  18  31  47  69  93 114 140 177 218 257
#     4   8  12  17  25  35  47  67  95 127 168 217
#     4   7   9  13  21  32  43  56  82 123 166 208
#     4   8  14  25  38  51  71  97 121 148 187 234
#
# _framework density 20.378077000000001
#
# number of rings (size 3 to 8) (size 9 to 14) (size 15 to 20)
#    0.000    3.667    0.000    3.500    0.000    4.000 
#    0.000    4.167    0.000    0.500    0.000    3.500 
#    0.000    0.000    0.000    0.000    0.000    0.000 
#
# Total GULP energy -267396.185742 kJ/mol
# GULP energy per Si atom -5570.753870 kJ/mol
# Density = 2.033170 g / cm^3
# Si number density = 20.378077 Si / 1000 Ang^3
#
#
#
# Elastic Constant Matrix: (Units=GPa)
#
#
# Indices 1 2 3 4 5 6 
#
# 1 63.2871 3.4581 8.2770 0.0000 0.0000 0.0000
# 2 3.4581 106.9058 134.7763 0.0000 0.0000 0.0000
# 3 8.2770 134.7763 274.3881 0.0000 0.0000 0.0000
# 4 0.0000 0.0000 0.0000 -14.5571 0.0000 0.0000
# 5 0.0000 0.0000 0.0000 0.0000 71.2174 0.0000
# 6 0.0000 0.0000 0.0000 0.0000 0.0000 -0.0150
#
#
#
# Elastic Compliance Matrix: (Units=1/GPa)
#
#
# Indices 1 2 3 4 5 6 
#
# 1 0.015866 0.000237 -0.000595 0.000000 0.000000 0.000000
# 2 0.000237 0.024570 -0.012076 0.000000 0.000000 0.000000
# 3 -0.000595 -0.012076 0.009594 0.000000 0.000000 0.000000
# 4 0.000000 0.000000 0.000000 -0.068695 0.000000 0.000000
# 5 0.000000 0.000000 0.000000 0.000000 0.014042 0.000000
# 6 0.000000 0.000000 0.000000 0.000000 0.000000-66.695646
#
#
# Mechanical properties :
#
#
# Convention : Reuss Voigt Hill
#
# Bulk Modulus (GPa) = 39.74204 81.95599 60.84901
# Shear Modulus (GPa) = -0.07500 31.20037 15.56268
#
# Velocity S-wave (km/s) = -0.19205 3.91714 2.76651
# Velocity P-wave (km/s) = 4.41537 7.79511 6.33479
#
# Compressibility (1/GPa) = 0.02516227
#
# Stress axis : x y z
#
# Youngs Moduli (GPa) = 63.02832 40.69939 104.23252
#
# Poissons Ratio (x) = -0.00964 0.06201
# Poissons Ratio (y) = -0.01492 1.25870
# Poissons Ratio (z) = 0.03750 0.49148
#
# Static dielectric constant tensor:
#      x y z
#    x 1.797040 0.000000 0.000000 
#    y 0.000000 1.679360 0.000000 
#    z 0.000000 0.000000 1.757100 
# 
# From -- ./inp_files/15606.got.cif
#   From: 2010.05.17/outbox.cif.g08.bks.cpg/sg47_8_cif.got.tgz:15606.got - 2010.06.03 20:15:42.
