data_PCOD9388062
_publ_section_title
;
Structure prediction by ZEFSAII (Michael W. Deem and Ramdas Pophale) SiO2 
 PCOD9388062
Probable space group: P M M M
;
_chemical_formula_sum "Si O2"
_cell_formula_units_Z 48
_cell_length_a 8.650871
_cell_length_b 29.653299
_cell_length_c 10.228823
_cell_angle_alpha 90.000000
_cell_angle_beta 90.000000
_cell_angle_gamma 90.000000
_cell_volume 2623.967890
_symmetry_space_group_name_H-M "P M M M"
_symmetry_group_IT_number 47
_symmetry_cell_setting 'orthorhombic'
loop_
_space_group_symop_operation_xyz
x,y,z
-x,-y,z
x,-y,-z
-x,y,-z
-x,-y,-z
x,y,-z
-x,y,z
x,-y,z
loop_
_atom_site_type_symbol
_atom_site_label
_atom_site_fract_x
_atom_site_fract_y
_atom_site_fract_z
Si Si1 0.685513 0.447395 0.000000
Si Si2 0.816320 0.602716 0.747314
Si Si3 0.321542 0.553725 0.500000
Si Si4 0.185092 0.227814 0.849203
Si Si5 0.685464 0.302077 0.653127
Si Si6 0.313803 0.128081 0.150627
Si Si7 0.688366 0.051050 0.349859
O O1 0.745841 0.420644 0.125455
O O2 0.736658 0.500000 0.000000
O O3 0.500000 0.447423 0.000000
O O4 0.764734 0.572270 0.625855
O O5 0.751453 0.652320 0.716686
O O6 0.000000 0.604946 0.758991
O O7 0.323293 0.500000 0.500000
O O8 0.500000 0.570068 0.500000
O O9 0.257701 0.260810 0.742231
O O10 0.238000 0.176530 0.824293
O O11 0.000000 0.230950 0.842795
O O12 0.232195 0.239026 0.000000
O O13 0.734200 0.298828 0.500000
O O14 0.500000 0.303784 0.655040
O O15 0.500000 0.132909 0.163161
O O16 0.260211 0.089434 0.249960
O O17 0.281116 0.115452 0.000000
O O18 0.734340 0.060159 0.500000
O O19 0.500000 0.051079 0.347317
O O20 0.737265 0.000000 0.315520
#
# Coordination Sequence:
#
# PCOD9388062 Si02
#       7
#     4   8   4   8   8   8   8
#     4  11  25  45  67  91 123 163 203 243 290 347
#     4  12  25  41  64  93 125 157 196 246 296 348
#     4  11  23  41  65  91 123 163 203 241 288 347
#     4  10  22  39  59  83 114 150 190 237 291 347
#     4  11  24  42  64  88 117 152 193 237 288 351
#     4   9  17  30  49  75 106 139 181 230 281 338
#     4   8  14  25  43  70 104 140 179 227 281 335
#
# _framework density 18.292908000000001
#
# number of rings (size 3 to 8) (size 9 to 14) (size 15 to 20)
#    0.000    1.833    0.833    4.000    1.167    6.333 
#    0.000    3.333    0.000    0.500    0.000    3.500 
#    0.000    0.000    0.000    0.000    0.000    0.000 
#
# Total GULP energy -268072.342238 kJ/mol
# GULP energy per Si atom -5584.840463 kJ/mol
# Density = 1.825127 g / cm^3
# Si number density = 18.292908 Si / 1000 Ang^3
#
#
#
# Elastic Constant Matrix: (Units=GPa)
#
#
# Indices 1 2 3 4 5 6 
#
# 1 63.0199 48.6142 53.0339 0.0000 0.0000 0.0000
# 2 48.6142 149.2336 117.8559 0.0000 0.0000 0.0000
# 3 53.0339 117.8559 175.8330 0.0000 0.0000 0.0000
# 4 0.0000 0.0000 0.0000 44.2860 0.0000 0.0000
# 5 0.0000 0.0000 0.0000 0.0000 20.0144 0.0000
# 6 0.0000 0.0000 0.0000 0.0000 0.0000 -251.8017
#
#
#
# Elastic Compliance Matrix: (Units=1/GPa)
#
#
# Indices 1 2 3 4 5 6 
#
# 1 0.022425 -0.004172 -0.003967 0.000000 0.000000 0.000000
# 2 -0.004172 0.015013 -0.008805 0.000000 0.000000 0.000000
# 3 -0.003967 -0.008805 0.012785 0.000000 0.000000 0.000000
# 4 0.000000 0.000000 0.000000 0.022581 0.000000 0.000000
# 5 0.000000 0.000000 0.000000 0.000000 0.049964 0.000000
# 6 0.000000 0.000000 0.000000 0.000000 0.000000 -0.003971
#
#
# Mechanical properties :
#
#
# Convention : Reuss Voigt Hill
#
# Bulk Modulus (GPa) = 61.21569 91.89941 76.55755
# Shear Modulus (GPa) = 31.61946 -26.26143 2.67902
#
# Velocity S-wave (km/s) = 4.16205 -3.79305 1.21148
# Velocity P-wave (km/s) = 7.52553 5.58246 6.62561
#
# Compressibility (1/GPa) = 0.01633568
#
# Stress axis : x y z
#
# Youngs Moduli (GPa) = 44.59307 66.60696 78.21401
#
# Poissons Ratio (x) = 0.27788 0.31031
# Poissons Ratio (y) = 0.18604 0.68866
# Poissons Ratio (z) = 0.17692 0.58646
#
# Static dielectric constant tensor:
#      x y z
#    x 1.617630 0.000000 0.000000 
#    y 0.000000 1.605890 0.000000 
#    z 0.000000 0.000000 1.612910 
# 
# From -- ./inp_files/2641.got.cif
#   From: 2010.05.17/outbox.cif.g08.bks.cpg/sg47_2_cif.got.tgz:2641.got - 2010.06.03 20:15:42.
