data_PCOD9388585
_publ_section_title
;
Structure prediction by ZEFSAII (Michael W. Deem and Ramdas Pophale) SiO2 
 PCOD9388585
Probable space group: P M M M
;
_chemical_formula_sum "Si O2"
_cell_formula_units_Z 48
_cell_length_a 15.605607
_cell_length_b 9.408822
_cell_length_c 18.220845
_cell_angle_alpha 90.000000
_cell_angle_beta 90.000000
_cell_angle_gamma 90.000000
_cell_volume 2675.373567
_symmetry_space_group_name_H-M "P M M M"
_symmetry_group_IT_number 47
_symmetry_cell_setting 'orthorhombic'
loop_
_space_group_symop_operation_xyz
x,y,z
-x,-y,z
x,-y,-z
-x,y,-z
-x,-y,-z
x,y,-z
-x,y,z
x,-y,z
loop_
_atom_site_type_symbol
_atom_site_label
_atom_site_fract_x
_atom_site_fract_y
_atom_site_fract_z
Si Si1 0.159083 0.666140 0.655605
Si Si2 0.500000 0.838172 0.912503
Si Si3 0.147287 0.327115 0.822206
Si Si4 0.636978 0.659381 0.668559
Si Si5 0.898299 0.663488 0.500000
Si Si6 0.000000 0.829702 0.087893
Si Si7 0.348121 0.335004 0.159029
Si Si8 0.500000 0.168628 0.583643
O O1 0.131433 0.500000 0.654748
O O2 0.132239 0.718066 0.736751
O O3 0.261882 0.671035 0.655033
O O4 0.128269 0.730051 0.578274
O O5 0.414225 0.759713 0.885462
O O6 0.500000 0.000000 0.884838
O O7 0.500000 0.839047 0.000000
O O8 0.136538 0.500000 0.825925
O O9 0.246875 0.297685 0.842810
O O10 0.082165 0.245658 0.874827
O O11 0.609934 0.500000 0.647119
O O12 0.624917 0.673878 0.755642
O O13 0.582604 0.771878 0.624859
O O14 0.862645 0.500000 0.500000
O O15 0.000000 0.655399 0.500000
O O16 0.000000 0.000000 0.101279
O O17 0.000000 0.807639 0.000000
O O18 0.355717 0.500000 0.136257
O O19 0.500000 0.219041 0.500000
O O20 0.500000 0.000000 0.584724
#
# Coordination Sequence:
#
# PCOD9388585 Si02
#       8
#     8   4   8   8   4   4   8   4
#     4   8  16  30  50  81 113 139 172 220 268 314
#     4  11  24  37  52  80 114 147 182 219 268 336
#     4   9  19  37  61  85 111 144 185 231 279 330
#     4   9  18  34  55  77 101 134 179 223 264 312
#     4   9  16  24  42  79 116 139 165 208 266 314
#     4  11  25  41  57  82 115 148 184 229 277 329
#     4   9  19  37  59  84 110 138 179 230 279 328
#     4  11  24  35  44  68 106 143 182 223 266 312
#
# _framework density 17.941417999999999
#
# number of rings (size 3 to 8) (size 9 to 14) (size 15 to 20)
#    0.000    2.667    0.000    3.250    2.333    6.000 
#    0.000    5.833    0.000    0.000    0.000    0.583 
#    0.000    0.000    0.000    0.000    0.000    0.000 
#
# Total GULP energy -267500.145101 kJ/mol
# GULP energy per Si atom -5572.919690 kJ/mol
# Density = 1.790058 g / cm^3
# Si number density = 17.941418 Si / 1000 Ang^3
#
#
#
# Elastic Constant Matrix: (Units=GPa)
#
#
# Indices 1 2 3 4 5 6 
#
# 1 78.9994 50.7758 69.7044 0.0000 0.0000 0.0000
# 2 50.7758 59.7152 54.0453 0.0000 0.0000 0.0000
# 3 69.7044 54.0453 116.2065 0.0000 0.0000 0.0000
# 4 0.0000 0.0000 0.0000 29.1087 0.0000 0.0000
# 5 0.0000 0.0000 0.0000 0.0000 49.3615 0.0000
# 6 0.0000 0.0000 0.0000 0.0000 0.0000 -27.0888
#
#
#
# Elastic Compliance Matrix: (Units=1/GPa)
#
#
# Indices 1 2 3 4 5 6 
#
# 1 0.036439 -0.019345 -0.012861 0.000000 0.000000 0.000000
# 2 -0.019345 0.039188 -0.006622 0.000000 0.000000 0.000000
# 3 -0.012861 -0.006622 0.019399 0.000000 0.000000 0.000000
# 4 0.000000 0.000000 0.000000 0.034354 0.000000 0.000000
# 5 0.000000 0.000000 0.000000 0.000000 0.020259 0.000000
# 6 0.000000 0.000000 0.000000 0.000000 0.000000 -0.036916
#
#
# Mechanical properties :
#
#
# Convention : Reuss Voigt Hill
#
# Bulk Modulus (GPa) = 57.56365 67.10801 62.33583
# Shear Modulus (GPa) = 25.48806 15.63598 20.56202
#
# Velocity S-wave (km/s) = 3.77321 2.95532 3.38903
# Velocity P-wave (km/s) = 7.15099 7.00931 7.08050
#
# Compressibility (1/GPa) = 0.01737207
#
# Stress axis : x y z
#
# Youngs Moduli (GPa) = 27.44276 25.51774 51.54801
#
# Poissons Ratio (x) = 0.49364 0.66294
# Poissons Ratio (y) = 0.53088 0.34135
# Poissons Ratio (z) = 0.35293 0.16898
#
# Static dielectric constant tensor:
#      x y z
#    x 1.601190 0.000000 0.000000 
#    y 0.000000 1.596840 0.000000 
#    z 0.000000 0.000000 1.627260 
# 
# From -- ./inp_files/28099.got.cif
#   From: 2010.05.17/outbox.cif.g08.bks.cpg/sg47_15_cif.got.tgz:28099.got - 2010.06.03 20:15:42.
