data_PCOD9388575
_publ_section_title
;
Structure prediction by ZEFSAII (Michael W. Deem and Ramdas Pophale) SiO2 
 PCOD9388575
Probable space group: P M M M
;
_chemical_formula_sum "Si O2"
_cell_formula_units_Z 34
_cell_length_a 8.959050
_cell_length_b 22.829832
_cell_length_c 7.797942
_cell_angle_alpha 90.000000
_cell_angle_beta 90.000000
_cell_angle_gamma 90.000000
_cell_volume 1594.941200
_symmetry_space_group_name_H-M "P M M M"
_symmetry_group_IT_number 47
_symmetry_cell_setting 'orthorhombic'
loop_
_space_group_symop_operation_xyz
x,y,z
-x,-y,z
x,-y,-z
-x,y,-z
-x,-y,-z
x,y,-z
-x,y,z
x,-y,z
loop_
_atom_site_type_symbol
_atom_site_label
_atom_site_fract_x
_atom_site_fract_y
_atom_site_fract_z
Si Si1 0.322226 0.086092 0.304640
Si Si2 0.667884 0.684058 0.702290
Si Si3 0.766473 0.000000 0.000000
Si Si4 0.827048 0.565252 0.207243
Si Si5 0.168648 0.799367 0.798964
O O1 0.287783 0.067386 0.500000
O O2 0.500000 0.078004 0.277169
O O3 0.242050 0.050414 0.153367
O O4 0.277231 0.153985 0.288714
O O5 0.664018 0.695313 0.500000
O O6 0.500000 0.689494 0.771932
O O7 0.729042 0.618924 0.730462
O O8 0.774294 0.733296 0.779804
O O9 0.778794 0.500000 0.262881
O O10 0.000000 0.573211 0.260203
O O11 0.824474 0.565920 0.000000
O O12 0.000000 0.805127 0.731386
O O13 0.167160 0.813270 0.000000
#
# Coordination Sequence:
#
# PCOD9388575 Si02
#       5
#     8   8   2   8   8
#     4  11  23  40  66  98 129 166 212 256 307 372
#     4  11  24  39  57  86 122 159 202 253 309 368
#     4  12  23  42  69  98 135 172 205 256 311 362
#     4   9  19  37  60  86 117 155 201 251 304 366
#     4  11  24  42  64  90 121 160 207 257 313 373
#
# _framework density 21.317402000000001
#
# number of rings (size 3 to 8) (size 9 to 14) (size 15 to 20)
#    0.000    1.412    1.176    4.941    0.000   11.765 
#    0.000    4.706    0.000    1.412    0.000    0.000 
#    0.000    0.000    0.000    0.000    0.000    0.000 
#
# Total GULP energy -189522.764966 kJ/mol
# GULP energy per Si atom -5574.198970 kJ/mol
# Density = 2.126888 g / cm^3
# Si number density = 21.317402 Si / 1000 Ang^3
#
#
#
# Elastic Constant Matrix: (Units=GPa)
#
#
# Indices 1 2 3 4 5 6 
#
# 1 32.8248 15.1368 8.4589 0.0000 0.0000 0.0000
# 2 15.1368 114.2754 13.8772 0.0000 0.0000 0.0000
# 3 8.4589 13.8772 91.4573 0.0000 0.0000 0.0000
# 4 0.0000 0.0000 0.0000 24.1102 0.0000 0.0000
# 5 0.0000 0.0000 0.0000 0.0000 18.5995 0.0000
# 6 0.0000 0.0000 0.0000 0.0000 0.0000 174.5979
#
#
#
# Elastic Compliance Matrix: (Units=1/GPa)
#
#
# Indices 1 2 3 4 5 6 
#
# 1 0.032969 -0.004072 -0.002431 0.000000 0.000000 0.000000
# 2 -0.004072 0.009418 -0.001052 0.000000 0.000000 0.000000
# 3 -0.002431 -0.001052 0.011319 0.000000 0.000000 0.000000
# 4 0.000000 0.000000 0.000000 0.041476 0.000000 0.000000
# 5 0.000000 0.000000 0.000000 0.000000 0.053765 0.000000
# 6 0.000000 0.000000 0.000000 0.000000 0.000000 0.005727
#
#
# Mechanical properties :
#
#
# Convention : Reuss Voigt Hill
#
# Bulk Modulus (GPa) = 25.91064 34.83372 30.37218
# Shear Modulus (GPa) = 27.37473 56.86716 42.12094
#
# Velocity S-wave (km/s) = 3.58739 5.17052 4.44993
# Velocity P-wave (km/s) = 5.41666 7.21261 6.37816
#
# Compressibility (1/GPa) = 0.03859418
#
# Stress axis : x y z
#
# Youngs Moduli (GPa) = 30.33154 106.18038 88.34986
#
# Poissons Ratio (x) = 0.43234 0.21482
# Poissons Ratio (y) = 0.12350 0.09298
# Poissons Ratio (z) = 0.07375 0.11175
#
# Static dielectric constant tensor:
#      x y z
#    x 1.773620 0.000000 0.000000 
#    y 0.000000 1.753180 0.000000 
#    z 0.000000 0.000000 1.773970 
# 
# From -- ./inp_files/1107.got.cif
#   From: 2010.05.17/outbox.cif.g08.bks.cpg/sg47_1_cif.got.tgz:1107.got - 2010.06.03 20:15:42.
