data_PCOD9388110
_publ_section_title
;
Structure prediction by ZEFSAII (Michael W. Deem and Ramdas Pophale) SiO2 
 PCOD9388110
Probable space group: P M M M
;
_chemical_formula_sum "Si O2"
_cell_formula_units_Z 52
_cell_length_a 22.550111
_cell_length_b 15.295132
_cell_length_c 8.456953
_cell_angle_alpha 90.000000
_cell_angle_beta 90.000000
_cell_angle_gamma 90.000000
_cell_volume 2916.861649
_symmetry_space_group_name_H-M "P M M M"
_symmetry_group_IT_number 47
_symmetry_cell_setting 'orthorhombic'
loop_
_space_group_symop_operation_xyz
x,y,z
-x,-y,z
x,-y,-z
-x,y,-z
-x,-y,-z
x,y,-z
-x,y,z
x,-y,z
loop_
_atom_site_type_symbol
_atom_site_label
_atom_site_fract_x
_atom_site_fract_y
_atom_site_fract_z
Si Si1 0.069417 0.598883 0.690816
Si Si2 0.113174 0.216968 0.189473
Si Si3 0.568070 0.000000 0.189818
Si Si4 0.778773 0.101016 0.308660
Si Si5 0.352789 0.842769 0.310934
Si Si6 0.431775 0.689147 0.191767
Si Si7 0.571506 0.500000 0.820941
Si Si8 0.000000 0.101625 0.807222
O O1 0.071685 0.600385 0.500000
O O2 0.088172 0.500000 0.740794
O O3 0.104508 0.683289 0.752820
O O4 0.000000 0.609035 0.737559
O O5 0.171760 0.167678 0.248243
O O6 0.057609 0.156680 0.243515
O O7 0.112851 0.218089 0.000000
O O8 0.602676 0.082747 0.254215
O O9 0.500000 0.000000 0.241461
O O10 0.569257 0.000000 0.000000
O O11 0.779809 0.100808 0.500000
O O12 0.713491 0.132922 0.256902
O O13 0.788827 0.000000 0.256822
O O14 0.351713 0.839872 0.500000
O O15 0.381872 0.755317 0.245258
O O16 0.500000 0.711455 0.240704
O O17 0.415053 0.592789 0.254295
O O18 0.433271 0.685783 0.000000
O O19 0.500000 0.500000 0.834973
O O20 0.596215 0.500000 0.000000
O O21 0.000000 0.000000 0.754573
O O22 0.000000 0.099770 0.000000
#
# Coordination Sequence:
#
# PCOD9388110 Si02
#       8
#     8   8   4   8   8   8   4   4
#     4   9  18  34  57  84 115 151 186 221 268 329
#     4  11  21  34  56  85 114 144 180 229 280 322
#     4  11  23  37  55  81 111 142 181 228 273 325
#     4  10  22  41  58  74 103 146 191 227 265 325
#     4  11  22  37  55  77 108 144 182 225 272 324
#     4   9  17  31  53  81 109 138 175 219 268 322
#     4   7  12  26  49  75 105 139 171 208 259 318
#     4   9  18  32  48  75 116 146 169 215 274 323
#
# _framework density 17.827380000000002
#
# number of rings (size 3 to 8) (size 9 to 14) (size 15 to 20)
#    0.000    2.231    1.538    3.462    0.000    5.231 
#    0.000    1.154    1.692    3.231    0.000    0.000 
#    0.000    0.000    0.000    0.000    0.000    0.000 
#
# Total GULP energy -289925.978209 kJ/mol
# GULP energy per Si atom -5575.499581 kJ/mol
# Density = 1.778680 g / cm^3
# Si number density = 17.827380 Si / 1000 Ang^3
#
#
#
# Elastic Constant Matrix: (Units=GPa)
#
#
# Indices 1 2 3 4 5 6 
#
# 1 134.4576 91.6079 23.7074 0.0000 0.0000 0.0000
# 2 91.6079 198.4895 26.6549 0.0000 0.0000 0.0000
# 3 23.7074 26.6549 18.2698 0.0000 0.0000 0.0000
# 4 0.0000 0.0000 0.0000 24.7119 0.0000 0.0000
# 5 0.0000 0.0000 0.0000 0.0000 21.8805 0.0000
# 6 0.0000 0.0000 0.0000 0.0000 0.0000 48.1397
#
#
#
# Elastic Compliance Matrix: (Units=1/GPa)
#
#
# Indices 1 2 3 4 5 6 
#
# 1 0.012001 -0.004288 -0.009318 0.000000 0.000000 0.000000
# 2 -0.004288 0.007797 -0.005812 0.000000 0.000000 0.000000
# 3 -0.009318 -0.005812 0.075307 0.000000 0.000000 0.000000
# 4 0.000000 0.000000 0.000000 0.040466 0.000000 0.000000
# 5 0.000000 0.000000 0.000000 0.000000 0.045703 0.000000
# 6 0.000000 0.000000 0.000000 0.000000 0.000000 0.020773
#
#
# Mechanical properties :
#
#
# Convention : Reuss Voigt Hill
#
# Bulk Modulus (GPa) = 17.77161 70.57303 44.17232
# Shear Modulus (GPa) = 19.25744 32.89620 26.07682
#
# Velocity S-wave (km/s) = 3.29023 4.30031 3.82873
# Velocity P-wave (km/s) = 4.94212 8.02058 6.66162
#
# Compressibility (1/GPa) = 0.05626953
#
# Stress axis : x y z
#
# Youngs Moduli (GPa) = 83.32304 128.24682 13.27906
#
# Poissons Ratio (x) = 0.54988 0.12373
# Poissons Ratio (y) = 0.35726 0.07718
# Poissons Ratio (z) = 0.77640 0.74542
#
# Static dielectric constant tensor:
#      x y z
#    x 1.587050 0.000000 0.000000 
#    y 0.000000 1.698220 0.000000 
#    z 0.000000 0.000000 1.619240 
# 
# From -- ./inp_files/11162.got.cif
#   From: 2010.05.17/outbox.cif.g08.bks.cpg/sg47_6_cif.got.tgz:11162.got - 2010.06.03 20:15:42.
