data_PCOD9388606
_publ_section_title
;
Structure prediction by ZEFSAII (Michael W. Deem and Ramdas Pophale) SiO2 
 PCOD9388606
Probable space group: P M M M
;
_chemical_formula_sum "Si O2"
_cell_formula_units_Z 52
_cell_length_a 15.053460
_cell_length_b 7.539312
_cell_length_c 21.193361
_cell_angle_alpha 90.000000
_cell_angle_beta 90.000000
_cell_angle_gamma 90.000000
_cell_volume 2405.292432
_symmetry_space_group_name_H-M "P M M M"
_symmetry_group_IT_number 47
_symmetry_cell_setting 'orthorhombic'
loop_
_space_group_symop_operation_xyz
x,y,z
-x,-y,z
x,-y,-z
-x,y,-z
-x,-y,-z
x,y,-z
-x,y,z
x,-y,z
loop_
_atom_site_type_symbol
_atom_site_label
_atom_site_fract_x
_atom_site_fract_y
_atom_site_fract_z
Si Si1 0.099764 0.285296 0.383307
Si Si2 0.401350 0.710090 0.688157
Si Si3 0.100802 0.715749 0.761087
Si Si4 0.216143 0.283063 0.121113
Si Si5 0.399156 0.283331 0.169289
Si Si6 0.712947 0.205212 0.432571
Si Si7 0.897082 0.282961 0.000000
O O1 0.100246 0.500000 0.384047
O O2 0.116882 0.227204 0.310823
O O3 0.181322 0.223896 0.424927
O O4 0.000000 0.228635 0.401303
O O5 0.500000 0.778935 0.671456
O O6 0.408556 0.500000 0.696452
O O7 0.378031 0.775340 0.758497
O O8 0.333191 0.731668 0.631350
O O9 0.103903 0.500000 0.759931
O O10 0.168971 0.774531 0.814012
O O11 0.000000 0.765716 0.778279
O O12 0.215061 0.500000 0.120478
O O13 0.318835 0.226810 0.124270
O O14 0.157475 0.226187 0.061796
O O15 0.500000 0.227132 0.154422
O O16 0.399385 0.500000 0.168230
O O17 0.685850 0.287882 0.500000
O O18 0.689925 0.000000 0.435375
O O19 0.898570 0.500000 0.000000
O O20 0.000000 0.226000 0.000000
#
# Coordination Sequence:
#
# PCOD9388606 Si02
#       7
#     8   8   8   8   8   8   4
#     4   9  18  33  53  74  92 116 160 213 252 282
#     4   9  18  34  56  77  93 114 152 202 247 285
#     4   8  13  22  39  62  82 102 138 191 242 277
#     4   9  14  20  32  50  78 116 150 182 222 266
#     4   8  14  25  42  63  82 102 138 189 238 278
#     4  11  24  37  48  67  98 133 160 184 228 294
#     4   9  16  22  27  43  77 121 163 190 212 258
#
# _framework density 21.618994000000001
#
# number of rings (size 3 to 8) (size 9 to 14) (size 15 to 20)
#    0.000    3.000    0.000    3.692    0.000    6.769 
#    0.000    3.462    0.000    2.308    0.000    0.000 
#    0.000    0.000    0.000   11.077    0.000   80.000 
#
# Total GULP energy -290048.333272 kJ/mol
# GULP energy per Si atom -5577.852563 kJ/mol
# Density = 2.156979 g / cm^3
# Si number density = 21.618994 Si / 1000 Ang^3
#
#
#
# Elastic Constant Matrix: (Units=GPa)
#
#
# Indices 1 2 3 4 5 6 
#
# 1 150.5577 -2.9083 81.4385 0.0000 0.0000 0.0000
# 2 -2.9083 47.1413 0.1807 0.0000 0.0000 0.0000
# 3 81.4385 0.1807 74.0036 0.0000 0.0000 0.0000
# 4 0.0000 0.0000 0.0000 9.9149 0.0000 0.0000
# 5 0.0000 0.0000 0.0000 0.0000 45.2859 0.0000
# 6 0.0000 0.0000 0.0000 0.0000 0.0000 -159.5123
#
#
#
# Elastic Compliance Matrix: (Units=1/GPa)
#
#
# Indices 1 2 3 4 5 6 
#
# 1 0.016466 0.001085 -0.018123 0.000000 0.000000 0.000000
# 2 0.001085 0.021285 -0.001246 0.000000 0.000000 0.000000
# 3 -0.018123 -0.001246 0.033459 0.000000 0.000000 0.000000
# 4 0.000000 0.000000 0.000000 0.100858 0.000000 0.000000
# 5 0.000000 0.000000 0.000000 0.000000 0.022082 0.000000
# 6 0.000000 0.000000 0.000000 0.000000 0.000000 -0.006269
#
#
# Mechanical properties :
#
#
# Convention : Reuss Voigt Hill
#
# Bulk Modulus (GPa) = 28.86649 47.68050 38.27350
# Shear Modulus (GPa) = 21.18690 -7.99619 6.59535
#
# Velocity S-wave (km/s) = 3.13391 -1.92528 1.74853
# Velocity P-wave (km/s) = 5.14554 4.14252 4.67103
#
# Compressibility (1/GPa) = 0.03464224
#
# Stress axis : x y z
#
# Youngs Moduli (GPa) = 60.73248 46.98243 29.88716
#
# Poissons Ratio (x) = -0.05099 0.54163
# Poissons Ratio (y) = -0.06591 0.03725
# Poissons Ratio (z) = 1.10063 0.05855
#
# Static dielectric constant tensor:
#      x y z
#    x 1.782090 0.000000 0.000000 
#    y 0.000000 1.830270 0.000000 
#    z 0.000000 0.000000 1.800330 
# 
# From -- ./inp_files/30869.got.cif
#   From: 2010.05.17/outbox.cif.g08.bks.cpg/sg47_16_cif.got.tgz:30869.got - 2010.06.03 20:15:42.
