data_PCOD9388545
_publ_section_title
;
Structure prediction by ZEFSAII (Michael W. Deem and Ramdas Pophale) SiO2 
 PCOD9388545
Probable space group: P M M M
;
_chemical_formula_sum "Si O2"
_cell_formula_units_Z 54
_cell_length_a 16.202510
_cell_length_b 14.973945
_cell_length_c 12.724849
_cell_angle_alpha 90.000000
_cell_angle_beta 90.000000
_cell_angle_gamma 90.000000
_cell_volume 3087.245521
_symmetry_space_group_name_H-M "P M M M"
_symmetry_group_IT_number 47
_symmetry_cell_setting 'orthorhombic'
loop_
_space_group_symop_operation_xyz
x,y,z
-x,-y,z
x,-y,-z
-x,y,-z
-x,-y,-z
x,y,-z
-x,y,z
x,-y,z
loop_
_atom_site_type_symbol
_atom_site_label
_atom_site_fract_x
_atom_site_fract_y
_atom_site_fract_z
Si Si1 0.098909 0.898052 0.625683
Si Si2 0.097100 0.599785 0.500000
Si Si3 0.360107 0.713149 0.679572
Si Si4 0.170830 0.288039 0.687047
Si Si5 0.400120 0.901303 0.621873
Si Si6 0.901330 0.395170 0.875901
Si Si7 0.400368 0.602125 0.883695
Si Si8 0.500000 0.680023 0.500000
O O1 0.113435 0.890225 0.500000
O O2 0.145420 0.816129 0.680483
O O3 0.000000 0.889006 0.642050
O O4 0.122353 0.000000 0.656232
O O5 0.135024 0.500000 0.500000
O O6 0.119626 0.656194 0.397772
O O7 0.000000 0.589886 0.500000
O O8 0.265173 0.698795 0.652079
O O9 0.370955 0.819657 0.690177
O O10 0.374964 0.663756 0.788590
O O11 0.427103 0.683602 0.592432
O O12 0.150339 0.331201 0.799931
O O13 0.374668 0.886194 0.500000
O O14 0.500000 0.899805 0.620358
O O15 0.373004 0.000000 0.653444
O O16 0.884211 0.500000 0.852703
O O17 0.000000 0.381324 0.858672
O O18 0.885268 0.380855 0.000000
O O19 0.500000 0.600564 0.885419
O O20 0.372267 0.500000 0.866488
O O21 0.372010 0.630534 0.000000
#
# Coordination Sequence:
#
# PCOD9388545 Si02
#       8
#     8   4   8   8   8   8   8   2
#     4   9  18  34  55  79 112 151 187 225 272 333
#     4  11  23  38  54  75 110 150 184 221 269 334
#     4  12  22  36  56  80 116 147 183 237 286 330
#     4  12  23  33  55  87 115 147 187 233 284 333
#     4   9  16  30  54  78 103 142 187 228 275 336
#     4   9  19  38  63  88 115 148 186 231 284 343
#     4   9  19  38  61  79  97 136 194 238 273 327
#     4  12  22  40  54  72 114 154 190 228 284 350
#
# _framework density 17.491320999999999
#
# number of rings (size 3 to 8) (size 9 to 14) (size 15 to 20)
#    0.000    1.852    2.963    4.000    0.000    3.556 
#    0.000    3.704    0.000    0.889    0.000    6.222 
#    0.000    0.000    0.000    0.000    0.000    0.000 
#
# Total GULP energy -300679.610693 kJ/mol
# GULP energy per Si atom -5568.140939 kJ/mol
# Density = 1.745151 g / cm^3
# Si number density = 17.491321 Si / 1000 Ang^3
#
#
#
# Elastic Constant Matrix: (Units=GPa)
#
#
# Indices 1 2 3 4 5 6 
#
# 1 82.5640 37.8395 37.0603 0.0000 0.0000 0.0000
# 2 37.8395 112.3203 71.6788 0.0000 0.0000 0.0000
# 3 37.0603 71.6788 98.9073 0.0000 0.0000 0.0000
# 4 0.0000 0.0000 0.0000 13.4845 0.0000 0.0000
# 5 0.0000 0.0000 0.0000 0.0000 66.1335 0.0000
# 6 0.0000 0.0000 0.0000 0.0000 0.0000 -807.1333
#
#
#
# Elastic Compliance Matrix: (Units=1/GPa)
#
#
# Indices 1 2 3 4 5 6 
#
# 1 0.014997 -0.002728 -0.003642 0.000000 0.000000 0.000000
# 2 -0.002728 0.017060 -0.011341 0.000000 0.000000 0.000000
# 3 -0.003642 -0.011341 0.019694 0.000000 0.000000 0.000000
# 4 0.000000 0.000000 0.000000 0.074159 0.000000 0.000000
# 5 0.000000 0.000000 0.000000 0.000000 0.015121 0.000000
# 6 0.000000 0.000000 0.000000 0.000000 0.000000 -0.001239
#
#
# Mechanical properties :
#
#
# Convention : Reuss Voigt Hill
#
# Bulk Modulus (GPa) = 61.24420 65.21652 63.23036
# Shear Modulus (GPa) = 27.67670 -135.68886 -54.00608
#
# Velocity S-wave (km/s) = 3.98214 -8.81722 -5.56264
# Velocity P-wave (km/s) = 7.49889 8.14198 2.24260
#
# Compressibility (1/GPa) = 0.01632808
#
# Stress axis : x y z
#
# Youngs Moduli (GPa) = 66.68006 58.61821 50.77625
#
# Poissons Ratio (x) = 0.15990 0.18495
# Poissons Ratio (y) = 0.18189 0.57586
# Poissons Ratio (z) = 0.24288 0.66479
#
# Static dielectric constant tensor:
#      x y z
#    x 1.603370 0.000000 0.000000 
#    y 0.000000 1.619540 0.000000 
#    z 0.000000 0.000000 1.577930 
# 
# From -- ./inp_files/17689.got.cif
#   From: 2010.05.17/outbox.cif.g08.bks.cpg/sg47_9_cif.got.tgz:17689.got - 2010.06.03 20:15:42.
