data_PCOD9388271
_publ_section_title
;
Structure prediction by ZEFSAII (Michael W. Deem and Ramdas Pophale) SiO2 
 PCOD9388271
Probable space group: P M M M
;
_chemical_formula_sum "Si O2"
_cell_formula_units_Z 52
_cell_length_a 9.377225
_cell_length_b 29.212233
_cell_length_c 14.275158
_cell_angle_alpha 90.000000
_cell_angle_beta 90.000000
_cell_angle_gamma 90.000000
_cell_volume 3910.389486
_symmetry_space_group_name_H-M "P M M M"
_symmetry_group_IT_number 47
_symmetry_cell_setting 'orthorhombic'
loop_
_space_group_symop_operation_xyz
x,y,z
-x,-y,z
x,-y,-z
-x,y,-z
-x,-y,-z
x,y,-z
-x,y,z
x,-y,z
loop_
_atom_site_type_symbol
_atom_site_label
_atom_site_fract_x
_atom_site_fract_y
_atom_site_fract_z
Si Si1 0.164067 0.269416 0.614053
Si Si2 0.664216 0.640518 0.614303
Si Si3 0.670245 0.916935 0.287252
Si Si4 0.832144 0.000000 0.387615
Si Si5 0.165887 0.448879 0.386156
Si Si6 0.832871 0.054950 0.891309
Si Si7 0.331432 0.178614 0.610426
O O1 0.165783 0.269838 0.500000
O O2 0.248769 0.314658 0.644554
O O3 0.241504 0.222503 0.642000
O O4 0.000000 0.270724 0.644023
O O5 0.666519 0.640329 0.500000
O O6 0.500000 0.642904 0.643240
O O7 0.738738 0.593479 0.645685
O O8 0.500000 0.925307 0.289871
O O9 0.731335 0.920602 0.182458
O O10 0.698081 0.867371 0.332294
O O11 0.753391 0.955688 0.345833
O O12 0.822588 0.000000 0.500000
O O13 0.000000 0.000000 0.361120
O O14 0.170217 0.448807 0.500000
O O15 0.211189 0.500000 0.356151
O O16 0.000000 0.442271 0.360343
O O17 0.000000 0.065013 0.872697
O O18 0.815217 0.000000 0.880187
O O19 0.803459 0.065898 0.000000
O O20 0.301736 0.170246 0.500000
O O21 0.500000 0.189131 0.618162
#
# Coordination Sequence:
#
# PCOD9388271 Si02
#       7
#     8   8   8   4   8   8   8
#     4   9  16  25  37  51  65  85 117 152 182 216
#     4   9  15  21  30  43  59  80 106 139 180 223
#     4  11  21  32  48  68  86 105 129 160 195 230
#     4  11  23  35  46  61  84 113 139 160 184 223
#     4   8  13  20  28  38  54  76 102 135 176 220
#     4   9  18  33  51  68  87 109 130 155 188 226
#     4   9  18  31  43  56  78 104 126 152 189 229
#
# _framework density 13.297909000000001
#
# number of rings (size 3 to 8) (size 9 to 14) (size 15 to 20)
#    0.000    2.692    0.769    3.000    0.000    6.769 
#    0.000    3.846    0.000    0.000    0.000    0.000 
#    0.000    0.000    0.000    0.000    0.000    0.000 
#
# Total GULP energy -289671.878703 kJ/mol
# GULP energy per Si atom -5570.613052 kJ/mol
# Density = 1.326764 g / cm^3
# Si number density = 13.297909 Si / 1000 Ang^3
#
#
#
# Elastic Constant Matrix: (Units=GPa)
#
#
# Indices 1 2 3 4 5 6 
#
# 1 105.6436 92.1298 34.2890 0.0000 0.0000 0.0000
# 2 92.1298 130.4076 32.1343 0.0000 0.0000 0.0000
# 3 34.2890 32.1343 36.8259 0.0000 0.0000 0.0000
# 4 0.0000 0.0000 0.0000 1.1141 0.0000 0.0000
# 5 0.0000 0.0000 0.0000 0.0000 13.8900 0.0000
# 6 0.0000 0.0000 0.0000 0.0000 0.0000 23.8055
#
#
#
# Elastic Compliance Matrix: (Units=1/GPa)
#
#
# Indices 1 2 3 4 5 6 
#
# 1 0.027846 -0.016922 -0.011161 0.000000 0.000000 0.000000
# 2 -0.016922 0.020052 -0.001741 0.000000 0.000000 0.000000
# 3 -0.011161 -0.001741 0.039067 0.000000 0.000000 0.000000
# 4 0.000000 0.000000 0.000000 0.897551 0.000000 0.000000
# 5 0.000000 0.000000 0.000000 0.000000 0.071994 0.000000
# 6 0.000000 0.000000 0.000000 0.000000 0.000000 0.042007
#
#
# Mechanical properties :
#
#
# Convention : Reuss Voigt Hill
#
# Bulk Modulus (GPa) = 36.60942 65.55369 51.08156
# Shear Modulus (GPa) = 4.28349 15.38352 9.83351
#
# Velocity S-wave (km/s) = 1.79671 3.40492 2.72228
# Velocity P-wave (km/s) = 5.64749 8.05365 6.95541
#
# Compressibility (1/GPa) = 0.02731537
#
# Stress axis : x y z
#
# Youngs Moduli (GPa) = 35.91177 49.86910 25.59717
#
# Poissons Ratio (x) = 0.84390 0.28570
# Poissons Ratio (y) = 0.60771 0.04457
# Poissons Ratio (z) = 0.40083 0.08684
#
# Static dielectric constant tensor:
#      x y z
#    x 1.444980 0.000000 0.000000 
#    y 0.000000 1.432560 0.000000 
#    z 0.000000 0.000000 1.403630 
# 
# From -- ./inp_files/21973.got.cif
#   From: 2010.05.17/outbox.cif.g08.bks.cpg/sg47_11_cif.got.tgz:21973.got - 2010.06.03 20:15:42.
