data_PCOD9388579
_publ_section_title
;
Structure prediction by ZEFSAII (Michael W. Deem and Ramdas Pophale) SiO2 
 PCOD9388579
Probable space group: P M M M
;
_chemical_formula_sum "Si O2"
_cell_formula_units_Z 25
_cell_length_a 12.974475
_cell_length_b 12.241760
_cell_length_c 8.030786
_cell_angle_alpha 90.000000
_cell_angle_beta 90.000000
_cell_angle_gamma 90.000000
_cell_volume 1275.533026
_symmetry_space_group_name_H-M "P M M M"
_symmetry_group_IT_number 47
_symmetry_cell_setting 'orthorhombic'
loop_
_space_group_symop_operation_xyz
x,y,z
-x,-y,z
x,-y,-z
-x,y,-z
-x,-y,-z
x,y,-z
-x,y,z
x,-y,z
loop_
_atom_site_type_symbol
_atom_site_label
_atom_site_fract_x
_atom_site_fract_y
_atom_site_fract_z
Si Si1 0.500000 0.370930 0.300269
Si Si2 0.115001 0.128563 0.700853
Si Si3 0.000000 0.500000 0.000000
Si Si4 0.154908 0.500000 0.316671
Si Si5 0.721074 0.301657 0.806672
O O1 0.500000 0.500000 0.244343
O O2 0.500000 0.372868 0.500000
O O3 0.398819 0.307165 0.238643
O O4 0.118397 0.138446 0.500000
O O5 0.210870 0.193739 0.775009
O O6 0.000000 0.169505 0.754450
O O7 0.120121 0.000000 0.741382
O O8 0.086644 0.500000 0.849247
O O9 0.106105 0.500000 0.500000
O O10 0.225439 0.393825 0.303514
O O11 0.730778 0.330308 0.000000
#
# Coordination Sequence:
#
# PCOD9388579 Si02
#       5
#     4   8   1   4   8
#     4  11  23  41  66  91 119 166 220 264 328 389
#     4   9  20  40  65  92 124 168 218 265 319 382
#     4  12  26  44  56  96 130 172 218 268 322 384
#     4  12  25  42  62  91 133 174 212 262 325 391
#     4  12  24  40  62  94 130 167 214 265 321 389
#
# _framework density 19.599648999999999
#
# number of rings (size 3 to 8) (size 9 to 14) (size 15 to 20)
#    0.000    1.120    3.200    4.560    2.240    1.920 
#    0.000    2.400    0.000    4.800    0.000    0.000 
#    0.000    0.000    0.000    0.000    0.000    0.000 
#
# Total GULP energy -139315.862303 kJ/mol
# GULP energy per Si atom -5572.634492 kJ/mol
# Density = 1.955504 g / cm^3
# Si number density = 19.599649 Si / 1000 Ang^3
#
#
#
# Elastic Constant Matrix: (Units=GPa)
#
#
# Indices 1 2 3 4 5 6 
#
# 1 200.7778 64.3074 53.7926 0.0000 0.0000 0.0000
# 2 64.3074 65.8673 20.7916 0.0000 0.0000 0.0000
# 3 53.7926 20.7916 128.6958 0.0000 0.0000 0.0000
# 4 0.0000 0.0000 0.0000 18.2983 0.0000 0.0000
# 5 0.0000 0.0000 0.0000 0.0000 -58.9143 0.0000
# 6 0.0000 0.0000 0.0000 0.0000 0.0000 60.4657
#
#
#
# Elastic Compliance Matrix: (Units=1/GPa)
#
#
# Indices 1 2 3 4 5 6 
#
# 1 0.007763 -0.006908 -0.002129 0.000000 0.000000 0.000000
# 2 -0.006908 0.022144 -0.000690 0.000000 0.000000 0.000000
# 3 -0.002129 -0.000690 0.008772 0.000000 0.000000 0.000000
# 4 0.000000 0.000000 0.000000 0.054650 0.000000 0.000000
# 5 0.000000 0.000000 0.000000 0.000000 -0.016974 0.000000
# 6 0.000000 0.000000 0.000000 0.000000 0.000000 0.016538
#
#
# Mechanical properties :
#
#
# Convention : Reuss Voigt Hill
#
# Bulk Modulus (GPa) = 52.01466 74.79158 63.40312
# Shear Modulus (GPa) = 42.10331 21.06656 31.58493
#
# Velocity S-wave (km/s) = 4.63986 3.28204 4.01871
# Velocity P-wave (km/s) = 7.43644 7.25292 7.34525
#
# Compressibility (1/GPa) = 0.01922535
#
# Stress axis : x y z
#
# Youngs Moduli (GPa) = 128.80831 45.15918 114.00328
#
# Poissons Ratio (x) = 0.31194 0.24272
# Poissons Ratio (y) = 0.88975 0.07869
# Poissons Ratio (z) = 0.27424 0.03117
#
# Static dielectric constant tensor:
#      x y z
#    x 1.717360 0.000000 0.000000 
#    y 0.000000 1.721780 0.000000 
#    z 0.000000 0.000000 1.687450 
# 
# From -- ./inp_files/3035.got.cif
#   From: 2010.05.17/outbox.cif.g08.bks.cpg/sg47_2_cif.got.tgz:3035.got - 2010.06.03 20:15:42.
