data_PCOD9388566
_publ_section_title
;
Structure prediction by ZEFSAII (Michael W. Deem and Ramdas Pophale) SiO2 
 PCOD9388566
Probable space group: P M M M
;
_chemical_formula_sum "Si O2"
_cell_formula_units_Z 48
_cell_length_a 8.951458
_cell_length_b 29.227467
_cell_length_c 10.103515
_cell_angle_alpha 90.000000
_cell_angle_beta 90.000000
_cell_angle_gamma 90.000000
_cell_volume 2643.366901
_symmetry_space_group_name_H-M "P M M M"
_symmetry_group_IT_number 47
_symmetry_cell_setting 'orthorhombic'
loop_
_space_group_symop_operation_xyz
x,y,z
-x,-y,z
x,-y,-z
-x,y,-z
-x,-y,-z
x,y,-z
-x,y,z
x,-y,z
loop_
_atom_site_type_symbol
_atom_site_label
_atom_site_fract_x
_atom_site_fract_y
_atom_site_fract_z
Si Si1 0.323733 0.945192 0.000000
Si Si2 0.321065 0.053890 0.500000
Si Si3 0.676415 0.807731 0.156856
Si Si4 0.822359 0.103270 0.749197
Si Si5 0.820775 0.373663 0.344952
Si Si6 0.321647 0.554437 0.849245
Si Si7 0.679762 0.700952 0.153418
O O1 0.244630 0.923292 0.874349
O O2 0.500000 0.933677 0.000000
O O3 0.310141 0.000000 0.000000
O O4 0.500000 0.058091 0.500000
O O5 0.251484 0.078859 0.374879
O O6 0.284526 0.000000 0.500000
O O7 0.500000 0.814382 0.183781
O O8 0.771444 0.844086 0.237597
O O9 0.712334 0.754467 0.179526
O O10 0.699277 0.816340 0.000000
O O11 0.000000 0.100028 0.745642
O O12 0.774214 0.373376 0.500000
O O13 0.761031 0.417552 0.264120
O O14 0.756679 0.331143 0.260803
O O15 0.000000 0.372896 0.341577
O O16 0.500000 0.562722 0.839181
O O17 0.297472 0.500000 0.836816
O O18 0.276775 0.567894 0.000000
O O19 0.500000 0.695128 0.160272
O O20 0.723142 0.690725 0.000000
#
# Coordination Sequence:
#
# PCOD9388566 Si02
#       7
#     4   4   8   8   8   8   8
#     4  11  23  39  61  87 117 157 199 237 282 343
#     4  11  25  45  65  83 111 157 203 237 282 351
#     4   9  18  36  62  88 116 150 190 236 286 347
#     4  12  24  38  60  91 122 151 188 241 298 347
#     4  11  24  38  52  79 120 160 194 235 288 344
#     4   9  19  37  61  87 113 145 191 245 294 344
#     4   9  19  37  62  88 110 143 193 243 286 336
#
# _framework density 18.158659
#
# number of rings (size 3 to 8) (size 9 to 14) (size 15 to 20)
#    0.000    1.833    0.833    5.000    0.000    8.667 
#    1.500    4.167    0.000    0.000    0.000    0.000 
#    0.000    0.000    0.000    0.000    0.000    0.000 
#
# Total GULP energy -268115.587967 kJ/mol
# GULP energy per Si atom -5585.741416 kJ/mol
# Density = 1.811733 g / cm^3
# Si number density = 18.158659 Si / 1000 Ang^3
#
#
#
# Elastic Constant Matrix: (Units=GPa)
#
#
# Indices 1 2 3 4 5 6 
#
# 1 79.5036 66.9275 72.0491 0.0000 0.0000 0.0000
# 2 66.9275 116.6033 90.0700 0.0000 0.0000 0.0000
# 3 72.0491 90.0700 178.2990 0.0000 0.0000 0.0000
# 4 0.0000 0.0000 0.0000 27.0030 0.0000 0.0000
# 5 0.0000 0.0000 0.0000 0.0000 25.4280 0.0000
# 6 0.0000 0.0000 0.0000 0.0000 0.0000 -228.4151
#
#
#
# Elastic Compliance Matrix: (Units=1/GPa)
#
#
# Indices 1 2 3 4 5 6 
#
# 1 0.026824 -0.011518 -0.005021 0.000000 0.000000 0.000000
# 2 -0.011518 0.019010 -0.004949 0.000000 0.000000 0.000000
# 3 -0.005021 -0.004949 0.010137 0.000000 0.000000 0.000000
# 4 0.000000 0.000000 0.000000 0.037033 0.000000 0.000000
# 5 0.000000 0.000000 0.000000 0.000000 0.039327 0.000000
# 6 0.000000 0.000000 0.000000 0.000000 0.000000 -0.004378
#
#
# Mechanical properties :
#
#
# Convention : Reuss Voigt Hill
#
# Bulk Modulus (GPa) = 76.94655 92.49992 84.72323
# Shear Modulus (GPa) = 28.52891 -25.50620 1.51135
#
# Velocity S-wave (km/s) = 3.96800 -3.75191 0.91330
# Velocity P-wave (km/s) = 7.96617 5.68167 6.91886
#
# Compressibility (1/GPa) = 0.01299603
#
# Stress axis : x y z
#
# Youngs Moduli (GPa) = 37.27946 52.60448 98.64475
#
# Poissons Ratio (x) = 0.60590 0.49530
# Poissons Ratio (y) = 0.42939 0.48816
# Poissons Ratio (z) = 0.18718 0.26032
#
# Static dielectric constant tensor:
#      x y z
#    x 1.597840 0.000000 0.000000 
#    y 0.000000 1.628780 0.000000 
#    z 0.000000 0.000000 1.585620 
# 
# From -- ./inp_files/2694.got.cif
#   From: 2010.05.17/outbox.cif.g08.bks.cpg/sg47_2_cif.got.tgz:2694.got - 2010.06.03 20:15:42.
