data_PCOD9388294
_publ_section_title
;
Structure prediction by ZEFSAII (Michael W. Deem and Ramdas Pophale) SiO2 
 PCOD9388294
Probable space group: P M M M
;
_chemical_formula_sum "Si O2"
_cell_formula_units_Z 32
_cell_length_a 12.059740
_cell_length_b 8.185812
_cell_length_c 19.018880
_cell_angle_alpha 90.000000
_cell_angle_beta 90.000000
_cell_angle_gamma 90.000000
_cell_volume 1877.520334
_symmetry_space_group_name_H-M "P M M M"
_symmetry_group_IT_number 47
_symmetry_cell_setting 'orthorhombic'
loop_
_space_group_symop_operation_xyz
x,y,z
-x,-y,z
x,-y,-z
-x,y,-z
-x,-y,-z
x,y,-z
-x,y,z
x,-y,z
loop_
_atom_site_type_symbol
_atom_site_label
_atom_site_fract_x
_atom_site_fract_y
_atom_site_fract_z
Si Si1 0.870767 0.799744 0.229517
Si Si2 0.134119 0.194028 0.075578
Si Si3 0.500000 0.305313 0.419123
Si Si4 0.735452 0.194965 0.364649
Si Si5 0.873507 0.304204 0.500000
O O1 0.831428 0.742110 0.152127
O O2 0.793326 0.743794 0.293133
O O3 0.000000 0.752694 0.240477
O O4 0.870082 0.000000 0.228201
O O5 0.000000 0.206409 0.076183
O O6 0.159696 0.000000 0.074687
O O7 0.172559 0.263189 0.000000
O O8 0.500000 0.500000 0.423802
O O9 0.500000 0.240387 0.500000
O O10 0.611052 0.252645 0.379412
O O11 0.809522 0.246357 0.430962
O O12 0.734252 0.000000 0.361029
O O13 0.873924 0.500000 0.500000
O O14 0.000000 0.244143 0.500000
#
# Coordination Sequence:
#
# PCOD9388294 Si02
#       5
#     8   8   4   8   4
#     4   8  14  24  39  65  99 126 149 183 226 271
#     4   7   9  15  30  54  88 128 157 173 204 263
#     4  11  23  39  55  67  87 118 155 201 246 286
#     4  11  21  33  52  73  93 119 156 199 240 278
#     4  11  23  36  49  68  97 129 157 185 224 279
#
# _framework density 17.043755999999998
#
# number of rings (size 3 to 8) (size 9 to 14) (size 15 to 20)
#    0.000    2.750    1.250    4.500    0.000    2.500 
#    0.000    0.000    0.000    0.000    0.000    0.875 
#    0.000   11.000    0.000   28.250    0.000   23.000 
#
# Total GULP energy -178224.676431 kJ/mol
# GULP energy per Si atom -5569.521138 kJ/mol
# Density = 1.700496 g / cm^3
# Si number density = 17.043756 Si / 1000 Ang^3
#
#
#
# Elastic Constant Matrix: (Units=GPa)
#
#
# Indices 1 2 3 4 5 6 
#
# 1 116.5769 13.6101 87.3071 0.0000 0.0000 0.0000
# 2 13.6101 18.9733 15.2445 0.0000 0.0000 0.0000
# 3 87.3071 15.2445 214.2044 0.0000 0.0000 0.0000
# 4 0.0000 0.0000 0.0000 -10.9391 0.0000 0.0000
# 5 0.0000 0.0000 0.0000 0.0000 0.3980 0.0000
# 6 0.0000 0.0000 0.0000 0.0000 0.0000 15.2965
#
#
#
# Elastic Compliance Matrix: (Units=1/GPa)
#
#
# Indices 1 2 3 4 5 6 
#
# 1 0.012832 -0.005306 -0.004852 0.000000 0.000000 0.000000
# 2 -0.005306 0.058096 -0.001972 0.000000 0.000000 0.000000
# 3 -0.004852 -0.001972 0.006787 0.000000 0.000000 0.000000
# 4 0.000000 0.000000 0.000000 -0.091415 0.000000 0.000000
# 5 0.000000 0.000000 0.000000 0.000000 2.512751 0.000000
# 6 0.000000 0.000000 0.000000 0.000000 0.000000 0.065375
#
#
# Mechanical properties :
#
#
# Convention : Reuss Voigt Hill
#
# Bulk Modulus (GPa) = 18.70771 64.67533 41.69152
# Shear Modulus (GPa) = 1.91828 16.52393 9.22110
#
# Velocity S-wave (km/s) = 1.06205 3.11706 2.32852
# Velocity P-wave (km/s) = 3.53611 7.14029 5.63417
#
# Compressibility (1/GPa) = 0.05345389
#
# Stress axis : x y z
#
# Youngs Moduli (GPa) = 77.93318 17.21288 147.35029
#
# Poissons Ratio (x) = 0.09133 0.71500
# Poissons Ratio (y) = 0.41349 0.29058
# Poissons Ratio (z) = 0.37816 0.03394
#
# Static dielectric constant tensor:
#      x y z
#    x 1.546310 0.000000 0.000000 
#    y 0.000000 1.589600 0.000000 
#    z 0.000000 0.000000 1.631860 
# 
# From -- ./inp_files/3652.got.cif
#   From: 2010.05.17/outbox.cif.g08.bks.cpg/sg47_2_cif.got.tgz:3652.got - 2010.06.03 20:15:42.
