data_PCOD9388440
_publ_section_title
;
Structure prediction by ZEFSAII (Michael W. Deem and Ramdas Pophale) SiO2 
 PCOD9388440
Probable space group: P M M M
;
_chemical_formula_sum "Si O2"
_cell_formula_units_Z 36
_cell_length_a 8.184924
_cell_length_b 12.058062
_cell_length_c 22.670782
_cell_angle_alpha 90.000000
_cell_angle_beta 90.000000
_cell_angle_gamma 90.000000
_cell_volume 2237.477437
_symmetry_space_group_name_H-M "P M M M"
_symmetry_group_IT_number 47
_symmetry_cell_setting 'orthorhombic'
loop_
_space_group_symop_operation_xyz
x,y,z
-x,-y,z
x,-y,-z
-x,y,-z
-x,-y,-z
x,y,-z
-x,y,z
x,-y,z
loop_
_atom_site_type_symbol
_atom_site_label
_atom_site_fract_x
_atom_site_fract_y
_atom_site_fract_z
Si Si1 0.197827 0.129663 0.727520
Si Si2 0.305197 0.500000 0.432097
Si Si3 0.316935 0.865452 0.141990
Si Si4 0.000000 0.135296 0.068401
Si Si5 0.194933 0.735603 0.386619
Si Si6 0.695561 0.125987 0.500000
O O1 0.277325 0.160663 0.789882
O O2 0.253105 0.207229 0.673864
O O3 0.000000 0.136650 0.733741
O O4 0.235774 0.000000 0.714857
O O5 0.500000 0.500000 0.435858
O O6 0.240727 0.500000 0.500000
O O7 0.252115 0.610999 0.398803
O O8 0.500000 0.827408 0.125684
O O9 0.165403 0.827647 0.101630
O O10 0.317636 0.000000 0.138322
O O11 0.000000 0.000000 0.070610
O O12 0.000000 0.167697 0.000000
O O13 0.248354 0.809439 0.442052
O O14 0.000000 0.735658 0.384333
O O15 0.500000 0.124021 0.500000
O O16 0.758041 0.000000 0.500000
#
# Coordination Sequence:
#
# PCOD9388440 Si02
#       6
#     8   4   8   4   8   4
#     4   9  17  31  49  70  97 125 157 202 253 298
#     4  11  23  39  55  69  94 126 158 199 252 311
#     4   9  16  26  42  63  90 127 166 202 242 289
#     4   9  16  26  40  60  92 130 167 206 238 274
#     4  11  22  35  55  75  92 122 164 206 248 298
#     4  11  23  36  49  70 101 127 153 197 250 299
#
# _framework density 16.089547
#
# number of rings (size 3 to 8) (size 9 to 14) (size 15 to 20)
#    0.000    2.111    2.222    2.000    0.000    4.444 
#    0.000    4.444    0.000    0.000    0.000    0.000 
#    0.000    0.000    0.000    2.000    0.000    5.556 
#
# Total GULP energy -200783.393809 kJ/mol
# GULP energy per Si atom -5577.316495 kJ/mol
# Density = 1.605293 g / cm^3
# Si number density = 16.089547 Si / 1000 Ang^3
#
#
#
# Elastic Constant Matrix: (Units=GPa)
#
#
# Indices 1 2 3 4 5 6 
#
# 1 91.5026 29.4406 67.0491 0.0000 0.0000 0.0000
# 2 29.4406 81.3531 48.2703 0.0000 0.0000 0.0000
# 3 67.0491 48.2703 134.7778 0.0000 0.0000 0.0000
# 4 0.0000 0.0000 0.0000 -0.0767 0.0000 0.0000
# 5 0.0000 0.0000 0.0000 0.0000 0.2885 0.0000
# 6 0.0000 0.0000 0.0000 0.0000 0.0000 18.3484
#
#
#
# Elastic Compliance Matrix: (Units=1/GPa)
#
#
# Indices 1 2 3 4 5 6 
#
# 1 0.017335 -0.001468 -0.008098 0.000000 0.000000 0.000000
# 2 -0.001468 0.015733 -0.004904 0.000000 0.000000 0.000000
# 3 -0.008098 -0.004904 0.013205 0.000000 0.000000 0.000000
# 4 0.000000 0.000000 0.000000-13.032281 0.000000 0.000000
# 5 0.000000 0.000000 0.000000 0.000000 3.466171 0.000000
# 6 0.000000 0.000000 0.000000 0.000000 0.000000 0.054501
#
#
# Mechanical properties :
#
#
# Convention : Reuss Voigt Hill
#
# Bulk Modulus (GPa) = 57.69792 66.35037 62.02414
# Shear Modulus (GPa) = -0.53019 14.57026 7.02004
#
# Velocity S-wave (km/s) = -0.57466 3.01254 2.09107
# Velocity P-wave (km/s) = 5.95802 7.30946 6.66807
#
# Compressibility (1/GPa) = 0.01733165
#
# Stress axis : x y z
#
# Youngs Moduli (GPa) = 57.68741 63.55865 75.73133
#
# Poissons Ratio (x) = 0.09333 0.61325
# Poissons Ratio (y) = 0.08471 0.37141
# Poissons Ratio (z) = 0.46714 0.31172
#
# Static dielectric constant tensor:
#      x y z
#    x 1.569010 0.000000 0.000000 
#    y 0.000000 1.517020 0.000000 
#    z 0.000000 0.000000 1.530840 
# 
# From -- ./inp_files/29283.got.cif
#   From: 2010.05.17/outbox.cif.g08.bks.cpg/sg47_15_cif.got.tgz:29283.got - 2010.06.03 20:15:42.
