data_PCOD9388689
_publ_section_title
;
Structure prediction by ZEFSAII (Michael W. Deem and Ramdas Pophale) SiO2 
 PCOD9388689
Probable space group: P M M M
;
_chemical_formula_sum "Si O2"
_cell_formula_units_Z 44
_cell_length_a 9.935181
_cell_length_b 30.815599
_cell_length_c 7.446192
_cell_angle_alpha 90.000000
_cell_angle_beta 90.000000
_cell_angle_gamma 90.000000
_cell_volume 2279.715373
_symmetry_space_group_name_H-M "P M M M"
_symmetry_group_IT_number 47
_symmetry_cell_setting 'orthorhombic'
loop_
_space_group_symop_operation_xyz
x,y,z
-x,-y,z
x,-y,-z
-x,y,-z
-x,-y,-z
x,y,-z
-x,y,z
x,-y,z
loop_
_atom_site_type_symbol
_atom_site_label
_atom_site_fract_x
_atom_site_fract_y
_atom_site_fract_z
Si Si1 0.656043 0.723466 0.781107
Si Si2 0.847476 0.800140 0.218577
Si Si3 0.651771 0.372499 0.214189
Si Si4 0.152391 0.548032 0.715022
Si Si5 0.840915 0.099824 0.215362
Si Si6 0.341670 0.052021 0.500000
O O1 0.500000 0.728772 0.730820
O O2 0.746735 0.763122 0.717359
O O3 0.699327 0.675080 0.721912
O O4 0.661345 0.724350 0.000000
O O5 0.814774 0.849768 0.266340
O O6 0.000000 0.790877 0.276033
O O7 0.846809 0.799459 0.000000
O O8 0.500000 0.380310 0.283176
O O9 0.749083 0.412563 0.246399
O O10 0.641665 0.368470 0.000000
O O11 0.145296 0.545607 0.500000
O O12 0.196339 0.500000 0.779245
O O13 0.000000 0.555822 0.781297
O O14 0.739990 0.070443 0.328679
O O15 0.000000 0.091107 0.253278
O O16 0.822975 0.095204 0.000000
O O17 0.500000 0.064935 0.500000
O O18 0.336448 0.000000 0.500000
#
# Coordination Sequence:
#
# PCOD9388689 Si02
#       6
#     8   8   8   8   8   4
#     4   8  14  25  42  67 100 134 164 196 241 299
#     4   8  14  26  47  76 105 132 168 213 256 302
#     4   9  18  31  47  71 101 128 157 197 243 295
#     4   9  19  35  51  66  87 118 158 204 251 299
#     4   9  19  37  61  87 114 148 192 239 285 336
#     4  11  25  41  57  83 119 155 191 237 290 339
#
# _framework density 19.300654999999999
#
# number of rings (size 3 to 8) (size 9 to 14) (size 15 to 20)
#    0.000    3.182    0.000    3.000    0.000    4.364 
#    0.000    8.182    2.000    0.000    0.000    0.000 
#    0.000    0.000    0.000    0.000    0.000    0.000 
#
# Total GULP energy -245276.091430 kJ/mol
# GULP energy per Si atom -5574.456623 kJ/mol
# Density = 1.925673 g / cm^3
# Si number density = 19.300655 Si / 1000 Ang^3
#
#
#
# Elastic Constant Matrix: (Units=GPa)
#
#
# Indices 1 2 3 4 5 6 
#
# 1 119.8673 116.1388 32.6675 0.0000 0.0000 0.0000
# 2 116.1388 158.7826 31.4117 0.0000 0.0000 0.0000
# 3 32.6675 31.4117 71.6474 0.0000 0.0000 0.0000
# 4 0.0000 0.0000 0.0000 36.6821 0.0000 0.0000
# 5 0.0000 0.0000 0.0000 0.0000 18.4713 0.0000
# 6 0.0000 0.0000 0.0000 0.0000 0.0000 43.3961
#
#
#
# Elastic Compliance Matrix: (Units=1/GPa)
#
#
# Indices 1 2 3 4 5 6 
#
# 1 0.029865 -0.020969 -0.004424 0.000000 0.000000 0.000000
# 2 -0.020969 0.021619 0.000083 0.000000 0.000000 0.000000
# 3 -0.004424 0.000083 0.015938 0.000000 0.000000 0.000000
# 4 0.000000 0.000000 0.000000 0.027261 0.000000 0.000000
# 5 0.000000 0.000000 0.000000 0.000000 0.054138 0.000000
# 6 0.000000 0.000000 0.000000 0.000000 0.000000 0.023044
#
#
# Mechanical properties :
#
#
# Convention : Reuss Voigt Hill
#
# Bulk Modulus (GPa) = 59.51756 78.97039 69.24398
# Shear Modulus (GPa) = 21.92156 31.04852 26.48504
#
# Velocity S-wave (km/s) = 3.37381 4.01518 3.70839
# Velocity P-wave (km/s) = 6.78828 7.90571 7.36821
#
# Compressibility (1/GPa) = 0.01680176
#
# Stress axis : x y z
#
# Youngs Moduli (GPa) = 33.48392 46.25530 62.74330
#
# Poissons Ratio (x) = 0.96994 0.27755
# Poissons Ratio (y) = 0.70213 -0.00518
# Poissons Ratio (z) = 0.14812 -0.00382
#
# Static dielectric constant tensor:
#      x y z
#    x 1.652640 0.000000 0.000000 
#    y 0.000000 1.669920 0.000000 
#    z 0.000000 0.000000 1.748610 
# 
# From -- ./inp_files/2109.got.cif
#   From: 2010.05.17/outbox.cif.g08.bks.cpg/sg47_2_cif.got.tgz:2109.got - 2010.06.03 20:15:42.
