data_PCOD9388153
_publ_section_title
;
Structure prediction by ZEFSAII (Michael W. Deem and Ramdas Pophale) SiO2 
 PCOD9388153
Probable space group: P M M M
;
_chemical_formula_sum "Si O2"
_cell_formula_units_Z 37
_cell_length_a 12.297830
_cell_length_b 8.411765
_cell_length_c 18.423821
_cell_angle_alpha 90.000000
_cell_angle_beta 90.000000
_cell_angle_gamma 90.000000
_cell_volume 1905.878988
_symmetry_space_group_name_H-M "P M M M"
_symmetry_group_IT_number 47
_symmetry_cell_setting 'orthorhombic'
loop_
_space_group_symop_operation_xyz
x,y,z
-x,-y,z
x,-y,-z
-x,y,-z
-x,-y,-z
x,y,-z
-x,y,z
x,-y,z
loop_
_atom_site_type_symbol
_atom_site_label
_atom_site_fract_x
_atom_site_fract_y
_atom_site_fract_z
Si Si1 0.732348 0.184468 0.159744
Si Si2 0.500000 0.316166 0.380908
Si Si3 0.500000 0.683553 0.206126
Si Si4 0.674005 0.806528 0.000000
Si Si5 0.500000 0.500000 0.000000
Si Si6 0.122581 0.688251 0.286237
Si Si7 0.735581 0.189244 0.420265
O O1 0.608845 0.235472 0.177847
O O2 0.742490 0.206656 0.073813
O O3 0.814348 0.275698 0.211814
O O4 0.744640 0.000000 0.177860
O O5 0.500000 0.500000 0.403209
O O6 0.500000 0.311377 0.293207
O O7 0.610200 0.236653 0.408118
O O8 0.500000 0.500000 0.180599
O O9 0.593352 0.650250 0.000000
O O10 0.633089 0.000000 0.000000
O O11 0.116670 0.500000 0.294058
O O12 0.192753 0.749670 0.353872
O O13 0.000000 0.754593 0.285995
O O14 0.770504 0.249366 0.500000
O O15 0.742701 0.000000 0.420347
#
# Coordination Sequence:
#
# PCOD9388153 Si02
#       7
#     8   4   4   4   1   8   8
#     4  11  23  41  64  91 129 168 209 261 314 376
#     4  11  22  37  59  91 127 165 201 247 306 373
#     4  11  22  34  58  93 127 162 206 251 304 377
#     4  10  25  41  58  97 138 174 222 265 316 392
#     4  12  22  36  68  94 134 192 204 268 332 380
#     4  11  25  44  66  92 121 158 211 268 319 378
#     4  11  24  41  63  92 126 164 207 254 310 378
#
# _framework density 19.413613999999999
#
# number of rings (size 3 to 8) (size 9 to 14) (size 15 to 20)
#    0.000    1.081    2.162    3.730    4.541    7.784 
#    0.000    2.703    0.000    3.243    0.000    0.000 
#    0.000    0.000    0.000    0.000    0.000    0.000 
#
# Total GULP energy -206373.945754 kJ/mol
# GULP energy per Si atom -5577.674210 kJ/mol
# Density = 1.936943 g / cm^3
# Si number density = 19.413614 Si / 1000 Ang^3
#
#
#
# Elastic Constant Matrix: (Units=GPa)
#
#
# Indices 1 2 3 4 5 6 
#
# 1 126.5178 23.7119 69.0499 0.0000 0.0000 0.0000
# 2 23.7119 85.0620 37.0088 0.0000 0.0000 0.0000
# 3 69.0499 37.0088 142.2058 0.0000 0.0000 0.0000
# 4 0.0000 0.0000 0.0000 69.7585 0.0000 0.0000
# 5 0.0000 0.0000 0.0000 0.0000 -2.6316 0.0000
# 6 0.0000 0.0000 0.0000 0.0000 0.0000 43.4498
#
#
#
# Elastic Compliance Matrix: (Units=1/GPa)
#
#
# Indices 1 2 3 4 5 6 
#
# 1 0.010805 -0.000822 -0.005032 0.000000 0.000000 0.000000
# 2 -0.000822 0.013320 -0.003067 0.000000 0.000000 0.000000
# 3 -0.005032 -0.003067 0.010274 0.000000 0.000000 0.000000
# 4 0.000000 0.000000 0.000000 0.014335 0.000000 0.000000
# 5 0.000000 0.000000 0.000000 0.000000 -0.379994 0.000000
# 6 0.000000 0.000000 0.000000 0.000000 0.000000 0.023015
#
#
# Mechanical properties :
#
#
# Convention : Reuss Voigt Hill
#
# Bulk Modulus (GPa) = 60.40639 68.14741 64.27690
# Shear Modulus (GPa) = -17.55105 37.04966 9.74931
#
# Velocity S-wave (km/s) = -3.01002 4.37331 2.24339
# Velocity P-wave (km/s) = 4.37067 7.78975 6.31597
#
# Compressibility (1/GPa) = 0.01655454
#
# Stress axis : x y z
#
# Youngs Moduli (GPa) = 92.55265 75.07599 97.33525
#
# Poissons Ratio (x) = 0.06175 0.48982
# Poissons Ratio (y) = 0.07612 0.29854
# Poissons Ratio (z) = 0.46575 0.23027
#
# Static dielectric constant tensor:
#      x y z
#    x 1.737590 0.000000 0.000000 
#    y 0.000000 1.691140 0.000000 
#    z 0.000000 0.000000 1.712580 
# 
# From -- ./inp_files/27311.got.cif
#   From: 2010.05.17/outbox.cif.g08.bks.cpg/sg47_14_cif.got.tgz:27311.got - 2010.06.03 20:15:42.
