data_PCOD9388302
_publ_section_title
;
Structure prediction by ZEFSAII (Michael W. Deem and Ramdas Pophale) SiO2 
 PCOD9388302
Probable space group: P M M M
;
_chemical_formula_sum "Si O2"
_cell_formula_units_Z 52
_cell_length_a 22.378059
_cell_length_b 14.156417
_cell_length_c 8.873309
_cell_angle_alpha 90.000000
_cell_angle_beta 90.000000
_cell_angle_gamma 90.000000
_cell_volume 2811.003375
_symmetry_space_group_name_H-M "P M M M"
_symmetry_group_IT_number 47
_symmetry_cell_setting 'orthorhombic'
loop_
_space_group_symop_operation_xyz
x,y,z
-x,-y,z
x,-y,-z
-x,y,-z
-x,-y,-z
x,y,-z
-x,y,z
x,-y,z
loop_
_atom_site_type_symbol
_atom_site_label
_atom_site_fract_x
_atom_site_fract_y
_atom_site_fract_z
Si Si1 0.500000 0.612933 0.174278
Si Si2 0.429877 0.891419 0.818717
Si Si3 0.616066 0.705743 0.319476
Si Si4 0.071226 0.390883 0.833506
Si Si5 0.259164 0.390782 0.683787
Si Si6 0.067055 0.889891 0.181062
Si Si7 0.151941 0.742084 0.326063
O O1 0.500000 0.500000 0.178761
O O2 0.558699 0.652074 0.254537
O O3 0.500000 0.644644 0.000000
O O4 0.500000 0.874204 0.779316
O O5 0.389169 0.812313 0.742693
O O6 0.415897 0.000000 0.776829
O O7 0.425492 0.884209 0.000000
O O8 0.613673 0.707687 0.500000
O O9 0.675887 0.649647 0.274464
O O10 0.088825 0.500000 0.827438
O O11 0.100354 0.335281 0.698570
O O12 0.000000 0.386061 0.827986
O O13 0.089437 0.352909 0.000000
O O14 0.255715 0.392858 0.500000
O O15 0.250227 0.500000 0.734142
O O16 0.209897 0.314048 0.735142
O O17 0.122760 0.831825 0.244739
O O18 0.000000 0.855527 0.228678
O O19 0.071051 0.000000 0.223502
O O20 0.067921 0.884292 0.000000
O O21 0.162484 0.764889 0.500000
#
# Coordination Sequence:
#
# PCOD9388302 Si02
#       7
#     4   8   8   8   8   8   8
#     4  11  23  37  54  79 112 143 173 222 286 343
#     4   9  18  34  56  81 113 148 173 206 267 332
#     4  11  21  35  58  84 107 140 186 233 275 322
#     4   9  18  32  49  71 102 138 174 215 263 315
#     4   9  20  38  55  74 108 150 186 222 269 326
#     4   9  19  37  59  81 108 144 183 224 274 331
#     4  11  21  33  53  79 106 140 179 223 273 320
#
# _framework density 18.498732
#
# number of rings (size 3 to 8) (size 9 to 14) (size 15 to 20)
#    0.000    2.231    0.769    3.923    0.000    5.231 
#    0.000    6.154    0.000   10.154    0.000    0.000 
#    0.000    0.000    0.000    0.000    0.000    0.000 
#
# Total GULP energy -289943.377515 kJ/mol
# GULP energy per Si atom -5575.834183 kJ/mol
# Density = 1.845663 g / cm^3
# Si number density = 18.498732 Si / 1000 Ang^3
#
#
#
# Elastic Constant Matrix: (Units=GPa)
#
#
# Indices 1 2 3 4 5 6 
#
# 1 109.8209 66.5928 27.3965 0.0000 0.0000 0.0000
# 2 66.5928 119.0515 26.3118 0.0000 0.0000 0.0000
# 3 27.3965 26.3118 28.1598 0.0000 0.0000 0.0000
# 4 0.0000 0.0000 0.0000 45.3136 0.0000 0.0000
# 5 0.0000 0.0000 0.0000 0.0000 -26.1792 0.0000
# 6 0.0000 0.0000 0.0000 0.0000 0.0000 36.7774
#
#
#
# Elastic Compliance Matrix: (Units=1/GPa)
#
#
# Indices 1 2 3 4 5 6 
#
# 1 0.015296 -0.006638 -0.008679 0.000000 0.000000 0.000000
# 2 -0.006638 0.013466 -0.006125 0.000000 0.000000 0.000000
# 3 -0.008679 -0.006125 0.049678 0.000000 0.000000 0.000000
# 4 0.000000 0.000000 0.000000 0.022068 0.000000 0.000000
# 5 0.000000 0.000000 0.000000 0.000000 -0.038198 0.000000
# 6 0.000000 0.000000 0.000000 0.000000 0.000000 0.027191
#
#
# Mechanical properties :
#
#
# Convention : Reuss Voigt Hill
#
# Bulk Modulus (GPa) = 28.12367 55.29271 41.70819
# Shear Modulus (GPa) = 34.66525 20.29776 27.48151
#
# Velocity S-wave (km/s) = 4.33358 3.31607 3.85851
# Velocity P-wave (km/s) = 6.34633 6.67957 6.51508
#
# Compressibility (1/GPa) = 0.03555724
#
# Stress axis : x y z
#
# Youngs Moduli (GPa) = 65.37731 74.25987 20.12952
#
# Poissons Ratio (x) = 0.49291 0.17471
# Poissons Ratio (y) = 0.43395 0.12329
# Poissons Ratio (z) = 0.56742 0.45482
#
# Static dielectric constant tensor:
#      x y z
#    x 1.630570 0.000000 0.000000 
#    y 0.000000 1.662330 0.000000 
#    z 0.000000 0.000000 1.651610 
# 
# From -- ./inp_files/11087.got.cif
#   From: 2010.05.17/outbox.cif.g08.bks.cpg/sg47_6_cif.got.tgz:11087.got - 2010.06.03 20:15:42.
