data_PCOD9388772
_publ_section_title
;
Structure prediction by ZEFSAII (Michael W. Deem and Ramdas Pophale) SiO2 
 PCOD9388772
Probable space group: P M M M
;
_chemical_formula_sum "Si O2"
_cell_formula_units_Z 40
_cell_length_a 8.177729
_cell_length_b 29.027486
_cell_length_c 7.372376
_cell_angle_alpha 90.000000
_cell_angle_beta 90.000000
_cell_angle_gamma 90.000000
_cell_volume 1750.046609
_symmetry_space_group_name_H-M "P M M M"
_symmetry_group_IT_number 47
_symmetry_cell_setting 'orthorhombic'
loop_
_space_group_symop_operation_xyz
x,y,z
-x,-y,z
x,-y,-z
-x,y,-z
-x,-y,-z
x,y,-z
-x,y,z
x,-y,z
loop_
_atom_site_type_symbol
_atom_site_label
_atom_site_fract_x
_atom_site_fract_y
_atom_site_fract_z
Si Si1 0.821526 0.391685 0.221246
Si Si2 0.813895 0.801574 0.783571
Si Si3 0.500000 0.553162 0.778428
Si Si4 0.799788 0.000000 0.285840
Si Si5 0.811603 0.901362 0.282853
Si Si6 0.315365 0.703984 0.779074
O O1 0.664848 0.420869 0.280544
O O2 0.797783 0.338371 0.276365
O O3 0.000000 0.408726 0.278655
O O4 0.819242 0.392418 0.000000
O O5 0.733865 0.851573 0.751986
O O6 0.730686 0.755068 0.715473
O O7 0.000000 0.803042 0.712214
O O8 0.822556 0.797021 0.000000
O O9 0.500000 0.500000 0.723793
O O10 0.500000 0.554468 0.000000
O O11 0.742777 0.049750 0.213983
O O12 0.760127 0.000000 0.500000
O O13 0.000000 0.000000 0.271110
O O14 0.819344 0.905577 0.500000
O O15 0.000000 0.898423 0.214731
O O16 0.500000 0.692838 0.726162
O O17 0.310758 0.705040 0.000000
#
# Coordination Sequence:
#
# PCOD9388772 Si02
#       6
#     8   8   4   4   8   8
#     4   9  15  23  35  49  67  95 132 172 212 253
#     4   9  16  24  35  55  79  98 123 165 210 247
#     4   9  16  24  32  46  70  98 133 176 215 252
#     4   7  10  18  33  51  70  97 132 162 190 237
#     4   8  13  22  36  53  75 103 132 161 198 248
#     4   9  15  24  37  51  69  95 127 162 201 249
#
# _framework density 22.856532999999999
#
# number of rings (size 3 to 8) (size 9 to 14) (size 15 to 20)
#    0.000    3.400    1.000    1.800    0.000    2.800 
#    0.000    2.500    0.000    3.600    0.000    0.700 
#    0.000    5.600    0.000    0.000    0.000    2.000 
#
# Total GULP energy -222968.148256 kJ/mol
# GULP energy per Si atom -5574.203706 kJ/mol
# Density = 2.280451 g / cm^3
# Si number density = 22.856533 Si / 1000 Ang^3
#
#
#
# Elastic Constant Matrix: (Units=GPa)
#
#
# Indices 1 2 3 4 5 6 
#
# 1 110.1104 77.3785 1.3370 0.0000 0.0000 0.0000
# 2 77.3785 199.0293 1.8767 0.0000 0.0000 0.0000
# 3 1.3370 1.8767 80.8749 0.0000 0.0000 0.0000
# 4 0.0000 0.0000 0.0000 11.3710 0.0000 0.0000
# 5 0.0000 0.0000 0.0000 0.0000 -11.1958 0.0000
# 6 0.0000 0.0000 0.0000 0.0000 0.0000 44.0048
#
#
#
# Elastic Compliance Matrix: (Units=1/GPa)
#
#
# Indices 1 2 3 4 5 6 
#
# 1 0.012496 -0.004857 -0.000094 0.000000 0.000000 0.000000
# 2 -0.004857 0.006914 -0.000080 0.000000 0.000000 0.000000
# 3 -0.000094 -0.000080 0.012368 0.000000 0.000000 0.000000
# 4 0.000000 0.000000 0.000000 0.087943 0.000000 0.000000
# 5 0.000000 0.000000 0.000000 0.000000 -0.089319 0.000000
# 6 0.000000 0.000000 0.000000 0.000000 0.000000 0.022725
#
#
# Mechanical properties :
#
#
# Convention : Reuss Voigt Hill
#
# Bulk Modulus (GPa) = 46.05044 61.24434 53.64739
# Shear Modulus (GPa) = 70.99402 29.46414 50.22908
#
# Velocity S-wave (km/s) = 5.57926 3.59429 4.69292
# Velocity P-wave (km/s) = 7.85465 6.63916 7.27235
#
# Compressibility (1/GPa) = 0.02171532
#
# Stress axis : x y z
#
# Youngs Moduli (GPa) = 80.02264 144.64180 80.85255
#
# Poissons Ratio (x) = 0.70260 0.00759
# Poissons Ratio (y) = 0.38871 0.00648
# Poissons Ratio (z) = 0.00751 0.01159
#
# Static dielectric constant tensor:
#      x y z
#    x 1.824810 0.000000 0.000000 
#    y 0.000000 1.881960 0.000000 
#    z 0.000000 0.000000 1.899790 
# 
# From -- ./inp_files/15377.got.cif
#   From: 2010.05.17/outbox.cif.g08.bks.cpg/sg47_8_cif.got.tgz:15377.got - 2010.06.03 20:15:42.
