data_PCOD9388757
_publ_section_title
;
Structure prediction by ZEFSAII (Michael W. Deem and Ramdas Pophale) SiO2 
 PCOD9388757
Probable space group: P M M M
;
_chemical_formula_sum "Si O2"
_cell_formula_units_Z 32
_cell_length_a 23.692388
_cell_length_b 7.791376
_cell_length_c 9.546154
_cell_angle_alpha 90.000000
_cell_angle_beta 90.000000
_cell_angle_gamma 90.000000
_cell_volume 1762.184739
_symmetry_space_group_name_H-M "P M M M"
_symmetry_group_IT_number 47
_symmetry_cell_setting 'orthorhombic'
loop_
_space_group_symop_operation_xyz
x,y,z
-x,-y,z
x,-y,-z
-x,y,-z
-x,-y,-z
x,y,-z
-x,y,z
x,-y,z
loop_
_atom_site_type_symbol
_atom_site_label
_atom_site_fract_x
_atom_site_fract_y
_atom_site_fract_z
Si Si1 0.644518 0.691096 0.670587
Si Si2 0.564819 0.000000 0.671272
Si Si3 0.000000 0.201011 0.170569
Si Si4 0.122698 0.789634 0.837519
Si Si5 0.230748 0.207923 0.662224
O O1 0.646090 0.699815 0.500000
O O2 0.627467 0.500000 0.711145
O O3 0.600361 0.834194 0.716869
O O4 0.708750 0.727786 0.716056
O O5 0.500000 0.000000 0.717320
O O6 0.564245 0.000000 0.500000
O O7 0.060986 0.272076 0.214190
O O8 0.000000 0.000000 0.210802
O O9 0.000000 0.206533 0.000000
O O10 0.176472 0.733904 0.748892
O O11 0.121219 0.000000 0.833614
O O12 0.129156 0.740899 0.000000
O O13 0.224825 0.259989 0.500000
O O14 0.232730 0.000000 0.665953
#
# Coordination Sequence:
#
# PCOD9388757 Si02
#       5
#     8   4   4   8   8
#     4   9  16  26  40  58  83 116 148 177 216 263
#     4   9  16  26  40  60  87 116 147 182 214 251
#     4   7  10  18  31  49  76 107 138 175 219 264
#     4   8  13  21  35  55  79 109 144 180 219 263
#     4   9  15  24  38  56  81 112 143 177 218 260
#
# _framework density 18.159275999999998
#
# number of rings (size 3 to 8) (size 9 to 14) (size 15 to 20)
#    0.000    3.500    1.250    1.500    0.000    0.500 
#    0.000    3.125    0.000    4.500    0.000    0.875 
#    0.000    9.000    0.000    2.250    0.000    2.500 
#
# Total GULP energy -178145.994076 kJ/mol
# GULP energy per Si atom -5567.062315 kJ/mol
# Density = 1.811794 g / cm^3
# Si number density = 18.159276 Si / 1000 Ang^3
#
#
#
# Elastic Constant Matrix: (Units=GPa)
#
#
# Indices 1 2 3 4 5 6 
#
# 1 214.3309 72.8952 39.6903 0.0000 0.0000 0.0000
# 2 72.8952 74.7046 14.2958 0.0000 0.0000 0.0000
# 3 39.6903 14.2958 16.2577 0.0000 0.0000 0.0000
# 4 0.0000 0.0000 0.0000 0.4908 0.0000 0.0000
# 5 0.0000 0.0000 0.0000 0.0000 -44.8061 0.0000
# 6 0.0000 0.0000 0.0000 0.0000 0.0000 -9.3068
#
#
#
# Elastic Compliance Matrix: (Units=1/GPa)
#
#
# Indices 1 2 3 4 5 6 
#
# 1 0.010616 -0.006491 -0.020208 0.000000 0.000000 0.000000
# 2 -0.006491 0.020064 -0.001795 0.000000 0.000000 0.000000
# 3 -0.020208 -0.001795 0.112423 0.000000 0.000000 0.000000
# 4 0.000000 0.000000 0.000000 2.037697 0.000000 0.000000
# 5 0.000000 0.000000 0.000000 0.000000 -0.022318 0.000000
# 6 0.000000 0.000000 0.000000 0.000000 0.000000 -0.107448
#
#
# Mechanical properties :
#
#
# Convention : Reuss Voigt Hill
#
# Bulk Modulus (GPa) = 11.61265 62.11730 36.86497
# Shear Modulus (GPa) = 2.34003 1.16970 1.75486
#
# Velocity S-wave (km/s) = 1.13640 0.80345 0.98411
# Velocity P-wave (km/s) = 2.85143 5.92806 4.65148
#
# Compressibility (1/GPa) = 0.08611302
#
# Stress axis : x y z
#
# Youngs Moduli (GPa) = 94.20046 49.84128 8.89499
#
# Poissons Ratio (x) = 0.32354 0.17975
# Poissons Ratio (y) = 0.61149 0.01597
# Poissons Ratio (z) = 1.90363 0.08946
#
# Static dielectric constant tensor:
#      x y z
#    x 1.634840 0.000000 0.000000 
#    y 0.000000 1.663260 0.000000 
#    z 0.000000 0.000000 1.593300 
# 
# From -- ./inp_files/4191.got.cif
#   From: 2010.05.17/outbox.cif.g08.bks.cpg/sg47_3_cif.got.tgz:4191.got - 2010.06.03 20:15:42.
