data_PCOD9388122
_publ_section_title
;
Structure prediction by ZEFSAII (Michael W. Deem and Ramdas Pophale) SiO2 
 PCOD9388122
Probable space group: P M M M
;
_chemical_formula_sum "Si O2"
_cell_formula_units_Z 34
_cell_length_a 7.676694
_cell_length_b 22.436474
_cell_length_c 9.878518
_cell_angle_alpha 90.000000
_cell_angle_beta 90.000000
_cell_angle_gamma 90.000000
_cell_volume 1701.455643
_symmetry_space_group_name_H-M "P M M M"
_symmetry_group_IT_number 47
_symmetry_cell_setting 'orthorhombic'
loop_
_space_group_symop_operation_xyz
x,y,z
-x,-y,z
x,-y,-z
-x,y,-z
-x,-y,-z
x,y,-z
-x,y,z
x,-y,z
loop_
_atom_site_type_symbol
_atom_site_label
_atom_site_fract_x
_atom_site_fract_y
_atom_site_fract_z
Si Si1 0.206456 0.840113 0.343621
Si Si2 0.500000 0.500000 0.000000
Si Si3 0.209427 0.730536 0.845839
Si Si4 0.500000 0.000000 0.000000
Si Si5 0.500000 0.934249 0.280424
Si Si6 0.191438 0.500000 0.223991
Si Si7 0.292975 0.622312 0.350198
O O1 0.225915 0.820543 0.500000
O O2 0.263870 0.787864 0.241724
O O3 0.329711 0.896645 0.319732
O O4 0.000000 0.852938 0.321781
O O5 0.347101 0.500000 0.117133
O O6 0.255708 0.671274 0.763739
O O7 0.000000 0.733148 0.852163
O O8 0.276239 0.730337 0.000000
O O9 0.500000 0.948876 0.879389
O O10 0.500000 0.000000 0.344954
O O11 0.209055 0.559537 0.312764
O O12 0.000000 0.500000 0.160190
O O13 0.236178 0.642858 0.500000
O O14 0.500000 0.613272 0.352983
#
# Coordination Sequence:
#
# PCOD9388122 Si02
#       7
#     8   1   8   1   4   4   8
#     4  10  22  41  66  95 130 172 216 268 326 382
#     4  12  26  48  62  96 136 160 204 280 318 394
#     4  10  23  40  62  93 127 167 219 271 328 394
#     4   8  24  44  60  98 136 174 210 258 322 376
#     4  10  23  42  65  95 131 169 216 262 311 385
#     4  12  26  44  72  97 128 177 219 268 339 397
#     4  11  24  43  65  94 132 173 220 274 331 393
#
# _framework density 19.982887999999999
#
# number of rings (size 3 to 8) (size 9 to 14) (size 15 to 20)
#    0.353    1.176    1.176    2.294    4.941    6.118 
#    0.000    1.765    0.000    0.000    0.000    0.000 
#    0.000    0.000    0.000    0.000    0.000    0.000 
#
# Total GULP energy -189370.140194 kJ/mol
# GULP energy per Si atom -5569.710006 kJ/mol
# Density = 1.993741 g / cm^3
# Si number density = 19.982888 Si / 1000 Ang^3
#
#
#
# Elastic Constant Matrix: (Units=GPa)
#
#
# Indices 1 2 3 4 5 6 
#
# 1 92.3127 42.1711 46.8679 0.0000 0.0000 0.0000
# 2 42.1711 164.1959 76.3994 0.0000 0.0000 0.0000
# 3 46.8679 76.3994 180.6737 0.0000 0.0000 0.0000
# 4 0.0000 0.0000 0.0000 417.6448 0.0000 0.0000
# 5 0.0000 0.0000 0.0000 0.0000 9.6144 0.0000
# 6 0.0000 0.0000 0.0000 0.0000 0.0000 30.9894
#
#
#
# Elastic Compliance Matrix: (Units=1/GPa)
#
#
# Indices 1 2 3 4 5 6 
#
# 1 0.013095 -0.002219 -0.002458 0.000000 0.000000 0.000000
# 2 -0.002219 0.007958 -0.002789 0.000000 0.000000 0.000000
# 3 -0.002458 -0.002789 0.007352 0.000000 0.000000 0.000000
# 4 0.000000 0.000000 0.000000 0.002394 0.000000 0.000000
# 5 0.000000 0.000000 0.000000 0.000000 0.104011 0.000000
# 6 0.000000 0.000000 0.000000 0.000000 0.000000 0.032269
#
#
# Mechanical properties :
#
#
# Convention : Reuss Voigt Hill
#
# Bulk Modulus (GPa) = 74.23531 85.33990 79.78760
# Shear Modulus (GPa) = 26.80906 109.76598 68.28752
#
# Velocity S-wave (km/s) = 3.66676 7.41952 5.85211
# Velocity P-wave (km/s) = 7.42677 10.77953 9.25622
#
# Compressibility (1/GPa) = 0.01347068
#
# Stress axis : x y z
#
# Youngs Moduli (GPa) = 76.36650 125.65637 136.01499
#
# Poissons Ratio (x) = 0.27887 0.33438
# Poissons Ratio (y) = 0.16948 0.37941
# Poissons Ratio (z) = 0.18774 0.35052
#
# Static dielectric constant tensor:
#      x y z
#    x 1.710310 0.000000 0.000000 
#    y 0.000000 1.677270 0.000000 
#    z 0.000000 0.000000 1.705640 
# 
# From -- ./inp_files/1195.got.cif
#   From: 2010.05.17/outbox.cif.g08.bks.cpg/sg47_1_cif.got.tgz:1195.got - 2010.06.03 20:15:42.
