data_PCOD9388880
_publ_section_title
;
Structure prediction by ZEFSAII (Michael W. Deem and Ramdas Pophale) SiO2 
 PCOD9388880
Probable space group: P M M M
;
_chemical_formula_sum "Si O2"
_cell_formula_units_Z 44
_cell_length_a 14.153293
_cell_length_b 7.286754
_cell_length_c 24.198762
_cell_angle_alpha 90.000000
_cell_angle_beta 90.000000
_cell_angle_gamma 90.000000
_cell_volume 2495.656181
_symmetry_space_group_name_H-M "P M M M"
_symmetry_group_IT_number 47
_symmetry_cell_setting 'orthorhombic'
loop_
_space_group_symop_operation_xyz
x,y,z
-x,-y,z
x,-y,-z
-x,y,-z
-x,-y,-z
x,y,-z
-x,y,z
x,-y,z
loop_
_atom_site_type_symbol
_atom_site_label
_atom_site_fract_x
_atom_site_fract_y
_atom_site_fract_z
Si Si1 0.885426 0.000000 0.562668
Si Si2 0.605452 0.723474 0.173866
Si Si3 0.702544 0.723374 0.938660
Si Si4 0.796029 0.723131 0.769202
Si Si5 0.112101 0.717545 0.654958
Si Si6 0.894469 0.276741 0.117850
O O1 0.858893 0.174583 0.600007
O O2 0.849427 0.000000 0.500000
O O3 0.000000 0.000000 0.559375
O O4 0.500000 0.784018 0.187735
O O5 0.605582 0.500000 0.174256
O O6 0.635581 0.779577 0.111849
O O7 0.690195 0.780503 0.214307
O O8 0.701237 0.500000 0.938817
O O9 0.809348 0.778862 0.922386
O O10 0.676518 0.784362 0.000000
O O11 0.797539 0.500000 0.768816
O O12 0.833035 0.781070 0.709655
O O13 0.863666 0.777758 0.820106
O O14 0.125649 0.500000 0.648189
O O15 0.000000 0.749303 0.664022
O O16 0.895300 0.500000 0.117039
O O17 0.000000 0.215145 0.104160
#
# Coordination Sequence:
#
# PCOD9388880 Si02
#       6
#     4   8   8   8   8   8
#     4   9  18  30  42  62  93 123 150 175 197 231
#     4   8  13  20  29  42  63  91 123 166 216 257
#     4   8  13  18  22  32  53  85 127 167 203 251
#     4   8  13  21  33  50  70  93 129 171 208 252
#     4   9  16  26  42  62  85 116 148 176 207 241
#     4   8  12  17  25  37  56  84 119 163 210 250
#
# _framework density 17.630633
#
# number of rings (size 3 to 8) (size 9 to 14) (size 15 to 20)
#    0.000    3.727    0.000    2.727    0.000    3.273 
#    0.000    5.455    0.000    0.000    0.000    0.636 
#    0.000    1.455    0.000   20.182    0.000  147.818 
#
# Total GULP energy -245247.694034 kJ/mol
# GULP energy per Si atom -5573.811228 kJ/mol
# Density = 1.759050 g / cm^3
# Si number density = 17.630633 Si / 1000 Ang^3
#
#
#
# Elastic Constant Matrix: (Units=GPa)
#
#
# Indices 1 2 3 4 5 6 
#
# 1 69.5798 12.3706 23.2092 0.0000 0.0000 0.0000
# 2 12.3706 74.0883 25.4135 0.0000 0.0000 0.0000
# 3 23.2092 25.4135 126.2065 0.0000 0.0000 0.0000
# 4 0.0000 0.0000 0.0000 59.9924 0.0000 0.0000
# 5 0.0000 0.0000 0.0000 0.0000 12.7441 0.0000
# 6 0.0000 0.0000 0.0000 0.0000 0.0000 -10.7814
#
#
#
# Elastic Compliance Matrix: (Units=1/GPa)
#
#
# Indices 1 2 3 4 5 6 
#
# 1 0.015515 -0.001731 -0.002505 0.000000 0.000000 0.000000
# 2 -0.001731 0.014692 -0.002640 0.000000 0.000000 0.000000
# 3 -0.002505 -0.002640 0.008916 0.000000 0.000000 0.000000
# 4 0.000000 0.000000 0.000000 0.016669 0.000000 0.000000
# 5 0.000000 0.000000 0.000000 0.000000 0.078468 0.000000
# 6 0.000000 0.000000 0.000000 0.000000 0.000000 -0.092752
#
#
# Mechanical properties :
#
#
# Convention : Reuss Voigt Hill
#
# Bulk Modulus (GPa) = 39.41532 43.54016 41.47774
# Shear Modulus (GPa) = 78.47238 26.31642 52.39440
#
# Velocity S-wave (km/s) = 6.67875 3.86768 5.45732
# Velocity P-wave (km/s) = 9.04870 6.68540 7.95530
#
# Compressibility (1/GPa) = 0.02537085
#
# Stress axis : x y z
#
# Youngs Moduli (GPa) = 64.45271 68.06379 112.16140
#
# Poissons Ratio (x) = 0.11785 0.28092
# Poissons Ratio (y) = 0.11160 0.29611
# Poissons Ratio (z) = 0.16143 0.17969
#
# Static dielectric constant tensor:
#      x y z
#    x 1.586370 0.000000 0.000000 
#    y 0.000000 1.728860 0.000000 
#    z 0.000000 0.000000 1.572140 
# 
# From -- ./inp_files/30767.got.cif
#   From: 2010.05.17/outbox.cif.g08.bks.cpg/sg47_16_cif.got.tgz:30767.got - 2010.06.03 20:15:42.
