data_PCOD9388466
_publ_section_title
;
Structure prediction by ZEFSAII (Michael W. Deem and Ramdas Pophale) SiO2 
 PCOD9388466
Probable space group: P M M M
;
_chemical_formula_sum "Si O2"
_cell_formula_units_Z 52
_cell_length_a 12.929990
_cell_length_b 7.493785
_cell_length_c 26.079268
_cell_angle_alpha 90.000000
_cell_angle_beta 90.000000
_cell_angle_gamma 90.000000
_cell_volume 2526.939331
_symmetry_space_group_name_H-M "P M M M"
_symmetry_group_IT_number 47
_symmetry_cell_setting 'orthorhombic'
loop_
_space_group_symop_operation_xyz
x,y,z
-x,-y,z
x,-y,-z
-x,y,-z
-x,-y,-z
x,y,-z
-x,y,z
x,-y,z
loop_
_atom_site_type_symbol
_atom_site_label
_atom_site_fract_x
_atom_site_fract_y
_atom_site_fract_z
Si Si1 0.113565 0.784312 0.668740
Si Si2 0.500000 0.781561 0.248852
Si Si3 0.121949 0.719129 0.500000
Si Si4 0.376250 0.211263 0.054989
Si Si5 0.324377 0.781109 0.831827
Si Si6 0.889470 0.782979 0.212103
Si Si7 0.722472 0.699760 0.411987
Si Si8 0.500000 0.792673 0.633385
O O1 0.116796 0.734032 0.728187
O O2 0.211352 0.707450 0.639892
O O3 0.000000 0.729984 0.647724
O O4 0.119181 0.000000 0.665566
O O5 0.597843 0.727614 0.213778
O O6 0.500000 0.714566 0.308095
O O7 0.500000 0.000000 0.250300
O O8 0.115813 0.500000 0.500000
O O9 0.193950 0.780807 0.547901
O O10 0.000000 0.777301 0.500000
O O11 0.500000 0.223363 0.053549
O O12 0.347177 0.283037 0.110743
O O13 0.349507 0.000000 0.055376
O O14 0.337341 0.284067 0.000000
O O15 0.210257 0.722471 0.817296
O O16 0.330319 0.000000 0.832796
O O17 0.000000 0.723335 0.191470
O O18 0.888416 0.000000 0.211256
O O19 0.708185 0.500000 0.431108
O O20 0.605953 0.759296 0.398411
O O21 0.500000 0.000000 0.642978
#
# Coordination Sequence:
#
# PCOD9388466 Si02
#       8
#     8   4   4   8   8   8   8   4
#     4   9  17  31  51  75 102 129 160 202 251 295
#     4   9  16  25  41  64  84 110 147 188 229 272
#     4   9  20  39  61  82 102 127 162 203 242 283
#     4   8  12  17  25  40  65  96 134 184 235 273
#     4   9  13  19  32  50  73 101 142 188 227 269
#     4   8  14  23  36  55  80 112 147 183 224 276
#     4  11  22  37  57  79 103 132 168 204 240 286
#     4  11  23  38  54  74 106 139 167 200 243 294
#
# _framework density 20.578254000000001
#
# number of rings (size 3 to 8) (size 9 to 14) (size 15 to 20)
#    0.000    2.846    0.769    3.462    0.000    3.692 
#    0.000    3.077    0.000    3.231    0.000    3.231 
#    0.000    0.000    0.000    0.000    0.000   31.538 
#
# Total GULP energy -289559.454934 kJ/mol
# GULP energy per Si atom -5568.451056 kJ/mol
# Density = 2.053142 g / cm^3
# Si number density = 20.578254 Si / 1000 Ang^3
#
#
#
# Elastic Constant Matrix: (Units=GPa)
#
#
# Indices 1 2 3 4 5 6 
#
# 1 170.5586 15.9808 80.6669 0.0000 0.0000 0.0000
# 2 15.9808 50.3601 11.2032 0.0000 0.0000 0.0000
# 3 80.6669 11.2032 117.0740 0.0000 0.0000 0.0000
# 4 0.0000 0.0000 0.0000 5.2753 0.0000 0.0000
# 5 0.0000 0.0000 0.0000 0.0000 121.3474 0.0000
# 6 0.0000 0.0000 0.0000 0.0000 0.0000 -585.6871
#
#
#
# Elastic Compliance Matrix: (Units=1/GPa)
#
#
# Indices 1 2 3 4 5 6 
#
# 1 0.008803 -0.001476 -0.005925 0.000000 0.000000 0.000000
# 2 -0.001476 0.020536 -0.000948 0.000000 0.000000 0.000000
# 3 -0.005925 -0.000948 0.012715 0.000000 0.000000 0.000000
# 4 0.000000 0.000000 0.000000 0.189563 0.000000 0.000000
# 5 0.000000 0.000000 0.000000 0.000000 0.008241 0.000000
# 6 0.000000 0.000000 0.000000 0.000000 0.000000 -0.001707
#
#
# Mechanical properties :
#
#
# Convention : Reuss Voigt Hill
#
# Bulk Modulus (GPa) = 39.43693 61.52160 50.47927
# Shear Modulus (GPa) = 18.98971 -76.47009 -28.74019
#
# Velocity S-wave (km/s) = 3.04107 -6.10257 -3.74120
# Velocity P-wave (km/s) = 5.61576 4.43776 2.43341
#
# Compressibility (1/GPa) = 0.02535694
#
# Stress axis : x y z
#
# Youngs Moduli (GPa) = 113.59238 48.69444 78.65010
#
# Poissons Ratio (x) = 0.07185 0.46597
# Poissons Ratio (y) = 0.16762 0.07460
# Poissons Ratio (z) = 0.67299 0.04618
#
# Static dielectric constant tensor:
#      x y z
#    x 1.758230 0.000000 0.000000 
#    y 0.000000 1.835500 0.000000 
#    z 0.000000 0.000000 1.770010 
# 
# From -- ./inp_files/33650.got.cif
#   From: 2010.05.17/outbox.cif.g08.bks.cpg/sg47_17_cif.got.tgz:33650.got - 2010.06.03 20:15:42.
