data_PCOD9388945
_publ_section_title
;
Structure prediction by ZEFSAII (Michael W. Deem and Ramdas Pophale) SiO2 
 PCOD9388945
Probable space group: P M M M
;
_chemical_formula_sum "Si O2"
_cell_formula_units_Z 36
_cell_length_a 7.391510
_cell_length_b 9.608717
_cell_length_c 26.344363
_cell_angle_alpha 90.000000
_cell_angle_beta 90.000000
_cell_angle_gamma 90.000000
_cell_volume 1871.053791
_symmetry_space_group_name_H-M "P M M M"
_symmetry_group_IT_number 47
_symmetry_cell_setting 'orthorhombic'
loop_
_space_group_symop_operation_xyz
x,y,z
-x,-y,z
x,-y,-z
-x,y,-z
-x,-y,-z
x,y,-z
-x,y,z
x,-y,z
loop_
_atom_site_type_symbol
_atom_site_label
_atom_site_fract_x
_atom_site_fract_y
_atom_site_fract_z
Si Si1 0.720355 0.339661 0.442937
Si Si2 0.000000 0.669921 0.058015
Si Si3 0.721164 0.159773 0.652782
Si Si4 0.706464 0.669544 0.861430
Si Si5 0.720795 0.339631 0.250924
O O1 0.776972 0.299798 0.500000
O O2 0.500000 0.338204 0.442733
O O3 0.774093 0.500000 0.433821
O O4 0.780373 0.239693 0.397961
O O5 0.828287 0.713503 0.091573
O O6 0.000000 0.500000 0.056738
O O7 0.000000 0.717983 0.000000
O O8 0.500000 0.161330 0.652730
O O9 0.778637 0.243059 0.702914
O O10 0.778306 0.000000 0.653396
O O11 0.500000 0.715866 0.867221
O O12 0.706286 0.500000 0.860518
O O13 0.775986 0.709122 0.805361
O O14 0.500000 0.340600 0.250000
O O15 0.777153 0.500000 0.258731
#
# Coordination Sequence:
#
# PCOD9388945 Si02
#       5
#     8   4   8   8   8
#     4   8  13  20  28  38  57  91 133 170 206 255
#     4   9  16  24  36  58  87 115 142 175 216 259
#     4   9  15  20  28  45  67  90 123 171 220 260
#     4   8  14  24  37  54  78 110 145 177 213 260
#     4   8  13  22  35  48  66  97 134 168 205 254
#
# _framework density 19.240496
#
# number of rings (size 3 to 8) (size 9 to 14) (size 15 to 20)
#    0.000    3.667    0.000    2.667    0.000    3.556 
#    0.000    4.444    0.000    0.000    0.000    0.778 
#    0.000    1.778    0.000    9.667    0.000   34.222 
#
# Total GULP energy -200693.768269 kJ/mol
# GULP energy per Si atom -5574.826896 kJ/mol
# Density = 1.919670 g / cm^3
# Si number density = 19.240496 Si / 1000 Ang^3
#
#
#
# Elastic Constant Matrix: (Units=GPa)
#
#
# Indices 1 2 3 4 5 6 
#
# 1 74.5512 18.7838 48.3175 0.0000 0.0000 0.0000
# 2 18.7838 73.0289 97.5050 0.0000 0.0000 0.0000
# 3 48.3175 97.5050 241.1096 0.0000 0.0000 0.0000
# 4 0.0000 0.0000 0.0000 -2.6195 0.0000 0.0000
# 5 0.0000 0.0000 0.0000 0.0000 194.8020 0.0000
# 6 0.0000 0.0000 0.0000 0.0000 0.0000 -5.9781
#
#
#
# Elastic Compliance Matrix: (Units=1/GPa)
#
#
# Indices 1 2 3 4 5 6 
#
# 1 0.015420 0.000347 -0.003230 0.000000 0.000000 0.000000
# 2 0.000347 0.029772 -0.012109 0.000000 0.000000 0.000000
# 3 -0.003230 -0.012109 0.009692 0.000000 0.000000 0.000000
# 4 0.000000 0.000000 0.000000 -0.381755 0.000000 0.000000
# 5 0.000000 0.000000 0.000000 0.000000 0.005133 0.000000
# 6 0.000000 0.000000 0.000000 0.000000 0.000000 -0.167278
#
#
# Mechanical properties :
#
#
# Convention : Reuss Voigt Hill
#
# Bulk Modulus (GPa) = 40.16393 79.76694 59.96543
# Shear Modulus (GPa) = -11.09308 52.17978 20.54335
#
# Velocity S-wave (km/s) = -2.40375 5.21331 3.27113
# Velocity P-wave (km/s) = 3.63538 8.81964 6.74544
#
# Compressibility (1/GPa) = 0.02489796
#
# Stress axis : x y z
#
# Youngs Moduli (GPa) = 64.85156 33.58891 103.17960
#
# Poissons Ratio (x) = -0.01165 0.33331
# Poissons Ratio (y) = -0.02250 1.24943
# Poissons Ratio (z) = 0.20949 0.40674
#
# Static dielectric constant tensor:
#      x y z
#    x 1.817140 0.000000 0.000000 
#    y 0.000000 1.618870 0.000000 
#    z 0.000000 0.000000 1.657760 
# 
# From -- ./inp_files/31649.got.cif
#   From: 2010.05.17/outbox.cif.g08.bks.cpg/sg47_16_cif.got.tgz:31649.got - 2010.06.03 20:15:42.
