data_PCOD9388897
_publ_section_title
;
Structure prediction by ZEFSAII (Michael W. Deem and Ramdas Pophale) SiO2 
 PCOD9388897
Probable space group: P M M M
;
_chemical_formula_sum "Si O2"
_cell_formula_units_Z 32
_cell_length_a 25.514229
_cell_length_b 7.923646
_cell_length_c 7.382457
_cell_angle_alpha 90.000000
_cell_angle_beta 90.000000
_cell_angle_gamma 90.000000
_cell_volume 1492.479724
_symmetry_space_group_name_H-M "P M M M"
_symmetry_group_IT_number 47
_symmetry_cell_setting 'orthorhombic'
loop_
_space_group_symop_operation_xyz
x,y,z
-x,-y,z
x,-y,-z
-x,y,-z
-x,-y,-z
x,y,-z
-x,y,z
x,-y,z
loop_
_atom_site_type_symbol
_atom_site_label
_atom_site_fract_x
_atom_site_fract_y
_atom_site_fract_z
Si Si1 0.143216 0.706539 0.792373
Si Si2 0.059774 0.293515 0.500000
Si Si3 0.370696 0.815838 0.779072
Si Si4 0.742188 0.696360 0.779364
Si Si5 0.560187 0.500000 0.221506
O O1 0.145157 0.500000 0.790000
O O2 0.094405 0.759210 0.671843
O O3 0.200626 0.760984 0.722384
O O4 0.137101 0.759427 0.000000
O O5 0.058418 0.500000 0.500000
O O6 0.000000 0.234662 0.500000
O O7 0.310467 0.788804 0.721589
O O8 0.407773 0.664570 0.719796
O O9 0.389459 0.000000 0.723689
O O10 0.370057 0.810748 0.000000
O O11 0.737004 0.500000 0.726994
O O12 0.743679 0.700343 0.000000
O O13 0.500000 0.500000 0.279328
O O14 0.560240 0.500000 0.000000
#
# Coordination Sequence:
#
# PCOD9388897 Si02
#       5
#     8   4   8   8   4
#     4   8  14  23  36  54  77 113 156 195 243 297
#     4   9  16  24  34  54  87 121 155 197 239 286
#     4   9  15  22  34  52  74 105 149 197 241 288
#     4   8  12  21  36  51  71 101 141 189 240 291
#     4   9  16  24  32  46  76 117 155 192 237 287
#
# _framework density 21.440829000000001
#
# number of rings (size 3 to 8) (size 9 to 14) (size 15 to 20)
#    0.000    3.500    1.250    1.500    0.000    1.000 
#    0.000    5.000    0.000    0.000    0.000    0.875 
#    0.000    2.000    0.000   12.000    0.000   18.750 
#
# Total GULP energy -178565.133483 kJ/mol
# GULP energy per Si atom -5580.160421 kJ/mol
# Density = 2.139203 g / cm^3
# Si number density = 21.440829 Si / 1000 Ang^3
#
#
#
# Elastic Constant Matrix: (Units=GPa)
#
#
# Indices 1 2 3 4 5 6 
#
# 1 221.0769 79.5443 44.6160 0.0000 0.0000 0.0000
# 2 79.5443 98.5848 14.6275 0.0000 0.0000 0.0000
# 3 44.6160 14.6275 83.8346 0.0000 0.0000 0.0000
# 4 0.0000 0.0000 0.0000 -7.4688 0.0000 0.0000
# 5 0.0000 0.0000 0.0000 0.0000 97.8978 0.0000
# 6 0.0000 0.0000 0.0000 0.0000 0.0000 -9.2580
#
#
#
# Elastic Compliance Matrix: (Units=1/GPa)
#
#
# Indices 1 2 3 4 5 6 
#
# 1 0.006958 -0.005200 -0.002796 0.000000 0.000000 0.000000
# 2 -0.005200 0.014299 0.000272 0.000000 0.000000 0.000000
# 3 -0.002796 0.000272 0.013369 0.000000 0.000000 0.000000
# 4 0.000000 0.000000 0.000000 -0.133890 0.000000 0.000000
# 5 0.000000 0.000000 0.000000 0.000000 0.010215 0.000000
# 6 0.000000 0.000000 0.000000 0.000000 0.000000 -0.108014
#
#
# Mechanical properties :
#
#
# Convention : Reuss Voigt Hill
#
# Bulk Modulus (GPa) = 52.13980 75.67466 63.90723
# Shear Modulus (GPa) = -28.53485 33.88141 2.67328
#
# Velocity S-wave (km/s) = -3.65206 3.97952 1.11782
# Velocity P-wave (km/s) = 2.56659 7.51577 5.61579
#
# Compressibility (1/GPa) = 0.01917921
#
# Stress axis : x y z
#
# Youngs Moduli (GPa) = 143.71076 69.93728 74.80154
#
# Poissons Ratio (x) = 0.36365 0.20914
# Poissons Ratio (y) = 0.74724 -0.02037
# Poissons Ratio (z) = 0.40181 -0.01905
#
# Static dielectric constant tensor:
#      x y z
#    x 1.737170 0.000000 0.000000 
#    y 0.000000 1.774760 0.000000 
#    z 0.000000 0.000000 0.910690 
# 
# From -- ./inp_files/12012.got.cif
#   From: 2010.05.17/outbox.cif.g08.bks.cpg/sg47_7_cif.got.tgz:12012.got - 2010.06.03 20:15:42.
