data_PCOD9388377
_publ_section_title
;
Structure prediction by ZEFSAII (Michael W. Deem and Ramdas Pophale) SiO2 
 PCOD9388377
Probable space group: P M M M
;
_chemical_formula_sum "Si O2"
_cell_formula_units_Z 25
_cell_length_a 15.497782
_cell_length_b 10.512762
_cell_length_c 7.790458
_cell_angle_alpha 90.000000
_cell_angle_beta 90.000000
_cell_angle_gamma 90.000000
_cell_volume 1269.256425
_symmetry_space_group_name_H-M "P M M M"
_symmetry_group_IT_number 47
_symmetry_cell_setting 'orthorhombic'
loop_
_space_group_symop_operation_xyz
x,y,z
-x,-y,z
x,-y,-z
-x,y,-z
-x,-y,-z
x,y,-z
-x,y,z
x,-y,z
loop_
_atom_site_type_symbol
_atom_site_label
_atom_site_fract_x
_atom_site_fract_y
_atom_site_fract_z
Si Si1 0.363749 0.500000 0.311271
Si Si2 0.720502 0.241936 0.205465
Si Si3 0.399357 0.000000 0.294107
Si Si4 0.500000 0.500000 0.000000
Si Si5 0.093528 0.148587 0.208933
O O1 0.404220 0.500000 0.500000
O O2 0.310115 0.629401 0.292795
O O3 0.426934 0.500000 0.150981
O O4 0.654228 0.125039 0.237867
O O5 0.817006 0.208711 0.266869
O O6 0.722852 0.260770 0.000000
O O7 0.500000 0.000000 0.233111
O O8 0.401851 0.000000 0.500000
O O9 0.000000 0.200875 0.265400
O O10 0.096070 0.000000 0.255912
O O11 0.094275 0.153851 0.000000
#
# Coordination Sequence:
#
# PCOD9388377 Si02
#       5
#     4   8   4   1   8
#     4  12  27  45  68  93 130 170 214 270 324 382
#     4  11  21  40  63  93 126 167 213 267 321 386
#     4  11  25  39  56  85 122 164 213 265 327 386
#     4  12  26  52  68  96 118 172 226 262 316 402
#     4   8  14  28  56  92 125 161 209 262 316 375
#
# _framework density 19.696572
#
# number of rings (size 3 to 8) (size 9 to 14) (size 15 to 20)
#    0.000    1.760    3.200    2.640    2.240    1.280 
#    0.000    0.800    0.000    9.600    0.000    0.000 
#    0.000    0.000    0.000    0.000    0.000    0.000 
#
# Total GULP energy -139227.629845 kJ/mol
# GULP energy per Si atom -5569.105194 kJ/mol
# Density = 1.965174 g / cm^3
# Si number density = 19.696572 Si / 1000 Ang^3
#
#
#
# Elastic Constant Matrix: (Units=GPa)
#
#
# Indices 1 2 3 4 5 6 
#
# 1 223.8684 89.0070 40.6074 0.0000 0.0000 0.0000
# 2 89.0070 130.3016 20.8333 0.0000 0.0000 0.0000
# 3 40.6074 20.8333 103.1035 0.0000 0.0000 0.0000
# 4 0.0000 0.0000 0.0000 35.1934 0.0000 0.0000
# 5 0.0000 0.0000 0.0000 0.0000 39.2565 0.0000
# 6 0.0000 0.0000 0.0000 0.0000 0.0000 178.4984
#
#
#
# Elastic Compliance Matrix: (Units=1/GPa)
#
#
# Indices 1 2 3 4 5 6 
#
# 1 0.006406 -0.004105 -0.001694 0.000000 0.000000 0.000000
# 2 -0.004105 0.010561 -0.000517 0.000000 0.000000 0.000000
# 3 -0.001694 -0.000517 0.010471 0.000000 0.000000 0.000000
# 4 0.000000 0.000000 0.000000 0.028414 0.000000 0.000000
# 5 0.000000 0.000000 0.000000 0.000000 0.025473 0.000000
# 6 0.000000 0.000000 0.000000 0.000000 0.000000 0.005602
#
#
# Mechanical properties :
#
#
# Convention : Reuss Voigt Hill
#
# Bulk Modulus (GPa) = 67.53969 84.24100 75.89035
# Shear Modulus (GPa) = 47.84874 71.04473 59.44673
#
# Velocity S-wave (km/s) = 4.93413 6.01231 5.49971
# Velocity P-wave (km/s) = 8.17468 9.54251 8.88495
#
# Compressibility (1/GPa) = 0.01480611
#
# Stress axis : x y z
#
# Youngs Moduli (GPa) = 156.09612 94.68409 95.50617
#
# Poissons Ratio (x) = 0.38870 0.16175
# Poissons Ratio (y) = 0.64082 0.04940
# Poissons Ratio (z) = 0.26437 0.04897
#
# Static dielectric constant tensor:
#      x y z
#    x 1.717750 0.000000 0.000000 
#    y 0.000000 1.647380 0.000000 
#    z 0.000000 0.000000 1.699830 
# 
# From -- ./inp_files/8395.got.cif
#   From: 2010.05.17/outbox.cif.g08.bks.cpg/sg47_5_cif.got.tgz:8395.got - 2010.06.03 20:15:42.
