data_PCOD9388479
_publ_section_title
;
Structure prediction by ZEFSAII (Michael W. Deem and Ramdas Pophale) SiO2 
 PCOD9388479
Probable space group: P M M M
;
_chemical_formula_sum "Si O2"
_cell_formula_units_Z 33
_cell_length_a 8.225338
_cell_length_b 11.940735
_cell_length_c 16.286438
_cell_angle_alpha 90.000000
_cell_angle_beta 90.000000
_cell_angle_gamma 90.000000
_cell_volume 1599.598263
_symmetry_space_group_name_H-M "P M M M"
_symmetry_group_IT_number 47
_symmetry_cell_setting 'orthorhombic'
loop_
_space_group_symop_operation_xyz
x,y,z
-x,-y,z
x,-y,-z
-x,y,-z
-x,-y,-z
x,y,-z
-x,y,z
x,-y,z
loop_
_atom_site_type_symbol
_atom_site_label
_atom_site_fract_x
_atom_site_fract_y
_atom_site_fract_z
Si Si1 0.693272 0.739434 0.156596
Si Si2 0.500000 0.500000 0.500000
Si Si3 0.807006 0.876038 0.000000
Si Si4 0.186852 0.500000 0.621735
Si Si5 0.804524 0.868700 0.500000
Si Si6 0.304224 0.263203 0.335901
Si Si7 0.805492 0.500000 0.904287
O O1 0.500000 0.739611 0.152487
O O2 0.758438 0.810780 0.081493
O O3 0.737480 0.787080 0.246691
O O4 0.748642 0.611844 0.141389
O O5 0.351898 0.500000 0.567686
O O6 0.000000 0.883167 0.000000
O O7 0.734339 0.000000 0.000000
O O8 0.209888 0.618832 0.665237
O O9 0.000000 0.500000 0.588819
O O10 0.742900 0.805774 0.417655
O O11 0.000000 0.863204 0.500000
O O12 0.755381 0.000000 0.500000
O O13 0.500000 0.280103 0.339425
O O14 0.000000 0.500000 0.906313
O O15 0.747741 0.500000 0.000000
#
# Coordination Sequence:
#
# PCOD9388479 Si02
#       7
#     8   1   4   4   4   8   4
#     4  11  24  41  67  98 132 174 215 268 332 394
#     4  12  22  40  60  90 142 170 214 276 312 404
#     4  11  25  44  65  92 129 171 221 281 334 389
#     4  12  24  40  67 101 137 181 219 269 342 402
#     4  11  26  46  67  94 126 169 229 282 328 395
#     4  11  24  44  67  98 138 172 219 280 332 401
#     4  11  22  37  63  98 137 171 210 258 316 396
#
# _framework density 20.630181
#
# number of rings (size 3 to 8) (size 9 to 14) (size 15 to 20)
#    0.000    0.848    2.424    4.182    0.000   10.182 
#    0.000    4.848    0.000    0.000    0.000    0.000 
#    0.000    0.000    0.000    0.000    0.000    0.000 
#
# Total GULP energy -183950.501863 kJ/mol
# GULP energy per Si atom -5574.257632 kJ/mol
# Density = 2.058323 g / cm^3
# Si number density = 20.630181 Si / 1000 Ang^3
#
#
#
# Elastic Constant Matrix: (Units=GPa)
#
#
# Indices 1 2 3 4 5 6 
#
# 1 106.8422 22.2459 53.5243 0.0000 0.0000 0.0000
# 2 22.2459 136.0480 85.2377 0.0000 0.0000 0.0000
# 3 53.5243 85.2377 215.4759 0.0000 0.0000 0.0000
# 4 0.0000 0.0000 0.0000 -9.5650 0.0000 0.0000
# 5 0.0000 0.0000 0.0000 0.0000 13.8664 0.0000
# 6 0.0000 0.0000 0.0000 0.0000 0.0000 43.8230
#
#
#
# Elastic Compliance Matrix: (Units=1/GPa)
#
#
# Indices 1 2 3 4 5 6 
#
# 1 0.010691 -0.000112 -0.002611 0.000000 0.000000 0.000000
# 2 -0.000112 0.009774 -0.003838 0.000000 0.000000 0.000000
# 3 -0.002611 -0.003838 0.006808 0.000000 0.000000 0.000000
# 4 0.000000 0.000000 0.000000 -0.104548 0.000000 0.000000
# 5 0.000000 0.000000 0.000000 0.000000 0.072117 0.000000
# 6 0.000000 0.000000 0.000000 0.000000 0.000000 0.022819
#
#
# Mechanical properties :
#
#
# Convention : Reuss Voigt Hill
#
# Bulk Modulus (GPa) = 70.67640 86.70910 78.69275
# Shear Modulus (GPa) = 140.84465 29.44876 85.14670
#
# Velocity S-wave (km/s) = 8.27160 3.78227 6.43137
# Velocity P-wave (km/s) = 11.20531 7.82276 9.66319
#
# Compressibility (1/GPa) = 0.01414899
#
# Stress axis : x y z
#
# Youngs Moduli (GPa) = 93.53550 102.31747 146.88783
#
# Poissons Ratio (x) = 0.01147 0.38357
# Poissons Ratio (y) = 0.01048 0.56381
# Poissons Ratio (z) = 0.24425 0.39273
#
# Static dielectric constant tensor:
#      x y z
#    x 1.709140 0.000000 0.000000 
#    y 0.000000 1.632340 0.000000 
#    z 0.000000 0.000000 1.752690 
# 
# From -- ./inp_files/20418.got.cif
#   From: 2010.05.17/outbox.cif.g08.bks.cpg/sg47_11_cif.got.tgz:20418.got - 2010.06.03 20:15:42.
