data_PCOD9388262
_publ_section_title
;
Structure prediction by ZEFSAII (Michael W. Deem and Ramdas Pophale) SiO2 
 PCOD9388262
Probable space group: P M M M
;
_chemical_formula_sum "Si O2"
_cell_formula_units_Z 36
_cell_length_a 11.847420
_cell_length_b 9.149662
_cell_length_c 21.110935
_cell_angle_alpha 90.000000
_cell_angle_beta 90.000000
_cell_angle_gamma 90.000000
_cell_volume 2288.423002
_symmetry_space_group_name_H-M "P M M M"
_symmetry_group_IT_number 47
_symmetry_cell_setting 'orthorhombic'
loop_
_space_group_symop_operation_xyz
x,y,z
-x,-y,z
x,-y,-z
-x,y,-z
-x,-y,-z
x,y,-z
-x,y,z
x,-y,z
loop_
_atom_site_type_symbol
_atom_site_label
_atom_site_fract_x
_atom_site_fract_y
_atom_site_fract_z
Si Si1 0.867402 0.174964 0.242252
Si Si2 0.862267 0.168530 0.500000
Si Si3 0.862921 0.332635 0.372832
Si Si4 0.228292 0.824841 0.110099
Si Si5 0.000000 0.336045 0.074461
Si Si6 0.365001 0.329498 0.000000
O O1 0.834425 0.252321 0.307451
O O2 0.779868 0.207516 0.185455
O O3 0.000000 0.216010 0.227033
O O4 0.868618 0.000000 0.250684
O O5 0.824833 0.249163 0.435986
O O6 0.000000 0.171154 0.500000
O O7 0.827723 0.000000 0.500000
O O8 0.824655 0.500000 0.372860
O O9 0.000000 0.333330 0.375084
O O10 0.108995 0.758825 0.089293
O O11 0.317585 0.748948 0.063312
O O12 0.233524 0.000000 0.102151
O O13 0.000000 0.500000 0.104062
O O14 0.000000 0.356456 0.000000
O O15 0.328018 0.500000 0.000000
O O16 0.500000 0.324178 0.000000
#
# Coordination Sequence:
#
# PCOD9388262 Si02
#       6
#     8   4   8   8   4   4
#     4   9  17  29  42  62  91 118 146 184 231 277
#     4   9  15  23  35  49  71 111 154 191 226 259
#     4   9  16  24  35  54  79 111 151 190 223 263
#     4  11  21  34  53  73  94 121 156 196 236 281
#     4  11  21  31  47  73 100 123 148 183 236 288
#     4  11  25  42  55  70  93 121 155 195 240 289
#
# _framework density 15.731356999999999
#
# number of rings (size 3 to 8) (size 9 to 14) (size 15 to 20)
#    0.000    2.111    2.222    2.333    0.000    7.111 
#    0.000    0.000    0.000    0.000    0.000    0.000 
#    0.000    0.000    0.000    1.000    0.000   18.778 
#
# Total GULP energy -200459.978570 kJ/mol
# GULP energy per Si atom -5568.332738 kJ/mol
# Density = 1.569555 g / cm^3
# Si number density = 15.731357 Si / 1000 Ang^3
#
#
#
# Elastic Constant Matrix: (Units=GPa)
#
#
# Indices 1 2 3 4 5 6 
#
# 1 34.2496 23.1396 28.4340 0.0000 0.0000 0.0000
# 2 23.1396 92.9550 86.1236 0.0000 0.0000 0.0000
# 3 28.4340 86.1236 161.8999 0.0000 0.0000 0.0000
# 4 0.0000 0.0000 0.0000 -25.5784 0.0000 0.0000
# 5 0.0000 0.0000 0.0000 0.0000 1.4556 0.0000
# 6 0.0000 0.0000 0.0000 0.0000 0.0000 13.7296
#
#
#
# Elastic Compliance Matrix: (Units=1/GPa)
#
#
# Indices 1 2 3 4 5 6 
#
# 1 0.035851 -0.006095 -0.003054 0.000000 0.000000 0.000000
# 2 -0.006095 0.022249 -0.010765 0.000000 0.000000 0.000000
# 3 -0.003054 -0.010765 0.012440 0.000000 0.000000 0.000000
# 4 0.000000 0.000000 0.000000 -0.039095 0.000000 0.000000
# 5 0.000000 0.000000 0.000000 0.000000 0.686995 0.000000
# 6 0.000000 0.000000 0.000000 0.000000 0.000000 0.072836
#
#
# Mechanical properties :
#
#
# Convention : Reuss Voigt Hill
#
# Bulk Modulus (GPa) = 32.56129 62.72211 47.64170
# Shear Modulus (GPa) = 5.94290 8.01517 6.97904
#
# Velocity S-wave (km/s) = 1.94575 2.25967 2.10856
# Velocity P-wave (km/s) = 5.07850 6.83853 6.02315
#
# Compressibility (1/GPa) = 0.03071131
#
# Stress axis : x y z
#
# Youngs Moduli (GPa) = 27.89344 44.94584 80.38822
#
# Poissons Ratio (x) = 0.27393 0.24553
# Poissons Ratio (y) = 0.17000 0.86539
# Poissons Ratio (z) = 0.08519 0.48385
#
# Static dielectric constant tensor:
#      x y z
#    x 1.498930 0.000000 0.000000 
#    y 0.000000 1.545170 0.000000 
#    z 0.000000 0.000000 1.558910 
# 
# From -- ./inp_files/30293.got.cif
#   From: 2010.05.17/outbox.cif.g08.bks.cpg/sg47_16_cif.got.tgz:30293.got - 2010.06.03 20:15:42.
