data_PCOD9388436
_publ_section_title
;
Structure prediction by ZEFSAII (Michael W. Deem and Ramdas Pophale) SiO2 
 PCOD9388436
Probable space group: P M M M
;
_chemical_formula_sum "Si O2"
_cell_formula_units_Z 32
_cell_length_a 17.533859
_cell_length_b 7.952936
_cell_length_c 13.820695
_cell_angle_alpha 90.000000
_cell_angle_beta 90.000000
_cell_angle_gamma 90.000000
_cell_volume 1927.235915
_symmetry_space_group_name_H-M "P M M M"
_symmetry_group_IT_number 47
_symmetry_cell_setting 'orthorhombic'
loop_
_space_group_symop_operation_xyz
x,y,z
-x,-y,z
x,-y,-z
-x,y,-z
-x,-y,-z
x,y,-z
-x,y,z
x,-y,z
loop_
_atom_site_type_symbol
_atom_site_label
_atom_site_fract_x
_atom_site_fract_y
_atom_site_fract_z
Si Si1 0.000000 0.699532 0.609908
Si Si2 0.322471 0.195718 0.706075
Si Si3 0.164626 0.200597 0.611227
Si Si4 0.585842 0.500000 0.614970
Si Si5 0.412420 0.296659 0.112818
O O1 0.918405 0.751038 0.651618
O O2 0.000000 0.500000 0.604291
O O3 0.000000 0.771824 0.500000
O O4 0.235702 0.245546 0.679146
O O5 0.373491 0.330768 0.649864
O O6 0.350584 0.216150 0.816290
O O7 0.333175 0.000000 0.677081
O O8 0.173172 0.268561 0.500000
O O9 0.165574 0.000000 0.603574
O O10 0.500000 0.500000 0.653690
O O11 0.584796 0.500000 0.500000
O O12 0.500000 0.247757 0.138311
O O13 0.407748 0.500000 0.121912
O O14 0.400800 0.254960 0.000000
#
# Coordination Sequence:
#
# PCOD9388436 Si02
#       5
#     4   8   8   4   8
#     4   9  17  27  45  73  98 127 168 209 251 300
#     4  11  22  35  54  78 103 136 178 217 259 312
#     4   9  18  32  48  69 101 137 169 207 253 302
#     4  11  24  38  51  70 102 142 178 216 259 301
#     4   9  18  34  55  77 102 132 169 218 273 320
#
# _framework density 16.604089999999999
#
# number of rings (size 3 to 8) (size 9 to 14) (size 15 to 20)
#    0.000    2.250    1.250    2.625    1.750    5.500 
#    0.000    2.500    0.000    0.000    0.000    0.875 
#    0.000    7.000    0.000    0.000    0.000    0.000 
#
# Total GULP energy -178318.321295 kJ/mol
# GULP energy per Si atom -5572.447540 kJ/mol
# Density = 1.656630 g / cm^3
# Si number density = 16.604090 Si / 1000 Ang^3
#
#
#
# Elastic Constant Matrix: (Units=GPa)
#
#
# Indices 1 2 3 4 5 6 
#
# 1 180.7730 47.7324 60.3057 0.0000 0.0000 0.0000
# 2 47.7324 60.1080 20.0971 0.0000 0.0000 0.0000
# 3 60.3057 20.0971 72.6949 0.0000 0.0000 0.0000
# 4 0.0000 0.0000 0.0000 16.1443 0.0000 0.0000
# 5 0.0000 0.0000 0.0000 0.0000 19.2635 0.0000
# 6 0.0000 0.0000 0.0000 0.0000 0.0000 29.1769
#
#
#
# Elastic Compliance Matrix: (Units=1/GPa)
#
#
# Indices 1 2 3 4 5 6 
#
# 1 0.008845 -0.005036 -0.005945 0.000000 0.000000 0.000000
# 2 -0.005036 0.021198 -0.001683 0.000000 0.000000 0.000000
# 3 -0.005945 -0.001683 0.019153 0.000000 0.000000 0.000000
# 4 0.000000 0.000000 0.000000 0.061941 0.000000 0.000000
# 5 0.000000 0.000000 0.000000 0.000000 0.051912 0.000000
# 6 0.000000 0.000000 0.000000 0.000000 0.000000 0.034274
#
#
# Mechanical properties :
#
#
# Convention : Reuss Voigt Hill
#
# Bulk Modulus (GPa) = 41.89582 63.31624 52.60603
# Shear Modulus (GPa) = 21.68185 25.27964 23.48074
#
# Velocity S-wave (km/s) = 3.61752 3.90615 3.76460
# Velocity P-wave (km/s) = 6.53725 7.65243 7.11672
#
# Compressibility (1/GPa) = 0.02386873
#
# Stress axis : x y z
#
# Youngs Moduli (GPa) = 113.06007 47.17318 52.21024
#
# Poissons Ratio (x) = 0.23756 0.31040
# Poissons Ratio (y) = 0.56937 0.08786
# Poissons Ratio (z) = 0.67217 0.07938
#
# Static dielectric constant tensor:
#      x y z
#    x 1.579290 0.000000 0.000000 
#    y 0.000000 1.581430 0.000000 
#    z 0.000000 0.000000 1.570890 
# 
# From -- ./inp_files/20494.got.cif
#   From: 2010.05.17/outbox.cif.g08.bks.cpg/sg47_11_cif.got.tgz:20494.got - 2010.06.03 20:15:42.
