data_PCOD9388278
_publ_section_title
;
Structure prediction by ZEFSAII (Michael W. Deem and Ramdas Pophale) SiO2 
 PCOD9388278
Probable space group: P M M M
;
_chemical_formula_sum "Si O2"
_cell_formula_units_Z 52
_cell_length_a 12.997457
_cell_length_b 25.490024
_cell_length_c 7.823254
_cell_angle_alpha 90.000000
_cell_angle_beta 90.000000
_cell_angle_gamma 90.000000
_cell_volume 2591.887007
_symmetry_space_group_name_H-M "P M M M"
_symmetry_group_IT_number 47
_symmetry_cell_setting 'orthorhombic'
loop_
_space_group_symop_operation_xyz
x,y,z
-x,-y,z
x,-y,-z
-x,y,-z
-x,-y,-z
x,y,-z
-x,y,z
x,-y,z
loop_
_atom_site_type_symbol
_atom_site_label
_atom_site_fract_x
_atom_site_fract_y
_atom_site_fract_z
Si Si1 0.500000 0.252788 0.198355
Si Si2 0.376722 0.056514 0.802079
Si Si3 0.271704 0.404141 0.208292
Si Si4 0.108836 0.197843 0.700115
Si Si5 0.323698 0.827949 0.301213
Si Si6 0.500000 0.626759 0.789889
Si Si7 0.113196 0.682361 0.206111
Si Si8 0.878196 0.500000 0.208895
O O1 0.596680 0.214949 0.233751
O O2 0.500000 0.312049 0.273014
O O3 0.500000 0.263664 0.000000
O O4 0.500000 0.053770 0.802772
O O5 0.353406 0.111405 0.714426
O O6 0.339197 0.000000 0.731766
O O7 0.343091 0.060068 0.000000
O O8 0.391591 0.400700 0.262987
O O9 0.210244 0.351790 0.259669
O O10 0.193616 0.450631 0.261212
O O11 0.274066 0.406172 0.000000
O O12 0.106805 0.182593 0.500000
O O13 0.212148 0.177137 0.782343
O O14 0.115041 0.260628 0.712014
O O15 0.000000 0.181585 0.778119
O O16 0.316008 0.814762 0.500000
O O17 0.500000 0.625686 0.000000
O O18 0.000000 0.658037 0.243389
O O19 0.118270 0.688332 0.000000
O O20 0.000000 0.500000 0.263770
O O21 0.882680 0.500000 0.000000
#
# Coordination Sequence:
#
# PCOD9388278 Si02
#       8
#     4   8   8   8   8   4   8   4
#     4  11  21  33  49  70 100 134 162 194 245 298
#     4   9  18  33  52  74 101 133 165 198 243 294
#     4   9  16  26  39  59  87 116 150 191 235 284
#     4   9  19  34  49  68  98 133 165 200 244 292
#     4  11  21  32  50  76 102 128 164 206 244 286
#     4   9  18  28  39  57  84 122 158 185 223 284
#     4   9  16  27  45  67  89 116 155 200 239 281
#     4   9  16  25  39  59  84 115 149 192 246 287
#
# _framework density 20.062602999999999
#
# number of rings (size 3 to 8) (size 9 to 14) (size 15 to 20)
#    0.000    2.538    0.769    2.538    0.000    4.923 
#    0.000    2.308    0.000    0.462    0.000    3.769 
#    0.000    3.077    0.000    8.000    0.000    8.615 
#
# Total GULP energy -289499.237356 kJ/mol
# GULP energy per Si atom -5567.293026 kJ/mol
# Density = 2.001694 g / cm^3
# Si number density = 20.062603 Si / 1000 Ang^3
#
#
#
# Elastic Constant Matrix: (Units=GPa)
#
#
# Indices 1 2 3 4 5 6 
#
# 1 172.2358 54.6017 9.5407 0.0000 0.0000 0.0000
# 2 54.6017 73.2420 -4.9635 0.0000 0.0000 0.0000
# 3 9.5407 -4.9635 20.4566 0.0000 0.0000 0.0000
# 4 0.0000 0.0000 0.0000 9.1341 0.0000 0.0000
# 5 0.0000 0.0000 0.0000 0.0000 -1.5802 0.0000
# 6 0.0000 0.0000 0.0000 0.0000 0.0000 51.1424
#
#
#
# Elastic Compliance Matrix: (Units=1/GPa)
#
#
# Indices 1 2 3 4 5 6 
#
# 1 0.008142 -0.006433 -0.005358 0.000000 0.000000 0.000000
# 2 -0.006433 0.018964 0.007602 0.000000 0.000000 0.000000
# 3 -0.005358 0.007602 0.053228 0.000000 0.000000 0.000000
# 4 0.000000 0.000000 0.000000 0.109480 0.000000 0.000000
# 5 0.000000 0.000000 0.000000 0.000000 -0.632820 0.000000
# 6 0.000000 0.000000 0.000000 0.000000 0.000000 0.019553
#
#
# Mechanical properties :
#
#
# Convention : Reuss Voigt Hill
#
# Bulk Modulus (GPa) = 13.89760 42.69914 28.29837
# Shear Modulus (GPa) = -12.78481 25.52296 6.36908
#
# Velocity S-wave (km/s) = -2.52711 3.57061 1.78367
# Velocity P-wave (km/s) = 1.25415 6.19098 4.28692
#
# Compressibility (1/GPa) = 0.07195489
#
# Stress axis : x y z
#
# Youngs Moduli (GPa) = 122.81651 52.73036 18.78723
#
# Poissons Ratio (x) = 0.33922 0.10067
# Poissons Ratio (y) = 0.79010 -0.14282
# Poissons Ratio (z) = 0.65810 -0.40085
#
# Static dielectric constant tensor:
#      x y z
#    x 1.934330 0.000000 0.000000 
#    y 0.000000 1.714780 0.000000 
#    z 0.000000 0.000000 1.726540 
# 
# From -- ./inp_files/4657.got.cif
#   From: 2010.05.17/outbox.cif.g08.bks.cpg/sg47_3_cif.got.tgz:4657.got - 2010.06.03 20:15:42.
