data_PCOD9388267
_publ_section_title
;
Structure prediction by ZEFSAII (Michael W. Deem and Ramdas Pophale) SiO2 
 PCOD9388267
Probable space group: P M M M
;
_chemical_formula_sum "Si O2"
_cell_formula_units_Z 56
_cell_length_a 22.137354
_cell_length_b 14.834793
_cell_length_c 9.504475
_cell_angle_alpha 90.000000
_cell_angle_beta 90.000000
_cell_angle_gamma 90.000000
_cell_volume 3121.298713
_symmetry_space_group_name_H-M "P M M M"
_symmetry_group_IT_number 47
_symmetry_cell_setting 'orthorhombic'
loop_
_space_group_symop_operation_xyz
x,y,z
-x,-y,z
x,-y,-z
-x,y,-z
-x,-y,-z
x,y,-z
-x,y,z
x,-y,z
loop_
_atom_site_type_symbol
_atom_site_label
_atom_site_fract_x
_atom_site_fract_y
_atom_site_fract_z
Si Si1 0.172756 0.262247 0.168881
Si Si2 0.500000 0.649227 0.848904
Si Si3 0.379485 0.892817 0.658707
Si Si4 0.607916 0.607192 0.650588
Si Si5 0.929878 0.601323 0.170625
Si Si6 0.242655 0.892444 0.670087
Si Si7 0.500000 0.861425 0.841641
Si Si8 0.254963 0.391807 0.338243
O O1 0.109572 0.311409 0.211275
O O2 0.195200 0.171986 0.249286
O O3 0.218749 0.339455 0.220552
O O4 0.173676 0.248774 0.000000
O O5 0.560176 0.625770 0.767788
O O6 0.500000 0.755418 0.858828
O O7 0.500000 0.605525 0.000000
O O8 0.390431 0.856824 0.500000
O O9 0.312172 0.863701 0.707935
O O10 0.438211 0.880775 0.756148
O O11 0.372470 0.000000 0.645985
O O12 0.584940 0.641167 0.500000
O O13 0.613469 0.500000 0.641290
O O14 0.675606 0.639454 0.672763
O O15 0.908730 0.500000 0.217588
O O16 0.000000 0.610134 0.212264
O O17 0.927723 0.599143 0.000000
O O18 0.237617 0.881955 0.500000
O O19 0.234852 0.000000 0.700960
O O20 0.500000 0.900874 0.000000
O O21 0.235118 0.371662 0.500000
O O22 0.251519 0.500000 0.320958
#
# Coordination Sequence:
#
# PCOD9388267 Si02
#       8
#     8   4   8   8   8   8   4   8
#     4  11  21  31  53  86 115 141 176 224 274 320
#     4  11  24  35  44  66  98 125 156 203 260 316
#     4   9  19  37  58  75  91 121 170 217 258 316
#     4   9  19  36  54  68  85 120 171 214 248 300
#     4   8  15  30  52  80 117 157 190 217 251 304
#     4   9  20  39  59  78 104 142 186 228 271 325
#     4  11  24  35  46  72 106 129 154 203 270 334
#     4   9  19  35  53  75 105 140 177 216 261 318
#
# _framework density 17.94125
#
# number of rings (size 3 to 8) (size 9 to 14) (size 15 to 20)
#    0.000    2.571    0.000    3.857    2.000    5.714 
#    0.000    2.857    0.000    2.143    0.000    8.000 
#    0.000    0.000    0.000    0.000    0.000    0.000 
#
# Total GULP energy -311765.134184 kJ/mol
# GULP energy per Si atom -5567.234539 kJ/mol
# Density = 1.790041 g / cm^3
# Si number density = 17.941250 Si / 1000 Ang^3
#
#
#
# Elastic Constant Matrix: (Units=GPa)
#
#
# Indices 1 2 3 4 5 6 
#
# 1 95.4540 47.2748 46.9357 0.0000 0.0000 0.0000
# 2 47.2748 97.9844 28.2729 0.0000 0.0000 0.0000
# 3 46.9357 28.2729 62.4332 0.0000 0.0000 0.0000
# 4 0.0000 0.0000 0.0000 28.2005 0.0000 0.0000
# 5 0.0000 0.0000 0.0000 0.0000 21.9442 0.0000
# 6 0.0000 0.0000 0.0000 0.0000 0.0000 36.5853
#
#
#
# Elastic Compliance Matrix: (Units=1/GPa)
#
#
# Indices 1 2 3 4 5 6 
#
# 1 0.019150 -0.005850 -0.011747 0.000000 0.000000 0.000000
# 2 -0.005850 0.013527 -0.001728 0.000000 0.000000 0.000000
# 3 -0.011747 -0.001728 0.025631 0.000000 0.000000 0.000000
# 4 0.000000 0.000000 0.000000 0.035460 0.000000 0.000000
# 5 0.000000 0.000000 0.000000 0.000000 0.045570 0.000000
# 6 0.000000 0.000000 0.000000 0.000000 0.000000 0.027333
#
#
# Mechanical properties :
#
#
# Convention : Reuss Voigt Hill
#
# Bulk Modulus (GPa) = 50.87095 55.64872 53.25983
# Shear Modulus (GPa) = 23.59910 26.23856 24.91883
#
# Velocity S-wave (km/s) = 3.63072 3.82838 3.73085
# Velocity P-wave (km/s) = 6.78173 7.11523 6.95048
#
# Compressibility (1/GPa) = 0.01965759
#
# Stress axis : x y z
#
# Youngs Moduli (GPa) = 52.22064 73.92874 39.01550
#
# Poissons Ratio (x) = 0.43245 0.45832
# Poissons Ratio (y) = 0.30547 0.06742
# Poissons Ratio (z) = 0.61344 0.12775
#
# Static dielectric constant tensor:
#      x y z
#    x 1.601180 0.000000 0.000000 
#    y 0.000000 1.649480 0.000000 
#    z 0.000000 0.000000 1.658960 
# 
# From -- ./inp_files/11365.got.cif
#   From: 2010.05.17/outbox.cif.g08.bks.cpg/sg47_6_cif.got.tgz:11365.got - 2010.06.03 20:15:42.
