data_PCOD9388955
_publ_section_title
;
Structure prediction by ZEFSAII (Michael W. Deem and Ramdas Pophale) SiO2 
 PCOD9388955
Probable space group: P M M M
;
_chemical_formula_sum "Si O2"
_cell_formula_units_Z 48
_cell_length_a 32.498602
_cell_length_b 9.745092
_cell_length_c 7.347949
_cell_angle_alpha 90.000000
_cell_angle_beta 90.000000
_cell_angle_gamma 90.000000
_cell_volume 2327.109162
_symmetry_space_group_name_H-M "P M M M"
_symmetry_group_IT_number 47
_symmetry_cell_setting 'orthorhombic'
loop_
_space_group_symop_operation_xyz
x,y,z
-x,-y,z
x,-y,-z
-x,y,-z
-x,-y,-z
x,y,-z
-x,y,z
x,-y,z
loop_
_atom_site_type_symbol
_atom_site_label
_atom_site_fract_x
_atom_site_fract_y
_atom_site_fract_z
Si Si1 0.377853 0.340049 0.278129
Si Si2 0.122593 0.157666 0.777228
Si Si3 0.711769 0.341353 0.281745
Si Si4 0.953310 0.656913 0.221414
Si Si5 0.545884 0.158779 0.278303
Si Si6 0.802341 0.343437 0.785639
O O1 0.378428 0.337484 0.500000
O O2 0.381271 0.500000 0.225924
O O3 0.332623 0.285766 0.221018
O O4 0.416554 0.252124 0.215206
O O5 0.081354 0.237061 0.719757
O O6 0.162153 0.244606 0.714727
O O7 0.123665 0.000000 0.718957
O O8 0.122818 0.156802 0.000000
O O9 0.710573 0.342657 0.500000
O O10 0.712824 0.500000 0.218398
O O11 0.756254 0.283170 0.232769
O O12 0.943719 0.500000 0.276076
O O13 0.000000 0.689391 0.278618
O O14 0.953261 0.657641 0.000000
O O15 0.546221 0.161532 0.500000
O O16 0.500000 0.203955 0.222166
O O17 0.551226 0.000000 0.225080
O O18 0.803215 0.500000 0.710559
O O19 0.810112 0.356267 0.000000
#
# Coordination Sequence:
#
# PCOD9388955 Si02
#       6
#     8   8   8   8   8   8
#     4   8  13  21  33  48  66  90 119 148 179 217
#     4   9  16  24  34  50  74 102 128 156 192 229
#     4   8  14  25  40  57  77 100 126 158 194 227
#     4   8  13  21  33  49  70  97 128 159 189 224
#     4   8  13  20  29  43  66  94 119 143 175 216
#     4   9  16  26  41  58  75  99 131 161 188 223
#
# _framework density 20.626448
#
# number of rings (size 3 to 8) (size 9 to 14) (size 15 to 20)
#    0.000    3.667    0.000    2.500    0.000    2.667 
#    0.000    4.167    0.000    1.500    0.000    0.000 
#    0.000    1.333    0.000   16.000    0.000   19.500 
#
# Total GULP energy -267501.969129 kJ/mol
# GULP energy per Si atom -5572.957690 kJ/mol
# Density = 2.057950 g / cm^3
# Si number density = 20.626448 Si / 1000 Ang^3
#
#
#
# Elastic Constant Matrix: (Units=GPa)
#
#
# Indices 1 2 3 4 5 6 
#
# 1 241.1520 128.7323 4.0149 0.0000 0.0000 0.0000
# 2 128.7323 107.0760 5.2316 0.0000 0.0000 0.0000
# 3 4.0149 5.2316 75.3402 0.0000 0.0000 0.0000
# 4 0.0000 0.0000 0.0000 -11.1430 0.0000 0.0000
# 5 0.0000 0.0000 0.0000 0.0000 6.4141 0.0000
# 6 0.0000 0.0000 0.0000 0.0000 0.0000 -10.8712
#
#
#
# Elastic Compliance Matrix: (Units=1/GPa)
#
#
# Indices 1 2 3 4 5 6 
#
# 1 0.011586 -0.013946 0.000351 0.000000 0.000000 0.000000
# 2 -0.013946 0.026158 -0.001073 0.000000 0.000000 0.000000
# 3 0.000351 -0.001073 0.013329 0.000000 0.000000 0.000000
# 4 0.000000 0.000000 0.000000 -0.089742 0.000000 0.000000
# 5 0.000000 0.000000 0.000000 0.000000 0.155907 0.000000
# 6 0.000000 0.000000 0.000000 0.000000 0.000000 -0.091986
#
#
# Mechanical properties :
#
#
# Convention : Reuss Voigt Hill
#
# Bulk Modulus (GPa) = 46.00590 77.72508 61.86549
# Shear Modulus (GPa) = 80.86328 15.91927 48.39127
#
# Velocity S-wave (km/s) = 6.26808 2.78112 4.84889
# Velocity P-wave (km/s) = 8.64510 6.93375 7.83628
#
# Compressibility (1/GPa) = 0.02173634
#
# Stress axis : x y z
#
# Youngs Moduli (GPa) = 86.31444 38.22909 75.02468
#
# Poissons Ratio (x) = 0.53314 -0.02633
# Poissons Ratio (y) = 1.20373 0.08052
# Poissons Ratio (z) = -0.03030 0.04103
#
# Static dielectric constant tensor:
#      x y z
#    x 1.747770 0.000000 0.000000 
#    y 0.000000 1.685120 0.000000 
#    z 0.000000 0.000000 1.883940 
# 
# From -- ./inp_files/4708.got.cif
#   From: 2010.05.17/outbox.cif.g08.bks.cpg/sg47_3_cif.got.tgz:4708.got - 2010.06.03 20:15:42.
