data_PCOD9388842
_publ_section_title
;
Structure prediction by ZEFSAII (Michael W. Deem and Ramdas Pophale) SiO2 
 PCOD9388842
Probable space group: P M M M
;
_chemical_formula_sum "Si O2"
_cell_formula_units_Z 36
_cell_length_a 24.802930
_cell_length_b 7.426701
_cell_length_c 9.467597
_cell_angle_alpha 90.000000
_cell_angle_beta 90.000000
_cell_angle_gamma 90.000000
_cell_volume 1743.968717
_symmetry_space_group_name_H-M "P M M M"
_symmetry_group_IT_number 47
_symmetry_cell_setting 'orthorhombic'
loop_
_space_group_symop_operation_xyz
x,y,z
-x,-y,z
x,-y,-z
-x,y,-z
-x,-y,-z
x,y,-z
-x,y,z
x,-y,z
loop_
_atom_site_type_symbol
_atom_site_label
_atom_site_fract_x
_atom_site_fract_y
_atom_site_fract_z
Si Si1 0.057963 0.216583 0.169439
Si Si2 0.280187 0.220520 0.662147
Si Si3 0.175581 0.780092 0.835685
Si Si4 0.500000 0.286621 0.160666
Si Si5 0.382275 0.786924 0.160839
O O1 0.116621 0.280438 0.219071
O O2 0.000000 0.284935 0.223927
O O3 0.057380 0.000000 0.188992
O O4 0.058303 0.247341 0.000000
O O5 0.280362 0.277458 0.500000
O O6 0.226215 0.277681 0.743519
O O7 0.333520 0.282786 0.744772
O O8 0.280331 0.000000 0.662828
O O9 0.174932 0.000000 0.834951
O O10 0.181907 0.727047 0.000000
O O11 0.500000 0.500000 0.151664
O O12 0.557743 0.235974 0.223766
O O13 0.500000 0.209924 0.000000
O O14 0.373531 0.000000 0.148947
O O15 0.381919 0.712976 0.000000
#
# Coordination Sequence:
#
# PCOD9388842 Si02
#       5
#     8   8   8   4   8
#     4   7   9  13  22  37  56  79 111 151 190 226
#     4   9  16  24  34  50  72  96 123 158 197 230
#     4   8  12  18  29  44  62  86 118 156 195 232
#     4   9  17  29  46  67  86 102 124 157 194 228
#     4   9  16  27  44  63  81 102 129 158 188 227
#
# _framework density 20.642572999999999
#
# number of rings (size 3 to 8) (size 9 to 14) (size 15 to 20)
#    0.000    3.667    0.000    3.000    0.000    4.000 
#    0.000    0.556    0.000    4.667    0.000    4.667 
#    0.000    0.000    0.000    0.000    0.000    1.111 
#
# Total GULP energy -200493.302344 kJ/mol
# GULP energy per Si atom -5569.258398 kJ/mol
# Density = 2.059559 g / cm^3
# Si number density = 20.642573 Si / 1000 Ang^3
#
#
#
# Elastic Constant Matrix: (Units=GPa)
#
#
# Indices 1 2 3 4 5 6 
#
# 1 280.9887 3.7395 98.1284 0.0000 0.0000 0.0000
# 2 3.7395 63.0565 4.3895 0.0000 0.0000 0.0000
# 3 98.1284 4.3895 76.2319 0.0000 0.0000 0.0000
# 4 0.0000 0.0000 0.0000 -11.8259 0.0000 0.0000
# 5 0.0000 0.0000 0.0000 0.0000 4.4632 0.0000
# 6 0.0000 0.0000 0.0000 0.0000 0.0000 -41.3792
#
#
#
# Elastic Compliance Matrix: (Units=1/GPa)
#
#
# Indices 1 2 3 4 5 6 
#
# 1 0.006468 0.000197 -0.008337 0.000000 0.000000 0.000000
# 2 0.000197 0.015929 -0.001170 0.000000 0.000000 0.000000
# 3 -0.008337 -0.001170 0.023917 0.000000 0.000000 0.000000
# 4 0.000000 0.000000 0.000000 -0.084560 0.000000 0.000000
# 5 0.000000 0.000000 0.000000 0.000000 0.224053 0.000000
# 6 0.000000 0.000000 0.000000 0.000000 0.000000 -0.024167
#
#
# Mechanical properties :
#
#
# Convention : Reuss Voigt Hill
#
# Bulk Modulus (GPa) = 36.11149 70.31021 53.21085
# Shear Modulus (GPa) = 26.38654 11.18625 18.78640
#
# Velocity S-wave (km/s) = 3.57915 2.33040 3.02003
# Velocity P-wave (km/s) = 5.88321 6.43240 6.16392
#
# Compressibility (1/GPa) = 0.02769202
#
# Stress axis : x y z
#
# Youngs Moduli (GPa) = 154.61611 62.78010 41.81203
#
# Poissons Ratio (x) = -0.01235 0.34857
# Poissons Ratio (y) = -0.03042 0.04894
# Poissons Ratio (z) = 1.28899 0.07348
#
# Static dielectric constant tensor:
#      x y z
#    x 1.784000 0.000000 0.000000 
#    y 0.000000 1.769470 0.000000 
#    z 0.000000 0.000000 1.679530 
# 
# From -- ./inp_files/12254.got.cif
#   From: 2010.05.17/outbox.cif.g08.bks.cpg/sg47_7_cif.got.tgz:12254.got - 2010.06.03 20:15:42.
