data_PCOD9388994
_publ_section_title
;
Structure prediction by ZEFSAII (Michael W. Deem and Ramdas Pophale) SiO2 
 PCOD9388994
Probable space group: P M M M
;
_chemical_formula_sum "Si O2"
_cell_formula_units_Z 52
_cell_length_a 7.519149
_cell_length_b 35.393597
_cell_length_c 9.669605
_cell_angle_alpha 90.000000
_cell_angle_beta 90.000000
_cell_angle_gamma 90.000000
_cell_volume 2573.369363
_symmetry_space_group_name_H-M "P M M M"
_symmetry_group_IT_number 47
_symmetry_cell_setting 'orthorhombic'
loop_
_space_group_symop_operation_xyz
x,y,z
-x,-y,z
x,-y,-z
-x,y,-z
-x,-y,-z
x,y,-z
-x,y,z
x,-y,z
loop_
_atom_site_type_symbol
_atom_site_label
_atom_site_fract_x
_atom_site_fract_y
_atom_site_fract_z
Si Si1 0.281948 0.613266 0.841151
Si Si2 0.786424 0.765787 0.660163
Si Si3 0.283281 0.542698 0.341291
Si Si4 0.710967 0.000000 0.842599
Si Si5 0.710756 0.683084 0.342195
Si Si6 0.211391 0.917727 0.842597
Si Si7 0.217444 0.848202 0.660998
O O1 0.500000 0.613445 0.841259
O O2 0.224985 0.575273 0.762309
O O3 0.220711 0.649767 0.754696
O O4 0.225074 0.614273 0.000000
O O5 0.725055 0.764983 0.500000
O O6 0.734635 0.725182 0.719041
O O7 0.727436 0.806632 0.715746
O O8 0.000000 0.766479 0.659696
O O9 0.229991 0.550671 0.500000
O O10 0.500000 0.542756 0.340208
O O11 0.226999 0.500000 0.305652
O O12 0.762314 0.040370 0.780482
O O13 0.500000 0.000000 0.851148
O O14 0.786898 0.000000 0.000000
O O15 0.783825 0.682019 0.500000
O O16 0.500000 0.677023 0.353938
O O17 0.281598 0.883395 0.750900
O O18 0.000000 0.912288 0.852504
O O19 0.283650 0.917545 0.000000
O O20 0.269605 0.851525 0.500000
O O21 0.000000 0.848759 0.662097
#
# Coordination Sequence:
#
# PCOD9388994 Si02
#       7
#     8   8   8   4   8   8   8
#     4   9  16  24  34  50  75 106 135 164 202 246
#     4   8  14  26  44  63  82 106 136 168 202 241
#     4   8  13  21  33  49  70  98 133 171 207 242
#     4   9  17  29  44  61  84 114 142 167 200 242
#     4   9  16  26  41  59  78 103 136 169 198 233
#     4   9  16  27  45  66  83 102 135 174 203 232
#     4   8  14  26  44  64  85 108 133 164 205 248
#
# _framework density 20.206970999999999
#
# number of rings (size 3 to 8) (size 9 to 14) (size 15 to 20)
#    0.000    3.462    0.000    2.077    0.000    3.077 
#    0.000    3.462    0.000    5.077    0.000    0.000 
#    0.000    0.615    0.000    7.077    0.000    9.077 
#
# Total GULP energy -289662.402050 kJ/mol
# GULP energy per Si atom -5570.430809 kJ/mol
# Density = 2.016098 g / cm^3
# Si number density = 20.206971 Si / 1000 Ang^3
#
#
#
# Elastic Constant Matrix: (Units=GPa)
#
#
# Indices 1 2 3 4 5 6 
#
# 1 50.0188 2.5336 4.8174 0.0000 0.0000 0.0000
# 2 2.5336 239.9536 109.4821 0.0000 0.0000 0.0000
# 3 4.8174 109.4821 86.0557 0.0000 0.0000 0.0000
# 4 0.0000 0.0000 0.0000 -287.5424 0.0000 0.0000
# 5 0.0000 0.0000 0.0000 0.0000 -2.6840 0.0000
# 6 0.0000 0.0000 0.0000 0.0000 0.0000 11.5793
#
#
#
# Elastic Compliance Matrix: (Units=1/GPa)
#
#
# Indices 1 2 3 4 5 6 
#
# 1 0.020153 0.000720 -0.002044 0.000000 0.000000 0.000000
# 2 0.000720 0.009959 -0.012711 0.000000 0.000000 0.000000
# 3 -0.002044 -0.012711 0.027906 0.000000 0.000000 0.000000
# 4 0.000000 0.000000 0.000000 -0.003478 0.000000 0.000000
# 5 0.000000 0.000000 0.000000 0.000000 -0.372583 0.000000
# 6 0.000000 0.000000 0.000000 0.000000 0.000000 0.086361
#
#
# Mechanical properties :
#
#
# Convention : Reuss Voigt Hill
#
# Bulk Modulus (GPa) = 33.39094 67.74381 50.56738
# Shear Modulus (GPa) = -25.82257 -38.44974 -32.13615
#
# Velocity S-wave (km/s) = -3.57866 -4.36684 -3.99225
# Velocity P-wave (km/s) = 0.71789 2.85868 1.95662
#
# Compressibility (1/GPa) = 0.02994824
#
# Stress axis : x y z
#
# Youngs Moduli (GPa) = 49.62072 100.40803 35.83482
#
# Poissons Ratio (x) = -0.07227 0.07324
# Poissons Ratio (y) = -0.03571 0.45549
# Poissons Ratio (z) = 0.10141 1.27627
#
# Static dielectric constant tensor:
#      x y z
#    x 1.793450 0.000000 0.000000 
#    y 0.000000 1.743250 0.000000 
#    z 0.000000 0.000000 1.689510 
# 
# From -- ./inp_files/15662.got.cif
#   From: 2010.05.17/outbox.cif.g08.bks.cpg/sg47_8_cif.got.tgz:15662.got - 2010.06.03 20:15:42.
