data_PCOD9388428
_publ_section_title
;
Structure prediction by ZEFSAII (Michael W. Deem and Ramdas Pophale) SiO2 
 PCOD9388428
Probable space group: P M M M
;
_chemical_formula_sum "Si O2"
_cell_formula_units_Z 64
_cell_length_a 8.082835
_cell_length_b 18.787211
_cell_length_c 21.842454
_cell_angle_alpha 90.000000
_cell_angle_beta 90.000000
_cell_angle_gamma 90.000000
_cell_volume 3316.862407
_symmetry_space_group_name_H-M "P M M M"
_symmetry_group_IT_number 47
_symmetry_cell_setting 'orthorhombic'
loop_
_space_group_symop_operation_xyz
x,y,z
-x,-y,z
x,-y,-z
-x,y,-z
-x,-y,-z
x,y,-z
-x,y,z
x,-y,z
loop_
_atom_site_type_symbol
_atom_site_label
_atom_site_fract_x
_atom_site_fract_y
_atom_site_fract_z
Si Si1 0.701768 0.582663 0.431777
Si Si2 0.198143 0.418960 0.802593
Si Si3 0.804476 0.413576 0.065555
Si Si4 0.299276 0.916947 0.800056
Si Si5 0.692519 0.666152 0.314429
Si Si6 0.697923 0.914057 0.065978
Si Si7 0.299887 0.917182 0.430719
Si Si8 0.192242 0.175451 0.315828
O O1 0.757946 0.603738 0.500000
O O2 0.500000 0.585865 0.432792
O O3 0.746035 0.500000 0.421551
O O4 0.763039 0.631171 0.376459
O O5 0.259304 0.500000 0.791247
O O6 0.264707 0.391452 0.868405
O O7 0.232548 0.368318 0.746128
O O8 0.000000 0.423794 0.809520
O O9 0.796020 0.500000 0.066662
O O10 0.000000 0.395201 0.064101
O O11 0.731800 0.389929 0.000000
O O12 0.500000 0.915335 0.800334
O O13 0.240242 0.890177 0.867263
O O14 0.237890 0.871273 0.743359
O O15 0.250676 0.000000 0.792950
O O16 0.500000 0.647336 0.312668
O O17 0.711459 0.750511 0.315763
O O18 0.500000 0.900771 0.065252
O O19 0.717313 0.000000 0.066554
O O20 0.765347 0.888323 0.000000
O O21 0.250216 0.896447 0.500000
O O22 0.500000 0.913833 0.428059
O O23 0.230106 0.868954 0.377058
O O24 0.253094 0.000000 0.421628
O O25 0.000000 0.193140 0.313498
#
# Coordination Sequence:
#
# PCOD9388428 Si02
#       8
#     8   8   8   8   8   8   8   8
#     4   8  15  30  53  79 101 120 150 195 242 287
#     4   9  17  30  50  76 105 134 164 205 257 308
#     4   7  10  19  39  68  98 127 161 199 241 296
#     4   9  17  31  53  78 103 133 169 208 251 304
#     4  11  22  35  52  73  99 134 175 214 251 297
#     4   7  10  19  40  72 103 126 154 198 250 300
#     4   9  19  38  63  86 106 131 166 207 250 301
#     4  12  25  37  50  72 105 141 175 214 258 301
#
# _framework density 19.295344
#
# number of rings (size 3 to 8) (size 9 to 14) (size 15 to 20)
#    0.000    3.000    0.000    5.250    0.000    3.500 
#    0.000    1.875    0.000    2.625    0.000    7.875 
#    0.000    0.000    0.000    0.000    0.000    0.000 
#
# Total GULP energy -356509.655987 kJ/mol
# GULP energy per Si atom -5570.463375 kJ/mol
# Density = 1.925143 g / cm^3
# Si number density = 19.295344 Si / 1000 Ang^3
#
#
#
# Elastic Constant Matrix: (Units=GPa)
#
#
# Indices 1 2 3 4 5 6 
#
# 1 11.7419 -6.9076 3.6463 0.0000 0.0000 0.0000
# 2 -6.9076 38.7058 59.1729 0.0000 0.0000 0.0000
# 3 3.6463 59.1729 196.1489 0.0000 0.0000 0.0000
# 4 0.0000 0.0000 0.0000 -9.9102 0.0000 0.0000
# 5 0.0000 0.0000 0.0000 0.0000 0.1285 0.0000
# 6 0.0000 0.0000 0.0000 0.0000 0.0000 12.4973
#
#
#
# Elastic Compliance Matrix: (Units=1/GPa)
#
#
# Indices 1 2 3 4 5 6 
#
# 1 0.116286 0.044650 -0.015631 0.000000 0.000000 0.000000
# 2 0.044650 0.065094 -0.020467 0.000000 0.000000 0.000000
# 3 -0.015631 -0.020467 0.011563 0.000000 0.000000 0.000000
# 4 0.000000 0.000000 0.000000 -0.100907 0.000000 0.000000
# 5 0.000000 0.000000 0.000000 0.000000 7.783846 0.000000
# 6 0.000000 0.000000 0.000000 0.000000 0.000000 0.080018
#
#
# Mechanical properties :
#
#
# Convention : Reuss Voigt Hill
#
# Bulk Modulus (GPa) = 4.76084 39.82443 22.29264
# Shear Modulus (GPa) = 0.62431 13.25545 6.93988
#
# Velocity S-wave (km/s) = 0.56944 2.62387 1.89854
# Velocity P-wave (km/s) = 1.70442 5.46478 4.04777
#
# Compressibility (1/GPa) = 0.21004675
#
# Stress axis : x y z
#
# Youngs Moduli (GPa) = 8.59946 15.36230 86.48139
#
# Poissons Ratio (x) = -0.68593 1.35183
# Poissons Ratio (y) = -0.38397 1.77004
# Poissons Ratio (z) = 0.13442 0.31442
#
# Static dielectric constant tensor:
#      x y z
#    x 1.701510 0.000000 0.000000 
#    y 0.000000 1.624410 0.000000 
#    z 0.000000 0.000000 1.730270 
# 
# From -- ./inp_files/30000.got.cif
#   From: 2010.05.17/outbox.cif.g08.bks.cpg/sg47_15_cif.got.tgz:30000.got - 2010.06.03 20:15:42.
