data_PCOD9388235
_publ_section_title
;
Structure prediction by ZEFSAII (Michael W. Deem and Ramdas Pophale) SiO2 
 PCOD9388235
Probable space group: P M M M
;
_chemical_formula_sum "Si O2"
_cell_formula_units_Z 52
_cell_length_a 9.258045
_cell_length_b 14.295780
_cell_length_c 27.674257
_cell_angle_alpha 90.000000
_cell_angle_beta 90.000000
_cell_angle_gamma 90.000000
_cell_volume 3662.714884
_symmetry_space_group_name_H-M "P M M M"
_symmetry_group_IT_number 47
_symmetry_cell_setting 'orthorhombic'
loop_
_space_group_symop_operation_xyz
x,y,z
-x,-y,z
x,-y,-z
-x,y,-z
-x,-y,-z
x,y,-z
-x,y,z
x,-y,z
loop_
_atom_site_type_symbol
_atom_site_label
_atom_site_fract_x
_atom_site_fract_y
_atom_site_fract_z
Si Si1 0.325768 0.390644 0.207074
Si Si2 0.834593 0.613244 0.692974
Si Si3 0.667007 0.385912 0.597009
Si Si4 0.669516 0.258770 0.118129
Si Si5 0.158500 0.607563 0.942339
Si Si6 0.826844 0.889574 0.944988
Si Si7 0.833142 0.386064 0.500000
O O1 0.500000 0.388505 0.211951
O O2 0.288201 0.500000 0.194559
O O3 0.250310 0.366720 0.257707
O O4 0.284408 0.313419 0.166998
O O5 0.839409 0.500000 0.689878
O O6 0.749641 0.645515 0.645296
O O7 0.000000 0.646673 0.694032
O O8 0.500000 0.356633 0.596761
O O9 0.667491 0.500000 0.597293
O O10 0.750092 0.356602 0.548484
O O11 0.500000 0.239568 0.121330
O O12 0.709309 0.335342 0.077878
O O13 0.752522 0.168424 0.097742
O O14 0.167254 0.500000 0.927104
O O15 0.000000 0.644703 0.926194
O O16 0.158393 0.610182 0.000000
O O17 0.000000 0.878570 0.942346
O O18 0.794674 0.000000 0.941308
O O19 0.783930 0.858922 0.000000
O O20 0.833152 0.500000 0.500000
O O21 0.000000 0.356276 0.500000
#
# Coordination Sequence:
#
# PCOD9388235 Si02
#       7
#     8   8   8   8   8   8   4
#     4   9  18  31  42  54  78 109 135 159 192 235
#     4   9  16  25  37  52  68  90 125 165 199 230
#     4   9  15  22  32  45  63  89 119 153 199 248
#     4  11  21  30  44  66  87 105 127 160 200 237
#     4   9  18  31  44  58  79 108 137 160 185 224
#     4   9  19  36  54  68  83 105 131 158 192 238
#     4   9  15  21  29  43  63  85 115 159 202 237
#
# _framework density 14.197118
#
# number of rings (size 3 to 8) (size 9 to 14) (size 15 to 20)
#    0.000    2.692    0.000    3.462    0.000    9.538 
#    0.000    3.077    0.000    0.000    0.000    0.000 
#    0.000    0.000    0.000    0.000    0.000    0.000 
#
# Total GULP energy -289488.203886 kJ/mol
# GULP energy per Si atom -5567.080844 kJ/mol
# Density = 1.416481 g / cm^3
# Si number density = 14.197118 Si / 1000 Ang^3
#
#
#
# Elastic Constant Matrix: (Units=GPa)
#
#
# Indices 1 2 3 4 5 6 
#
# 1 64.8905 22.4628 59.3245 0.0000 0.0000 0.0000
# 2 22.4628 42.4008 37.1638 0.0000 0.0000 0.0000
# 3 59.3245 37.1638 118.1725 0.0000 0.0000 0.0000
# 4 0.0000 0.0000 0.0000 1290.1268 0.0000 0.0000
# 5 0.0000 0.0000 0.0000 0.0000 -26.6200 0.0000
# 6 0.0000 0.0000 0.0000 0.0000 0.0000 -17.0118
#
#
#
# Elastic Compliance Matrix: (Units=1/GPa)
#
#
# Indices 1 2 3 4 5 6 
#
# 1 0.028871 -0.003578 -0.013369 0.000000 0.000000 0.000000
# 2 -0.003578 0.033003 -0.008583 0.000000 0.000000 0.000000
# 3 -0.013369 -0.008583 0.017873 0.000000 0.000000 0.000000
# 4 0.000000 0.000000 0.000000 0.000775 0.000000 0.000000
# 5 0.000000 0.000000 0.000000 0.000000 -0.037566 0.000000
# 6 0.000000 0.000000 0.000000 0.000000 0.000000 -0.058783
#
#
# Mechanical properties :
#
#
# Convention : Reuss Voigt Hill
#
# Bulk Modulus (GPa) = 34.85779 51.48512 43.17145
# Shear Modulus (GPa) = 111.62367 256.39986 184.01176
#
# Velocity S-wave (km/s) = 8.87665 13.45333 11.39708
# Velocity P-wave (km/s) = 11.38709 16.66331 14.27115
#
# Compressibility (1/GPa) = 0.02868799
#
# Stress axis : x y z
#
# Youngs Moduli (GPa) = 34.63701 30.30070 55.95155
#
# Poissons Ratio (x) = 0.10841 0.74799
# Poissons Ratio (y) = 0.12392 0.48022
# Poissons Ratio (z) = 0.46305 0.26007
#
# Static dielectric constant tensor:
#      x y z
#    x 1.488180 0.000000 0.000000 
#    y 0.000000 1.455290 0.000000 
#    z 0.000000 0.000000 1.472020 
# 
# From -- ./inp_files/8013.got.cif
#   From: 2010.05.17/outbox.cif.g08.bks.cpg/sg47_5_cif.got.tgz:8013.got - 2010.06.03 20:15:42.
