data_PCOD9388558
_publ_section_title
;
Structure prediction by ZEFSAII (Michael W. Deem and Ramdas Pophale) SiO2 
 PCOD9388558
Probable space group: P M M M
;
_chemical_formula_sum "Si O2"
_cell_formula_units_Z 32
_cell_length_a 13.586212
_cell_length_b 14.357002
_cell_length_c 8.502038
_cell_angle_alpha 90.000000
_cell_angle_beta 90.000000
_cell_angle_gamma 90.000000
_cell_volume 1658.384346
_symmetry_space_group_name_H-M "P M M M"
_symmetry_group_IT_number 47
_symmetry_cell_setting 'orthorhombic'
loop_
_space_group_symop_operation_xyz
x,y,z
-x,-y,z
x,-y,-z
-x,y,-z
-x,-y,-z
x,y,-z
-x,y,z
x,-y,z
loop_
_atom_site_type_symbol
_atom_site_label
_atom_site_fract_x
_atom_site_fract_y
_atom_site_fract_z
Si Si1 0.392148 0.611949 0.000000
Si Si2 0.190822 0.799213 0.680637
Si Si3 0.000000 0.103997 0.185870
Si Si4 0.724845 0.609002 0.320585
Si Si5 0.389656 0.110816 0.811060
O O1 0.341154 0.632001 0.167327
O O2 0.399508 0.500000 0.000000
O O3 0.500000 0.655175 0.000000
O O4 0.182468 0.826872 0.500000
O O5 0.191095 0.686848 0.689421
O O6 0.296672 0.835743 0.740482
O O7 0.099114 0.843088 0.768135
O O8 0.000000 0.000000 0.256265
O O9 0.000000 0.095908 0.000000
O O10 0.681630 0.619677 0.500000
O O11 0.753248 0.500000 0.307472
O O12 0.500000 0.139526 0.757314
O O13 0.379825 0.000000 0.778202
O O14 0.386414 0.121871 0.000000
#
# Coordination Sequence:
#
# PCOD9388558 Si02
#       5
#     4   8   4   8   8
#     4   9  18  32  54  83 113 156 208 251 298 350
#     4  11  23  38  60  88 117 154 197 245 301 355
#     4  11  25  43  64  89 118 154 194 242 304 366
#     4   9  20  38  57  82 120 160 199 248 301 358
#     4   9  19  36  57  82 115 155 195 238 293 356
#
# _framework density 19.295888999999999
#
# number of rings (size 3 to 8) (size 9 to 14) (size 15 to 20)
#    0.000    2.250    0.000    2.625    3.500    6.500 
#    0.000    6.875    0.000    3.750    0.000    0.000 
#    0.000    0.000    0.000    0.000    0.000    0.000 
#
# Total GULP energy -178314.419670 kJ/mol
# GULP energy per Si atom -5572.325615 kJ/mol
# Density = 1.925197 g / cm^3
# Si number density = 19.295889 Si / 1000 Ang^3
#
#
#
# Elastic Constant Matrix: (Units=GPa)
#
#
# Indices 1 2 3 4 5 6 
#
# 1 123.1877 65.2538 55.3979 0.0000 0.0000 0.0000
# 2 65.2538 92.9108 54.8908 0.0000 0.0000 0.0000
# 3 55.3979 54.8908 107.3635 0.0000 0.0000 0.0000
# 4 0.0000 0.0000 0.0000 23.5983 0.0000 0.0000
# 5 0.0000 0.0000 0.0000 0.0000 -10.9500 0.0000
# 6 0.0000 0.0000 0.0000 0.0000 0.0000 4.3098
#
#
#
# Elastic Compliance Matrix: (Units=1/GPa)
#
#
# Indices 1 2 3 4 5 6 
#
# 1 0.013592 -0.007741 -0.003056 0.000000 0.000000 0.000000
# 2 -0.007741 0.019829 -0.006144 0.000000 0.000000 0.000000
# 3 -0.003056 -0.006144 0.014032 0.000000 0.000000 0.000000
# 4 0.000000 0.000000 0.000000 0.042376 0.000000 0.000000
# 5 0.000000 0.000000 0.000000 0.000000 -0.091324 0.000000
# 6 0.000000 0.000000 0.000000 0.000000 0.000000 0.232030
#
#
# Mechanical properties :
#
#
# Convention : Reuss Voigt Hill
#
# Bulk Modulus (GPa) = 73.67759 74.94968 74.31364
# Shear Modulus (GPa) = 18.59146 13.25293 15.92220
#
# Velocity S-wave (km/s) = 3.10739 2.62358 2.87568
# Velocity P-wave (km/s) = 7.15125 6.93572 7.04431
#
# Compressibility (1/GPa) = 0.01357265
#
# Stress axis : x y z
#
# Youngs Moduli (GPa) = 73.57073 50.43021 71.26578
#
# Poissons Ratio (x) = 0.39038 0.21777
# Poissons Ratio (y) = 0.56951 0.43784
# Poissons Ratio (z) = 0.22482 0.30983
#
# Static dielectric constant tensor:
#      x y z
#    x 1.713940 0.000000 0.000000 
#    y 0.000000 1.703170 0.000000 
#    z 0.000000 0.000000 1.704440 
# 
# From -- ./inp_files/3415.got.cif
#   From: 2010.05.17/outbox.cif.g08.bks.cpg/sg47_2_cif.got.tgz:3415.got - 2010.06.03 20:15:42.
