data_PCOD9388087
_publ_section_title
;
Structure prediction by ZEFSAII (Michael W. Deem and Ramdas Pophale) SiO2 
 PCOD9388087
Probable space group: P M M M
;
_chemical_formula_sum "Si O2"
_cell_formula_units_Z 48
_cell_length_a 15.912388
_cell_length_b 18.386927
_cell_length_c 8.434849
_cell_angle_alpha 90.000000
_cell_angle_beta 90.000000
_cell_angle_gamma 90.000000
_cell_volume 2467.867417
_symmetry_space_group_name_H-M "P M M M"
_symmetry_group_IT_number 47
_symmetry_cell_setting 'orthorhombic'
loop_
_space_group_symop_operation_xyz
x,y,z
-x,-y,z
x,-y,-z
-x,y,-z
-x,-y,-z
x,y,-z
-x,y,z
x,-y,z
loop_
_atom_site_type_symbol
_atom_site_label
_atom_site_fract_x
_atom_site_fract_y
_atom_site_fract_z
Si Si1 0.167642 0.416114 0.693591
Si Si2 0.335741 0.332300 0.690310
Si Si3 0.500000 0.584031 0.809829
Si Si4 0.833187 0.915988 0.808273
Si Si5 0.335317 0.167289 0.809793
Si Si6 0.000000 0.668108 0.306367
Si Si7 0.500000 0.083951 0.690124
Si Si8 0.000000 0.835925 0.690100
O O1 0.167308 0.416420 0.500000
O O2 0.167821 0.500000 0.745205
O O3 0.251414 0.373921 0.744235
O O4 0.083840 0.373988 0.744963
O O5 0.336216 0.331458 0.500000
O O6 0.417466 0.374952 0.749128
O O7 0.336224 0.249906 0.750670
O O8 0.500000 0.500000 0.756295
O O9 0.500000 0.585305 0.000000
O O10 0.749639 0.873376 0.755476
O O11 0.916843 0.876588 0.749123
O O12 0.830982 0.000000 0.755930
O O13 0.834156 0.915575 0.000000
O O14 0.417122 0.124860 0.749960
O O15 0.336306 0.167113 0.000000
O O16 0.000000 0.751940 0.255066
O O17 0.000000 0.667911 0.500000
O O18 0.500000 0.084966 0.500000
O O19 0.500000 0.000000 0.744363
O O20 0.000000 0.835976 0.500000
#
# Coordination Sequence:
#
# PCOD9388087 Si02
#       8
#     8   8   4   8   8   4   4   4
#     4   9  17  30  51  79 110 146 185 225 274 332
#     4  11  22  37  58  85 118 151 188 237 290 345
#     4  11  24  41  60  83 113 151 196 243 290 343
#     4  10  22  40  60  82 111 150 194 238 285 341
#     4  11  23  40  62  86 115 153 196 238 284 344
#     4   9  17  30  49  77 114 147 178 222 274 331
#     4  11  24  41  62  89 119 149 184 233 292 347
#     4  11  22  35  55  85 118 151 188 236 294 347
#
# _framework density 19.449992000000002
#
# number of rings (size 3 to 8) (size 9 to 14) (size 15 to 20)
#    0.000    1.667    0.000    4.750    0.000    7.667 
#    0.000    0.000    0.000    0.000    0.000    0.000 
#    0.000   12.000    0.000    0.000    0.000    0.000 
#
# Total GULP energy -268387.939685 kJ/mol
# GULP energy per Si atom -5591.415410 kJ/mol
# Density = 1.940572 g / cm^3
# Si number density = 19.449992 Si / 1000 Ang^3
#
#
#
# Elastic Constant Matrix: (Units=GPa)
#
#
# Indices 1 2 3 4 5 6 
#
# 1 245.8833 151.8555 34.2376 0.0000 0.0000 0.0000
# 2 151.8555 247.4344 35.8861 0.0000 0.0000 0.0000
# 3 34.2376 35.8861 29.7743 0.0000 0.0000 0.0000
# 4 0.0000 0.0000 0.0000 13.9030 0.0000 0.0000
# 5 0.0000 0.0000 0.0000 0.0000 -34.0810 0.0000
# 6 0.0000 0.0000 0.0000 0.0000 0.0000 47.3941
#
#
#
# Elastic Compliance Matrix: (Units=1/GPa)
#
#
# Indices 1 2 3 4 5 6 
#
# 1 0.006821 -0.003694 -0.003391 0.000000 0.000000 0.000000
# 2 -0.003694 0.006898 -0.004067 0.000000 0.000000 0.000000
# 3 -0.003391 -0.004067 0.042386 0.000000 0.000000 0.000000
# 4 0.000000 0.000000 0.000000 0.071927 0.000000 0.000000
# 5 0.000000 0.000000 0.000000 0.000000 -0.029342 0.000000
# 6 0.000000 0.000000 0.000000 0.000000 0.000000 0.021100
#
#
# Mechanical properties :
#
#
# Convention : Reuss Voigt Hill
#
# Bulk Modulus (GPa) = 29.58350 107.45003 68.51676
# Shear Modulus (GPa) = 32.60301 25.51740 29.06020
#
# Velocity S-wave (km/s) = 4.09864 3.62601 3.86955
# Velocity P-wave (km/s) = 6.13527 8.53785 7.43426
#
# Compressibility (1/GPa) = 0.03380263
#
# Stress axis : x y z
#
# Youngs Moduli (GPa) = 146.61511 144.95996 23.59264
#
# Poissons Ratio (x) = 0.53551 0.07999
# Poissons Ratio (y) = 0.54162 0.09594
# Poissons Ratio (z) = 0.49710 0.58949
#
# Static dielectric constant tensor:
#      x y z
#    x 1.639170 0.000000 0.000000 
#    y 0.000000 1.650530 0.000000 
#    z 0.000000 0.000000 1.669700 
# 
# From -- ./inp_files/6572.got.cif
#   From: 2010.05.17/outbox.cif.g08.bks.cpg/sg47_4_cif.got.tgz:6572.got - 2010.06.03 20:15:42.
