data_PCOD9388527
_publ_section_title
;
Structure prediction by ZEFSAII (Michael W. Deem and Ramdas Pophale) SiO2 
 PCOD9388527
Probable space group: P M M M
;
_chemical_formula_sum "Si O2"
_cell_formula_units_Z 48
_cell_length_a 14.808666
_cell_length_b 8.990199
_cell_length_c 19.180592
_cell_angle_alpha 90.000000
_cell_angle_beta 90.000000
_cell_angle_gamma 90.000000
_cell_volume 2553.566959
_symmetry_space_group_name_H-M "P M M M"
_symmetry_group_IT_number 47
_symmetry_cell_setting 'orthorhombic'
loop_
_space_group_symop_operation_xyz
x,y,z
-x,-y,z
x,-y,-z
-x,y,-z
-x,-y,-z
x,y,-z
-x,y,z
x,-y,z
loop_
_atom_site_type_symbol
_atom_site_label
_atom_site_fract_x
_atom_site_fract_y
_atom_site_fract_z
Si Si1 0.355542 0.672962 0.921646
Si Si2 0.862589 0.332679 0.079265
Si Si3 0.603485 0.823653 0.225860
Si Si4 0.103270 0.822391 0.417251
Si Si5 0.898062 0.166796 0.789369
Si Si6 0.765383 0.325485 0.307576
O O1 0.383779 0.500000 0.915298
O O2 0.246430 0.674418 0.920274
O O3 0.385831 0.761179 0.853146
O O4 0.383046 0.725114 0.000000
O O5 0.888562 0.500000 0.102289
O O6 0.898016 0.206692 0.129733
O O7 0.892060 0.314388 0.000000
O O8 0.500000 0.797384 0.247351
O O9 0.673220 0.748014 0.279455
O O10 0.620637 0.000000 0.224279
O O11 0.114952 0.799035 0.500000
O O12 0.182736 0.745747 0.373605
O O13 0.000000 0.772453 0.399917
O O14 0.106503 0.000000 0.404141
O O15 0.835816 0.288663 0.754040
O O16 0.000000 0.172970 0.762584
O O17 0.862739 0.000000 0.776802
O O18 0.752803 0.500000 0.317337
#
# Coordination Sequence:
#
# PCOD9388527 Si02
#       6
#     8   8   8   8   8   8
#     4   9  18  34  56  81 109 143 185 237 300 361
#     4   9  18  33  52  74 102 139 183 231 286 345
#     4  11  24  40  59  84 113 148 194 245 296 351
#     4   9  19  38  65  96 129 163 195 227 269 326
#     4  11  23  36  52  77 109 146 189 234 281 337
#     4  12  24  38  59  86 118 154 190 233 284 336
#
# _framework density 18.797236000000002
#
# number of rings (size 3 to 8) (size 9 to 14) (size 15 to 20)
#    0.000    1.833    1.667    4.500    0.000    6.667 
#    0.000    5.833    0.000    0.500    0.000    3.500 
#    0.000    0.000    0.000    0.000    0.000    0.000 
#
# Total GULP energy -267934.043553 kJ/mol
# GULP energy per Si atom -5581.959241 kJ/mol
# Density = 1.875445 g / cm^3
# Si number density = 18.797236 Si / 1000 Ang^3
#
#
#
# Elastic Constant Matrix: (Units=GPa)
#
#
# Indices 1 2 3 4 5 6 
#
# 1 123.5888 58.5677 53.5241 0.0000 0.0000 0.0000
# 2 58.5677 87.5756 59.8197 0.0000 0.0000 0.0000
# 3 53.5241 59.8197 111.0318 0.0000 0.0000 0.0000
# 4 0.0000 0.0000 0.0000 33.0872 0.0000 0.0000
# 5 0.0000 0.0000 0.0000 0.0000 24.0804 0.0000
# 6 0.0000 0.0000 0.0000 0.0000 0.0000 37.4762
#
#
#
# Elastic Compliance Matrix: (Units=1/GPa)
#
#
# Indices 1 2 3 4 5 6 
#
# 1 0.012223 -0.006566 -0.002355 0.000000 0.000000 0.000000
# 2 -0.006566 0.021595 -0.008469 0.000000 0.000000 0.000000
# 3 -0.002355 -0.008469 0.014705 0.000000 0.000000 0.000000
# 4 0.000000 0.000000 0.000000 0.030223 0.000000 0.000000
# 5 0.000000 0.000000 0.000000 0.000000 0.041528 0.000000
# 6 0.000000 0.000000 0.000000 0.000000 0.000000 0.026684
#
#
# Mechanical properties :
#
#
# Convention : Reuss Voigt Hill
#
# Bulk Modulus (GPa) = 72.76771 74.00213 73.38492
# Shear Modulus (GPa) = 26.83611 28.94775 27.89193
#
# Velocity S-wave (km/s) = 3.78254 3.92854 3.85623
# Velocity P-wave (km/s) = 7.60742 7.74803 7.67805
#
# Compressibility (1/GPa) = 0.01374236
#
# Stress axis : x y z
#
# Youngs Moduli (GPa) = 81.81624 46.30771 68.00632
#
# Poissons Ratio (x) = 0.30404 0.16013
# Poissons Ratio (y) = 0.53717 0.57597
# Poissons Ratio (z) = 0.19265 0.39220
#
# Static dielectric constant tensor:
#      x y z
#    x 1.672020 0.000000 0.000000 
#    y 0.000000 1.641230 0.000000 
#    z 0.000000 0.000000 1.671710 
# 
# From -- ./inp_files/24899.got.cif
#   From: 2010.05.17/outbox.cif.g08.bks.cpg/sg47_13_cif.got.tgz:24899.got - 2010.06.03 20:15:42.
