data_PCOD9388284
_publ_section_title
;
Structure prediction by ZEFSAII (Michael W. Deem and Ramdas Pophale) SiO2 
 PCOD9388284
Probable space group: P M M M
;
_chemical_formula_sum "Si O2"
_cell_formula_units_Z 44
_cell_length_a 12.757183
_cell_length_b 9.408705
_cell_length_c 25.323773
_cell_angle_alpha 90.000000
_cell_angle_beta 90.000000
_cell_angle_gamma 90.000000
_cell_volume 3039.576298
_symmetry_space_group_name_H-M "P M M M"
_symmetry_group_IT_number 47
_symmetry_cell_setting 'orthorhombic'
loop_
_space_group_symop_operation_xyz
x,y,z
-x,-y,z
x,-y,-z
-x,y,-z
-x,-y,-z
x,y,-z
-x,y,z
x,-y,z
loop_
_atom_site_type_symbol
_atom_site_label
_atom_site_fract_x
_atom_site_fract_y
_atom_site_fract_z
Si Si1 0.124397 0.332598 0.734784
Si Si2 0.193927 0.669921 0.382742
Si Si3 0.872592 0.665492 0.058769
Si Si4 0.623553 0.165780 0.437221
Si Si5 0.127810 0.836370 0.161425
Si Si6 0.000000 0.168320 0.563423
O O1 0.135057 0.500000 0.746803
O O2 0.181291 0.302179 0.679751
O O3 0.160459 0.242816 0.785071
O O4 0.000000 0.305399 0.726254
O O5 0.183339 0.500000 0.390808
O O6 0.302464 0.729985 0.404973
O O7 0.101361 0.753464 0.412727
O O8 0.843947 0.500000 0.065383
O O9 0.836160 0.757592 0.108246
O O10 0.000000 0.670502 0.058944
O O11 0.839121 0.712935 0.000000
O O12 0.641187 0.185725 0.500000
O O13 0.500000 0.187666 0.427262
O O14 0.648224 0.000000 0.425401
O O15 0.000000 0.831453 0.161055
O O16 0.159551 0.000000 0.161628
O O17 0.000000 0.180515 0.500000
O O18 0.000000 0.000000 0.576642
#
# Coordination Sequence:
#
# PCOD9388284 Si02
#       6
#     8   8   8   8   8   4
#     4   9  17  30  42  54  79 111 139 169 210 257
#     4  11  21  33  49  70  91 113 145 184 222 258
#     4   8  13  21  32  45  63  92 129 166 207 251
#     4   9  19  36  54  70  90 116 144 174 214 267
#     4   9  16  23  33  51  71  95 131 172 210 245
#     4  11  23  35  47  65  91 121 146 171 214 269
#
# _framework density 14.475701000000001
#
# number of rings (size 3 to 8) (size 9 to 14) (size 15 to 20)
#    0.000    2.636    0.909    3.000    0.000    7.636 
#    0.000    2.727    0.000    0.000    0.000    0.000 
#    0.000    0.000    0.000    0.000    0.000    0.909 
#
# Total GULP energy -245158.896630 kJ/mol
# GULP energy per Si atom -5571.793105 kJ/mol
# Density = 1.444275 g / cm^3
# Si number density = 14.475701 Si / 1000 Ang^3
#
#
#
# Elastic Constant Matrix: (Units=GPa)
#
#
# Indices 1 2 3 4 5 6 
#
# 1 31.0467 36.0730 38.1238 0.0000 0.0000 0.0000
# 2 36.0730 97.6292 91.3946 0.0000 0.0000 0.0000
# 3 38.1238 91.3946 128.5938 0.0000 0.0000 0.0000
# 4 0.0000 0.0000 0.0000 -25.8772 0.0000 0.0000
# 5 0.0000 0.0000 0.0000 0.0000 1.3982 0.0000
# 6 0.0000 0.0000 0.0000 0.0000 0.0000 17.6690
#
#
#
# Elastic Compliance Matrix: (Units=1/GPa)
#
#
# Indices 1 2 3 4 5 6 
#
# 1 0.057879 -0.015903 -0.005856 0.000000 0.000000 0.000000
# 2 -0.015903 0.034976 -0.020144 0.000000 0.000000 0.000000
# 3 -0.005856 -0.020144 0.023829 0.000000 0.000000 0.000000
# 4 0.000000 0.000000 0.000000 -0.038644 0.000000 0.000000
# 5 0.000000 0.000000 0.000000 0.000000 0.715191 0.000000
# 6 0.000000 0.000000 0.000000 0.000000 0.000000 0.056596
#
#
# Mechanical properties :
#
#
# Convention : Reuss Voigt Hill
#
# Bulk Modulus (GPa) = 30.41576 65.38361 47.89969
# Shear Modulus (GPa) = 5.29329 4.74990 5.02159
#
# Velocity S-wave (km/s) = 1.91432 1.81340 1.86454
# Velocity P-wave (km/s) = 5.09346 7.04631 6.14792
#
# Compressibility (1/GPa) = 0.03287769
#
# Stress axis : x y z
#
# Youngs Moduli (GPa) = 17.27754 28.59093 41.96551
#
# Poissons Ratio (x) = 0.45469 0.24576
# Poissons Ratio (y) = 0.27477 0.84533
# Poissons Ratio (z) = 0.10118 0.57592
#
# Static dielectric constant tensor:
#      x y z
#    x 1.450300 0.000000 0.000000 
#    y 0.000000 1.482390 0.000000 
#    z 0.000000 0.000000 1.481190 
# 
# From -- ./inp_files/4331.got.cif
#   From: 2010.05.17/outbox.cif.g08.bks.cpg/sg47_3_cif.got.tgz:4331.got - 2010.06.03 20:15:42.
