data_PCOD9388792
_publ_section_title
;
Structure prediction by ZEFSAII (Michael W. Deem and Ramdas Pophale) SiO2 
 PCOD9388792
Probable space group: P M M M
;
_chemical_formula_sum "Si O2"
_cell_formula_units_Z 40
_cell_length_a 7.444709
_cell_length_b 10.144487
_cell_length_c 27.035178
_cell_angle_alpha 90.000000
_cell_angle_beta 90.000000
_cell_angle_gamma 90.000000
_cell_volume 2041.771088
_symmetry_space_group_name_H-M "P M M M"
_symmetry_group_IT_number 47
_symmetry_cell_setting 'orthorhombic'
loop_
_space_group_symop_operation_xyz
x,y,z
-x,-y,z
x,-y,-z
-x,y,-z
-x,-y,-z
x,y,-z
-x,y,z
x,-y,z
loop_
_atom_site_type_symbol
_atom_site_label
_atom_site_fract_x
_atom_site_fract_y
_atom_site_fract_z
Si Si1 0.780899 0.651718 0.359126
Si Si2 0.713392 0.840483 0.946754
Si Si3 0.714648 0.149694 0.160342
Si Si4 0.784864 0.351261 0.751945
Si Si5 0.219069 0.848503 0.555803
O O1 0.729135 0.500000 0.368429
O O2 0.722424 0.686907 0.303297
O O3 0.718532 0.750414 0.401564
O O4 0.000000 0.655217 0.359641
O O5 0.500000 0.811123 0.947884
O O6 0.784307 0.798464 0.893004
O O7 0.730516 0.000000 0.946052
O O8 0.787571 0.794676 0.000000
O O9 0.500000 0.139552 0.154604
O O10 0.745332 0.247000 0.205593
O O11 0.781639 0.000000 0.169282
O O12 0.719096 0.500000 0.762971
O O13 0.000000 0.358905 0.748889
O O14 0.274073 0.811174 0.500000
O O15 0.000000 0.846755 0.556209
O O16 0.272956 0.000000 0.564696
#
# Coordination Sequence:
#
# PCOD9388792 Si02
#       5
#     8   8   8   8   8
#     4   8  14  24  36  50  70  99 136 172 201 234
#     4   7  10  19  37  60  84 107 130 162 207 252
#     4   9  17  28  44  68  91 108 135 176 215 253
#     4   9  18  31  44  59  83 116 150 179 208 247
#     4   8  13  20  30  47  72  99 126 159 201 246
#
# _framework density 19.590835999999999
#
# number of rings (size 3 to 8) (size 9 to 14) (size 15 to 20)
#    0.000    3.800    0.000    3.600    0.000    2.000 
#    0.000    4.000    0.000    1.200    0.000    7.000 
#    0.000    0.800    0.000    8.800    0.000   14.400 
#
# Total GULP energy -222690.653625 kJ/mol
# GULP energy per Si atom -5567.266341 kJ/mol
# Density = 1.954625 g / cm^3
# Si number density = 19.590836 Si / 1000 Ang^3
#
#
#
# Elastic Constant Matrix: (Units=GPa)
#
#
# Indices 1 2 3 4 5 6 
#
# 1 57.0170 3.8559 8.5629 0.0000 0.0000 0.0000
# 2 3.8559 94.6431 133.3045 0.0000 0.0000 0.0000
# 3 8.5629 133.3045 249.9852 0.0000 0.0000 0.0000
# 4 0.0000 0.0000 0.0000 -31.1031 0.0000 0.0000
# 5 0.0000 0.0000 0.0000 0.0000 11.8109 0.0000
# 6 0.0000 0.0000 0.0000 0.0000 0.0000 7.1335
#
#
#
# Elastic Compliance Matrix: (Units=1/GPa)
#
#
# Indices 1 2 3 4 5 6 
#
# 1 0.017636 0.000532 -0.000888 0.000000 0.000000 0.000000
# 2 0.000532 0.042463 -0.022662 0.000000 0.000000 0.000000
# 3 -0.000888 -0.022662 0.016115 0.000000 0.000000 0.000000
# 4 0.000000 0.000000 0.000000 -0.032151 0.000000 0.000000
# 5 0.000000 0.000000 0.000000 0.000000 0.084667 0.000000
# 6 0.000000 0.000000 0.000000 0.000000 0.000000 0.140183
#
#
# Mechanical properties :
#
#
# Convention : Reuss Voigt Hill
#
# Bulk Modulus (GPa) = 33.13567 77.01020 55.07294
# Shear Modulus (GPa) = 15.38419 14.62974 15.00697
#
# Velocity S-wave (km/s) = 2.80532 2.73566 2.77071
# Velocity P-wave (km/s) = 5.23867 7.02660 6.19745
#
# Compressibility (1/GPa) = 0.03017896
#
# Stress axis : x y z
#
# Youngs Moduli (GPa) = 56.70226 23.54972 62.05391
#
# Poissons Ratio (x) = -0.01252 0.05508
# Poissons Ratio (y) = -0.03015 1.40625
# Poissons Ratio (z) = 0.05033 0.53368
#
# Static dielectric constant tensor:
#      x y z
#    x 1.802990 0.000000 0.000000 
#    y 0.000000 1.653720 0.000000 
#    z 0.000000 0.000000 1.723150 
# 
# From -- ./inp_files/1666.got.cif
#   From: 2010.05.17/outbox.cif.g08.bks.cpg/sg47_1_cif.got.tgz:1666.got - 2010.06.03 20:15:42.
