data_PCOD9388237
_publ_section_title
;
Structure prediction by ZEFSAII (Michael W. Deem and Ramdas Pophale) SiO2 
 PCOD9388237
Probable space group: P M M M
;
_chemical_formula_sum "Si O2"
_cell_formula_units_Z 56
_cell_length_a 14.296735
_cell_length_b 7.770077
_cell_length_c 30.416323
_cell_angle_alpha 90.000000
_cell_angle_beta 90.000000
_cell_angle_gamma 90.000000
_cell_volume 3378.849915
_symmetry_space_group_name_H-M "P M M M"
_symmetry_group_IT_number 47
_symmetry_cell_setting 'orthorhombic'
loop_
_space_group_symop_operation_xyz
x,y,z
-x,-y,z
x,-y,-z
-x,y,-z
-x,-y,-z
x,y,-z
-x,y,z
x,-y,z
loop_
_atom_site_type_symbol
_atom_site_label
_atom_site_fract_x
_atom_site_fract_y
_atom_site_fract_z
Si Si1 0.206232 0.198453 0.137822
Si Si2 0.107325 0.707707 0.950714
Si Si3 0.895973 0.700835 0.224098
Si Si4 0.612623 0.293756 0.452730
Si Si5 0.609077 0.710732 0.356727
Si Si6 0.290316 0.289036 0.731447
Si Si7 0.395443 0.292420 0.819476
O O1 0.172945 0.235378 0.088735
O O2 0.143432 0.293691 0.174298
O O3 0.314420 0.240945 0.146753
O O4 0.191392 0.000000 0.147631
O O5 0.106804 0.500000 0.950938
O O6 0.000000 0.764340 0.942598
O O7 0.134116 0.765045 0.000000
O O8 0.903326 0.500000 0.235897
O O9 0.812979 0.772916 0.254668
O O10 0.000000 0.777101 0.226961
O O11 0.647019 0.224653 0.500000
O O12 0.500000 0.271425 0.452380
O O13 0.629134 0.500000 0.453236
O O14 0.643898 0.229559 0.404877
O O15 0.500000 0.760243 0.350962
O O16 0.609856 0.500000 0.357279
O O17 0.670665 0.767317 0.315491
O O18 0.289110 0.500000 0.731336
O O19 0.359437 0.237755 0.771171
O O20 0.500000 0.228989 0.828620
O O21 0.398003 0.500000 0.819083
#
# Coordination Sequence:
#
# PCOD9388237 Si02
#       7
#     8   8   8   8   8   8   8
#     4  11  21  30  44  67  92 114 135 163 200 240
#     4   9  18  33  52  71  90 113 140 169 201 238
#     4   9  17  29  43  57  77 106 137 168 200 237
#     4   7   9  12  17  28  51  84 117 146 182 231
#     4   8  11  14  23  40  62  87 116 155 198 234
#     4   8  13  21  34  53  72  91 124 168 206 234
#     4   9  17  30  47  63  81 109 143 174 201 233
#
# _framework density 16.573687
#
# number of rings (size 3 to 8) (size 9 to 14) (size 15 to 20)
#    0.000    3.286    0.000    4.714    0.000    4.571 
#    0.000    0.714    0.000    0.429    0.000    3.000 
#    0.000    0.571    0.000    8.000    0.000   11.714 
#
# Total GULP energy -311743.343892 kJ/mol
# GULP energy per Si atom -5566.845427 kJ/mol
# Density = 1.653596 g / cm^3
# Si number density = 16.573687 Si / 1000 Ang^3
#
#
#
# Elastic Constant Matrix: (Units=GPa)
#
#
# Indices 1 2 3 4 5 6 
#
# 1 109.0918 3.5030 79.7013 0.0000 0.0000 0.0000
# 2 3.5030 23.1298 1.5216 0.0000 0.0000 0.0000
# 3 79.7013 1.5216 158.7927 0.0000 0.0000 0.0000
# 4 0.0000 0.0000 0.0000 -18.8431 0.0000 0.0000
# 5 0.0000 0.0000 0.0000 0.0000 18.6790 0.0000
# 6 0.0000 0.0000 0.0000 0.0000 0.0000 -13.0026
#
#
#
# Elastic Compliance Matrix: (Units=1/GPa)
#
#
# Indices 1 2 3 4 5 6 
#
# 1 0.014543 -0.001723 -0.007283 0.000000 0.000000 0.000000
# 2 -0.001723 0.043466 0.000448 0.000000 0.000000 0.000000
# 3 -0.007283 0.000448 0.009949 0.000000 0.000000 0.000000
# 4 0.000000 0.000000 0.000000 -0.053070 0.000000 0.000000
# 5 0.000000 0.000000 0.000000 0.000000 0.053536 0.000000
# 6 0.000000 0.000000 0.000000 0.000000 0.000000 -0.076908
#
#
# Mechanical properties :
#
#
# Convention : Reuss Voigt Hill
#
# Bulk Modulus (GPa) = 19.66886 51.16289 35.41588
# Shear Modulus (GPa) = 195.48031 11.11922 103.29976
#
# Velocity S-wave (km/s) = 10.87208 2.59298 7.90335
# Velocity P-wave (km/s) = 13.01907 6.31678 10.23225
#
# Compressibility (1/GPa) = 0.05084179
#
# Stress axis : x y z
#
# Youngs Moduli (GPa) = 68.76350 23.00659 100.51708
#
# Poissons Ratio (x) = 0.03965 0.73204
# Poissons Ratio (y) = 0.11850 -0.04508
# Poissons Ratio (z) = 0.50078 -0.01032
#
# Static dielectric constant tensor:
#      x y z
#    x 1.555520 0.000000 0.000000 
#    y 0.000000 1.602970 0.000000 
#    z 0.000000 0.000000 1.578750 
# 
# From -- ./inp_files/8122.got.cif
#   From: 2010.05.17/outbox.cif.g08.bks.cpg/sg47_5_cif.got.tgz:8122.got - 2010.06.03 20:15:42.
