data_PCOD9388416
_publ_section_title
;
Structure prediction by ZEFSAII (Michael W. Deem and Ramdas Pophale) SiO2 
 PCOD9388416
Probable space group: P M M M
;
_chemical_formula_sum "Si O2"
_cell_formula_units_Z 44
_cell_length_a 8.558575
_cell_length_b 13.951680
_cell_length_c 19.012911
_cell_angle_alpha 90.000000
_cell_angle_beta 90.000000
_cell_angle_gamma 90.000000
_cell_volume 2270.265151
_symmetry_space_group_name_H-M "P M M M"
_symmetry_group_IT_number 47
_symmetry_cell_setting 'orthorhombic'
loop_
_space_group_symop_operation_xyz
x,y,z
-x,-y,z
x,-y,-z
-x,y,-z
-x,-y,-z
x,y,-z
-x,y,z
x,-y,z
loop_
_atom_site_type_symbol
_atom_site_label
_atom_site_fract_x
_atom_site_fract_y
_atom_site_fract_z
Si Si1 0.685998 0.296440 0.152078
Si Si2 0.818329 0.105746 0.084375
Si Si3 0.682973 0.114541 0.578561
Si Si4 0.813248 0.751273 0.306055
Si Si5 0.190035 0.389866 0.423982
Si Si6 0.690702 0.500000 0.917111
O O1 0.500000 0.303087 0.152708
O O2 0.734403 0.202669 0.107630
O O3 0.744600 0.269781 0.229937
O O4 0.742645 0.400003 0.120909
O O5 0.000000 0.112011 0.106968
O O6 0.758223 0.000000 0.108806
O O7 0.815355 0.103349 0.000000
O O8 0.745533 0.141384 0.500000
O O9 0.500000 0.142387 0.581012
O O10 0.766469 0.156916 0.647171
O O11 0.690418 0.000000 0.581569
O O12 0.754078 0.668029 0.357920
O O13 0.000000 0.749272 0.299662
O O14 0.244933 0.354356 0.500000
O O15 0.232974 0.500000 0.418176
O O16 0.000000 0.384492 0.424183
O O17 0.500000 0.500000 0.915705
O O18 0.736439 0.500000 0.000000
#
# Coordination Sequence:
#
# PCOD9388416 Si02
#       6
#     8   8   8   8   8   4
#     4  11  23  38  58  85 117 156 196 237 287 345
#     4   9  19  38  63  89 117 146 179 228 288 346
#     4   9  19  37  59  81 109 149 195 241 289 342
#     4  11  22  34  53  81 113 149 186 231 283 334
#     4   8  15  29  49  73 101 135 175 219 268 321
#     4   9  20  40  63  85 112 149 194 243 291 344
#
# _framework density 19.380996
#
# number of rings (size 3 to 8) (size 9 to 14) (size 15 to 20)
#    0.000    2.455    0.000    3.818    1.273    3.636 
#    0.000    3.182    0.000    3.273    0.000    3.818 
#    0.000    0.000    0.000    0.000    0.000    0.000 
#
# Total GULP energy -245059.105114 kJ/mol
# GULP energy per Si atom -5569.525116 kJ/mol
# Density = 1.933688 g / cm^3
# Si number density = 19.380996 Si / 1000 Ang^3
#
#
#
# Elastic Constant Matrix: (Units=GPa)
#
#
# Indices 1 2 3 4 5 6 
#
# 1 32.5095 34.6232 30.4962 0.0000 0.0000 0.0000
# 2 34.6232 142.2368 65.6345 0.0000 0.0000 0.0000
# 3 30.4962 65.6345 120.1863 0.0000 0.0000 0.0000
# 4 0.0000 0.0000 0.0000 29.1632 0.0000 0.0000
# 5 0.0000 0.0000 0.0000 0.0000 -6.1194 0.0000
# 6 0.0000 0.0000 0.0000 0.0000 0.0000 21.2346
#
#
#
# Elastic Compliance Matrix: (Units=1/GPa)
#
#
# Indices 1 2 3 4 5 6 
#
# 1 0.046005 -0.007770 -0.007430 0.000000 0.000000 0.000000
# 2 -0.007770 0.010711 -0.003878 0.000000 0.000000 0.000000
# 3 -0.007430 -0.003878 0.012324 0.000000 0.000000 0.000000
# 4 0.000000 0.000000 0.000000 0.034290 0.000000 0.000000
# 5 0.000000 0.000000 0.000000 0.000000 -0.163414 0.000000
# 6 0.000000 0.000000 0.000000 0.000000 0.000000 0.047093
#
#
# Mechanical properties :
#
#
# Convention : Reuss Voigt Hill
#
# Bulk Modulus (GPa) = 32.37926 61.82674 47.10300
# Shear Modulus (GPa) = 141.00274 19.80092 80.40183
#
# Velocity S-wave (km/s) = 8.53880 3.19982 6.44786
# Velocity P-wave (km/s) = 10.67510 6.75439 8.93251
#
# Compressibility (1/GPa) = 0.03088397
#
# Stress axis : x y z
#
# Youngs Moduli (GPa) = 21.73657 93.35879 81.14531
#
# Poissons Ratio (x) = 0.72539 0.60293
# Poissons Ratio (y) = 0.16889 0.31468
# Poissons Ratio (z) = 0.16151 0.36204
#
# Static dielectric constant tensor:
#      x y z
#    x 1.684090 0.000000 0.000000 
#    y 0.000000 1.713730 0.000000 
#    z 0.000000 0.000000 1.631490 
# 
# From -- ./inp_files/26358.got.cif
#   From: 2010.05.17/outbox.cif.g08.bks.cpg/sg47_14_cif.got.tgz:26358.got - 2010.06.03 20:15:42.
