data_PCOD9388117
_publ_section_title
;
Structure prediction by ZEFSAII (Michael W. Deem and Ramdas Pophale) SiO2 
 PCOD9388117
Probable space group: P M M M
;
_chemical_formula_sum "Si O2"
_cell_formula_units_Z 37
_cell_length_a 22.919945
_cell_length_b 7.327320
_cell_length_c 10.605300
_cell_angle_alpha 90.000000
_cell_angle_beta 90.000000
_cell_angle_gamma 90.000000
_cell_volume 1781.072868
_symmetry_space_group_name_H-M "P M M M"
_symmetry_group_IT_number 47
_symmetry_cell_setting 'orthorhombic'
loop_
_space_group_symop_operation_xyz
x,y,z
-x,-y,z
x,-y,-z
-x,y,-z
-x,-y,-z
x,y,-z
-x,y,z
x,-y,z
loop_
_atom_site_type_symbol
_atom_site_label
_atom_site_fract_x
_atom_site_fract_y
_atom_site_fract_z
Si Si1 0.623610 0.721285 0.141526
Si Si2 0.154224 0.218476 0.641637
Si Si3 0.290514 0.282931 0.641294
Si Si4 0.500000 0.280471 0.264859
Si Si5 0.932961 0.777624 0.857286
Si Si6 0.500000 0.000000 0.500000
O O1 0.628438 0.500000 0.138557
O O2 0.668336 0.788392 0.248264
O O3 0.558058 0.761428 0.185246
O O4 0.635634 0.786141 0.000000
O O5 0.141588 0.287329 0.500000
O O6 0.222199 0.254475 0.668395
O O7 0.111456 0.286679 0.750487
O O8 0.147252 0.000000 0.637808
O O9 0.302866 0.210419 0.500000
O O10 0.300185 0.500000 0.635276
O O11 0.500000 0.500000 0.291806
O O12 0.500000 0.159851 0.389622
O O13 0.000000 0.724046 0.832297
O O14 0.931984 0.000000 0.856835
O O15 0.917533 0.721200 0.000000
#
# Coordination Sequence:
#
# PCOD9388117 Si02
#       6
#     8   8   8   4   8   1
#     4   9  18  35  60  84 107 142 184 225 276 330
#     4   9  17  29  44  67  95 124 159 204 256 303
#     4   9  18  32  50  73 102 136 174 214 257 316
#     4  10  22  41  63  87 120 153 190 238 284 336
#     4   8  14  25  42  64  90 120 156 200 249 304
#     4  12  26  40  58  98 120 152 196 232 282 346
#
# _framework density 20.773996
#
# number of rings (size 3 to 8) (size 9 to 14) (size 15 to 20)
#    0.000    3.027    0.000    1.135    1.514    2.595 
#    1.946    3.243    0.000    0.649    0.000    4.541 
#    0.000    0.000    0.000    0.000    0.000    0.000 
#
# Total GULP energy -206254.370030 kJ/mol
# GULP energy per Si atom -5574.442433 kJ/mol
# Density = 2.072671 g / cm^3
# Si number density = 20.773996 Si / 1000 Ang^3
#
#
#
# Elastic Constant Matrix: (Units=GPa)
#
#
# Indices 1 2 3 4 5 6 
#
# 1 149.0015 7.3889 160.8671 0.0000 0.0000 0.0000
# 2 7.3889 89.0108 21.6285 0.0000 0.0000 0.0000
# 3 160.8671 21.6285 240.5475 0.0000 0.0000 0.0000
# 4 0.0000 0.0000 0.0000 -4.3856 0.0000 0.0000
# 5 0.0000 0.0000 0.0000 0.0000 -41.6780 0.0000
# 6 0.0000 0.0000 0.0000 0.0000 0.0000 13.0702
#
#
#
# Elastic Compliance Matrix: (Units=1/GPa)
#
#
# Indices 1 2 3 4 5 6 
#
# 1 0.024482 0.001989 -0.016551 0.000000 0.000000 0.000000
# 2 0.001989 0.011647 -0.002378 0.000000 0.000000 0.000000
# 3 -0.016551 -0.002378 0.015440 0.000000 0.000000 0.000000
# 4 0.000000 0.000000 0.000000 -0.228017 0.000000 0.000000
# 5 0.000000 0.000000 0.000000 0.000000 -0.023993 0.000000
# 6 0.000000 0.000000 0.000000 0.000000 0.000000 0.076510
#
#
# Mechanical properties :
#
#
# Convention : Reuss Voigt Hill
#
# Bulk Modulus (GPa) = 56.52960 95.36988 75.94974
# Shear Modulus (GPa) = -59.41388 12.64633 -23.38377
#
# Velocity S-wave (km/s) = -5.35371 2.46998 -3.35868
# Velocity P-wave (km/s) = 3.30840 7.35815 4.64741
#
# Compressibility (1/GPa) = 0.01768985
#
# Stress axis : x y z
#
# Youngs Moduli (GPa) = 40.84603 85.85756 64.76761
#
# Poissons Ratio (x) = -0.17081 1.07200
# Poissons Ratio (y) = -0.08126 0.15400
# Poissons Ratio (z) = 0.67606 0.20415
#
# Static dielectric constant tensor:
#      x y z
#    x 1.693090 0.000000 0.000000 
#    y 0.000000 1.818560 0.000000 
#    z 0.000000 0.000000 1.730120 
# 
# From -- ./inp_files/12093.got.cif
#   From: 2010.05.17/outbox.cif.g08.bks.cpg/sg47_7_cif.got.tgz:12093.got - 2010.06.03 20:15:42.
