data_PCOD9388684
_publ_section_title
;
Structure prediction by ZEFSAII (Michael W. Deem and Ramdas Pophale) SiO2 
 PCOD9388684
Probable space group: P M M M
;
_chemical_formula_sum "Si O2"
_cell_formula_units_Z 40
_cell_length_a 9.530010
_cell_length_b 30.417092
_cell_length_c 7.369706
_cell_angle_alpha 90.000000
_cell_angle_beta 90.000000
_cell_angle_gamma 90.000000
_cell_volume 2136.294934
_symmetry_space_group_name_H-M "P M M M"
_symmetry_group_IT_number 47
_symmetry_cell_setting 'orthorhombic'
loop_
_space_group_symop_operation_xyz
x,y,z
-x,-y,z
x,-y,-z
-x,y,-z
-x,-y,-z
x,y,-z
-x,y,z
x,-y,z
loop_
_atom_site_type_symbol
_atom_site_label
_atom_site_fract_x
_atom_site_fract_y
_atom_site_fract_z
Si Si1 0.166378 0.391547 0.283651
Si Si2 0.660847 0.791678 0.278675
Si Si3 0.160524 0.708542 0.279178
Si Si4 0.333487 0.552252 0.000000
Si Si5 0.166122 0.877677 0.715185
Si Si6 0.170234 0.950188 0.000000
O O1 0.187247 0.395527 0.500000
O O2 0.199970 0.341165 0.228044
O O3 0.000000 0.398073 0.248113
O O4 0.259604 0.425272 0.172547
O O5 0.662055 0.791034 0.500000
O O6 0.500000 0.793578 0.220227
O O7 0.737691 0.747193 0.218221
O O8 0.747231 0.834942 0.225939
O O9 0.160013 0.708882 0.500000
O O10 0.000000 0.716914 0.222221
O O11 0.310906 0.500000 0.000000
O O12 0.500000 0.560583 0.000000
O O13 0.185406 0.884013 0.500000
O O14 0.209193 0.920824 0.826189
O O15 0.000000 0.869836 0.746986
O O16 0.000000 0.952775 0.000000
O O17 0.224035 0.000000 0.000000
#
# Coordination Sequence:
#
# PCOD9388684 Si02
#       6
#     8   8   8   4   8   4
#     4   9  19  37  61  86 110 141 183 228 272 320
#     4   9  16  26  44  72 104 136 168 201 239 289
#     4   8  14  27  49  77 107 136 168 208 254 304
#     4  11  25  41  56  79 112 147 182 225 278 331
#     4   9  17  30  49  71  96 128 162 197 242 293
#     4   9  18  32  50  73  96 117 154 209 256 295
#
# _framework density 18.724005999999999
#
# number of rings (size 3 to 8) (size 9 to 14) (size 15 to 20)
#    0.000    3.000    0.000    2.100    0.000    5.200 
#    0.000    7.500    0.000    3.600    0.000    2.800 
#    0.000    0.000    0.000    0.000    0.000    0.000 
#
# Total GULP energy -223206.112824 kJ/mol
# GULP energy per Si atom -5580.152821 kJ/mol
# Density = 1.868139 g / cm^3
# Si number density = 18.724006 Si / 1000 Ang^3
#
#
#
# Elastic Constant Matrix: (Units=GPa)
#
#
# Indices 1 2 3 4 5 6 
#
# 1 97.6183 112.0840 47.7591 0.0000 0.0000 0.0000
# 2 112.0840 194.6047 63.1056 0.0000 0.0000 0.0000
# 3 47.7591 63.1056 83.4620 0.0000 0.0000 0.0000
# 4 0.0000 0.0000 0.0000 35.4297 0.0000 0.0000
# 5 0.0000 0.0000 0.0000 0.0000 9.4583 0.0000
# 6 0.0000 0.0000 0.0000 0.0000 0.0000 -11.5140
#
#
#
# Elastic Compliance Matrix: (Units=1/GPa)
#
#
# Indices 1 2 3 4 5 6 
#
# 1 0.032263 -0.016687 -0.005845 0.000000 0.000000 0.000000
# 2 -0.016687 0.015438 -0.002124 0.000000 0.000000 0.000000
# 3 -0.005845 -0.002124 0.016932 0.000000 0.000000 0.000000
# 4 0.000000 0.000000 0.000000 0.028225 0.000000 0.000000
# 5 0.000000 0.000000 0.000000 0.000000 0.105727 0.000000
# 6 0.000000 0.000000 0.000000 0.000000 0.000000 -0.086851
#
#
# Mechanical properties :
#
#
# Convention : Reuss Voigt Hill
#
# Bulk Modulus (GPa) = 65.26674 91.28693 78.27683
# Shear Modulus (GPa) = 30.09236 16.85720 23.47478
#
# Velocity S-wave (km/s) = 4.01328 3.00375 3.54464
# Velocity P-wave (km/s) = 7.51054 7.80319 7.65826
#
# Compressibility (1/GPa) = 0.01532174
#
# Stress axis : x y z
#
# Youngs Moduli (GPa) = 30.99504 64.77343 59.05873
#
# Poissons Ratio (x) = 1.08087 0.34519
# Poissons Ratio (y) = 0.51721 0.12546
# Poissons Ratio (z) = 0.18116 0.13760
#
# Static dielectric constant tensor:
#      x y z
#    x 1.613580 0.000000 0.000000 
#    y 0.000000 1.618100 0.000000 
#    z 0.000000 0.000000 1.694520 
# 
# From -- ./inp_files/1867.got.cif
#   From: 2010.05.17/outbox.cif.g08.bks.cpg/sg47_1_cif.got.tgz:1867.got - 2010.06.03 20:15:42.
