data_PCOD9388385
_publ_section_title
;
Structure prediction by ZEFSAII (Michael W. Deem and Ramdas Pophale) SiO2 
 PCOD9388385
Probable space group: P M M M
;
_chemical_formula_sum "Si O2"
_cell_formula_units_Z 64
_cell_length_a 20.809329
_cell_length_b 14.091815
_cell_length_c 14.198655
_cell_angle_alpha 90.000000
_cell_angle_beta 90.000000
_cell_angle_gamma 90.000000
_cell_volume 4163.630837
_symmetry_space_group_name_H-M "P M M M"
_symmetry_group_IT_number 47
_symmetry_cell_setting 'orthorhombic'
loop_
_space_group_symop_operation_xyz
x,y,z
-x,-y,z
x,-y,-z
-x,y,-z
-x,-y,-z
x,y,-z
-x,y,z
x,-y,z
loop_
_atom_site_type_symbol
_atom_site_label
_atom_site_fract_x
_atom_site_fract_y
_atom_site_fract_z
Si Si1 0.267684 0.890896 0.610310
Si Si2 0.687834 0.786078 0.785086
Si Si3 0.112360 0.610184 0.109448
Si Si4 0.732739 0.388830 0.891862
Si Si5 0.071132 0.795376 0.793728
Si Si6 0.887213 0.889605 0.390713
Si Si7 0.424107 0.888118 0.110437
Si Si8 0.805851 0.112846 0.109630
O O1 0.282905 0.879785 0.500000
O O2 0.302036 0.815389 0.677015
O O3 0.190257 0.881838 0.619525
O O4 0.283778 0.000000 0.638178
O O5 0.698627 0.677900 0.816281
O O6 0.621252 0.825558 0.824881
O O7 0.745707 0.841102 0.838184
O O8 0.096603 0.500000 0.128086
O O9 0.189833 0.620796 0.116786
O O10 0.080533 0.685602 0.178489
O O11 0.095151 0.630507 0.000000
O O12 0.717770 0.500000 0.880617
O O13 0.716113 0.361085 0.000000
O O14 0.080650 0.820390 0.684126
O O15 0.127878 0.850335 0.846958
O O16 0.000000 0.825972 0.823237
O O17 0.903208 0.871189 0.500000
O O18 0.904003 0.000000 0.370158
O O19 0.500000 0.872067 0.125266
O O20 0.411338 0.000000 0.126893
O O21 0.410051 0.869642 0.000000
O O22 0.802282 0.000000 0.119248
O O23 0.803278 0.138681 0.000000
#
# Coordination Sequence:
#
# PCOD9388385 Si02
#       8
#     8   8   8   8   8   8   8   8
#     4   9  17  29  48  74  98 120 156 207 252 287
#     4  12  18  29  54  73  93 130 167 200 239 287
#     4   9  18  34  52  68  90 121 159 201 242 290
#     4   9  17  29  48  74  98 120 156 207 252 287
#     4  12  23  33  47  67  93 125 157 196 245 290
#     4   9  18  34  52  68  90 121 159 201 242 290
#     4   9  18  30  44  70 107 140 169 197 227 275
#     4  11  22  32  44  68  96 121 155 193 232 288
#
# _framework density 15.371199000000001
#
# number of rings (size 3 to 8) (size 9 to 14) (size 15 to 20)
#    0.000    2.000    2.500    4.875    0.000    3.500 
#    0.000    1.875    0.000    1.500    0.000    7.875 
#    0.000    0.000    0.000    1.125    0.000    0.375 
#
# Total GULP energy -357130.925615 kJ/mol
# GULP energy per Si atom -5580.170713 kJ/mol
# Density = 1.533621 g / cm^3
# Si number density = 15.371199 Si / 1000 Ang^3
#
#
#
# Elastic Constant Matrix: (Units=GPa)
#
#
# Indices 1 2 3 4 5 6 
#
# 1 34.7001 16.2968 16.3536 0.0000 0.0000 0.0000
# 2 16.2968 67.1733 50.5382 0.0000 0.0000 0.0000
# 3 16.3536 50.5382 71.7217 0.0000 0.0000 0.0000
# 4 0.0000 0.0000 0.0000 26.8889 0.0000 0.0000
# 5 0.0000 0.0000 0.0000 0.0000 -16.5069 0.0000
# 6 0.0000 0.0000 0.0000 0.0000 0.0000 -17.2381
#
#
#
# Elastic Compliance Matrix: (Units=1/GPa)
#
#
# Indices 1 2 3 4 5 6 
#
# 1 0.033059 -0.005000 -0.004015 0.000000 0.000000 0.000000
# 2 -0.005000 0.032440 -0.021719 0.000000 0.000000 0.000000
# 3 -0.004015 -0.021719 0.030162 0.000000 0.000000 0.000000
# 4 0.000000 0.000000 0.000000 0.037190 0.000000 0.000000
# 5 0.000000 0.000000 0.000000 0.000000 -0.060581 0.000000
# 6 0.000000 0.000000 0.000000 0.000000 0.000000 -0.058011
#
#
# Mechanical properties :
#
#
# Convention : Reuss Voigt Hill
#
# Bulk Modulus (GPa) = 29.24458 37.77470 33.50964
# Shear Modulus (GPa) = 57.38994 4.65587 31.02291
#
# Velocity S-wave (km/s) = 6.11695 1.74228 4.49737
# Velocity P-wave (km/s) = 8.30399 5.35497 6.98685
#
# Compressibility (1/GPa) = 0.03419436
#
# Stress axis : x y z
#
# Youngs Moduli (GPa) = 30.24930 30.82621 33.15425
#
# Poissons Ratio (x) = 0.15412 0.13311
# Poissons Ratio (y) = 0.15124 0.72006
# Poissons Ratio (z) = 0.12145 0.66950
#
# Static dielectric constant tensor:
#      x y z
#    x 1.498430 0.000000 0.000000 
#    y 0.000000 1.516930 0.000000 
#    z 0.000000 0.000000 1.517910 
# 
# From -- ./inp_files/24814.got.cif
#   From: 2010.05.17/outbox.cif.g08.bks.cpg/sg47_13_cif.got.tgz:24814.got - 2010.06.03 20:15:42.
