data_PCOD9388145
_publ_section_title
;
Structure prediction by ZEFSAII (Michael W. Deem and Ramdas Pophale) SiO2 
 PCOD9388145
Probable space group: P M M M
;
_chemical_formula_sum "Si O2"
_cell_formula_units_Z 37
_cell_length_a 8.870295
_cell_length_b 18.077061
_cell_length_c 12.427751
_cell_angle_alpha 90.000000
_cell_angle_beta 90.000000
_cell_angle_gamma 90.000000
_cell_volume 1992.775752
_symmetry_space_group_name_H-M "P M M M"
_symmetry_group_IT_number 47
_symmetry_cell_setting 'orthorhombic'
loop_
_space_group_symop_operation_xyz
x,y,z
-x,-y,z
x,-y,-z
-x,y,-z
-x,-y,-z
x,y,-z
-x,y,z
x,-y,z
loop_
_atom_site_type_symbol
_atom_site_label
_atom_site_fract_x
_atom_site_fract_y
_atom_site_fract_z
Si Si1 0.318580 0.137134 0.275087
Si Si2 0.824499 0.911133 0.500000
Si Si3 0.666922 0.347130 0.000000
Si Si4 0.500000 0.500000 0.000000
Si Si5 0.820961 0.704874 0.218016
Si Si6 0.316753 0.000000 0.123906
Si Si7 0.321744 0.415194 0.628693
O O1 0.500000 0.139562 0.277460
O O2 0.256619 0.117054 0.392772
O O3 0.253347 0.216117 0.242129
O O4 0.271542 0.072882 0.190905
O O5 0.000000 0.888165 0.500000
O O6 0.818409 0.000000 0.500000
O O7 0.756190 0.324314 0.894429
O O8 0.500000 0.309917 0.000000
O O9 0.628462 0.434026 0.000000
O O10 0.771179 0.645567 0.307991
O O11 0.000000 0.711801 0.215229
O O12 0.500000 0.000000 0.121486
O O13 0.264234 0.000000 0.000000
O O14 0.305101 0.407716 0.500000
O O15 0.500000 0.406120 0.654186
O O16 0.281078 0.500000 0.657715
#
# Coordination Sequence:
#
# PCOD9388145 Si02
#       7
#     8   4   4   1   8   4   8
#     4  11  23  41  67  95 125 172 221 269 320 386
#     4  11  23  41  65  93 132 169 212 277 345 397
#     4  10  23  45  69  94 120 167 216 266 315 381
#     4   8  24  44  78  96 118 166 230 280 312 382
#     4  12  26  41  61  94 136 169 206 265 330 387
#     4   9  20  39  65  96 124 157 215 270 313 370
#     4   9  20  40  65  90 119 162 214 261 309 376
#
# _framework density 18.567067999999999
#
# number of rings (size 3 to 8) (size 9 to 14) (size 15 to 20)
#    0.324    1.297    1.081    3.892    4.541    1.297 
#    0.000    1.622    0.000    2.595    0.000    0.000 
#    0.000    0.000    0.000    0.000    0.000    0.000 
#
# Total GULP energy -206448.999974 kJ/mol
# GULP energy per Si atom -5579.702702 kJ/mol
# Density = 1.852481 g / cm^3
# Si number density = 18.567068 Si / 1000 Ang^3
#
#
#
# Elastic Constant Matrix: (Units=GPa)
#
#
# Indices 1 2 3 4 5 6 
#
# 1 119.9500 80.6206 65.4610 0.0000 0.0000 0.0000
# 2 80.6206 170.3842 94.3733 0.0000 0.0000 0.0000
# 3 65.4610 94.3733 133.8994 0.0000 0.0000 0.0000
# 4 0.0000 0.0000 0.0000 7.5560 0.0000 0.0000
# 5 0.0000 0.0000 0.0000 0.0000 -65.1136 0.0000
# 6 0.0000 0.0000 0.0000 0.0000 0.0000 13.2978
#
#
#
# Elastic Compliance Matrix: (Units=1/GPa)
#
#
# Indices 1 2 3 4 5 6 
#
# 1 0.013072 -0.004340 -0.003332 0.000000 0.000000 0.000000
# 2 -0.004340 0.011068 -0.005679 0.000000 0.000000 0.000000
# 3 -0.003332 -0.005679 0.013100 0.000000 0.000000 0.000000
# 4 0.000000 0.000000 0.000000 0.132345 0.000000 0.000000
# 5 0.000000 0.000000 0.000000 0.000000 -0.015358 0.000000
# 6 0.000000 0.000000 0.000000 0.000000 0.000000 0.075200
#
#
# Mechanical properties :
#
#
# Convention : Reuss Voigt Hill
#
# Bulk Modulus (GPa) = 94.89311 100.57149 97.73230
# Shear Modulus (GPa) = 19.25720 3.39995 11.32858
#
# Velocity S-wave (km/s) = 3.22401 1.35468 2.47279
# Velocity P-wave (km/s) = 8.06711 7.53200 7.80414
#
# Compressibility (1/GPa) = 0.01053817
#
# Stress axis : x y z
#
# Youngs Moduli (GPa) = 76.49931 90.34870 76.33528
#
# Poissons Ratio (x) = 0.39209 0.25435
# Poissons Ratio (y) = 0.33199 0.43353
# Poissons Ratio (z) = 0.25490 0.51312
#
# Static dielectric constant tensor:
#      x y z
#    x 1.621410 0.000000 0.000000 
#    y 0.000000 1.675930 0.000000 
#    z 0.000000 0.000000 1.630320 
# 
# From -- ./inp_files/14931.got.cif
#   From: 2010.05.17/outbox.cif.g08.bks.cpg/sg47_8_cif.got.tgz:14931.got - 2010.06.03 20:15:42.
