data_PCOD9388074
_publ_section_title
;
Structure prediction by ZEFSAII (Michael W. Deem and Ramdas Pophale) SiO2 
 PCOD9388074
Probable space group: P M M M
;
_chemical_formula_sum "Si O2"
_cell_formula_units_Z 40
_cell_length_a 10.192351
_cell_length_b 25.377081
_cell_length_c 8.484806
_cell_angle_alpha 90.000000
_cell_angle_beta 90.000000
_cell_angle_gamma 90.000000
_cell_volume 2194.613033
_symmetry_space_group_name_H-M "P M M M"
_symmetry_group_IT_number 47
_symmetry_cell_setting 'orthorhombic'
loop_
_space_group_symop_operation_xyz
x,y,z
-x,-y,z
x,-y,-z
-x,y,-z
-x,-y,-z
x,y,-z
-x,y,z
x,-y,z
loop_
_atom_site_type_symbol
_atom_site_label
_atom_site_fract_x
_atom_site_fract_y
_atom_site_fract_z
Si Si1 0.158857 0.943417 0.685913
Si Si2 0.846857 0.827457 0.691285
Si Si3 0.250582 0.377858 0.812706
Si Si4 0.653018 0.737040 0.190804
Si Si5 0.000000 0.560582 0.687672
Si Si6 0.500000 0.562688 0.684986
O O1 0.193629 0.943921 0.500000
O O2 0.196433 0.885977 0.749147
O O3 0.000000 0.943368 0.692766
O O4 0.203574 0.000000 0.754204
O O5 0.846236 0.828350 0.500000
O O6 0.746166 0.783727 0.750018
O O7 0.000000 0.818063 0.738446
O O8 0.284131 0.318665 0.756861
O O9 0.374216 0.413226 0.768137
O O10 0.125416 0.406189 0.740288
O O11 0.233433 0.375533 0.000000
O O12 0.500000 0.740911 0.241916
O O13 0.652218 0.737341 0.000000
O O14 0.000000 0.500000 0.749847
O O15 0.000000 0.556991 0.500000
O O16 0.500000 0.500000 0.696615
O O17 0.500000 0.576920 0.500000
#
# Coordination Sequence:
#
# PCOD9388074 Si02
#       6
#     8   8   8   8   4   4
#     4   7  10  20  41  70 105 139 169 210 264 316
#     4   9  18  31  51  83 112 136 176 224 270 323
#     4  11  23  41  62  84 110 147 192 228 265 325
#     4  10  22  40  56  74 105 144 184 225 268 313
#     4  11  25  43  61  87 121 147 172 219 282 335
#     4  11  23  39  61  89 117 143 176 225 282 329
#
# _framework density 18.226445999999999
#
# number of rings (size 3 to 8) (size 9 to 14) (size 15 to 20)
#    0.000    2.400    1.000    3.600    1.400    6.400 
#    0.000    0.000    0.000    1.200    0.000    7.000 
#    0.000    0.000    0.000    0.000    0.000    0.000 
#
# Total GULP energy -222933.090749 kJ/mol
# GULP energy per Si atom -5573.327269 kJ/mol
# Density = 1.818496 g / cm^3
# Si number density = 18.226446 Si / 1000 Ang^3
#
#
#
# Elastic Constant Matrix: (Units=GPa)
#
#
# Indices 1 2 3 4 5 6 
#
# 1 138.4121 93.4140 20.4276 0.0000 0.0000 0.0000
# 2 93.4140 180.9821 31.7123 0.0000 0.0000 0.0000
# 3 20.4276 31.7123 15.5985 0.0000 0.0000 0.0000
# 4 0.0000 0.0000 0.0000 43.5973 0.0000 0.0000
# 5 0.0000 0.0000 0.0000 0.0000 43.2165 0.0000
# 6 0.0000 0.0000 0.0000 0.0000 0.0000 29.2950
#
#
#
# Elastic Compliance Matrix: (Units=1/GPa)
#
#
# Indices 1 2 3 4 5 6 
#
# 1 0.011292 -0.005029 -0.004565 0.000000 0.000000 0.000000
# 2 -0.005029 0.010822 -0.015417 0.000000 0.000000 0.000000
# 3 -0.004565 -0.015417 0.101429 0.000000 0.000000 0.000000
# 4 0.000000 0.000000 0.000000 0.022937 0.000000 0.000000
# 5 0.000000 0.000000 0.000000 0.000000 0.023139 0.000000
# 6 0.000000 0.000000 0.000000 0.000000 0.000000 0.034136
#
#
# Mechanical properties :
#
#
# Convention : Reuss Voigt Hill
#
# Bulk Modulus (GPa) = 13.60108 69.56674 41.58391
# Shear Modulus (GPa) = 17.96725 35.85101 26.90913
#
# Velocity S-wave (km/s) = 3.14312 4.43987 3.84654
# Velocity P-wave (km/s) = 4.54431 8.03332 6.52629
#
# Compressibility (1/GPa) = 0.07352358
#
# Stress axis : x y z
#
# Youngs Moduli (GPa) = 88.55553 92.40150 9.85910
#
# Poissons Ratio (x) = 0.46466 0.04500
# Poissons Ratio (y) = 0.44532 0.15199
# Poissons Ratio (z) = 0.40424 1.42452
#
# Static dielectric constant tensor:
#      x y z
#    x 1.566410 0.000000 0.000000 
#    y 0.000000 1.665170 0.000000 
#    z 0.000000 0.000000 1.633700 
# 
# From -- ./inp_files/1727.got.cif
#   From: 2010.05.17/outbox.cif.g08.bks.cpg/sg47_1_cif.got.tgz:1727.got - 2010.06.03 20:15:42.
