data_PCOD9388477
_publ_section_title
;
Structure prediction by ZEFSAII (Michael W. Deem and Ramdas Pophale) SiO2 
 PCOD9388477
Probable space group: P M M M
;
_chemical_formula_sum "Si O2"
_cell_formula_units_Z 40
_cell_length_a 8.535651
_cell_length_b 15.948362
_cell_length_c 14.947286
_cell_angle_alpha 90.000000
_cell_angle_beta 90.000000
_cell_angle_gamma 90.000000
_cell_volume 2034.768842
_symmetry_space_group_name_H-M "P M M M"
_symmetry_group_IT_number 47
_symmetry_cell_setting 'orthorhombic'
loop_
_space_group_symop_operation_xyz
x,y,z
-x,-y,z
x,-y,-z
-x,y,-z
-x,-y,-z
x,y,-z
-x,y,z
x,-y,z
loop_
_atom_site_type_symbol
_atom_site_label
_atom_site_fract_x
_atom_site_fract_y
_atom_site_fract_z
Si Si1 0.187912 0.599954 0.100162
Si Si2 0.691336 0.500000 0.396865
Si Si3 0.812335 0.159234 0.288607
Si Si4 0.686763 0.337502 0.714127
Si Si5 0.312263 0.000000 0.396571
Si Si6 0.190207 0.098878 0.902330
O O1 0.219021 0.500000 0.108122
O O2 0.264786 0.646326 0.183153
O O3 0.000000 0.611494 0.105291
O O4 0.237775 0.626266 0.000000
O O5 0.500000 0.500000 0.395863
O O6 0.741217 0.500000 0.500000
O O7 0.742673 0.582974 0.343883
O O8 0.756911 0.250187 0.319141
O O9 0.749654 0.082694 0.347106
O O10 0.755028 0.145673 0.186115
O O11 0.000000 0.155689 0.288462
O O12 0.500000 0.333597 0.707995
O O13 0.500000 0.000000 0.393026
O O14 0.262260 0.000000 0.500000
O O15 0.000000 0.104214 0.903166
O O16 0.228307 0.000000 0.894009
O O17 0.245520 0.128685 0.000000
#
# Coordination Sequence:
#
# PCOD9388477 Si02
#       6
#     8   4   8   8   4   8
#     4   9  18  34  57  84 117 159 203 247 299 357
#     4   9  20  40  62  81 108 150 197 243 296 359
#     4  11  22  38  62  92 122 156 197 243 296 356
#     4  11  22  37  59  89 120 155 199 247 301 360
#     4  11  25  45  66  87 116 156 199 249 308 362
#     4   8  14  28  53  83 113 148 190 230 272 330
#
# _framework density 19.658252000000001
#
# number of rings (size 3 to 8) (size 9 to 14) (size 15 to 20)
#    0.000    2.200    2.000    2.700    0.000    2.800 
#    0.000    5.000    0.000    6.600    0.000    0.000 
#    0.000    0.000    0.000    0.000    0.000    0.000 
#
# Total GULP energy -223340.654446 kJ/mol
# GULP energy per Si atom -5583.516361 kJ/mol
# Density = 1.961351 g / cm^3
# Si number density = 19.658252 Si / 1000 Ang^3
#
#
#
# Elastic Constant Matrix: (Units=GPa)
#
#
# Indices 1 2 3 4 5 6 
#
# 1 28.1573 34.0347 29.4870 0.0000 0.0000 0.0000
# 2 34.0347 154.9391 91.6187 0.0000 0.0000 0.0000
# 3 29.4870 91.6187 142.3765 0.0000 0.0000 0.0000
# 4 0.0000 0.0000 0.0000 -3.8076 0.0000 0.0000
# 5 0.0000 0.0000 0.0000 0.0000 17.3032 0.0000
# 6 0.0000 0.0000 0.0000 0.0000 0.0000 29.8602
#
#
#
# Elastic Compliance Matrix: (Units=1/GPa)
#
#
# Indices 1 2 3 4 5 6 
#
# 1 0.050794 -0.007970 -0.005391 0.000000 0.000000 0.000000
# 2 -0.007970 0.011669 -0.005858 0.000000 0.000000 0.000000
# 3 -0.005391 -0.005858 0.011910 0.000000 0.000000 0.000000
# 4 0.000000 0.000000 0.000000 -0.262632 0.000000 0.000000
# 5 0.000000 0.000000 0.000000 0.000000 0.057793 0.000000
# 6 0.000000 0.000000 0.000000 0.000000 0.000000 0.033489
#
#
# Mechanical properties :
#
#
# Convention : Reuss Voigt Hill
#
# Bulk Modulus (GPa) = 27.82864 70.63931 49.23398
# Shear Modulus (GPa) = -107.38723 20.02667 -43.68028
#
# Velocity S-wave (km/s) = -7.39903 3.19523 -4.71890
# Velocity P-wave (km/s) = 7.66859 7.04446 2.14276
#
# Compressibility (1/GPa) = 0.03593420
#
# Stress axis : x y z
#
# Youngs Moduli (GPa) = 19.68747 85.69735 83.96281
#
# Poissons Ratio (x) = 0.68298 0.45267
# Poissons Ratio (y) = 0.15690 0.49189
# Poissons Ratio (z) = 0.10614 0.50205
#
# Static dielectric constant tensor:
#      x y z
#    x 1.676400 0.000000 0.000000 
#    y 0.000000 1.684250 0.000000 
#    z 0.000000 0.000000 1.690220 
# 
# From -- ./inp_files/5708.got.cif
#   From: 2010.05.17/outbox.cif.g08.bks.cpg/sg47_3_cif.got.tgz:5708.got - 2010.06.03 20:15:42.
