data_PCOD9388200
_publ_section_title
;
Structure prediction by ZEFSAII (Michael W. Deem and Ramdas Pophale) SiO2 
 PCOD9388200
Probable space group: P M M M
;
_chemical_formula_sum "Si O2"
_cell_formula_units_Z 52
_cell_length_a 8.651238
_cell_length_b 28.205544
_cell_length_c 12.274611
_cell_angle_alpha 90.000000
_cell_angle_beta 90.000000
_cell_angle_gamma 90.000000
_cell_volume 2995.163108
_symmetry_space_group_name_H-M "P M M M"
_symmetry_group_IT_number 47
_symmetry_cell_setting 'orthorhombic'
loop_
_space_group_symop_operation_xyz
x,y,z
-x,-y,z
x,-y,-z
-x,y,-z
-x,-y,-z
x,y,-z
-x,y,z
x,-y,z
loop_
_atom_site_type_symbol
_atom_site_label
_atom_site_fract_x
_atom_site_fract_y
_atom_site_fract_z
Si Si1 0.313656 0.912492 0.267956
Si Si2 0.688225 0.176823 0.125723
Si Si3 0.188832 0.554873 0.000000
Si Si4 0.182574 0.379818 0.798428
Si Si5 0.314171 0.283504 0.874018
Si Si6 0.682824 0.447474 0.629769
Si Si7 0.814327 0.056014 0.500000
Si Si8 0.185973 0.000000 0.128251
O O1 0.500000 0.913936 0.271492
O O2 0.263484 0.863365 0.210541
O O3 0.249953 0.920655 0.389470
O O4 0.252948 0.954468 0.190430
O O5 0.500000 0.176648 0.124240
O O6 0.737338 0.230278 0.156218
O O7 0.736740 0.167147 0.000000
O O8 0.239604 0.585173 0.104954
O O9 0.240928 0.500000 0.000000
O O10 0.000000 0.553629 0.000000
O O11 0.253068 0.327711 0.807057
O O12 0.226049 0.406341 0.688395
O O13 0.000000 0.375474 0.810958
O O14 0.500000 0.283792 0.870285
O O15 0.267019 0.291116 0.000000
O O16 0.700206 0.445571 0.500000
O O17 0.500000 0.443257 0.653731
O O18 0.734762 0.500000 0.666904
O O19 0.000000 0.058751 0.500000
O O20 0.771140 0.000000 0.500000
O O21 0.000000 0.000000 0.137372
O O22 0.226950 0.000000 0.000000
#
# Coordination Sequence:
#
# PCOD9388200 Si02
#       8
#     8   8   4   8   8   8   4   4
#     4  11  21  35  59  85 108 138 186 234 266 308
#     4   8  16  32  55  83 110 135 169 220 273 313
#     4   9  18  30  43  67 107 145 169 200 253 306
#     4  11  20  31  50  76 108 140 173 213 258 311
#     4   9  17  32  54  77 105 141 177 213 260 316
#     4   9  19  36  55  74  98 130 171 217 262 311
#     4  11  23  39  57  77 112 154 184 216 269 330
#     4  11  23  36  51  78 119 155 179 209 266 331
#
# _framework density 17.361325000000001
#
# number of rings (size 3 to 8) (size 9 to 14) (size 15 to 20)
#    0.000    2.231    1.538    3.692    0.000    2.769 
#    0.000    2.308    1.692    3.692    0.000    0.000 
#    0.000    0.000    0.000    0.000    0.000    0.000 
#
# Total GULP energy -290067.026847 kJ/mol
# GULP energy per Si atom -5578.212055 kJ/mol
# Density = 1.732181 g / cm^3
# Si number density = 17.361325 Si / 1000 Ang^3
#
#
#
# Elastic Constant Matrix: (Units=GPa)
#
#
# Indices 1 2 3 4 5 6 
#
# 1 21.8758 29.9306 25.8267 0.0000 0.0000 0.0000
# 2 29.9306 159.4003 68.1907 0.0000 0.0000 0.0000
# 3 25.8267 68.1907 89.2115 0.0000 0.0000 0.0000
# 4 0.0000 0.0000 0.0000 21.7737 0.0000 0.0000
# 5 0.0000 0.0000 0.0000 0.0000 21.4782 0.0000
# 6 0.0000 0.0000 0.0000 0.0000 0.0000 2.7088
#
#
#
# Elastic Compliance Matrix: (Units=1/GPa)
#
#
# Indices 1 2 3 4 5 6 
#
# 1 0.074453 -0.007072 -0.016149 0.000000 0.000000 0.000000
# 2 -0.007072 0.009993 -0.005591 0.000000 0.000000 0.000000
# 3 -0.016149 -0.005591 0.020158 0.000000 0.000000 0.000000
# 4 0.000000 0.000000 0.000000 0.045927 0.000000 0.000000
# 5 0.000000 0.000000 0.000000 0.000000 0.046559 0.000000
# 6 0.000000 0.000000 0.000000 0.000000 0.000000 0.369162
#
#
# Mechanical properties :
#
#
# Convention : Reuss Voigt Hill
#
# Bulk Modulus (GPa) = 21.28510 57.59819 39.44165
# Shear Modulus (GPa) = 7.81816 18.96146 13.38981
#
# Velocity S-wave (km/s) = 2.12438 3.30838 2.78014
# Velocity P-wave (km/s) = 4.27832 6.91679 5.75091
#
# Compressibility (1/GPa) = 0.04698121
#
# Stress axis : x y z
#
# Youngs Moduli (GPa) = 13.43121 100.06685 49.60740
#
# Poissons Ratio (x) = 0.70764 0.80110
# Poissons Ratio (y) = 0.09498 0.27737
# Poissons Ratio (z) = 0.21690 0.55951
#
# Static dielectric constant tensor:
#      x y z
#    x 1.589730 0.000000 0.000000 
#    y 0.000000 1.589670 0.000000 
#    z 0.000000 0.000000 1.577120 
# 
# From -- ./inp_files/15495.got.cif
#   From: 2010.05.17/outbox.cif.g08.bks.cpg/sg47_8_cif.got.tgz:15495.got - 2010.06.03 20:15:42.
