data_PCOD9388540
_publ_section_title
;
Structure prediction by ZEFSAII (Michael W. Deem and Ramdas Pophale) SiO2 
 PCOD9388540
Probable space group: P M M M
;
_chemical_formula_sum "Si O2"
_cell_formula_units_Z 48
_cell_length_a 7.540905
_cell_length_b 9.354142
_cell_length_c 36.200551
_cell_angle_alpha 90.000000
_cell_angle_beta 90.000000
_cell_angle_gamma 90.000000
_cell_volume 2553.539668
_symmetry_space_group_name_H-M "P M M M"
_symmetry_group_IT_number 47
_symmetry_cell_setting 'orthorhombic'
loop_
_space_group_symop_operation_xyz
x,y,z
-x,-y,z
x,-y,-z
-x,y,-z
-x,-y,-z
x,y,-z
-x,y,z
x,-y,z
loop_
_atom_site_type_symbol
_atom_site_label
_atom_site_fract_x
_atom_site_fract_y
_atom_site_fract_z
Si Si1 0.000000 0.173258 0.210922
Si Si2 0.711173 0.328549 0.344838
Si Si3 0.291161 0.828867 0.847329
Si Si4 0.790182 0.337601 0.000000
Si Si5 0.715949 0.663584 0.571493
Si Si6 0.000000 0.172838 0.703639
Si Si7 0.282867 0.836548 0.500000
Si Si8 0.710963 0.662726 0.919795
O O1 0.172018 0.217277 0.187286
O O2 0.000000 0.217916 0.253363
O O3 0.000000 0.000000 0.211524
O O4 0.500000 0.303161 0.340534
O O5 0.739779 0.500000 0.340733
O O6 0.764523 0.290583 0.387073
O O7 0.829222 0.239319 0.316717
O O8 0.500000 0.797859 0.841538
O O9 0.226492 0.753110 0.884870
O O10 0.273916 0.000000 0.851704
O O11 0.741200 0.272298 0.960512
O O12 0.712421 0.500000 0.000000
O O13 0.000000 0.348422 0.000000
O O14 0.500000 0.663252 0.571147
O O15 0.773071 0.500000 0.566124
O O16 0.776060 0.758449 0.537346
O O17 0.000000 0.000000 0.701314
O O18 0.500000 0.832357 0.500000
O O19 0.227959 0.000000 0.500000
O O20 0.500000 0.653263 0.915614
O O21 0.783439 0.500000 0.919551
#
# Coordination Sequence:
#
# PCOD9388540 Si02
#       8
#     4   8   8   4   8   4   4   8
#     4   9  20  37  55  76 103 134 168 204 252 321
#     4   9  19  37  59  81 109 147 187 226 271 326
#     4   9  18  34  55  75  98 132 170 208 251 300
#     4   9  17  27  42  67  98 132 167 200 242 297
#     4   8  14  26  45  68  96 136 182 220 258 312
#     4  11  23  37  57  86 113 140 177 224 279 335
#     4   9  15  21  35  66 105 138 172 219 269 312
#     4   9  17  30  48  70  97 129 165 205 248 294
#
# _framework density 18.797436999999999
#
# number of rings (size 3 to 8) (size 9 to 14) (size 15 to 20)
#    0.000    3.000    0.000    1.750    1.167    3.667 
#    0.000    5.417    0.000    5.000    0.000    3.500 
#    0.000    0.000    0.000    0.000    0.000    0.000 
#
# Total GULP energy -267561.705988 kJ/mol
# GULP energy per Si atom -5574.202208 kJ/mol
# Density = 1.875465 g / cm^3
# Si number density = 18.797437 Si / 1000 Ang^3
#
#
#
# Elastic Constant Matrix: (Units=GPa)
#
#
# Indices 1 2 3 4 5 6 
#
# 1 75.7808 34.4763 63.2406 0.0000 0.0000 0.0000
# 2 34.4763 49.3384 79.0144 0.0000 0.0000 0.0000
# 3 63.2406 79.0144 223.4572 0.0000 0.0000 0.0000
# 4 0.0000 0.0000 0.0000 30.2427 0.0000 0.0000
# 5 0.0000 0.0000 0.0000 0.0000 48.4551 0.0000
# 6 0.0000 0.0000 0.0000 0.0000 0.0000 14.9641
#
#
#
# Elastic Compliance Matrix: (Units=1/GPa)
#
#
# Indices 1 2 3 4 5 6 
#
# 1 0.019598 -0.011095 -0.001623 0.000000 0.000000 0.000000
# 2 -0.011095 0.053013 -0.015605 0.000000 0.000000 0.000000
# 3 -0.001623 -0.015605 0.010453 0.000000 0.000000 0.000000
# 4 0.000000 0.000000 0.000000 0.033066 0.000000 0.000000
# 5 0.000000 0.000000 0.000000 0.000000 0.020638 0.000000
# 6 0.000000 0.000000 0.000000 0.000000 0.000000 0.066826
#
#
# Mechanical properties :
#
#
# Convention : Reuss Voigt Hill
#
# Bulk Modulus (GPa) = 37.85550 78.00433 57.92991
# Shear Modulus (GPa) = 18.58418 30.18872 24.38645
#
# Velocity S-wave (km/s) = 3.14770 4.01184 3.60575
# Velocity P-wave (km/s) = 5.77867 7.94023 6.94407
#
# Compressibility (1/GPa) = 0.02641624
#
# Stress axis : x y z
#
# Youngs Moduli (GPa) = 51.02482 18.86344 95.67053
#
# Poissons Ratio (x) = 0.20929 0.15530
# Poissons Ratio (y) = 0.56612 1.49296
# Poissons Ratio (z) = 0.08283 0.29437
#
# Static dielectric constant tensor:
#      x y z
#    x 1.682590 0.000000 0.000000 
#    y 0.000000 1.637450 0.000000 
#    z 0.000000 0.000000 1.648540 
# 
# From -- ./inp_files/34239.got.cif
#   From: 2010.05.17/outbox.cif.g08.bks.cpg/sg47_18_cif.got.tgz:34239.got - 2010.06.03 20:15:42.
