data_PCOD9388981
_publ_section_title
;
Structure prediction by ZEFSAII (Michael W. Deem and Ramdas Pophale) SiO2 
 PCOD9388981
Probable space group: P M M M
;
_chemical_formula_sum "Si O2"
_cell_formula_units_Z 52
_cell_length_a 9.962214
_cell_length_b 7.480155
_cell_length_c 34.895374
_cell_angle_alpha 90.000000
_cell_angle_beta 90.000000
_cell_angle_gamma 90.000000
_cell_volume 2600.365055
_symmetry_space_group_name_H-M "P M M M"
_symmetry_group_IT_number 47
_symmetry_cell_setting 'orthorhombic'
loop_
_space_group_symop_operation_xyz
x,y,z
-x,-y,z
x,-y,-z
-x,y,-z
-x,-y,-z
x,y,-z
-x,y,z
x,-y,z
loop_
_atom_site_type_symbol
_atom_site_label
_atom_site_fract_x
_atom_site_fract_y
_atom_site_fract_z
Si Si1 0.656338 0.714930 0.458817
Si Si2 0.347282 0.788320 0.374706
Si Si3 0.847285 0.285444 0.777292
Si Si4 0.345962 0.282116 0.931180
Si Si5 0.154847 0.281252 0.000000
Si Si6 0.152774 0.786170 0.691101
Si Si7 0.346486 0.718156 0.844268
O O1 0.714007 0.775707 0.500000
O O2 0.500000 0.774293 0.458271
O O3 0.656586 0.500000 0.459432
O O4 0.712218 0.767371 0.417530
O O5 0.500000 0.714481 0.374036
O O6 0.251527 0.715015 0.341589
O O7 0.358777 0.000000 0.368145
O O8 0.852579 0.500000 0.780867
O O9 0.797814 0.246614 0.734341
O O10 0.753076 0.218436 0.811290
O O11 0.000000 0.217122 0.780245
O O12 0.500000 0.227495 0.939764
O O13 0.346431 0.500000 0.931688
O O14 0.312179 0.227018 0.887717
O O15 0.239016 0.223868 0.962692
O O16 0.153868 0.500000 0.000000
O O17 0.000000 0.223630 0.000000
O O18 0.000000 0.715893 0.688265
O O19 0.144995 0.000000 0.686218
O O20 0.500000 0.771585 0.836638
O O21 0.344054 0.500000 0.844106
#
# Coordination Sequence:
#
# PCOD9388981 Si02
#       7
#     8   8   8   8   4   8   8
#     4   8  14  25  41  62  88 114 137 164 202 245
#     4   9  17  28  43  64  85 104 133 172 205 233
#     4   9  17  28  42  60  79 100 131 169 203 236
#     4   8  13  21  31  42  61  92 126 157 192 237
#     4   9  15  19  25  41  63  89 126 167 200 231
#     4   9  18  32  46  59  81 113 140 162 199 250
#     4   8  14  24  37  53  73  98 128 162 202 246
#
# _framework density 19.997191999999998
#
# number of rings (size 3 to 8) (size 9 to 14) (size 15 to 20)
#    0.000    3.462    0.000    1.615    0.000    3.077 
#    0.000    4.615    0.000    0.462    0.000    3.231 
#    0.000    0.000    0.000    0.692    0.000   14.769 
#
# Total GULP energy -289738.678114 kJ/mol
# GULP energy per Si atom -5571.897656 kJ/mol
# Density = 1.995168 g / cm^3
# Si number density = 19.997192 Si / 1000 Ang^3
#
#
#
# Elastic Constant Matrix: (Units=GPa)
#
#
# Indices 1 2 3 4 5 6 
#
# 1 96.3112 4.3035 123.0765 0.0000 0.0000 0.0000
# 2 4.3035 54.9684 0.5417 0.0000 0.0000 0.0000
# 3 123.0765 0.5417 224.0689 0.0000 0.0000 0.0000
# 4 0.0000 0.0000 0.0000 20.8222 0.0000 0.0000
# 5 0.0000 0.0000 0.0000 0.0000 -25.2807 0.0000
# 6 0.0000 0.0000 0.0000 0.0000 0.0000 -3.0378
#
#
#
# Elastic Compliance Matrix: (Units=1/GPa)
#
#
# Indices 1 2 3 4 5 6 
#
# 1 0.035192 -0.002565 -0.019324 0.000000 0.000000 0.000000
# 2 -0.002565 0.018380 0.001364 0.000000 0.000000 0.000000
# 3 -0.019324 0.001364 0.015074 0.000000 0.000000 0.000000
# 4 0.000000 0.000000 0.000000 0.048026 0.000000 0.000000
# 5 0.000000 0.000000 0.000000 0.000000 -0.039556 0.000000
# 6 0.000000 0.000000 0.000000 0.000000 0.000000 -0.329185
#
#
# Mechanical properties :
#
#
# Convention : Reuss Voigt Hill
#
# Bulk Modulus (GPa) = 36.23640 70.13243 53.18442
# Shear Modulus (GPa) = -24.77427 14.99585 -4.88921
#
# Velocity S-wave (km/s) = -3.52360 2.74140 -1.56533
# Velocity P-wave (km/s) = 1.26717 6.72069 4.83598
#
# Compressibility (1/GPa) = 0.02759656
#
# Stress axis : x y z
#
# Youngs Moduli (GPa) = 28.41575 54.40808 66.34001
#
# Poissons Ratio (x) = 0.13954 1.28195
# Poissons Ratio (y) = 0.07288 -0.09051
# Poissons Ratio (z) = 0.54910 -0.07423
#
# Static dielectric constant tensor:
#      x y z
#    x 1.688470 0.000000 0.000000 
#    y 0.000000 1.767880 0.000000 
#    z 0.000000 0.000000 1.711780 
# 
# From -- ./inp_files/33258.got.cif
#   From: 2010.05.17/outbox.cif.g08.bks.cpg/sg47_17_cif.got.tgz:33258.got - 2010.06.03 20:15:42.
