data_PCOD9388635
_publ_section_title
;
Structure prediction by ZEFSAII (Michael W. Deem and Ramdas Pophale) SiO2 
 PCOD9388635
Probable space group: P M M M
;
_chemical_formula_sum "Si O2"
_cell_formula_units_Z 44
_cell_length_a 7.801397
_cell_length_b 29.015737
_cell_length_c 10.107039
_cell_angle_alpha 90.000000
_cell_angle_beta 90.000000
_cell_angle_gamma 90.000000
_cell_volume 2287.862535
_symmetry_space_group_name_H-M "P M M M"
_symmetry_group_IT_number 47
_symmetry_cell_setting 'orthorhombic'
loop_
_space_group_symop_operation_xyz
x,y,z
-x,-y,z
x,-y,-z
-x,y,-z
-x,-y,-z
x,y,-z
-x,y,z
x,-y,z
loop_
_atom_site_type_symbol
_atom_site_label
_atom_site_fract_x
_atom_site_fract_y
_atom_site_fract_z
Si Si1 0.209362 0.631939 0.347121
Si Si2 0.705989 0.184901 0.851465
Si Si3 0.209359 0.448008 0.847769
Si Si4 0.706314 0.919153 0.149945
Si Si5 0.794216 0.264985 0.350449
Si Si6 0.797110 0.000000 0.350151
O O1 0.258623 0.624219 0.500000
O O2 0.269985 0.591809 0.250213
O O3 0.265001 0.683760 0.308855
O O4 0.000000 0.631319 0.343610
O O5 0.500000 0.182657 0.855817
O O6 0.766679 0.132946 0.819309
O O7 0.751213 0.224049 0.747911
O O8 0.767371 0.196188 0.000000
O O9 0.262147 0.500000 0.810169
O O10 0.000000 0.447595 0.845635
O O11 0.260508 0.439795 0.000000
O O12 0.500000 0.918234 0.143707
O O13 0.751135 0.955587 0.262110
O O14 0.766107 0.931407 0.000000
O O15 0.730787 0.256238 0.500000
O O16 0.000000 0.267481 0.356870
O O17 0.723416 0.000000 0.500000
O O18 0.000000 0.000000 0.362962
#
# Coordination Sequence:
#
# PCOD9388635 Si02
#       6
#     8   8   8   8   8   4
#     4   8  14  24  36  52  78 112 148 184 223 270
#     4   9  19  35  53  74  98 123 157 200 239 278
#     4   8  13  20  30  47  73 105 142 184 227 270
#     4   9  19  37  58  76  96 126 163 200 237 278
#     4   9  18  31  46  67  96 127 158 194 236 282
#     4  11  24  37  50  76 110 135 158 193 234 276
#
# _framework density 19.231925
#
# number of rings (size 3 to 8) (size 9 to 14) (size 15 to 20)
#    0.000    3.182    0.000    3.273    0.000    5.455 
#    0.000    9.091    0.000    0.000    0.000    0.000 
#    0.000    0.727    0.000    8.000    0.000   13.091 
#
# Total GULP energy -245228.887154 kJ/mol
# GULP energy per Si atom -5573.383799 kJ/mol
# Density = 1.918815 g / cm^3
# Si number density = 19.231925 Si / 1000 Ang^3
#
#
#
# Elastic Constant Matrix: (Units=GPa)
#
#
# Indices 1 2 3 4 5 6 
#
# 1 22.6420 10.8817 9.8463 0.0000 0.0000 0.0000
# 2 10.8817 204.6279 154.5033 0.0000 0.0000 0.0000
# 3 9.8463 154.5033 156.7194 0.0000 0.0000 0.0000
# 4 0.0000 0.0000 0.0000 59.1366 0.0000 0.0000
# 5 0.0000 0.0000 0.0000 0.0000 17.2751 0.0000
# 6 0.0000 0.0000 0.0000 0.0000 0.0000 24.9599
#
#
#
# Elastic Compliance Matrix: (Units=1/GPa)
#
#
# Indices 1 2 3 4 5 6 
#
# 1 0.045461 -0.001021 -0.001850 0.000000 0.000000 0.000000
# 2 -0.001021 0.019140 -0.018805 0.000000 0.000000 0.000000
# 3 -0.001850 -0.018805 0.025036 0.000000 0.000000 0.000000
# 4 0.000000 0.000000 0.000000 0.016910 0.000000 0.000000
# 5 0.000000 0.000000 0.000000 0.000000 0.057887 0.000000
# 6 0.000000 0.000000 0.000000 0.000000 0.000000 0.040064
#
#
# Mechanical properties :
#
#
# Convention : Reuss Voigt Hill
#
# Bulk Modulus (GPa) = 21.60505 81.60575 51.60540
# Shear Modulus (GPa) = 18.99131 34.19151 26.59141
#
# Velocity S-wave (km/s) = 3.14584 4.22103 3.72246
# Velocity P-wave (km/s) = 4.94504 8.14130 6.73551
#
# Compressibility (1/GPa) = 0.04628547
#
# Stress axis : x y z
#
# Youngs Moduli (GPa) = 21.99698 52.24665 39.94195
#
# Poissons Ratio (x) = 0.05334 0.07388
# Poissons Ratio (y) = 0.02246 0.75112
# Poissons Ratio (z) = 0.04069 0.98251
#
# Static dielectric constant tensor:
#      x y z
#    x 1.723850 0.000000 0.000000 
#    y 0.000000 1.668790 0.000000 
#    z 0.000000 0.000000 1.662070 
# 
# From -- ./inp_files/2104.got.cif
#   From: 2010.05.17/outbox.cif.g08.bks.cpg/sg47_2_cif.got.tgz:2104.got - 2010.06.03 20:15:42.
