data_PCOD9388567
_publ_section_title
;
Structure prediction by ZEFSAII (Michael W. Deem and Ramdas Pophale) SiO2 
 PCOD9388567
Probable space group: P M M M
;
_chemical_formula_sum "Si O2"
_cell_formula_units_Z 44
_cell_length_a 8.918038
_cell_length_b 13.870921
_cell_length_c 18.619987
_cell_angle_alpha 90.000000
_cell_angle_beta 90.000000
_cell_angle_gamma 90.000000
_cell_volume 2303.318471
_symmetry_space_group_name_H-M "P M M M"
_symmetry_group_IT_number 47
_symmetry_cell_setting 'orthorhombic'
loop_
_space_group_symop_operation_xyz
x,y,z
-x,-y,z
x,-y,-z
-x,y,-z
-x,-y,-z
x,y,-z
-x,y,z
x,-y,z
loop_
_atom_site_type_symbol
_atom_site_label
_atom_site_fract_x
_atom_site_fract_y
_atom_site_fract_z
Si Si1 0.679958 0.296553 0.157141
Si Si2 0.823434 0.108066 0.086354
Si Si3 0.679601 0.113188 0.581157
Si Si4 0.825842 0.740701 0.310567
Si Si5 0.332461 0.385411 0.417162
Si Si6 0.682496 0.500000 0.916253
O O1 0.500000 0.296607 0.156582
O O2 0.738132 0.201134 0.116068
O O3 0.740605 0.284596 0.237614
O O4 0.729572 0.399458 0.122172
O O5 0.000000 0.116158 0.105127
O O6 0.772342 0.000000 0.110311
O O7 0.812401 0.109253 0.000000
O O8 0.728045 0.141828 0.500000
O O9 0.500000 0.126731 0.584535
O O10 0.757552 0.169922 0.645222
O O11 0.709368 0.000000 0.588036
O O12 0.793878 0.654740 0.366127
O O13 0.000000 0.755200 0.295796
O O14 0.312943 0.356953 0.500000
O O15 0.500000 0.351908 0.394182
O O16 0.333751 0.500000 0.414798
O O17 0.500000 0.500000 0.915095
O O18 0.729133 0.500000 0.000000
#
# Coordination Sequence:
#
# PCOD9388567 Si02
#       6
#     8   8   8   8   8   4
#     4  11  23  39  61  88 118 157 202 248 298 355
#     4   9  19  38  63  90 122 156 188 231 293 361
#     4   9  19  38  63  87 112 149 200 251 296 350
#     4  12  25  37  53  82 120 156 190 236 292 349
#     4   9  19  37  60  82 106 143 191 238 284 337
#     4   9  20  40  65  91 116 145 190 249 303 352
#
# _framework density 19.102872999999999
#
# number of rings (size 3 to 8) (size 9 to 14) (size 15 to 20)
#    0.000    2.091    0.000    4.909    1.273    5.818 
#    0.000    4.091    0.000    3.273    0.000    0.000 
#    0.000    0.000    0.000    0.000    0.000    0.000 
#
# Total GULP energy -245481.844378 kJ/mol
# GULP energy per Si atom -5579.132827 kJ/mol
# Density = 1.905939 g / cm^3
# Si number density = 19.102873 Si / 1000 Ang^3
#
#
#
# Elastic Constant Matrix: (Units=GPa)
#
#
# Indices 1 2 3 4 5 6 
#
# 1 58.9902 48.0529 44.2735 0.0000 0.0000 0.0000
# 2 48.0529 178.3379 74.2335 0.0000 0.0000 0.0000
# 3 44.2735 74.2335 106.9640 0.0000 0.0000 0.0000
# 4 0.0000 0.0000 0.0000 33.5176 0.0000 0.0000
# 5 0.0000 0.0000 0.0000 0.0000 23.2389 0.0000
# 6 0.0000 0.0000 0.0000 0.0000 0.0000 37.8502
#
#
#
# Elastic Compliance Matrix: (Units=1/GPa)
#
#
# Indices 1 2 3 4 5 6 
#
# 1 0.026111 -0.003567 -0.008332 0.000000 0.000000 0.000000
# 2 -0.003567 0.008373 -0.004334 0.000000 0.000000 0.000000
# 3 -0.008332 -0.004334 0.015805 0.000000 0.000000 0.000000
# 4 0.000000 0.000000 0.000000 0.029835 0.000000 0.000000
# 5 0.000000 0.000000 0.000000 0.000000 0.043031 0.000000
# 6 0.000000 0.000000 0.000000 0.000000 0.000000 0.026420
#
#
# Mechanical properties :
#
#
# Convention : Reuss Voigt Hill
#
# Bulk Modulus (GPa) = 56.10867 75.26799 65.68833
# Shear Modulus (GPa) = 26.59810 30.77014 28.68412
#
# Velocity S-wave (km/s) = 3.73548 4.01778 3.87920
# Velocity P-wave (km/s) = 6.93114 7.81091 7.38414
#
# Compressibility (1/GPa) = 0.01782256
#
# Stress axis : x y z
#
# Youngs Moduli (GPa) = 38.29761 119.43672 63.26937
#
# Poissons Ratio (x) = 0.42609 0.52715
# Poissons Ratio (y) = 0.13663 0.27421
# Poissons Ratio (z) = 0.31909 0.51764
#
# Static dielectric constant tensor:
#      x y z
#    x 1.654580 0.000000 0.000000 
#    y 0.000000 1.695040 0.000000 
#    z 0.000000 0.000000 1.643000 
# 
# From -- ./inp_files/26357.got.cif
#   From: 2010.05.17/outbox.cif.g08.bks.cpg/sg47_14_cif.got.tgz:26357.got - 2010.06.03 20:15:42.
