data_PCOD9388625
_publ_section_title
;
Structure prediction by ZEFSAII (Michael W. Deem and Ramdas Pophale) SiO2 
 PCOD9388625
Probable space group: P M M M
;
_chemical_formula_sum "Si O2"
_cell_formula_units_Z 44
_cell_length_a 29.374158
_cell_length_b 9.884137
_cell_length_c 7.813138
_cell_angle_alpha 90.000000
_cell_angle_beta 90.000000
_cell_angle_gamma 90.000000
_cell_volume 2268.452438
_symmetry_space_group_name_H-M "P M M M"
_symmetry_group_IT_number 47
_symmetry_cell_setting 'orthorhombic'
loop_
_space_group_symop_operation_xyz
x,y,z
-x,-y,z
x,-y,-z
-x,y,-z
-x,-y,-z
x,y,-z
-x,y,z
x,-y,z
loop_
_atom_site_type_symbol
_atom_site_label
_atom_site_fract_x
_atom_site_fract_y
_atom_site_fract_z
Si Si1 0.681616 0.844041 0.708781
Si Si2 0.866453 0.652091 0.797234
Si Si3 0.783796 0.153412 0.705678
Si Si4 0.400772 0.343206 0.710108
Si Si5 0.500000 0.335350 0.300591
Si Si6 0.051550 0.847525 0.293960
O O1 0.681431 0.838673 0.500000
O O2 0.732905 0.807721 0.765230
O O3 0.641306 0.747263 0.768283
O O4 0.673522 0.000000 0.756819
O O5 0.866260 0.500000 0.722882
O O6 0.822575 0.740074 0.747824
O O7 0.911480 0.736631 0.752492
O O8 0.865555 0.640259 0.000000
O O9 0.781778 0.145728 0.500000
O O10 0.794078 0.000000 0.767535
O O11 0.401952 0.340193 0.500000
O O12 0.394679 0.500000 0.758621
O O13 0.450786 0.294963 0.771285
O O14 0.500000 0.500000 0.298121
O O15 0.500000 0.293551 0.500000
O O16 0.050251 0.852559 0.500000
O O17 0.000000 0.817870 0.234071
O O18 0.063957 0.000000 0.234470
#
# Coordination Sequence:
#
# PCOD9388625 Si02
#       6
#     8   8   8   8   4   8
#     4   8  14  24  37  55  79 104 135 182 233 273
#     4  11  24  37  49  72 105 134 160 195 238 281
#     4   9  18  33  52  71  91 120 160 202 241 284
#     4   8  12  18  29  45  67  99 139 178 216 263
#     4   7  10  16  25  39  63  97 136 175 212 255
#     4   9  19  37  60  83 104 128 162 200 233 271
#
# _framework density 19.396484000000001
#
# number of rings (size 3 to 8) (size 9 to 14) (size 15 to 20)
#    0.000    3.182    0.000    3.818    0.000    5.818 
#    0.000    5.000    0.000    2.727    0.000    0.000 
#    0.000    0.000    0.000    0.818    0.000   16.909 
#
# Total GULP energy -245187.788857 kJ/mol
# GULP energy per Si atom -5572.449747 kJ/mol
# Density = 1.935234 g / cm^3
# Si number density = 19.396484 Si / 1000 Ang^3
#
#
#
# Elastic Constant Matrix: (Units=GPa)
#
#
# Indices 1 2 3 4 5 6 
#
# 1 209.0646 139.6316 11.4190 0.0000 0.0000 0.0000
# 2 139.6316 137.6714 8.6126 0.0000 0.0000 0.0000
# 3 11.4190 8.6126 23.8508 0.0000 0.0000 0.0000
# 4 0.0000 0.0000 0.0000 16.6174 0.0000 0.0000
# 5 0.0000 0.0000 0.0000 0.0000 -55.0241 0.0000
# 6 0.0000 0.0000 0.0000 0.0000 0.0000 42.4787
#
#
#
# Elastic Compliance Matrix: (Units=1/GPa)
#
#
# Indices 1 2 3 4 5 6 
#
# 1 0.014895 -0.015000 -0.001715 0.000000 0.000000 0.000000
# 2 -0.015000 0.022537 -0.000957 0.000000 0.000000 0.000000
# 3 -0.001715 -0.000957 0.043094 0.000000 0.000000 0.000000
# 4 0.000000 0.000000 0.000000 0.060178 0.000000 0.000000
# 5 0.000000 0.000000 0.000000 0.000000 -0.018174 0.000000
# 6 0.000000 0.000000 0.000000 0.000000 0.000000 0.023541
#
#
# Mechanical properties :
#
#
# Convention : Reuss Voigt Hill
#
# Bulk Modulus (GPa) = 22.13219 76.65703 49.39461
# Shear Modulus (GPa) = 25.44850 14.87598 20.16224
#
# Velocity S-wave (km/s) = 3.62611 2.77238 3.22759
# Velocity P-wave (km/s) = 5.38207 7.06081 6.27781
#
# Compressibility (1/GPa) = 0.04518306
#
# Stress axis : x y z
#
# Youngs Moduli (GPa) = 67.13590 44.37132 23.20521
#
# Poissons Ratio (x) = 0.66557 0.03979
# Poissons Ratio (y) = 1.00704 0.02220
# Poissons Ratio (z) = 0.11512 0.04245
#
# Static dielectric constant tensor:
#      x y z
#    x 1.696930 0.000000 0.000000 
#    y 0.000000 1.668840 0.000000 
#    z 0.000000 0.000000 1.714010 
# 
# From -- ./inp_files/2291.got.cif
#   From: 2010.05.17/outbox.cif.g08.bks.cpg/sg47_2_cif.got.tgz:2291.got - 2010.06.03 20:15:42.
