data_PCOD9388984
_publ_section_title
;
Structure prediction by ZEFSAII (Michael W. Deem and Ramdas Pophale) SiO2 
 PCOD9388984
Probable space group: P M M M
;
_chemical_formula_sum "Si O2"
_cell_formula_units_Z 36
_cell_length_a 7.396705
_cell_length_b 23.526619
_cell_length_c 12.163730
_cell_angle_alpha 90.000000
_cell_angle_beta 90.000000
_cell_angle_gamma 90.000000
_cell_volume 2116.725731
_symmetry_space_group_name_H-M "P M M M"
_symmetry_group_IT_number 47
_symmetry_cell_setting 'orthorhombic'
loop_
_space_group_symop_operation_xyz
x,y,z
-x,-y,z
x,-y,-z
-x,y,-z
-x,-y,-z
x,y,-z
-x,y,z
x,-y,z
loop_
_atom_site_type_symbol
_atom_site_label
_atom_site_fract_x
_atom_site_fract_y
_atom_site_fract_z
Si Si1 0.220662 0.609980 0.235861
Si Si2 0.794047 0.844995 0.366323
Si Si3 0.500000 0.934966 0.365861
Si Si4 0.779423 0.566320 0.000000
Si Si5 0.220530 0.500000 0.625786
Si Si6 0.779261 0.718561 0.373073
O O1 0.278090 0.597659 0.111308
O O2 0.276561 0.556434 0.310003
O O3 0.279459 0.668377 0.292748
O O4 0.000000 0.610714 0.235806
O O5 0.795664 0.844753 0.500000
O O6 0.671664 0.897443 0.331231
O O7 0.724138 0.781993 0.337306
O O8 0.000000 0.851214 0.328688
O O9 0.500000 0.936313 0.500000
O O10 0.500000 0.000000 0.328195
O O11 0.723695 0.500000 0.000000
O O12 0.000000 0.565554 0.000000
O O13 0.279896 0.500000 0.500000
O O14 0.000000 0.500000 0.625559
O O15 0.723639 0.708392 0.500000
O O16 0.000000 0.719312 0.374289
#
# Coordination Sequence:
#
# PCOD9388984 Si02
#       6
#     8   8   4   4   4   8
#     4   9  14  19  27  39  59  90 126 163 203 247
#     4   8  14  24  36  51  75 106 137 170 205 239
#     4   9  16  24  36  56  80 108 141 168 192 234
#     4   9  14  20  26  36  60  95 127 156 203 261
#     4   9  14  17  23  37  57  83 120 165 205 238
#     4   8  13  21  32  45  63  92 130 167 203 241
#
# _framework density 17.007401000000002
#
# number of rings (size 3 to 8) (size 9 to 14) (size 15 to 20)
#    0.000    3.444    1.111    2.000    0.000    3.111 
#    0.000    2.222    0.000    0.000    0.000    0.000 
#    0.000    1.778    0.000   11.556    0.000   49.667 
#
# Total GULP energy -200643.341516 kJ/mol
# GULP energy per Si atom -5573.426153 kJ/mol
# Density = 1.696869 g / cm^3
# Si number density = 17.007401 Si / 1000 Ang^3
#
#
#
# Elastic Constant Matrix: (Units=GPa)
#
#
# Indices 1 2 3 4 5 6 
#
# 1 66.3778 44.1888 15.9214 0.0000 0.0000 0.0000
# 2 44.1888 197.1534 72.4628 0.0000 0.0000 0.0000
# 3 15.9214 72.4628 97.3906 0.0000 0.0000 0.0000
# 4 0.0000 0.0000 0.0000 2.0885 0.0000 0.0000
# 5 0.0000 0.0000 0.0000 0.0000 -5.1274 0.0000
# 6 0.0000 0.0000 0.0000 0.0000 0.0000 75.0494
#
#
#
# Elastic Compliance Matrix: (Units=1/GPa)
#
#
# Indices 1 2 3 4 5 6 
#
# 1 0.017708 -0.003998 0.000080 0.000000 0.000000 0.000000
# 2 -0.003998 0.007884 -0.005213 0.000000 0.000000 0.000000
# 3 0.000080 -0.005213 0.014133 0.000000 0.000000 0.000000
# 4 0.000000 0.000000 0.000000 0.478808 0.000000 0.000000
# 5 0.000000 0.000000 0.000000 0.000000 -0.195031 0.000000
# 6 0.000000 0.000000 0.000000 0.000000 0.000000 0.013325
#
#
# Mechanical properties :
#
#
# Convention : Reuss Voigt Hill
#
# Bulk Modulus (GPa) = 46.59052 69.56307 58.07679
# Shear Modulus (GPa) = 13.80290 29.62536 21.71413
#
# Velocity S-wave (km/s) = 2.85192 4.17815 3.57703
# Velocity P-wave (km/s) = 6.18856 8.01663 7.16117
#
# Compressibility (1/GPa) = 0.02146360
#
# Stress axis : x y z
#
# Youngs Moduli (GPa) = 56.47215 126.83595 70.75544
#
# Poissons Ratio (x) = 0.50714 -0.00567
# Poissons Ratio (y) = 0.22580 0.36881
# Poissons Ratio (z) = -0.00452 0.66114
#
# Static dielectric constant tensor:
#      x y z
#    x 1.678670 0.000000 0.000000 
#    y 0.000000 1.565220 0.000000 
#    z 0.000000 0.000000 1.535300 
# 
# From -- ./inp_files/15019.got.cif
#   From: 2010.05.17/outbox.cif.g08.bks.cpg/sg47_8_cif.got.tgz:15019.got - 2010.06.03 20:15:42.
