data_PCOD9388056
_publ_section_title
;
Structure prediction by ZEFSAII (Michael W. Deem and Ramdas Pophale) SiO2 
 PCOD9388056
Probable space group: P M M M
;
_chemical_formula_sum "Si O2"
_cell_formula_units_Z 48
_cell_length_a 8.600463
_cell_length_b 15.306191
_cell_length_c 17.892118
_cell_angle_alpha 90.000000
_cell_angle_beta 90.000000
_cell_angle_gamma 90.000000
_cell_volume 2355.324307
_symmetry_space_group_name_H-M "P M M M"
_symmetry_group_IT_number 47
_symmetry_cell_setting 'orthorhombic'
loop_
_space_group_symop_operation_xyz
x,y,z
-x,-y,z
x,-y,-z
-x,y,-z
-x,-y,-z
x,y,-z
-x,y,z
x,-y,z
loop_
_atom_site_type_symbol
_atom_site_label
_atom_site_fract_x
_atom_site_fract_y
_atom_site_fract_z
Si Si1 0.825151 0.500000 0.412812
Si Si2 0.689812 0.100646 0.000000
Si Si3 0.185290 0.095525 0.737677
Si Si4 0.687344 0.844875 0.586383
Si Si5 0.685723 0.220643 0.138314
Si Si6 0.682735 0.338644 0.663454
Si Si7 0.815219 0.398859 0.178331
O O1 0.845133 0.500000 0.500000
O O2 0.725969 0.582739 0.389999
O O3 0.000000 0.500000 0.377670
O O4 0.738878 0.155645 0.927426
O O5 0.500000 0.098788 0.000000
O O6 0.743061 0.000000 0.000000
O O7 0.236500 0.097731 0.651205
O O8 0.261801 0.173664 0.784716
O O9 0.000000 0.104761 0.742304
O O10 0.230794 0.000000 0.769050
O O11 0.736867 0.857232 0.500000
O O12 0.500000 0.856139 0.588062
O O13 0.724437 0.748227 0.617840
O O14 0.500000 0.224581 0.138319
O O15 0.747376 0.319456 0.129007
O O16 0.500000 0.334034 0.681623
O O17 0.772045 0.364332 0.738962
O O18 0.758787 0.500000 0.168627
O O19 0.000000 0.400533 0.169423
#
# Coordination Sequence:
#
# PCOD9388056 Si02
#       7
#     4   4   8   8   8   8   8
#     4  11  23  35  49  75 113 156 201 254 319 379
#     4   9  20  40  68 103 136 164 199 249 308 365
#     4  11  24  40  60  88 122 162 207 254 310 376
#     4  10  22  39  58  82 113 153 204 260 316 370
#     4  11  22  40  68  98 128 163 204 253 308 366
#     4  11  21  35  57  82 110 151 205 262 315 368
#     4  11  23  39  61  89 125 166 207 251 304 368
#
# _framework density 20.379359999999998
#
# number of rings (size 3 to 8) (size 9 to 14) (size 15 to 20)
#    0.000    1.333    2.500    3.250    0.000    5.667 
#    0.000    3.750    0.000    5.500    0.000    0.000 
#    0.000    0.000    0.000    0.000    0.000    0.000 
#
# Total GULP energy -267906.424784 kJ/mol
# GULP energy per Si atom -5581.383850 kJ/mol
# Density = 2.033298 g / cm^3
# Si number density = 20.379360 Si / 1000 Ang^3
#
#
#
# Elastic Constant Matrix: (Units=GPa)
#
#
# Indices 1 2 3 4 5 6 
#
# 1 27.1320 42.3834 12.2973 0.0000 0.0000 0.0000
# 2 42.3834 166.6167 45.8710 0.0000 0.0000 0.0000
# 3 12.2973 45.8710 92.0435 0.0000 0.0000 0.0000
# 4 0.0000 0.0000 0.0000 -22.7299 0.0000 0.0000
# 5 0.0000 0.0000 0.0000 0.0000 -51.5751 0.0000
# 6 0.0000 0.0000 0.0000 0.0000 0.0000 28.1384
#
#
#
# Elastic Compliance Matrix: (Units=1/GPa)
#
#
# Indices 1 2 3 4 5 6 
#
# 1 0.061178 -0.015429 -0.000484 0.000000 0.000000 0.000000
# 2 -0.015429 0.010847 -0.003345 0.000000 0.000000 0.000000
# 3 -0.000484 -0.003345 0.012596 0.000000 0.000000 0.000000
# 4 0.000000 0.000000 0.000000 -0.043995 0.000000 0.000000
# 5 0.000000 0.000000 0.000000 0.000000 -0.019389 0.000000
# 6 0.000000 0.000000 0.000000 0.000000 0.000000 0.035539
#
#
# Mechanical properties :
#
#
# Convention : Reuss Voigt Hill
#
# Bulk Modulus (GPa) = 21.68926 54.09949 37.89438
# Shear Modulus (GPa) = 45.18326 3.11605 24.14965
#
# Velocity S-wave (km/s) = 4.71373 1.23788 3.44613
# Velocity P-wave (km/s) = 6.34756 5.35229 5.87105
#
# Compressibility (1/GPa) = 0.04610576
#
# Stress axis : x y z
#
# Youngs Moduli (GPa) = 16.34568 92.18836 79.39069
#
# Poissons Ratio (x) = 1.42237 0.03845
# Poissons Ratio (y) = 0.25220 0.26553
# Poissons Ratio (z) = 0.00792 0.30833
#
# Static dielectric constant tensor:
#      x y z
#    x 1.704780 0.000000 0.000000 
#    y 0.000000 1.757340 0.000000 
#    z 0.000000 0.000000 1.740120 
# 
# From -- ./inp_files/26543.got.cif
#   From: 2010.05.17/outbox.cif.g08.bks.cpg/sg47_14_cif.got.tgz:26543.got - 2010.06.03 20:15:42.
