data_PCOD9388915
_publ_section_title
;
Structure prediction by ZEFSAII (Michael W. Deem and Ramdas Pophale) SiO2 
 PCOD9388915
Probable space group: P M M M
;
_chemical_formula_sum "Si O2"
_cell_formula_units_Z 48
_cell_length_a 7.255076
_cell_length_b 13.247462
_cell_length_c 19.398205
_cell_angle_alpha 90.000000
_cell_angle_beta 90.000000
_cell_angle_gamma 90.000000
_cell_volume 1864.387546
_symmetry_space_group_name_H-M "P M M M"
_symmetry_group_IT_number 47
_symmetry_cell_setting 'orthorhombic'
loop_
_space_group_symop_operation_xyz
x,y,z
-x,-y,z
x,-y,-z
-x,y,-z
-x,-y,-z
x,y,-z
-x,y,z
x,-y,z
loop_
_atom_site_type_symbol
_atom_site_label
_atom_site_fract_x
_atom_site_fract_y
_atom_site_fract_z
Si Si1 0.275013 0.826668 0.776572
Si Si2 0.724203 0.390958 0.724580
Si Si3 0.787819 0.391961 0.917413
Si Si4 0.276025 0.108543 0.624658
Si Si5 0.291975 0.838118 0.077399
Si Si6 0.724219 0.325299 0.574387
O O1 0.500000 0.829641 0.778921
O O2 0.218495 0.709487 0.764747
O O3 0.222531 0.879779 0.705094
O O4 0.209458 0.872103 0.849412
O O5 0.500000 0.389788 0.726724
O O6 0.787305 0.500000 0.749365
O O7 0.779894 0.379220 0.644683
O O8 0.707780 0.500000 0.893410
O O9 0.698267 0.282957 0.908473
O O10 0.000000 0.385844 0.894539
O O11 0.790925 0.399397 0.000000
O O12 0.500000 0.110135 0.623420
O O13 0.219676 0.208452 0.584250
O O14 0.216172 0.000000 0.597775
O O15 0.500000 0.877389 0.073509
O O16 0.211098 0.853192 0.000000
O O17 0.784851 0.364100 0.500000
O O18 0.500000 0.328927 0.574480
#
# Coordination Sequence:
#
# PCOD9388915 Si02
#       6
#     8   8   8   8   8   8
#     4   8  14  23  32  44  63  84 110 146 182 217
#     4   8  13  20  28  37  53  81 111 136 169 212
#     4   8  14  24  35  47  67  94 120 147 182 224
#     4   8  13  21  32  43  57  82 111 137 174 222
#     4   9  16  24  35  51  69  90 118 155 194 221
#     4   8  13  19  26  39  57  75 104 146 178 201
#
# _framework density 25.745721
#
# number of rings (size 3 to 8) (size 9 to 14) (size 15 to 20)
#    0.000    3.833    0.000    2.500    0.000    1.667 
#    0.000    6.667    0.000    0.500    0.000    3.500 
#    0.000    0.667    0.000    4.167    0.000   17.667 
#
# Total GULP energy -267731.702314 kJ/mol
# GULP energy per Si atom -5577.743798 kJ/mol
# Density = 2.568712 g / cm^3
# Si number density = 25.745721 Si / 1000 Ang^3
#
#
#
# Elastic Constant Matrix: (Units=GPa)
#
#
# Indices 1 2 3 4 5 6 
#
# 1 114.1773 -0.3779 -0.6101 0.0000 0.0000 0.0000
# 2 -0.3779 91.7683 -5.5134 0.0000 0.0000 0.0000
# 3 -0.6101 -5.5134 184.8796 0.0000 0.0000 0.0000
# 4 0.0000 0.0000 0.0000 -14.7462 0.0000 0.0000
# 5 0.0000 0.0000 0.0000 0.0000 -34.6549 0.0000
# 6 0.0000 0.0000 0.0000 0.0000 0.0000 -29.0193
#
#
#
# Elastic Compliance Matrix: (Units=1/GPa)
#
#
# Indices 1 2 3 4 5 6 
#
# 1 0.008759 0.000038 0.000030 0.000000 0.000000 0.000000
# 2 0.000038 0.010917 0.000326 0.000000 0.000000 0.000000
# 3 0.000030 0.000326 0.005419 0.000000 0.000000 0.000000
# 4 0.000000 0.000000 0.000000 -0.067814 0.000000 0.000000
# 5 0.000000 0.000000 0.000000 0.000000 -0.028856 0.000000
# 6 0.000000 0.000000 0.000000 0.000000 0.000000 -0.034460
#
#
# Mechanical properties :
#
#
# Convention : Reuss Voigt Hill
#
# Bulk Modulus (GPa) = 38.63806 41.98029 40.30917
# Shear Modulus (GPa) = -50.91853 10.80437 -20.05708
#
# Velocity S-wave (km/s) = -4.45201 2.05078 -2.79417
# Velocity P-wave (km/s) = 3.37447 4.68494 2.29800
#
# Compressibility (1/GPa) = 0.02588122
#
# Stress axis : x y z
#
# Youngs Moduli (GPa) = 114.17362 91.60248 184.54488
#
# Poissons Ratio (x) = -0.00347 -0.00554
# Poissons Ratio (y) = -0.00432 -0.06010
# Poissons Ratio (z) = -0.00343 -0.02983
#
# Static dielectric constant tensor:
#      x y z
#    x 2.011000 0.000000 0.000000 
#    y 0.000000 2.083310 0.000000 
#    z 0.000000 0.000000 2.012450 
# 
# From -- ./inp_files/6740.got.cif
#   From: 2010.05.17/outbox.cif.g08.bks.cpg/sg47_4_cif.got.tgz:6740.got - 2010.06.03 20:15:42.
