data_PCOD9388844
_publ_section_title
;
Structure prediction by ZEFSAII (Michael W. Deem and Ramdas Pophale) SiO2 
 PCOD9388844
Probable space group: P M M M
;
_chemical_formula_sum "Si O2"
_cell_formula_units_Z 52
_cell_length_a 7.459936
_cell_length_b 27.951253
_cell_length_c 14.038534
_cell_angle_alpha 90.000000
_cell_angle_beta 90.000000
_cell_angle_gamma 90.000000
_cell_volume 2927.238719
_symmetry_space_group_name_H-M "P M M M"
_symmetry_group_IT_number 47
_symmetry_cell_setting 'orthorhombic'
loop_
_space_group_symop_operation_xyz
x,y,z
-x,-y,z
x,-y,-z
-x,y,-z
-x,-y,-z
x,y,-z
-x,y,z
x,-y,z
loop_
_atom_site_type_symbol
_atom_site_label
_atom_site_fract_x
_atom_site_fract_y
_atom_site_fract_z
Si Si1 0.216219 0.551489 0.613900
Si Si2 0.216138 0.851524 0.607222
Si Si3 0.716374 0.803042 0.106998
Si Si4 0.280503 0.000000 0.110964
Si Si5 0.211742 0.753266 0.298243
Si Si6 0.712349 0.098702 0.200975
Si Si7 0.218975 0.655627 0.611517
O O1 0.249871 0.551815 0.500000
O O2 0.283117 0.500000 0.651064
O O3 0.280130 0.603434 0.648429
O O4 0.000000 0.551019 0.625192
O O5 0.279031 0.861039 0.500000
O O6 0.283276 0.799839 0.645327
O O7 0.262373 0.890334 0.687489
O O8 0.000000 0.849255 0.604877
O O9 0.500000 0.805046 0.105229
O O10 0.765407 0.764579 0.187033
O O11 0.783191 0.854708 0.144775
O O12 0.778892 0.793504 0.000000
O O13 0.217817 0.951710 0.163073
O O14 0.500000 0.000000 0.113750
O O15 0.229634 0.000000 0.000000
O O16 0.283112 0.702253 0.332296
O O17 0.000000 0.752239 0.319018
O O18 0.500000 0.097993 0.182677
O O19 0.267051 0.660440 0.500000
O O20 0.000000 0.654744 0.614782
#
# Coordination Sequence:
#
# PCOD9388844 Si02
#       7
#     8   8   8   4   8   8   8
#     4   7   9  13  22  39  66  99 129 153 180 217
#     4   9  17  29  43  58  80 110 137 158 184 220
#     4   9  17  29  43  58  78 102 124 149 188 235
#     4   9  16  28  48  69  84  98 121 157 198 235
#     4   9  16  25  39  59  79 100 130 163 189 218
#     4   9  17  29  46  66  82  98 125 158 189 225
#     4   8  12  18  30  49  74 103 131 157 185 218
#
# _framework density 17.764181000000001
#
# number of rings (size 3 to 8) (size 9 to 14) (size 15 to 20)
#    0.000    3.462    0.000    2.308    0.000    4.308 
#    0.000    0.769    0.000    5.538    0.000    0.000 
#    0.000    1.231    0.000   11.538    0.000    4.615 
#
# Total GULP energy -289603.816178 kJ/mol
# GULP energy per Si atom -5569.304157 kJ/mol
# Density = 1.772375 g / cm^3
# Si number density = 17.764181 Si / 1000 Ang^3
#
#
#
# Elastic Constant Matrix: (Units=GPa)
#
#
# Indices 1 2 3 4 5 6 
#
# 1 48.8167 5.5232 -9.3203 0.0000 0.0000 0.0000
# 2 5.5232 187.3353 86.9828 0.0000 0.0000 0.0000
# 3 -9.3203 86.9828 101.8768 0.0000 0.0000 0.0000
# 4 0.0000 0.0000 0.0000 19.2413 0.0000 0.0000
# 5 0.0000 0.0000 0.0000 0.0000 12.6730 0.0000
# 6 0.0000 0.0000 0.0000 0.0000 0.0000 8.4333
#
#
#
# Elastic Compliance Matrix: (Units=1/GPa)
#
#
# Indices 1 2 3 4 5 6 
#
# 1 0.021572 -0.002572 0.004169 0.000000 0.000000 0.000000
# 2 -0.002572 0.009151 -0.008048 0.000000 0.000000 0.000000
# 3 0.004169 -0.008048 0.017069 0.000000 0.000000 0.000000
# 4 0.000000 0.000000 0.000000 0.051972 0.000000 0.000000
# 5 0.000000 0.000000 0.000000 0.000000 0.078908 0.000000
# 6 0.000000 0.000000 0.000000 0.000000 0.000000 0.118577
#
#
# Mechanical properties :
#
#
# Convention : Reuss Voigt Hill
#
# Bulk Modulus (GPa) = 28.66149 56.04443 42.35296
# Shear Modulus (GPa) = 15.53858 25.05906 20.29882
#
# Velocity S-wave (km/s) = 2.96077 3.75994 3.38403
# Velocity P-wave (km/s) = 5.27803 7.10402 6.25798
#
# Compressibility (1/GPa) = 0.03489002
#
# Stress axis : x y z
#
# Youngs Moduli (GPa) = 46.35670 109.28003 58.58610
#
# Poissons Ratio (x) = 0.28106 -0.24427
# Poissons Ratio (y) = 0.11923 0.47152
# Poissons Ratio (z) = -0.19328 0.87952
#
# Static dielectric constant tensor:
#      x y z
#    x 1.700870 0.000000 0.000000 
#    y 0.000000 1.642090 0.000000 
#    z 0.000000 0.000000 1.574390 
# 
# From -- ./inp_files/22011.got.cif
#   From: 2010.05.17/outbox.cif.g08.bks.cpg/sg47_12_cif.got.tgz:22011.got - 2010.06.03 20:15:42.
