data_PCOD9388324
_publ_section_title
;
Structure prediction by ZEFSAII (Michael W. Deem and Ramdas Pophale) SiO2 
 PCOD9388324
Probable space group: P M M M
;
_chemical_formula_sum "Si O2"
_cell_formula_units_Z 64
_cell_length_a 8.761237
_cell_length_b 19.799135
_cell_length_c 20.197970
_cell_angle_alpha 90.000000
_cell_angle_beta 90.000000
_cell_angle_gamma 90.000000
_cell_volume 3503.639132
_symmetry_space_group_name_H-M "P M M M"
_symmetry_group_IT_number 47
_symmetry_cell_setting 'orthorhombic'
loop_
_space_group_symop_operation_xyz
x,y,z
-x,-y,z
x,-y,-z
-x,y,-z
-x,-y,-z
x,y,-z
-x,y,z
x,-y,z
loop_
_atom_site_type_symbol
_atom_site_label
_atom_site_fract_x
_atom_site_fract_y
_atom_site_fract_z
Si Si1 0.817200 0.218285 0.706646
Si Si2 0.323464 0.573596 0.580241
Si Si3 0.677564 0.924954 0.744292
Si Si4 0.678530 0.695060 0.824376
Si Si5 0.827433 0.211520 0.074480
Si Si6 0.685772 0.421379 0.923964
Si Si7 0.324790 0.075799 0.903714
Si Si8 0.817416 0.286059 0.424992
O O1 0.763939 0.142467 0.722890
O O2 0.755987 0.274429 0.758636
O O3 0.762968 0.236748 0.632569
O O4 0.000000 0.220773 0.709046
O O5 0.322443 0.571380 0.500000
O O6 0.500000 0.582030 0.600634
O O7 0.269044 0.500000 0.603793
O O8 0.226345 0.638462 0.597794
O O9 0.500000 0.919819 0.723890
O O10 0.679626 0.924462 0.824025
O O11 0.734684 0.000000 0.723285
O O12 0.500000 0.685212 0.810380
O O13 0.705856 0.753833 0.878229
O O14 0.737476 0.628851 0.864965
O O15 0.790276 0.132552 0.073177
O O16 0.000000 0.223313 0.099217
O O17 0.815842 0.238099 0.000000
O O18 0.500000 0.417659 0.924142
O O19 0.727207 0.500000 0.912511
O O20 0.734029 0.403716 0.000000
O O21 0.500000 0.091607 0.923057
O O22 0.289316 0.000000 0.925573
O O23 0.757424 0.275026 0.500000
O O24 0.000000 0.281180 0.428463
#
# Coordination Sequence:
#
# PCOD9388324 Si02
#       8
#     8   8   8   8   8   8   8   8
#     4  11  22  35  54  80 108 137 171 214 263 312
#     4   8  14  26  46  73 103 133 168 211 253 294
#     4   9  18  34  56  80 104 132 170 214 258 310
#     4  11  21  34  54  78 104 135 172 214 262 316
#     4  11  23  35  48  71 104 138 171 211 256 301
#     4   8  15  30  53  79 103 130 172 223 265 302
#     4   9  18  33  52  73  98 131 171 212 252 299
#     4   9  19  35  53  75 105 141 179 217 260 317
#
# _framework density 18.266721
#
# number of rings (size 3 to 8) (size 9 to 14) (size 15 to 20)
#    0.000    2.500    1.250    3.000    0.000    3.500 
#    0.000    4.375    0.000    4.125    0.000    7.000 
#    0.000    0.000    0.000    0.000    0.000    0.000 
#
# Total GULP energy -356482.997661 kJ/mol
# GULP energy per Si atom -5570.046838 kJ/mol
# Density = 1.822514 g / cm^3
# Si number density = 18.266721 Si / 1000 Ang^3
#
#
#
# Elastic Constant Matrix: (Units=GPa)
#
#
# Indices 1 2 3 4 5 6 
#
# 1 17.3748 20.6077 21.4156 0.0000 0.0000 0.0000
# 2 20.6077 115.2297 60.3162 0.0000 0.0000 0.0000
# 3 21.4156 60.3162 91.8413 0.0000 0.0000 0.0000
# 4 0.0000 0.0000 0.0000 22.7179 0.0000 0.0000
# 5 0.0000 0.0000 0.0000 0.0000 44.0255 0.0000
# 6 0.0000 0.0000 0.0000 0.0000 0.0000 -1.9588
#
#
#
# Elastic Compliance Matrix: (Units=1/GPa)
#
#
# Indices 1 2 3 4 5 6 
#
# 1 0.084639 -0.007324 -0.014926 0.000000 0.000000 0.000000
# 2 -0.007324 0.013858 -0.007394 0.000000 0.000000 0.000000
# 3 -0.014926 -0.007394 0.019225 0.000000 0.000000 0.000000
# 4 0.000000 0.000000 0.000000 0.044018 0.000000 0.000000
# 5 0.000000 0.000000 0.000000 0.000000 0.022714 0.000000
# 6 0.000000 0.000000 0.000000 0.000000 0.000000 -0.510523
#
#
# Mechanical properties :
#
#
# Convention : Reuss Voigt Hill
#
# Bulk Modulus (GPa) = 17.11320 47.68053 32.39687
# Shear Modulus (GPa) = -20.21802 21.09734 0.43966
#
# Velocity S-wave (km/s) = -3.33050 3.40216 0.49113
# Velocity P-wave (km/s) = 2.32397 6.44918 4.25389
#
# Compressibility (1/GPa) = 0.05843441
#
# Stress axis : x y z
#
# Youngs Moduli (GPa) = 11.81490 72.15954 52.01695
#
# Poissons Ratio (x) = 0.52848 0.77642
# Poissons Ratio (y) = 0.08653 0.38459
# Poissons Ratio (z) = 0.17635 0.53351
#
# Static dielectric constant tensor:
#      x y z
#    x 1.626470 0.000000 0.000000 
#    y 0.000000 1.652430 0.000000 
#    z 0.000000 0.000000 1.646440 
# 
# From -- ./inp_files/29990.got.cif
#   From: 2010.05.17/outbox.cif.g08.bks.cpg/sg47_15_cif.got.tgz:29990.got - 2010.06.03 20:15:42.
