data_PCOD9388321
_publ_section_title
;
Structure prediction by ZEFSAII (Michael W. Deem and Ramdas Pophale) SiO2 
 PCOD9388321
Probable space group: P M M M
;
_chemical_formula_sum "Si O2"
_cell_formula_units_Z 32
_cell_length_a 20.435184
_cell_length_b 8.178513
_cell_length_c 10.548513
_cell_angle_alpha 90.000000
_cell_angle_beta 90.000000
_cell_angle_gamma 90.000000
_cell_volume 1762.966838
_symmetry_space_group_name_H-M "P M M M"
_symmetry_group_IT_number 47
_symmetry_cell_setting 'orthorhombic'
loop_
_space_group_symop_operation_xyz
x,y,z
-x,-y,z
x,-y,-z
-x,y,-z
-x,-y,-z
x,y,-z
-x,y,z
x,-y,z
loop_
_atom_site_type_symbol
_atom_site_label
_atom_site_fract_x
_atom_site_fract_y
_atom_site_fract_z
Si Si1 0.287188 0.197490 0.353122
Si Si2 0.151738 0.305038 0.749513
Si Si3 0.075876 0.299675 0.000000
Si Si4 0.074688 0.195872 0.500000
Si Si5 0.570372 0.194042 0.346435
O O1 0.276597 0.252098 0.500000
O O2 0.225982 0.246512 0.268525
O O3 0.358492 0.259034 0.306808
O O4 0.290272 0.000000 0.357048
O O5 0.152587 0.500000 0.755380
O O6 0.112099 0.253039 0.624980
O O7 0.114364 0.244321 0.874625
O O8 0.075522 0.500000 0.000000
O O9 0.000000 0.247862 0.000000
O O10 0.000000 0.256264 0.500000
O O11 0.074355 0.000000 0.500000
O O12 0.571256 0.205281 0.500000
O O13 0.500000 0.263748 0.303358
O O14 0.569362 0.000000 0.316358
#
# Coordination Sequence:
#
# PCOD9388321 Si02
#       5
#     8   8   4   4   8
#     4   9  16  27  45  70 103 134 160 200 246 287
#     4  11  21  34  54  76  98 129 166 204 246 296
#     4   9  20  38  55  71  94 125 166 212 249 287
#     4  11  23  37  53  75 102 127 156 199 249 300
#     4   7  10  18  35  61  92 128 166 196 229 278
#
# _framework density 18.151222000000001
#
# number of rings (size 3 to 8) (size 9 to 14) (size 15 to 20)
#    0.000    2.750    1.250    4.125    0.000    2.000 
#    0.000    2.500    0.000    5.250    0.000    4.375 
#    0.000    7.000    0.000    0.000    0.000    0.000 
#
# Total GULP energy -178253.978745 kJ/mol
# GULP energy per Si atom -5570.436836 kJ/mol
# Density = 1.810991 g / cm^3
# Si number density = 18.151222 Si / 1000 Ang^3
#
#
#
# Elastic Constant Matrix: (Units=GPa)
#
#
# Indices 1 2 3 4 5 6 
#
# 1 236.3317 16.8340 81.3737 0.0000 0.0000 0.0000
# 2 16.8340 13.9040 7.4840 0.0000 0.0000 0.0000
# 3 81.3737 7.4840 101.3663 0.0000 0.0000 0.0000
# 4 0.0000 0.0000 0.0000 -81.3785 0.0000 0.0000
# 5 0.0000 0.0000 0.0000 0.0000 18.8887 0.0000
# 6 0.0000 0.0000 0.0000 0.0000 0.0000 -11.0234
#
#
#
# Elastic Compliance Matrix: (Units=1/GPa)
#
#
# Indices 1 2 3 4 5 6 
#
# 1 0.006164 -0.004998 -0.004579 0.000000 0.000000 0.000000
# 2 -0.004998 0.078951 -0.001817 0.000000 0.000000 0.000000
# 3 -0.004579 -0.001817 0.013675 0.000000 0.000000 0.000000
# 4 0.000000 0.000000 0.000000 -0.012288 0.000000 0.000000
# 5 0.000000 0.000000 0.000000 0.000000 0.052942 0.000000
# 6 0.000000 0.000000 0.000000 0.000000 0.000000 -0.090716
#
#
# Mechanical properties :
#
#
# Convention : Reuss Voigt Hill
#
# Bulk Modulus (GPa) = 13.15755 62.55396 37.85575
# Shear Modulus (GPa) = 51.62631 1.69138 26.65884
#
# Velocity S-wave (km/s) = 5.33892 0.96636 3.83653
# Velocity P-wave (km/s) = 6.72830 5.98186 6.36603
#
# Compressibility (1/GPa) = 0.07600201
#
# Stress axis : x y z
#
# Youngs Moduli (GPa) = 162.22906 12.66611 73.12354
#
# Poissons Ratio (x) = 0.06331 0.33486
# Poissons Ratio (y) = 0.81085 0.13284
# Poissons Ratio (z) = 0.74290 0.02301
#
# Static dielectric constant tensor:
#      x y z
#    x 1.687630 0.000000 0.000000 
#    y 0.000000 1.645180 0.000000 
#    z 0.000000 0.000000 1.589840 
# 
# From -- ./inp_files/18817.got.cif
#   From: 2010.05.17/outbox.cif.g08.bks.cpg/sg47_10_cif.got.tgz:18817.got - 2010.06.03 20:15:42.
