data_PCOD9388933
_publ_section_title
;
Structure prediction by ZEFSAII (Michael W. Deem and Ramdas Pophale) SiO2 
 PCOD9388933
Probable space group: P M M M
;
_chemical_formula_sum "Si O2"
_cell_formula_units_Z 48
_cell_length_a 32.535975
_cell_length_b 7.356346
_cell_length_c 9.727073
_cell_angle_alpha 90.000000
_cell_angle_beta 90.000000
_cell_angle_gamma 90.000000
_cell_volume 2328.134940
_symmetry_space_group_name_H-M "P M M M"
_symmetry_group_IT_number 47
_symmetry_cell_setting 'orthorhombic'
loop_
_space_group_symop_operation_xyz
x,y,z
-x,-y,z
x,-y,-z
-x,y,-z
-x,-y,-z
x,y,-z
-x,y,z
x,-y,z
loop_
_atom_site_type_symbol
_atom_site_label
_atom_site_fract_x
_atom_site_fract_y
_atom_site_fract_z
Si Si1 0.877338 0.277771 0.158229
Si Si2 0.454130 0.778313 0.841317
Si Si3 0.379622 0.784846 0.343866
Si Si4 0.199825 0.278467 0.660365
Si Si5 0.289783 0.282261 0.658375
Si Si6 0.953436 0.721289 0.342435
O O1 0.877273 0.500000 0.158766
O O2 0.837466 0.218601 0.244297
O O3 0.918479 0.219225 0.237578
O O4 0.876327 0.220384 0.000000
O O5 0.500000 0.723942 0.795362
O O6 0.416883 0.712883 0.747203
O O7 0.453549 0.000000 0.840315
O O8 0.448887 0.723489 0.000000
O O9 0.379418 0.710305 0.500000
O O10 0.334061 0.763334 0.279910
O O11 0.386188 0.000000 0.355001
O O12 0.194968 0.224711 0.500000
O O13 0.199108 0.500000 0.660373
O O14 0.245274 0.221297 0.711816
O O15 0.291459 0.216632 0.500000
O O16 0.288123 0.500000 0.655503
O O17 0.944362 0.775575 0.500000
O O18 0.953320 0.500000 0.341483
O O19 0.000000 0.778196 0.308454
#
# Coordination Sequence:
#
# PCOD9388933 Si02
#       6
#     8   8   8   8   8   8
#     4   9  15  20  27  41  60  79 102 140 186 220
#     4   8  14  25  40  57  78 104 130 153 181 222
#     4   9  16  25  40  63  84  98 120 159 197 222
#     4   8  13  22  35  46  57  81 117 147 169 204
#     4   8  14  25  40  56  75 101 129 154 185 228
#     4   8  13  20  28  37  51  75 108 142 174 213
#
# _framework density 20.617360999999999
#
# number of rings (size 3 to 8) (size 9 to 14) (size 15 to 20)
#    0.000    3.667    0.000    2.500    0.000    2.667 
#    0.000    4.167    0.000    2.000    0.000    3.500 
#    0.000    0.000    0.000    0.000    0.000    0.833 
#
# Total GULP energy -267498.698947 kJ/mol
# GULP energy per Si atom -5572.889561 kJ/mol
# Density = 2.057044 g / cm^3
# Si number density = 20.617361 Si / 1000 Ang^3
#
#
#
# Elastic Constant Matrix: (Units=GPa)
#
#
# Indices 1 2 3 4 5 6 
#
# 1 248.6266 4.6795 128.1107 0.0000 0.0000 0.0000
# 2 4.6795 74.6758 3.9968 0.0000 0.0000 0.0000
# 3 128.1107 3.9968 106.2078 0.0000 0.0000 0.0000
# 4 0.0000 0.0000 0.0000 -10.4014 0.0000 0.0000
# 5 0.0000 0.0000 0.0000 0.0000 -7.9463 0.0000
# 6 0.0000 0.0000 0.0000 0.0000 0.0000 8.5977
#
#
#
# Elastic Compliance Matrix: (Units=1/GPa)
#
#
# Indices 1 2 3 4 5 6 
#
# 1 0.010627 0.000020 -0.012820 0.000000 0.000000 0.000000
# 2 0.000020 0.013418 -0.000529 0.000000 0.000000 0.000000
# 3 -0.012820 -0.000529 0.024899 0.000000 0.000000 0.000000
# 4 0.000000 0.000000 0.000000 -0.096141 0.000000 0.000000
# 5 0.000000 0.000000 0.000000 0.000000 -0.125845 0.000000
# 6 0.000000 0.000000 0.000000 0.000000 0.000000 0.116310
#
#
# Mechanical properties :
#
#
# Convention : Reuss Voigt Hill
#
# Bulk Modulus (GPa) = 44.86951 78.12046 61.49498
# Shear Modulus (GPa) = -220.81115 17.56488 -101.62313
#
# Velocity S-wave (km/s) = -10.36012 2.92198 -7.02831
# Velocity P-wave (km/s) = 11.01360 7.02544 5.99760
#
# Compressibility (1/GPa) = 0.02228685
#
# Stress axis : x y z
#
# Youngs Moduli (GPa) = 94.09573 74.52520 40.16202
#
# Poissons Ratio (x) = -0.00150 0.51487
# Poissons Ratio (y) = -0.00190 0.02126
# Poissons Ratio (z) = 1.20630 0.03945
#
# Static dielectric constant tensor:
#      x y z
#    x 1.748570 0.000000 0.000000 
#    y 0.000000 1.849070 0.000000 
#    z 0.000000 0.000000 1.687510 
# 
# From -- ./inp_files/4720.got.cif
#   From: 2010.05.17/outbox.cif.g08.bks.cpg/sg47_3_cif.got.tgz:4720.got - 2010.06.03 20:15:42.
