data_PCOD9388724
_publ_section_title
;
Structure prediction by ZEFSAII (Michael W. Deem and Ramdas Pophale) SiO2 
 PCOD9388724
Probable space group: P M M M
;
_chemical_formula_sum "Si O2"
_cell_formula_units_Z 48
_cell_length_a 34.520410
_cell_length_b 7.380393
_cell_length_c 8.418373
_cell_angle_alpha 90.000000
_cell_angle_beta 90.000000
_cell_angle_gamma 90.000000
_cell_volume 2144.784182
_symmetry_space_group_name_H-M "P M M M"
_symmetry_group_IT_number 47
_symmetry_cell_setting 'orthorhombic'
loop_
_space_group_symop_operation_xyz
x,y,z
-x,-y,z
x,-y,-z
-x,y,-z
-x,-y,-z
x,y,-z
-x,y,z
x,-y,z
loop_
_atom_site_type_symbol
_atom_site_label
_atom_site_fract_x
_atom_site_fract_y
_atom_site_fract_z
Si Si1 0.174091 0.208936 0.310900
Si Si2 0.045295 0.720974 0.000000
Si Si3 0.913877 0.708187 0.319409
Si Si4 0.745498 0.210403 0.811613
Si Si5 0.500000 0.219860 0.810506
Si Si6 0.416459 0.782503 0.189517
Si Si7 0.664912 0.210487 0.311317
O O1 0.179815 0.212104 0.500000
O O2 0.132034 0.291476 0.281740
O O3 0.213046 0.289621 0.237093
O O4 0.170918 0.000000 0.256374
O O5 0.064628 0.786539 0.834884
O O6 0.049554 0.500000 0.000000
O O7 0.000000 0.763650 0.000000
O O8 0.918528 0.786192 0.500000
O O9 0.926935 0.500000 0.331305
O O10 0.705515 0.290793 0.746907
O O11 0.746720 0.000000 0.752106
O O12 0.742975 0.209321 0.000000
O O13 0.458273 0.284162 0.747931
O O14 0.500000 0.000000 0.796814
O O15 0.500000 0.258713 0.000000
O O16 0.376051 0.710314 0.255878
O O17 0.416480 0.000000 0.219448
O O18 0.416057 0.756019 0.000000
O O19 0.665221 0.209737 0.500000
O O20 0.665060 0.000000 0.252490
#
# Coordination Sequence:
#
# PCOD9388724 Si02
#       7
#     8   4   8   8   4   8   8
#     4   9  17  29  45  65  89 117 147 181 221 262
#     4   9  18  32  51  75  99 123 155 193 227 260
#     4   9  18  32  50  72  97 124 153 186 225 266
#     4   9  16  24  35  52  72  96 128 164 201 245
#     4   7  10  16  25  35  45  61  91 133 180 229
#     4   8  12  18  27  36  47  67  98 137 182 232
#     4   9  15  21  28  39  58  83 110 145 191 238
#
# _framework density 22.379873
#
# number of rings (size 3 to 8) (size 9 to 14) (size 15 to 20)
#    0.000    3.333    0.000    2.000    1.167    4.333 
#    0.000    2.083    0.000    3.500    0.000    2.333 
#    0.000    0.000    0.000    0.000    0.000    0.000 
#
# Total GULP energy -267461.574359 kJ/mol
# GULP energy per Si atom -5572.116132 kJ/mol
# Density = 2.232894 g / cm^3
# Si number density = 22.379873 Si / 1000 Ang^3
#
#
#
# Elastic Constant Matrix: (Units=GPa)
#
#
# Indices 1 2 3 4 5 6 
#
# 1 197.6642 8.5588 97.0414 0.0000 0.0000 0.0000
# 2 8.5588 74.4834 14.2179 0.0000 0.0000 0.0000
# 3 97.0414 14.2179 61.6182 0.0000 0.0000 0.0000
# 4 0.0000 0.0000 0.0000 -17.0783 0.0000 0.0000
# 5 0.0000 0.0000 0.0000 0.0000 211.2986 0.0000
# 6 0.0000 0.0000 0.0000 0.0000 0.0000 1.4704
#
#
#
# Elastic Compliance Matrix: (Units=1/GPa)
#
#
# Indices 1 2 3 4 5 6 
#
# 1 0.023726 0.004609 -0.038429 0.000000 0.000000 0.000000
# 2 0.004609 0.014940 -0.010706 0.000000 0.000000 0.000000
# 3 -0.038429 -0.010706 0.079221 0.000000 0.000000 0.000000
# 4 0.000000 0.000000 0.000000 -0.058554 0.000000 0.000000
# 5 0.000000 0.000000 0.000000 0.000000 0.004733 0.000000
# 6 0.000000 0.000000 0.000000 0.000000 0.000000 0.680068
#
#
# Mechanical properties :
#
#
# Convention : Reuss Voigt Hill
#
# Bulk Modulus (GPa) = 34.68106 63.71135 49.19620
# Shear Modulus (GPa) = 5.93263 53.40134 29.66698
#
# Velocity S-wave (km/s) = 1.62992 4.89010 3.64484
# Velocity P-wave (km/s) = 4.36719 7.77265 6.30422
#
# Compressibility (1/GPa) = 0.02883419
#
# Stress axis : x y z
#
# Youngs Moduli (GPa) = 42.14807 66.93508 12.62299
#
# Poissons Ratio (x) = -0.30852 0.48509
# Poissons Ratio (y) = -0.19427 0.13515
# Poissons Ratio (z) = 1.61971 0.71663
#
# Static dielectric constant tensor:
#      x y z
#    x 1.845360 0.000000 0.000000 
#    y 0.000000 2.592240 0.000000 
#    z 0.000000 0.000000 1.777540 
# 
# From -- ./inp_files/13879.got.cif
#   From: 2010.05.17/outbox.cif.g08.bks.cpg/sg47_7_cif.got.tgz:13879.got - 2010.06.03 20:15:42.
