data_PCOD9388203
_publ_section_title
;
Structure prediction by ZEFSAII (Michael W. Deem and Ramdas Pophale) SiO2 
 PCOD9388203
Probable space group: P M M M
;
_chemical_formula_sum "Si O2"
_cell_formula_units_Z 64
_cell_length_a 21.374366
_cell_length_b 20.241827
_cell_length_c 8.597173
_cell_angle_alpha 90.000000
_cell_angle_beta 90.000000
_cell_angle_gamma 90.000000
_cell_volume 3719.620363
_symmetry_space_group_name_H-M "P M M M"
_symmetry_group_IT_number 47
_symmetry_cell_setting 'orthorhombic'
loop_
_space_group_symop_operation_xyz
x,y,z
-x,-y,z
x,-y,-z
-x,y,-z
-x,-y,-z
x,y,-z
-x,y,z
x,-y,z
loop_
_atom_site_type_symbol
_atom_site_label
_atom_site_fract_x
_atom_site_fract_y
_atom_site_fract_z
Si Si1 0.808007 0.790513 0.685944
Si Si2 0.879134 0.426930 0.687865
Si Si3 0.931020 0.712325 0.310163
Si Si4 0.569325 0.210091 0.314408
Si Si5 0.738158 0.573470 0.187788
Si Si6 0.764764 0.074335 0.186910
Si Si7 0.312151 0.287880 0.813798
Si Si8 0.616551 0.925722 0.812916
O O1 0.804917 0.784737 0.500000
O O2 0.872612 0.756922 0.740548
O O3 0.801948 0.866604 0.734632
O O4 0.748480 0.752130 0.755472
O O5 0.879116 0.426754 0.500000
O O6 0.900850 0.500000 0.739144
O O7 0.918291 0.363428 0.738712
O O8 0.807896 0.418360 0.744702
O O9 0.930719 0.713206 0.500000
O O10 0.000000 0.733907 0.258881
O O11 0.571899 0.214088 0.500000
O O12 0.500000 0.230744 0.261197
O O13 0.625114 0.253927 0.246645
O O14 0.580738 0.134343 0.264493
O O15 0.715721 0.500000 0.233455
O O16 0.696735 0.635890 0.236534
O O17 0.742593 0.574967 0.000000
O O18 0.690656 0.081587 0.222495
O O19 0.783494 0.000000 0.233236
O O20 0.770456 0.079401 0.000000
O O21 0.312600 0.285025 0.000000
O O22 0.597277 0.000000 0.766187
O O23 0.610019 0.921197 0.000000
#
# Coordination Sequence:
#
# PCOD9388203 Si02
#       8
#     8   8   8   8   8   8   8   8
#     4  11  20  31  52  79 104 133 172 216 258 301
#     4   9  16  27  46  72 101 135 175 212 247 295
#     4   9  18  31  46  70 106 142 174 212 257 302
#     4  11  24  38  52  75 107 139 172 212 255 300
#     4   9  18  32  51  76 104 132 165 210 260 304
#     4   9  18  33  53  77 104 132 165 209 259 307
#     4  11  21  34  55  78 102 135 173 212 255 306
#     4   9  18  33  53  77 105 139 175 207 245 299
#
# _framework density 17.206056
#
# number of rings (size 3 to 8) (size 9 to 14) (size 15 to 20)
#    0.000    2.250    2.500    1.875    0.000    2.500 
#    0.000    3.750    0.000    4.125    0.000    7.000 
#    0.000    0.000    0.000    0.000    0.000    0.000 
#
# Total GULP energy -356969.212740 kJ/mol
# GULP energy per Si atom -5577.643949 kJ/mol
# Density = 1.716689 g / cm^3
# Si number density = 17.206056 Si / 1000 Ang^3
#
#
#
# Elastic Constant Matrix: (Units=GPa)
#
#
# Indices 1 2 3 4 5 6 
#
# 1 124.6063 75.9698 25.1341 0.0000 0.0000 0.0000
# 2 75.9698 122.7246 25.0536 0.0000 0.0000 0.0000
# 3 25.1341 25.0536 16.1910 0.0000 0.0000 0.0000
# 4 0.0000 0.0000 0.0000 17.9903 0.0000 0.0000
# 5 0.0000 0.0000 0.0000 0.0000 -21.2472 0.0000
# 6 0.0000 0.0000 0.0000 0.0000 0.0000 17.3853
#
#
#
# Elastic Compliance Matrix: (Units=1/GPa)
#
#
# Indices 1 2 3 4 5 6 
#
# 1 0.014448 -0.006381 -0.012555 0.000000 0.000000 0.000000
# 2 -0.006381 0.014729 -0.012886 0.000000 0.000000 0.000000
# 3 -0.012555 -0.012886 0.101192 0.000000 0.000000 0.000000
# 4 0.000000 0.000000 0.000000 0.055585 0.000000 0.000000
# 5 0.000000 0.000000 0.000000 0.000000 -0.047065 0.000000
# 6 0.000000 0.000000 0.000000 0.000000 0.000000 0.057520
#
#
# Mechanical properties :
#
#
# Convention : Reuss Voigt Hill
#
# Bulk Modulus (GPa) = 14.98683 57.31523 36.15103
# Shear Modulus (GPa) = 17.71211 11.98331 14.84771
#
# Velocity S-wave (km/s) = 3.21192 2.64191 2.94076
# Velocity P-wave (km/s) = 4.74177 6.53373 5.70851
#
# Compressibility (1/GPa) = 0.06672527
#
# Stress axis : x y z
#
# Youngs Moduli (GPa) = 69.21481 67.89477 9.88224
#
# Poissons Ratio (x) = 0.43321 0.12407
# Poissons Ratio (y) = 0.44163 0.12734
# Poissons Ratio (z) = 0.86898 0.87489
#
# Static dielectric constant tensor:
#      x y z
#    x 1.568960 0.000000 0.000000 
#    y 0.000000 1.605010 0.000000 
#    z 0.000000 0.000000 1.584000 
# 
# From -- ./inp_files/9951.got.cif
#   From: 2010.05.17/outbox.cif.g08.bks.cpg/sg47_5_cif.got.tgz:9951.got - 2010.06.03 20:15:42.
