data_PCOD9388095
_publ_section_title
;
Structure prediction by ZEFSAII (Michael W. Deem and Ramdas Pophale) SiO2 
 PCOD9388095
Probable space group: P M M M
;
_chemical_formula_sum "Si O2"
_cell_formula_units_Z 40
_cell_length_a 8.077623
_cell_length_b 8.016884
_cell_length_c 30.351994
_cell_angle_alpha 90.000000
_cell_angle_beta 90.000000
_cell_angle_gamma 90.000000
_cell_volume 1965.515202
_symmetry_space_group_name_H-M "P M M M"
_symmetry_group_IT_number 47
_symmetry_cell_setting 'orthorhombic'
loop_
_space_group_symop_operation_xyz
x,y,z
-x,-y,z
x,-y,-z
-x,y,-z
-x,-y,-z
x,y,-z
-x,y,z
x,-y,z
loop_
_atom_site_type_symbol
_atom_site_label
_atom_site_fract_x
_atom_site_fract_y
_atom_site_fract_z
Si Si1 0.797313 0.500000 0.949321
Si Si2 0.190901 0.200250 0.294909
Si Si3 0.803899 0.500000 0.450567
Si Si4 0.804294 0.303890 0.798923
Si Si5 0.797327 0.816308 0.892222
Si Si6 0.694783 0.189344 0.607982
O O1 0.743291 0.664919 0.923091
O O2 0.000000 0.500000 0.949065
O O3 0.744335 0.500000 0.000000
O O4 0.266417 0.267927 0.249447
O O5 0.274322 0.240772 0.341231
O O6 0.000000 0.258679 0.298200
O O7 0.191327 0.000000 0.290926
O O8 0.731153 0.500000 0.500000
O O9 0.758345 0.667184 0.424043
O O10 0.000000 0.500000 0.454147
O O11 0.794889 0.500000 0.808245
O O12 0.738755 0.210691 0.841910
O O13 0.000000 0.257646 0.795471
O O14 0.000000 0.809458 0.890974
O O15 0.750007 0.000000 0.908010
O O16 0.500000 0.177833 0.601061
O O17 0.765483 0.000000 0.601991
#
# Coordination Sequence:
#
# PCOD9388095 Si02
#       6
#     4   8   4   8   8   8
#     4   9  16  24  31  42  63  93 137 191 242 297
#     4   9  17  29  47  73 102 133 172 214 254 302
#     4  11  25  43  64  89 114 144 187 237 282 321
#     4   9  15  23  37  59  86 115 150 196 247 295
#     4   9  15  23  34  47  68 100 139 187 242 295
#     4  10  22  40  61  86 118 153 185 220 269 330
#
# _framework density 20.350898999999998
#
# number of rings (size 3 to 8) (size 9 to 14) (size 15 to 20)
#    0.000    2.600    1.000    1.500    1.400    5.200 
#    0.000    4.000    0.000    0.000    0.000    0.000 
#    0.000    0.000    0.000    0.000    0.000    2.000 
#
# Total GULP energy -223087.977461 kJ/mol
# GULP energy per Si atom -5577.199437 kJ/mol
# Density = 2.030458 g / cm^3
# Si number density = 20.350899 Si / 1000 Ang^3
#
#
#
# Elastic Constant Matrix: (Units=GPa)
#
#
# Indices 1 2 3 4 5 6 
#
# 1 19.4955 15.1711 10.9696 0.0000 0.0000 0.0000
# 2 15.1711 130.9982 108.9805 0.0000 0.0000 0.0000
# 3 10.9696 108.9805 163.6320 0.0000 0.0000 0.0000
# 4 0.0000 0.0000 0.0000 -0.1317 0.0000 0.0000
# 5 0.0000 0.0000 0.0000 0.0000 -131.4601 0.0000
# 6 0.0000 0.0000 0.0000 0.0000 0.0000 5.4994
#
#
#
# Elastic Compliance Matrix: (Units=1/GPa)
#
#
# Indices 1 2 3 4 5 6 
#
# 1 0.056493 -0.007606 0.001279 0.000000 0.000000 0.000000
# 2 -0.007606 0.018143 -0.011573 0.000000 0.000000 0.000000
# 3 0.001279 -0.011573 0.013733 0.000000 0.000000 0.000000
# 4 0.000000 0.000000 0.000000 -7.595835 0.000000 0.000000
# 5 0.000000 0.000000 0.000000 0.000000 -0.007607 0.000000
# 6 0.000000 0.000000 0.000000 0.000000 0.000000 0.181839
#
#
# Mechanical properties :
#
#
# Convention : Reuss Voigt Hill
#
# Bulk Modulus (GPa) = 19.02309 64.92978 41.97644
# Shear Modulus (GPa) = -0.68682 -13.28483 -6.98582
#
# Velocity S-wave (km/s) = -0.58157 -2.55774 -1.85476
# Velocity P-wave (km/s) = 2.98611 4.82200 4.01052
#
# Compressibility (1/GPa) = 0.05256769
#
# Stress axis : x y z
#
# Youngs Moduli (GPa) = 17.70118 55.11861 72.81478
#
# Poissons Ratio (x) = 0.41925 -0.09311
# Poissons Ratio (y) = 0.13464 0.84271
# Poissons Ratio (z) = -0.02263 0.63790
#
# Static dielectric constant tensor:
#      x y z
#    x 1.723670 0.000000 0.000000 
#    y 0.000000 1.736830 0.000000 
#    z 0.000000 0.000000 1.730390 
# 
# From -- ./inp_files/33035.got.cif
#   From: 2010.05.17/outbox.cif.g08.bks.cpg/sg47_17_cif.got.tgz:33035.got - 2010.06.03 20:15:42.
