data_PCOD9388170
_publ_section_title
;
Structure prediction by ZEFSAII (Michael W. Deem and Ramdas Pophale) SiO2 
 PCOD9388170
Probable space group: P M M M
;
_chemical_formula_sum "Si O2"
_cell_formula_units_Z 52
_cell_length_a 14.979539
_cell_length_b 7.677808
_cell_length_c 24.261452
_cell_angle_alpha 90.000000
_cell_angle_beta 90.000000
_cell_angle_gamma 90.000000
_cell_volume 2790.310186
_symmetry_space_group_name_H-M "P M M M"
_symmetry_group_IT_number 47
_symmetry_cell_setting 'orthorhombic'
loop_
_space_group_symop_operation_xyz
x,y,z
-x,-y,z
x,-y,-z
-x,y,-z
-x,-y,-z
x,y,-z
-x,y,z
x,-y,z
loop_
_atom_site_type_symbol
_atom_site_label
_atom_site_fract_x
_atom_site_fract_y
_atom_site_fract_z
Si Si1 0.099316 0.704274 0.434410
Si Si2 0.248045 0.192134 0.642940
Si Si3 0.100366 0.291931 0.268436
Si Si4 0.738003 0.294199 0.065526
Si Si5 0.600294 0.000000 0.933207
Si Si6 0.395718 0.212895 0.437598
Si Si7 0.099782 0.712210 0.142766
O O1 0.104194 0.713745 0.500000
O O2 0.109053 0.500000 0.418505
O O3 0.176694 0.809953 0.406598
O O4 0.000000 0.760109 0.417739
O O5 0.184814 0.257161 0.692421
O O6 0.333121 0.278571 0.612360
O O7 0.277512 0.000000 0.659788
O O8 0.093210 0.500000 0.266525
O O9 0.116232 0.230265 0.205764
O O10 0.000000 0.228397 0.285601
O O11 0.721135 0.500000 0.075219
O O12 0.823809 0.236716 0.100433
O O13 0.655580 0.172178 0.081867
O O14 0.754001 0.272745 0.000000
O O15 0.500000 0.000000 0.911476
O O16 0.595731 0.000000 0.000000
O O17 0.368050 0.268355 0.500000
O O18 0.500000 0.258408 0.430619
O O19 0.390130 0.000000 0.437440
O O20 0.099612 0.500000 0.143092
O O21 0.000000 0.768344 0.126853
#
# Coordination Sequence:
#
# PCOD9388170 Si02
#       7
#     8   8   8   8   4   8   8
#     4   9  18  31  44  59  84 119 150 173 212 276
#     4  11  20  28  44  70  92 112 146 193 237 273
#     4   9  18  33  50  66  91 130 167 192 224 281
#     4   9  17  30  51  79 107 137 176 221 268 318
#     4   9  18  32  49  73 107 141 174 216 262 309
#     4   8  15  29  47  65  86 113 145 183 233 292
#     4   8  15  30  51  73  98 132 171 208 250 301
#
# _framework density 18.635921
#
# number of rings (size 3 to 8) (size 9 to 14) (size 15 to 20)
#    0.000    3.000    0.000    3.231    0.000    4.000 
#    1.385    4.231    0.000    4.154    0.000    7.538 
#    0.000    0.000    0.000    0.000    0.000    0.000 
#
# Total GULP energy -289546.142797 kJ/mol
# GULP energy per Si atom -5568.195054 kJ/mol
# Density = 1.859350 g / cm^3
# Si number density = 18.635921 Si / 1000 Ang^3
#
#
#
# Elastic Constant Matrix: (Units=GPa)
#
#
# Indices 1 2 3 4 5 6 
#
# 1 147.9481 33.2506 72.2239 0.0000 0.0000 0.0000
# 2 33.2506 42.2696 26.7419 0.0000 0.0000 0.0000
# 3 72.2239 26.7419 73.2329 0.0000 0.0000 0.0000
# 4 0.0000 0.0000 0.0000 39.1373 0.0000 0.0000
# 5 0.0000 0.0000 0.0000 0.0000 32.2934 0.0000
# 6 0.0000 0.0000 0.0000 0.0000 0.0000 14.9929
#
#
#
# Elastic Compliance Matrix: (Units=1/GPa)
#
#
# Indices 1 2 3 4 5 6 
#
# 1 0.013287 -0.002811 -0.012077 0.000000 0.000000 0.000000
# 2 -0.002811 0.031360 -0.008679 0.000000 0.000000 0.000000
# 3 -0.012077 -0.008679 0.028735 0.000000 0.000000 0.000000
# 4 0.000000 0.000000 0.000000 0.025551 0.000000 0.000000
# 5 0.000000 0.000000 0.000000 0.000000 0.030966 0.000000
# 6 0.000000 0.000000 0.000000 0.000000 0.000000 0.066698
#
#
# Mechanical properties :
#
#
# Convention : Reuss Voigt Hill
#
# Bulk Modulus (GPa) = 38.09962 58.65372 48.37667
# Shear Modulus (GPa) = 19.80358 26.03367 22.91863
#
# Velocity S-wave (km/s) = 3.26338 3.74165 3.51067
# Velocity P-wave (km/s) = 5.88966 7.08579 6.51523
#
# Compressibility (1/GPa) = 0.02624698
#
# Stress axis : x y z
#
# Youngs Moduli (GPa) = 75.26417 31.88804 34.80093
#
# Poissons Ratio (x) = 0.08964 0.42029
# Poissons Ratio (y) = 0.21158 0.30204
# Poissons Ratio (z) = 0.90896 0.27676
#
# Static dielectric constant tensor:
#      x y z
#    x 1.654420 0.000000 0.000000 
#    y 0.000000 1.719040 0.000000 
#    z 0.000000 0.000000 1.649450 
# 
# From -- ./inp_files/32646.got.cif
#   From: 2010.05.17/outbox.cif.g08.bks.cpg/sg47_17_cif.got.tgz:32646.got - 2010.06.03 20:15:42.
