data_PCOD9388211
_publ_section_title
;
Structure prediction by ZEFSAII (Michael W. Deem and Ramdas Pophale) SiO2 
 PCOD9388211
Probable space group: P M M M
;
_chemical_formula_sum "Si O2"
_cell_formula_units_Z 29
_cell_length_a 15.628228
_cell_length_b 7.758875
_cell_length_c 12.774408
_cell_angle_alpha 90.000000
_cell_angle_beta 90.000000
_cell_angle_gamma 90.000000
_cell_volume 1548.992363
_symmetry_space_group_name_H-M "P M M M"
_symmetry_group_IT_number 47
_symmetry_cell_setting 'orthorhombic'
loop_
_space_group_symop_operation_xyz
x,y,z
-x,-y,z
x,-y,-z
-x,y,-z
-x,-y,-z
x,y,-z
-x,y,z
x,-y,z
loop_
_atom_site_type_symbol
_atom_site_label
_atom_site_fract_x
_atom_site_fract_y
_atom_site_fract_z
Si Si1 0.402812 0.208074 0.379788
Si Si2 0.229218 0.296172 0.705373
Si Si3 0.864028 0.812065 0.500000
Si Si4 0.096139 0.710064 0.120426
Si Si5 0.000000 0.500000 0.500000
O O1 0.383913 0.265781 0.500000
O O2 0.500000 0.262494 0.355338
O O3 0.330842 0.269138 0.299181
O O4 0.401386 0.000000 0.380840
O O5 0.212653 0.500000 0.695177
O O6 0.193590 0.203860 0.602886
O O7 0.172980 0.234767 0.804159
O O8 0.927014 0.651679 0.500000
O O9 0.905100 0.000000 0.500000
O O10 0.096264 0.500000 0.119682
O O11 0.000000 0.761392 0.156849
O O12 0.106435 0.766027 0.000000
#
# Coordination Sequence:
#
# PCOD9388211 Si02
#       5
#     8   8   4   8   1
#     4   9  18  33  52  74 104 144 187 229 278 337
#     4  11  20  32  55  83 116 143 185 234 277 344
#     4  12  25  39  56  81 118 155 187 232 284 336
#     4   8  16  31  52  76 105 147 191 231 277 326
#     4  12  26  44  52  78 116 156 206 224 276 344
#
# _framework density 18.721848000000001
#
# number of rings (size 3 to 8) (size 9 to 14) (size 15 to 20)
#    0.000    2.207    2.759    2.690    1.931    0.552 
#    0.000    1.379    0.000    4.138    0.000   13.517 
#    0.000    0.000    0.000    0.000    0.000    0.000 
#
# Total GULP energy -161482.620668 kJ/mol
# GULP energy per Si atom -5568.366230 kJ/mol
# Density = 1.867924 g / cm^3
# Si number density = 18.721848 Si / 1000 Ang^3
#
#
#
# Elastic Constant Matrix: (Units=GPa)
#
#
# Indices 1 2 3 4 5 6 
#
# 1 169.3510 16.4554 80.2783 0.0000 0.0000 0.0000
# 2 16.4554 75.3110 6.4364 0.0000 0.0000 0.0000
# 3 80.2783 6.4364 92.6037 0.0000 0.0000 0.0000
# 4 0.0000 0.0000 0.0000 28.3449 0.0000 0.0000
# 5 0.0000 0.0000 0.0000 0.0000 27.2309 0.0000
# 6 0.0000 0.0000 0.0000 0.0000 0.0000 38.6245
#
#
#
# Elastic Compliance Matrix: (Units=1/GPa)
#
#
# Indices 1 2 3 4 5 6 
#
# 1 0.010186 -0.001480 -0.008727 0.000000 0.000000 0.000000
# 2 -0.001480 0.013573 0.000339 0.000000 0.000000 0.000000
# 3 -0.008727 0.000339 0.018341 0.000000 0.000000 0.000000
# 4 0.000000 0.000000 0.000000 0.035280 0.000000 0.000000
# 5 0.000000 0.000000 0.000000 0.000000 0.036723 0.000000
# 6 0.000000 0.000000 0.000000 0.000000 0.000000 0.025890
#
#
# Mechanical properties :
#
#
# Convention : Reuss Voigt Hill
#
# Bulk Modulus (GPa) = 44.71463 60.40066 52.55764
# Shear Modulus (GPa) = 29.90766 34.44644 32.17705
#
# Velocity S-wave (km/s) = 4.00118 4.29407 4.15021
# Velocity P-wave (km/s) = 6.72915 7.54437 7.14839
#
# Compressibility (1/GPa) = 0.02236405
#
# Stress axis : x y z
#
# Youngs Moduli (GPa) = 98.17765 73.67801 54.52373
#
# Poissons Ratio (x) = 0.10902 0.47583
# Poissons Ratio (y) = 0.14527 -0.01850
# Poissons Ratio (z) = 0.85680 -0.02501
#
# Static dielectric constant tensor:
#      x y z
#    x 1.679940 0.000000 0.000000 
#    y 0.000000 1.685800 0.000000 
#    z 0.000000 0.000000 1.630850 
# 
# From -- ./inp_files/3232.got.cif
#   From: 2010.05.17/outbox.cif.g08.bks.cpg/sg47_2_cif.got.tgz:3232.got - 2010.06.03 20:15:42.
