data_PCOD9388372
_publ_section_title
;
Structure prediction by ZEFSAII (Michael W. Deem and Ramdas Pophale) SiO2 
 PCOD9388372
Probable space group: P M M M
;
_chemical_formula_sum "Si O2"
_cell_formula_units_Z 52
_cell_length_a 7.872953
_cell_length_b 13.629302
_cell_length_c 21.112672
_cell_angle_alpha 90.000000
_cell_angle_beta 90.000000
_cell_angle_gamma 90.000000
_cell_volume 2265.449963
_symmetry_space_group_name_H-M "P M M M"
_symmetry_group_IT_number 47
_symmetry_cell_setting 'orthorhombic'
loop_
_space_group_symop_operation_xyz
x,y,z
-x,-y,z
x,-y,-z
-x,y,-z
-x,-y,-z
x,y,-z
-x,y,z
x,-y,z
loop_
_atom_site_type_symbol
_atom_site_label
_atom_site_fract_x
_atom_site_fract_y
_atom_site_fract_z
Si Si1 0.705850 0.607491 0.705110
Si Si2 0.292414 0.390394 0.073319
Si Si3 0.302507 0.196934 0.132840
Si Si4 0.707507 0.679062 0.568800
Si Si5 0.808427 0.175068 0.736184
Si Si6 0.193365 0.883831 0.000000
Si Si7 0.303851 0.106809 0.605856
O O1 0.500000 0.610503 0.709633
O O2 0.760329 0.500000 0.729005
O O3 0.755726 0.618824 0.631015
O O4 0.771003 0.707967 0.735772
O O5 0.500000 0.388307 0.074456
O O6 0.238481 0.500000 0.089910
O O7 0.231452 0.305984 0.119585
O O8 0.244448 0.370855 0.000000
O O9 0.500000 0.204651 0.149897
O O10 0.217182 0.143124 0.191557
O O11 0.283771 0.148113 0.064401
O O12 0.760663 0.641798 0.500000
O O13 0.500000 0.680689 0.569768
O O14 0.767868 0.791908 0.577815
O O15 0.698627 0.124390 0.681809
O O16 0.000000 0.157320 0.716157
O O17 0.000000 0.844836 0.000000
O O18 0.185836 0.000000 0.000000
O O19 0.500000 0.103760 0.584987
O O20 0.227450 0.000000 0.591167
#
# Coordination Sequence:
#
# PCOD9388372 Si02
#       7
#     8   8   8   8   8   4   8
#     4   9  18  34  55  79 110 149 191 230 268 317
#     4   8  14  27  50  80 107 129 158 197 244 301
#     4  11  21  37  61  85 108 140 181 224 271 324
#     4   8  14  26  48  82 117 142 172 222 280 330
#     4  11  23  37  54  78 109 144 182 229 280 329
#     4  11  25  43  60  81 112 146 179 221 276 332
#     4   9  18  34  55  78 105 139 181 227 274 330
#
# _framework density 22.953496999999999
#
# number of rings (size 3 to 8) (size 9 to 14) (size 15 to 20)
#    0.000    2.538    0.769    3.462    0.000    3.077 
#    0.000    4.615    0.000    9.231    0.000    8.615 
#    0.000    0.000    0.000    0.000    0.000    0.000 
#
# Total GULP energy -290222.444372 kJ/mol
# GULP energy per Si atom -5581.200853 kJ/mol
# Density = 2.290125 g / cm^3
# Si number density = 22.953497 Si / 1000 Ang^3
#
#
#
# Elastic Constant Matrix: (Units=GPa)
#
#
# Indices 1 2 3 4 5 6 
#
# 1 37.1340 -2.4199 -8.0483 0.0000 0.0000 0.0000
# 2 -2.4199 54.8563 -15.8200 0.0000 0.0000 0.0000
# 3 -8.0483 -15.8200 87.5078 0.0000 0.0000 0.0000
# 4 0.0000 0.0000 0.0000 -3.8296 0.0000 0.0000
# 5 0.0000 0.0000 0.0000 0.0000 -87.1829 0.0000
# 6 0.0000 0.0000 0.0000 0.0000 0.0000 1.5364
#
#
#
# Elastic Compliance Matrix: (Units=1/GPa)
#
#
# Indices 1 2 3 4 5 6 
#
# 1 0.027697 0.002064 0.002921 0.000000 0.000000 0.000000
# 2 0.002064 0.019386 0.003694 0.000000 0.000000 0.000000
# 3 0.002921 0.003694 0.012364 0.000000 0.000000 0.000000
# 4 0.000000 0.000000 0.000000 -0.261125 0.000000 0.000000
# 5 0.000000 0.000000 0.000000 0.000000 -0.011470 0.000000
# 6 0.000000 0.000000 0.000000 0.000000 0.000000 0.650879
#
#
# Mechanical properties :
#
#
# Convention : Reuss Voigt Hill
#
# Bulk Modulus (GPa) = 13.01997 14.10242 13.56119
# Shear Modulus (GPa) = 11.21141 -4.17613 3.51764
#
# Velocity S-wave (km/s) = 2.21247 -1.35031 1.23929
# Velocity P-wave (km/s) = 3.49447 1.93032 2.82289
#
# Compressibility (1/GPa) = 0.07680509
#
# Stress axis : x y z
#
# Youngs Moduli (GPa) = 36.10502 51.58376 80.87953
#
# Poissons Ratio (x) = -0.10647 -0.23621
# Poissons Ratio (y) = -0.07452 -0.29881
# Poissons Ratio (z) = -0.10544 -0.19058
#
# Static dielectric constant tensor:
#      x y z
#    x 1.883560 0.000000 0.000000 
#    y 0.000000 1.869860 0.000000 
#    z 0.000000 0.000000 1.873780 
# 
# From -- ./inp_files/29564.got.cif
#   From: 2010.05.17/outbox.cif.g08.bks.cpg/sg47_15_cif.got.tgz:29564.got - 2010.06.03 20:15:42.
