data_PCOD9388827
_publ_section_title
;
Structure prediction by ZEFSAII (Michael W. Deem and Ramdas Pophale) SiO2 
 PCOD9388827
Probable space group: P M M M
;
_chemical_formula_sum "Si O2"
_cell_formula_units_Z 48
_cell_length_a 7.357165
_cell_length_b 9.372694
_cell_length_c 33.063160
_cell_angle_alpha 90.000000
_cell_angle_beta 90.000000
_cell_angle_gamma 90.000000
_cell_volume 2279.918346
_symmetry_space_group_name_H-M "P M M M"
_symmetry_group_IT_number 47
_symmetry_cell_setting 'orthorhombic'
loop_
_space_group_symop_operation_xyz
x,y,z
-x,-y,z
x,-y,-z
-x,y,-z
-x,-y,-z
x,y,-z
-x,y,z
x,-y,z
loop_
_atom_site_type_symbol
_atom_site_label
_atom_site_fract_x
_atom_site_fract_y
_atom_site_fract_z
Si Si1 0.781156 0.170844 0.456511
Si Si2 0.777694 0.163744 0.790499
Si Si3 0.221878 0.166189 0.368277
Si Si4 0.718026 0.334174 0.043424
Si Si5 0.778163 0.663941 0.289078
Si Si6 0.214596 0.662384 0.132158
O O1 0.713523 0.226714 0.500000
O O2 0.717708 0.221770 0.412514
O O3 0.000000 0.188689 0.456910
O O4 0.747669 0.000000 0.456291
O O5 0.721442 0.249921 0.750689
O O6 0.714850 0.242335 0.831279
O O7 0.000000 0.163232 0.790688
O O8 0.719683 0.000000 0.788991
O O9 0.280939 0.258419 0.330160
O O10 0.000000 0.167342 0.368632
O O11 0.274791 0.000000 0.363755
O O12 0.500000 0.335844 0.042289
O O13 0.780378 0.500000 0.044378
O O14 0.765710 0.272949 0.087158
O O15 0.780203 0.272927 0.000000
O O16 0.720649 0.500000 0.287421
O O17 0.000000 0.664901 0.289270
O O18 0.289513 0.500000 0.132323
O O19 0.000000 0.649608 0.139091
#
# Coordination Sequence:
#
# PCOD9388827 Si02
#       6
#     8   8   8   8   8   8
#     4   7   9  13  21  32  44  59  84 121 162 202
#     4   9  16  25  36  49  67  91 116 142 177 222
#     4   8  12  17  25  36  49  67  94 127 164 209
#     4   8  14  25  41  61  84 108 132 157 186 221
#     4   9  15  21  29  41  58  79 103 133 170 213
#     4   9  16  25  39  60  82 101 125 159 193 221
#
# _framework density 21.053387000000001
#
# number of rings (size 3 to 8) (size 9 to 14) (size 15 to 20)
#    0.000    3.667    0.000    3.000    0.000    4.333 
#    0.000    1.667    0.000    1.500    0.000    7.000 
#    0.000    0.000    0.000    0.000    0.000    0.000 
#
# Total GULP energy -267417.917324 kJ/mol
# GULP energy per Si atom -5571.206611 kJ/mol
# Density = 2.100547 g / cm^3
# Si number density = 21.053387 Si / 1000 Ang^3
#
#
#
# Elastic Constant Matrix: (Units=GPa)
#
#
# Indices 1 2 3 4 5 6 
#
# 1 74.1849 4.2889 4.9752 0.0000 0.0000 0.0000
# 2 4.2889 96.4967 108.0424 0.0000 0.0000 0.0000
# 3 4.9752 108.0424 287.2684 0.0000 0.0000 0.0000
# 4 0.0000 0.0000 0.0000 28.3523 0.0000 0.0000
# 5 0.0000 0.0000 0.0000 0.0000 82.3473 0.0000
# 6 0.0000 0.0000 0.0000 0.0000 0.0000 -16.8868
#
#
#
# Elastic Compliance Matrix: (Units=1/GPa)
#
#
# Indices 1 2 3 4 5 6 
#
# 1 0.013515 -0.000585 -0.000014 0.000000 0.000000 0.000000
# 2 -0.000585 0.017927 -0.006732 0.000000 0.000000 0.000000
# 3 -0.000014 -0.006732 0.006013 0.000000 0.000000 0.000000
# 4 0.000000 0.000000 0.000000 0.035271 0.000000 0.000000
# 5 0.000000 0.000000 0.000000 0.000000 0.012144 0.000000
# 6 0.000000 0.000000 0.000000 0.000000 0.000000 -0.059218
#
#
# Mechanical properties :
#
#
# Convention : Reuss Voigt Hill
#
# Bulk Modulus (GPa) = 43.87447 76.95144 60.41296
# Shear Modulus (GPa) = 104.36068 41.47211 72.91639
#
# Velocity S-wave (km/s) = 7.04820 4.44312 5.89145
# Velocity P-wave (km/s) = 9.33387 7.93421 8.66236
#
# Compressibility (1/GPa) = 0.02279230
#
# Stress axis : x y z
#
# Youngs Moduli (GPa) = 73.99412 55.78278 166.29853
#
# Poissons Ratio (x) = 0.03263 0.00234
# Poissons Ratio (y) = 0.04328 1.11954
# Poissons Ratio (z) = 0.00104 0.37554
#
# Static dielectric constant tensor:
#      x y z
#    x 1.829430 0.000000 0.000000 
#    y 0.000000 1.705340 0.000000 
#    z 0.000000 0.000000 1.795090 
# 
# From -- ./inp_files/4699.got.cif
#   From: 2010.05.17/outbox.cif.g08.bks.cpg/sg47_3_cif.got.tgz:4699.got - 2010.06.03 20:15:42.
