data_PCOD9388722
_publ_section_title
;
Structure prediction by ZEFSAII (Michael W. Deem and Ramdas Pophale) SiO2 
 PCOD9388722
Probable space group: P M M M
;
_chemical_formula_sum "Si O2"
_cell_formula_units_Z 52
_cell_length_a 7.334526
_cell_length_b 34.423799
_cell_length_c 10.269226
_cell_angle_alpha 90.000000
_cell_angle_beta 90.000000
_cell_angle_gamma 90.000000
_cell_volume 2592.797274
_symmetry_space_group_name_H-M "P M M M"
_symmetry_group_IT_number 47
_symmetry_cell_setting 'orthorhombic'
loop_
_space_group_symop_operation_xyz
x,y,z
-x,-y,z
x,-y,-z
-x,y,-z
-x,-y,-z
x,y,-z
-x,y,z
x,-y,z
loop_
_atom_site_type_symbol
_atom_site_label
_atom_site_fract_x
_atom_site_fract_y
_atom_site_fract_z
Si Si1 0.289470 0.000000 0.341815
Si Si2 0.217615 0.608047 0.352219
Si Si3 0.717648 0.303183 0.352230
Si Si4 0.222233 0.455828 0.148808
Si Si5 0.276754 0.914856 0.650603
Si Si6 0.721892 0.150958 0.148961
Si Si7 0.277699 0.760672 0.851289
O O1 0.213485 0.042135 0.305485
O O2 0.500000 0.000000 0.298228
O O3 0.288915 0.000000 0.500000
O O4 0.288543 0.603732 0.500000
O O5 0.249883 0.652437 0.310087
O O6 0.286686 0.576171 0.251034
O O7 0.000000 0.602948 0.358759
O O8 0.788522 0.298863 0.500000
O O9 0.500000 0.298132 0.358705
O O10 0.786627 0.271263 0.251182
O O11 0.276371 0.500000 0.181918
O O12 0.000000 0.455275 0.149336
O O13 0.278129 0.447675 0.000000
O O14 0.223273 0.908392 0.500000
O O15 0.500000 0.915799 0.650945
O O16 0.217822 0.880937 0.747253
O O17 0.500000 0.150567 0.150109
O O18 0.777160 0.195136 0.180969
O O19 0.777312 0.142508 0.000000
O O20 0.500000 0.760239 0.850485
O O21 0.222218 0.752285 0.000000
#
# Coordination Sequence:
#
# PCOD9388722 Si02
#       7
#     4   8   8   8   8   8   8
#     4   7  10  16  23  31  45  65  91 125 164 205
#     4   9  17  28  42  61  83 104 126 154 188 223
#     4   9  17  28  41  57  77 100 126 156 187 220
#     4   8  14  25  41  61  83 104 127 157 189 217
#     4   8  12  17  25  35  47  67  96 129 166 208
#     4   8  13  20  28  39  56  75  97 131 173 211
#     4   8  14  24  36  49  66  89 116 146 182 222
#
# _framework density 20.055558999999999
#
# number of rings (size 3 to 8) (size 9 to 14) (size 15 to 20)
#    0.000    3.769    0.000    2.308    0.000    1.538 
#    0.000    5.000    0.000    2.769    0.000    3.231 
#    0.000    0.000    0.000    0.000    0.000    0.000 
#
# Total GULP energy -289846.092352 kJ/mol
# GULP energy per Si atom -5573.963314 kJ/mol
# Density = 2.000991 g / cm^3
# Si number density = 20.055559 Si / 1000 Ang^3
#
#
#
# Elastic Constant Matrix: (Units=GPa)
#
#
# Indices 1 2 3 4 5 6 
#
# 1 77.5951 5.2083 5.8882 0.0000 0.0000 0.0000
# 2 5.2083 223.8796 154.0924 0.0000 0.0000 0.0000
# 3 5.8882 154.0924 131.5177 0.0000 0.0000 0.0000
# 4 0.0000 0.0000 0.0000 41.8079 0.0000 0.0000
# 5 0.0000 0.0000 0.0000 0.0000 -10.2194 0.0000
# 6 0.0000 0.0000 0.0000 0.0000 0.0000 6.3084
#
#
#
# Elastic Compliance Matrix: (Units=1/GPa)
#
#
# Indices 1 2 3 4 5 6 
#
# 1 0.012942 0.000505 -0.001171 0.000000 0.000000 0.000000
# 2 0.000505 0.023094 -0.027081 0.000000 0.000000 0.000000
# 3 -0.001171 -0.027081 0.039385 0.000000 0.000000 0.000000
# 4 0.000000 0.000000 0.000000 0.023919 0.000000 0.000000
# 5 0.000000 0.000000 0.000000 0.000000 -0.097853 0.000000
# 6 0.000000 0.000000 0.000000 0.000000 0.000000 0.158518
#
#
# Mechanical properties :
#
#
# Convention : Reuss Voigt Hill
#
# Bulk Modulus (GPa) = 50.18109 84.81892 67.50001
# Shear Modulus (GPa) = 22.50811 25.43296 23.97053
#
# Velocity S-wave (km/s) = 3.35369 3.56494 3.46093
# Velocity P-wave (km/s) = 6.33022 7.70252 7.04984
#
# Compressibility (1/GPa) = 0.01992783
#
# Stress axis : x y z
#
# Youngs Moduli (GPa) = 77.26557 43.30066 25.39014
#
# Poissons Ratio (x) = -0.02186 0.02973
# Poissons Ratio (y) = -0.03901 0.68759
# Poissons Ratio (z) = 0.09048 1.17263
#
# Static dielectric constant tensor:
#      x y z
#    x 1.876220 0.000000 0.000000 
#    y 0.000000 1.687870 0.000000 
#    z 0.000000 0.000000 1.675760 
# 
# From -- ./inp_files/15453.got.cif
#   From: 2010.05.17/outbox.cif.g08.bks.cpg/sg47_8_cif.got.tgz:15453.got - 2010.06.03 20:15:42.
