data_PCOD9388568
_publ_section_title
;
Structure prediction by ZEFSAII (Michael W. Deem and Ramdas Pophale) SiO2 
 PCOD9388568
Probable space group: P M M M
;
_chemical_formula_sum "Si O2"
_cell_formula_units_Z 44
_cell_length_a 9.112487
_cell_length_b 7.915938
_cell_length_c 30.702611
_cell_angle_alpha 90.000000
_cell_angle_beta 90.000000
_cell_angle_gamma 90.000000
_cell_volume 2214.698523
_symmetry_space_group_name_H-M "P M M M"
_symmetry_group_IT_number 47
_symmetry_cell_setting 'orthorhombic'
loop_
_space_group_symop_operation_xyz
x,y,z
-x,-y,z
x,-y,-z
-x,y,-z
-x,-y,-z
x,y,-z
-x,y,z
x,-y,z
loop_
_atom_site_type_symbol
_atom_site_label
_atom_site_fract_x
_atom_site_fract_y
_atom_site_fract_z
Si Si1 0.677575 0.701541 0.453196
Si Si2 0.668621 0.698305 0.184689
Si Si3 0.832579 0.799387 0.270488
Si Si4 0.328252 0.500000 0.052063
Si Si5 0.329197 0.295097 0.358318
Si Si6 0.174623 0.189996 0.900216
O O1 0.729559 0.771494 0.500000
O O2 0.500000 0.718088 0.452689
O O3 0.708017 0.500000 0.453797
O O4 0.726170 0.766076 0.405903
O O5 0.500000 0.756528 0.183412
O O6 0.671620 0.500000 0.173355
O O7 0.734148 0.719877 0.232688
O O8 0.765599 0.792506 0.148942
O O9 0.765518 0.763929 0.317799
O O10 0.000000 0.736939 0.267847
O O11 0.832881 0.000000 0.263287
O O12 0.500000 0.500000 0.064098
O O13 0.252660 0.666089 0.071747
O O14 0.315379 0.500000 0.000000
O O15 0.500000 0.243541 0.352856
O O16 0.327759 0.500000 0.359132
O O17 0.000000 0.216088 0.900484
O O18 0.205834 0.000000 0.916112
#
# Coordination Sequence:
#
# PCOD9388568 Si02
#       6
#     8   8   8   4   8   8
#     4   7  10  19  39  68  98 124 154 202 265 328
#     4  11  23  39  62  91 120 152 194 244 300 362
#     4  11  24  38  51  72 105 146 190 232 279 339
#     4  11  25  45  69  99 135 177 225 273 320 369
#     4   9  17  30  50  76 102 129 168 218 273 335
#     4  11  24  42  67  99 134 173 216 263 318 378
#
# _framework density 19.867262
#
# number of rings (size 3 to 8) (size 9 to 14) (size 15 to 20)
#    0.000    2.091    0.909    4.636    0.000    9.818 
#    0.000    1.818    0.000    1.091    0.000    6.364 
#    0.000    0.000    0.000    0.000    0.000    0.000 
#
# Total GULP energy -245644.878013 kJ/mol
# GULP energy per Si atom -5582.838137 kJ/mol
# Density = 1.982204 g / cm^3
# Si number density = 19.867262 Si / 1000 Ang^3
#
#
#
# Elastic Constant Matrix: (Units=GPa)
#
#
# Indices 1 2 3 4 5 6 
#
# 1 97.0908 51.8570 51.7611 0.0000 0.0000 0.0000
# 2 51.8570 76.6795 42.2866 0.0000 0.0000 0.0000
# 3 51.7611 42.2866 115.3201 0.0000 0.0000 0.0000
# 4 0.0000 0.0000 0.0000 -12.2334 0.0000 0.0000
# 5 0.0000 0.0000 0.0000 0.0000 -54.8482 0.0000
# 6 0.0000 0.0000 0.0000 0.0000 0.0000 27.3567
#
#
#
# Elastic Compliance Matrix: (Units=1/GPa)
#
#
# Indices 1 2 3 4 5 6 
#
# 1 0.017797 -0.009565 -0.004481 0.000000 0.000000 0.000000
# 2 -0.009565 0.021487 -0.003586 0.000000 0.000000 0.000000
# 3 -0.004481 -0.003586 0.011998 0.000000 0.000000 0.000000
# 4 0.000000 0.000000 0.000000 -0.081744 0.000000 0.000000
# 5 0.000000 0.000000 0.000000 0.000000 -0.018232 0.000000
# 6 0.000000 0.000000 0.000000 0.000000 0.000000 0.036554
#
#
# Mechanical properties :
#
#
# Convention : Reuss Voigt Hill
#
# Bulk Modulus (GPa) = 62.42678 64.54441 63.48560
# Shear Modulus (GPa) = 175.66262 1.60076 88.63169
#
# Velocity S-wave (km/s) = 9.41329 0.89860 6.68646
# Velocity P-wave (km/s) = 12.23262 5.79957 9.57267
#
# Compressibility (1/GPa) = 0.01601877
#
# Stress axis : x y z
#
# Youngs Moduli (GPa) = 56.18893 46.53886 83.34920
#
# Poissons Ratio (x) = 0.44513 0.37348
# Poissons Ratio (y) = 0.53744 0.29890
# Poissons Ratio (z) = 0.25178 0.16689
#
# Static dielectric constant tensor:
#      x y z
#    x 1.668070 0.000000 0.000000 
#    y 0.000000 1.718870 0.000000 
#    z 0.000000 0.000000 1.709410 
# 
# From -- ./inp_files/33887.got.cif
#   From: 2010.05.17/outbox.cif.g08.bks.cpg/sg47_17_cif.got.tgz:33887.got - 2010.06.03 20:15:42.
