data_PCOD9388434
_publ_section_title
;
Structure prediction by ZEFSAII (Michael W. Deem and Ramdas Pophale) SiO2 
 PCOD9388434
Probable space group: P M M M
;
_chemical_formula_sum "Si O2"
_cell_formula_units_Z 52
_cell_length_a 7.801903
_cell_length_b 19.732088
_cell_length_c 16.249096
_cell_angle_alpha 90.000000
_cell_angle_beta 90.000000
_cell_angle_gamma 90.000000
_cell_volume 2501.513175
_symmetry_space_group_name_H-M "P M M M"
_symmetry_group_IT_number 47
_symmetry_cell_setting 'orthorhombic'
loop_
_space_group_symop_operation_xyz
x,y,z
-x,-y,z
x,-y,-z
-x,y,-z
-x,-y,-z
x,y,-z
-x,y,z
x,-y,z
loop_
_atom_site_type_symbol
_atom_site_label
_atom_site_fract_x
_atom_site_fract_y
_atom_site_fract_z
Si Si1 0.294782 0.077103 0.000000
Si Si2 0.199048 0.863244 0.175019
Si Si3 0.300446 0.925445 0.342209
Si Si4 0.292581 0.718171 0.761408
Si Si5 0.709962 0.217873 0.408512
Si Si6 0.696339 0.424418 0.769388
Si Si7 0.802750 0.581440 0.411800
O O1 0.237255 0.113037 0.916613
O O2 0.500000 0.075906 0.000000
O O3 0.229961 0.000000 0.000000
O O4 0.293441 0.906838 0.245323
O O5 0.245821 0.784705 0.187578
O O6 0.000000 0.872293 0.192956
O O7 0.500000 0.928889 0.366362
O O8 0.230662 0.858901 0.388050
O O9 0.224157 0.000000 0.356987
O O10 0.500000 0.713662 0.759862
O O11 0.234134 0.735260 0.667702
O O12 0.225252 0.646988 0.798233
O O13 0.765585 0.237226 0.500000
O O14 0.500000 0.218129 0.407034
O O15 0.500000 0.428405 0.798204
O O16 0.773495 0.500000 0.782363
O O17 0.697160 0.409901 0.671041
O O18 0.733740 0.606456 0.500000
O O19 0.811384 0.500000 0.418136
O O20 0.000000 0.604585 0.401707
#
# Coordination Sequence:
#
# PCOD9388434 Si02
#       7
#     4   8   8   8   8   8   8
#     4  11  23  39  61  87 114 141 166 193 231 284
#     4  11  22  35  53  78 107 136 167 201 240 290
#     4   9  17  30  48  69  96 132 171 210 255 302
#     4   9  18  33  50  68  97 135 171 209 257 311
#     4   8  14  25  42  64  89 123 171 218 253 291
#     4   9  17  28  44  67  91 118 160 214 262 301
#     4   8  14  24  36  52  80 118 155 194 248 312
#
# _framework density 20.787417999999999
#
# number of rings (size 3 to 8) (size 9 to 14) (size 15 to 20)
#    0.000    2.846    0.000    3.462    0.000    4.615 
#    0.000    4.615    0.000    7.385    0.000    4.846 
#    0.000    4.308    0.000    0.000    0.000    0.000 
#
# Total GULP energy -289755.191305 kJ/mol
# GULP energy per Si atom -5572.215217 kJ/mol
# Density = 2.074010 g / cm^3
# Si number density = 20.787418 Si / 1000 Ang^3
#
#
#
# Elastic Constant Matrix: (Units=GPa)
#
#
# Indices 1 2 3 4 5 6 
#
# 1 38.6139 2.4661 -7.1738 0.0000 0.0000 0.0000
# 2 2.4661 184.6348 32.5701 0.0000 0.0000 0.0000
# 3 -7.1738 32.5701 63.3255 0.0000 0.0000 0.0000
# 4 0.0000 0.0000 0.0000 1.2690 0.0000 0.0000
# 5 0.0000 0.0000 0.0000 0.0000 -12.5272 0.0000
# 6 0.0000 0.0000 0.0000 0.0000 0.0000 -4.4995
#
#
#
# Elastic Compliance Matrix: (Units=1/GPa)
#
#
# Indices 1 2 3 4 5 6 
#
# 1 0.026613 -0.000976 0.003517 0.000000 0.000000 0.000000
# 2 -0.000976 0.005992 -0.003193 0.000000 0.000000 0.000000
# 3 0.003517 -0.003193 0.017832 0.000000 0.000000 0.000000
# 4 0.000000 0.000000 0.000000 0.788030 0.000000 0.000000
# 5 0.000000 0.000000 0.000000 0.000000 -0.079826 0.000000
# 6 0.000000 0.000000 0.000000 0.000000 0.000000 -0.222246
#
#
# Mechanical properties :
#
#
# Convention : Reuss Voigt Hill
#
# Bulk Modulus (GPa) = 20.35253 38.03322 29.19288
# Shear Modulus (GPa) = 9.02403 14.09590 11.55997
#
# Velocity S-wave (km/s) = 2.08579 2.60686 2.36074
# Velocity P-wave (km/s) = 3.95130 5.23421 4.63733
#
# Compressibility (1/GPa) = 0.04913393
#
# Stress axis : x y z
#
# Youngs Moduli (GPa) = 37.57553 166.88064 56.07943
#
# Poissons Ratio (x) = 0.16285 -0.19722
# Poissons Ratio (y) = 0.03667 0.17904
# Poissons Ratio (z) = -0.13214 0.53278
#
# Static dielectric constant tensor:
#      x y z
#    x 1.750040 0.000000 0.000000 
#    y 0.000000 1.824950 0.000000 
#    z 0.000000 0.000000 1.748060 
# 
# From -- ./inp_files/21422.got.cif
#   From: 2010.05.17/outbox.cif.g08.bks.cpg/sg47_11_cif.got.tgz:21422.got - 2010.06.03 20:15:42.
