data_PCOD9388572
_publ_section_title
;
Structure prediction by ZEFSAII (Michael W. Deem and Ramdas Pophale) SiO2 
 PCOD9388572
Probable space group: P M M M
;
_chemical_formula_sum "Si O2"
_cell_formula_units_Z 30
_cell_length_a 7.285005
_cell_length_b 13.237001
_cell_length_c 13.678328
_cell_angle_alpha 90.000000
_cell_angle_beta 90.000000
_cell_angle_gamma 90.000000
_cell_volume 1319.023307
_symmetry_space_group_name_H-M "P M M M"
_symmetry_group_IT_number 47
_symmetry_cell_setting 'orthorhombic'
loop_
_space_group_symop_operation_xyz
x,y,z
-x,-y,z
x,-y,-z
-x,y,-z
-x,-y,-z
x,y,-z
-x,y,z
x,-y,z
loop_
_atom_site_type_symbol
_atom_site_label
_atom_site_fract_x
_atom_site_fract_y
_atom_site_fract_z
Si Si1 0.722319 0.778180 0.612622
Si Si2 0.500000 0.500000 0.841682
Si Si3 0.283090 0.000000 0.381461
Si Si4 0.221811 0.891188 0.114753
Si Si5 0.210918 0.322960 0.196504
O O1 0.777852 0.763646 0.500000
O O2 0.500000 0.780417 0.613745
O O3 0.789443 0.889631 0.647814
O O4 0.784392 0.691610 0.686112
O O5 0.340396 0.588306 0.837927
O O6 0.500000 0.000000 0.361554
O O7 0.264515 0.000000 0.500000
O O8 0.282856 0.786148 0.160028
O O9 0.000000 0.891444 0.121696
O O10 0.285446 0.000000 0.155649
O O11 0.268134 0.889947 0.000000
O O12 0.000000 0.336436 0.164370
#
# Coordination Sequence:
#
# PCOD9388572 Si02
#       5
#     8   2   4   8   8
#     4   9  17  33  56  86 124 163 201 246 304 367
#     4  12  26  48  60  84 122 164 212 270 306 346
#     4   7  12  24  47  79 116 154 186 224 287 364
#     4   8  16  35  64  98 133 162 191 238 305 377
#     4  11  23  40  65  90 119 162 210 254 305 361
#
# _framework density 22.744104
#
# number of rings (size 3 to 8) (size 9 to 14) (size 15 to 20)
#    0.000    2.800    1.333    2.800    1.867    0.533 
#    0.000    4.000    0.000    8.800    0.000    0.000 
#    0.000    0.000    0.000    0.000    0.000    0.000 
#
# Total GULP energy -167056.966108 kJ/mol
# GULP energy per Si atom -5568.565537 kJ/mol
# Density = 2.269234 g / cm^3
# Si number density = 22.744104 Si / 1000 Ang^3
#
#
#
# Elastic Constant Matrix: (Units=GPa)
#
#
# Indices 1 2 3 4 5 6 
#
# 1 140.8925 53.4071 2.2362 0.0000 0.0000 0.0000
# 2 53.4071 187.0343 33.0261 0.0000 0.0000 0.0000
# 3 2.2362 33.0261 41.7258 0.0000 0.0000 0.0000
# 4 0.0000 0.0000 0.0000 -12.8146 0.0000 0.0000
# 5 0.0000 0.0000 0.0000 0.0000 11.1499 0.0000
# 6 0.0000 0.0000 0.0000 0.0000 0.0000 27.2404
#
#
#
# Elastic Compliance Matrix: (Units=1/GPa)
#
#
# Indices 1 2 3 4 5 6 
#
# 1 0.008052 -0.002584 0.001614 0.000000 0.000000 0.000000
# 2 -0.002584 0.007045 -0.005437 0.000000 0.000000 0.000000
# 3 0.001614 -0.005437 0.028183 0.000000 0.000000 0.000000
# 4 0.000000 0.000000 0.000000 -0.078036 0.000000 0.000000
# 5 0.000000 0.000000 0.000000 0.000000 0.089687 0.000000
# 6 0.000000 0.000000 0.000000 0.000000 0.000000 0.036710
#
#
# Mechanical properties :
#
#
# Convention : Reuss Voigt Hill
#
# Bulk Modulus (GPa) = 32.82559 60.77683 46.80121
# Shear Modulus (GPa) = 43.62617 23.84735 33.73676
#
# Velocity S-wave (km/s) = 4.38440 3.24158 3.85557
# Velocity P-wave (km/s) = 6.33202 6.38674 6.35944
#
# Compressibility (1/GPa) = 0.03046404
#
# Stress axis : x y z
#
# Youngs Moduli (GPa) = 124.20031 141.95297 35.48223
#
# Poissons Ratio (x) = 0.36681 -0.05726
# Poissons Ratio (y) = 0.32094 0.19293
# Poissons Ratio (z) = -0.20043 0.77184
#
# Static dielectric constant tensor:
#      x y z
#    x 1.875860 0.000000 0.000000 
#    y 0.000000 1.807660 0.000000 
#    z 0.000000 0.000000 1.921440 
# 
# From -- ./inp_files/14630.got.cif
#   From: 2010.05.17/outbox.cif.g08.bks.cpg/sg47_8_cif.got.tgz:14630.got - 2010.06.03 20:15:42.
