data_PCOD9388878
_publ_section_title
;
Structure prediction by ZEFSAII (Michael W. Deem and Ramdas Pophale) SiO2 
 PCOD9388878
Probable space group: P M M M
;
_chemical_formula_sum "Si O2"
_cell_formula_units_Z 64
_cell_length_a 7.291280
_cell_length_b 15.356307
_cell_length_c 29.612021
_cell_angle_alpha 90.000000
_cell_angle_beta 90.000000
_cell_angle_gamma 90.000000
_cell_volume 3315.573126
_symmetry_space_group_name_H-M "P M M M"
_symmetry_group_IT_number 47
_symmetry_cell_setting 'orthorhombic'
loop_
_space_group_symop_operation_xyz
x,y,z
-x,-y,z
x,-y,-z
-x,y,-z
-x,-y,-z
x,y,-z
-x,y,z
x,-y,z
loop_
_atom_site_type_symbol
_atom_site_label
_atom_site_fract_x
_atom_site_fract_y
_atom_site_fract_z
Si Si1 0.277153 0.900334 0.869071
Si Si2 0.276800 0.596939 0.086658
Si Si3 0.276709 0.098774 0.765931
Si Si4 0.285309 0.400406 0.351235
Si Si5 0.723774 0.778454 0.950482
Si Si6 0.275815 0.722394 0.728648
Si Si7 0.220226 0.398734 0.451523
Si Si8 0.722556 0.401897 0.809324
O O1 0.500000 0.896921 0.868924
O O2 0.221511 0.880087 0.817683
O O3 0.214424 0.836010 0.908206
O O4 0.224870 0.000000 0.878673
O O5 0.500000 0.595960 0.086156
O O6 0.217383 0.500000 0.073026
O O7 0.219399 0.678613 0.057163
O O8 0.221644 0.612281 0.138872
O O9 0.500000 0.097476 0.765711
O O10 0.217752 0.177453 0.733799
O O11 0.217663 0.000000 0.755269
O O12 0.500000 0.409119 0.340907
O O13 0.209521 0.500000 0.349581
O O14 0.211986 0.332873 0.314496
O O15 0.272370 0.364614 0.402379
O O16 0.500000 0.779994 0.949708
O O17 0.780393 0.809844 0.000000
O O18 0.500000 0.723436 0.727930
O O19 0.219110 0.669362 0.773379
O O20 0.282025 0.360907 0.500000
O O21 0.280340 0.500000 0.451151
O O22 0.000000 0.398317 0.452254
O O23 0.500000 0.400395 0.809508
O O24 0.777162 0.500000 0.795788
#
# Coordination Sequence:
#
# PCOD9388878 Si02
#       8
#     8   8   8   8   8   8   8   8
#     4   8  13  20  27  33  41  55  80 114 149 189
#     4   8  13  19  24  29  37  52  78 109 139 179
#     4   8  13  20  29  39  51  72 101 127 154 197
#     4   9  16  23  32  51  77  99 119 146 181 215
#     4   9  15  19  22  28  37  50  71 105 153 200
#     4   9  14  19  28  42  63  85 101 125 165 209
#     4   8  14  25  39  52  69  99 135 160 175 198
#     4   8  12  17  25  35  47  67  93 116 144 191
#
# _framework density 19.302848000000001
#
# number of rings (size 3 to 8) (size 9 to 14) (size 15 to 20)
#    0.000    3.625    0.000    3.000    0.000    5.250 
#    0.000    3.750    0.000    0.000    0.000    0.000 
#    0.000    1.000    0.000    6.250    0.000    1.250 
#
# Total GULP energy -356748.972206 kJ/mol
# GULP energy per Si atom -5574.202691 kJ/mol
# Density = 1.925891 g / cm^3
# Si number density = 19.302848 Si / 1000 Ang^3
#
#
#
# Elastic Constant Matrix: (Units=GPa)
#
#
# Indices 1 2 3 4 5 6 
#
# 1 79.1397 4.4618 1.9127 0.0000 0.0000 0.0000
# 2 4.4618 106.9628 76.8912 0.0000 0.0000 0.0000
# 3 1.9127 76.8912 94.9540 0.0000 0.0000 0.0000
# 4 0.0000 0.0000 0.0000 19.3171 0.0000 0.0000
# 5 0.0000 0.0000 0.0000 0.0000 18.9464 0.0000
# 6 0.0000 0.0000 0.0000 0.0000 0.0000 -15.6857
#
#
#
# Elastic Compliance Matrix: (Units=1/GPa)
#
#
# Indices 1 2 3 4 5 6 
#
# 1 0.012672 -0.000826 0.000413 0.000000 0.000000 0.000000
# 2 -0.000826 0.022426 -0.018143 0.000000 0.000000 0.000000
# 3 0.000413 -0.018143 0.025215 0.000000 0.000000 0.000000
# 4 0.000000 0.000000 0.000000 0.051768 0.000000 0.000000
# 5 0.000000 0.000000 0.000000 0.000000 0.052780 0.000000
# 6 0.000000 0.000000 0.000000 0.000000 0.000000 -0.063753
#
#
# Mechanical properties :
#
#
# Convention : Reuss Voigt Hill
#
# Bulk Modulus (GPa) = 43.09951 49.73198 46.41575
# Shear Modulus (GPa) = 34.25726 17.70162 25.97944
#
# Velocity S-wave (km/s) = 4.21732 3.03156 3.67261
# Velocity P-wave (km/s) = 6.78903 6.17040 6.48709
#
# Compressibility (1/GPa) = 0.02320212
#
# Stress axis : x y z
#
# Youngs Moduli (GPa) = 78.91132 44.59116 39.65886
#
# Poissons Ratio (x) = 0.03683 -0.01640
# Poissons Ratio (y) = 0.06517 0.71954
# Poissons Ratio (z) = -0.03263 0.80903
#
# Static dielectric constant tensor:
#      x y z
#    x 2.722120 0.000000 0.000000 
#    y 0.000000 1.659220 0.000000 
#    z 0.000000 0.000000 1.673600 
# 
# From -- ./inp_files/8251.got.cif
#   From: 2010.05.17/outbox.cif.g08.bks.cpg/sg47_5_cif.got.tgz:8251.got - 2010.06.03 20:15:42.
