data_PCOD9388866
_publ_section_title
;
Structure prediction by ZEFSAII (Michael W. Deem and Ramdas Pophale) SiO2 
 PCOD9388866
Probable space group: P M M M
;
_chemical_formula_sum "Si O2"
_cell_formula_units_Z 52
_cell_length_a 9.565626
_cell_length_b 7.483085
_cell_length_c 35.578285
_cell_angle_alpha 90.000000
_cell_angle_beta 90.000000
_cell_angle_gamma 90.000000
_cell_volume 2546.707603
_symmetry_space_group_name_H-M "P M M M"
_symmetry_group_IT_number 47
_symmetry_cell_setting 'orthorhombic'
loop_
_space_group_symop_operation_xyz
x,y,z
-x,-y,z
x,-y,-z
-x,y,-z
-x,-y,-z
x,y,-z
-x,y,z
x,-y,z
loop_
_atom_site_type_symbol
_atom_site_label
_atom_site_fract_x
_atom_site_fract_y
_atom_site_fract_z
Si Si1 0.659200 0.213795 0.070577
Si Si2 0.839482 0.719171 0.774188
Si Si3 0.659314 0.286285 0.155163
Si Si4 0.661555 0.214870 0.378825
Si Si5 0.659585 0.712371 0.703553
Si Si6 0.160291 0.780902 0.000000
Si Si7 0.331748 0.784782 0.459522
O O1 0.500000 0.283433 0.067364
O O2 0.709679 0.250143 0.112859
O O3 0.651728 0.000000 0.066555
O O4 0.757765 0.278948 0.037266
O O5 0.839694 0.500000 0.774090
O O6 0.758803 0.778703 0.811696
O O7 0.754892 0.779751 0.737359
O O8 0.000000 0.776187 0.773672
O O9 0.500000 0.216607 0.158478
O O10 0.651654 0.500000 0.159253
O O11 0.500000 0.278971 0.377290
O O12 0.722009 0.260034 0.338155
O O13 0.722386 0.279164 0.418857
O O14 0.658171 0.000000 0.380926
O O15 0.500000 0.784933 0.704717
O O16 0.648586 0.500000 0.708789
O O17 0.000000 0.723753 0.000000
O O18 0.160431 0.000000 0.000000
O O19 0.279541 0.715951 0.500000
O O20 0.500000 0.754811 0.458901
O O21 0.312815 0.000000 0.460244
#
# Coordination Sequence:
#
# PCOD9388866 Si02
#       7
#     8   8   8   8   8   4   8
#     4   9  17  30  48  68  89 114 144 175 206 243
#     4   9  17  29  45  63  82 107 139 170 200 241
#     4   9  17  30  48  68  88 110 138 173 211 247
#     4   8  13  21  34  53  76 102 132 164 198 237
#     4   9  16  26  41  59  78 102 133 167 200 236
#     4   9  17  29  46  67  90 118 150 179 206 240
#     4   7   9  14  26  45  69  97 128 159 190 229
#
# _framework density 20.418519
#
# number of rings (size 3 to 8) (size 9 to 14) (size 15 to 20)
#    0.000    3.462    0.000    2.077    0.000    3.385 
#    0.000    1.154    0.000    7.846    0.000    3.231 
#    0.000    0.615    0.000    7.692    0.000    7.077 
#
# Total GULP energy -289653.204400 kJ/mol
# GULP energy per Si atom -5570.253931 kJ/mol
# Density = 2.037205 g / cm^3
# Si number density = 20.418519 Si / 1000 Ang^3
#
#
#
# Elastic Constant Matrix: (Units=GPa)
#
#
# Indices 1 2 3 4 5 6 
#
# 1 74.2617 5.4315 106.5627 0.0000 0.0000 0.0000
# 2 5.4315 55.5406 2.3032 0.0000 0.0000 0.0000
# 3 106.5627 2.3032 267.6269 0.0000 0.0000 0.0000
# 4 0.0000 0.0000 0.0000 18.4256 0.0000 0.0000
# 5 0.0000 0.0000 0.0000 0.0000 -10.5450 0.0000
# 6 0.0000 0.0000 0.0000 0.0000 0.0000 0.9676
#
#
#
# Elastic Compliance Matrix: (Units=1/GPa)
#
#
# Indices 1 2 3 4 5 6 
#
# 1 0.031782 -0.002584 -0.012633 0.000000 0.000000 0.000000
# 2 -0.002584 0.018221 0.000872 0.000000 0.000000 0.000000
# 3 -0.012633 0.000872 0.008759 0.000000 0.000000 0.000000
# 4 0.000000 0.000000 0.000000 0.054272 0.000000 0.000000
# 5 0.000000 0.000000 0.000000 0.000000 -0.094832 0.000000
# 6 0.000000 0.000000 0.000000 0.000000 0.000000 1.033488
#
#
# Mechanical properties :
#
#
# Convention : Reuss Voigt Hill
#
# Bulk Modulus (GPa) = 33.25214 69.55823 51.40518
# Shear Modulus (GPa) = 4.58545 20.64512 12.61528
#
# Velocity S-wave (km/s) = 1.50020 3.18323 2.48833
# Velocity P-wave (km/s) = 4.39562 6.90295 5.78672
#
# Compressibility (1/GPa) = 0.03007325
#
# Stress axis : x y z
#
# Youngs Moduli (GPa) = 31.46392 54.88055 114.16691
#
# Poissons Ratio (x) = 0.14182 1.44224
# Poissons Ratio (y) = 0.08131 -0.09957
# Poissons Ratio (z) = 0.39748 -0.04786
#
# Static dielectric constant tensor:
#      x y z
#    x 1.679260 0.000000 0.000000 
#    y 0.000000 1.781840 0.000000 
#    z 0.000000 0.000000 1.763610 
# 
# From -- ./inp_files/14102.got.cif
#   From: 2010.05.17/outbox.cif.g08.bks.cpg/sg47_8_cif.got.tgz:14102.got - 2010.06.03 20:15:42.
