data_PCOD9388325
_publ_section_title
;
Structure prediction by ZEFSAII (Michael W. Deem and Ramdas Pophale) SiO2 
 PCOD9388325
Probable space group: P M M M
;
_chemical_formula_sum "Si O2"
_cell_formula_units_Z 36
_cell_length_a 8.042197
_cell_length_b 12.121211
_cell_length_c 22.967058
_cell_angle_alpha 90.000000
_cell_angle_beta 90.000000
_cell_angle_gamma 90.000000
_cell_volume 2238.855610
_symmetry_space_group_name_H-M "P M M M"
_symmetry_group_IT_number 47
_symmetry_cell_setting 'orthorhombic'
loop_
_space_group_symop_operation_xyz
x,y,z
-x,-y,z
x,-y,-z
-x,y,-z
-x,-y,-z
x,y,-z
-x,y,z
x,-y,z
loop_
_atom_site_type_symbol
_atom_site_label
_atom_site_fract_x
_atom_site_fract_y
_atom_site_fract_z
Si Si1 0.308893 0.865911 0.853822
Si Si2 0.802565 0.500000 0.433563
Si Si3 0.302165 0.264924 0.612473
Si Si4 0.000000 0.134579 0.067248
Si Si5 0.702622 0.873443 0.721786
Si Si6 0.800909 0.125504 0.500000
O O1 0.500000 0.829064 0.865014
O O2 0.167488 0.829950 0.898990
O O3 0.257322 0.837609 0.787596
O O4 0.313592 0.000000 0.855145
O O5 0.732499 0.500000 0.500000
O O6 0.753498 0.388980 0.400387
O O7 0.000000 0.500000 0.438728
O O8 0.500000 0.266355 0.617036
O O9 0.236178 0.207325 0.671214
O O10 0.254974 0.190410 0.557214
O O11 0.000000 0.000000 0.068192
O O12 0.000000 0.169015 0.000000
O O13 0.500000 0.876420 0.719809
O O14 0.759476 0.000000 0.712318
O O15 0.000000 0.123093 0.500000
O O16 0.737270 0.000000 0.500000
#
# Coordination Sequence:
#
# PCOD9388325 Si02
#       6
#     8   4   8   4   8   4
#     4   8  14  26  41  58  87 124 156 191 235 276
#     4  11  23  39  53  65  92 124 152 191 244 303
#     4  11  21  34  55  74  88 116 160 203 241 284
#     4   9  16  24  36  60  90 122 165 200 220 260
#     4   8  15  29  48  70  94 118 150 194 242 286
#     4  11  23  36  47  68 101 125 147 187 242 295
#
# _framework density 16.079642
#
# number of rings (size 3 to 8) (size 9 to 14) (size 15 to 20)
#    0.000    2.556    1.111    3.333    0.000    2.667 
#    4.000    2.222    0.000    0.000    0.000    0.000 
#    0.000    0.000    0.000    2.000    0.000   17.778 
#
# Total GULP energy -200635.370119 kJ/mol
# GULP energy per Si atom -5573.204726 kJ/mol
# Density = 1.604304 g / cm^3
# Si number density = 16.079642 Si / 1000 Ang^3
#
#
#
# Elastic Constant Matrix: (Units=GPa)
#
#
# Indices 1 2 3 4 5 6 
#
# 1 65.0678 26.0757 58.9825 0.0000 0.0000 0.0000
# 2 26.0757 88.7762 60.1177 0.0000 0.0000 0.0000
# 3 58.9825 60.1177 161.4440 0.0000 0.0000 0.0000
# 4 0.0000 0.0000 0.0000 0.5385 0.0000 0.0000
# 5 0.0000 0.0000 0.0000 0.0000 51.7901 0.0000
# 6 0.0000 0.0000 0.0000 0.0000 0.0000 16.2784
#
#
#
# Elastic Compliance Matrix: (Units=1/GPa)
#
#
# Indices 1 2 3 4 5 6 
#
# 1 0.023114 -0.001432 -0.007911 0.000000 0.000000 0.000000
# 2 -0.001432 0.015151 -0.005119 0.000000 0.000000 0.000000
# 3 -0.007911 -0.005119 0.010991 0.000000 0.000000 0.000000
# 4 0.000000 0.000000 0.000000 1.856907 0.000000 0.000000
# 5 0.000000 0.000000 0.000000 0.000000 0.019309 0.000000
# 6 0.000000 0.000000 0.000000 0.000000 0.000000 0.061431
#
#
# Mechanical properties :
#
#
# Convention : Reuss Voigt Hill
#
# Bulk Modulus (GPa) = 49.18398 67.29328 58.23863
# Shear Modulus (GPa) = 2.47206 25.06222 13.76714
#
# Velocity S-wave (km/s) = 1.24126 3.95223 2.92924
# Velocity P-wave (km/s) = 5.71913 7.92261 6.90927
#
# Compressibility (1/GPa) = 0.02033182
#
# Stress axis : x y z
#
# Youngs Moduli (GPa) = 43.26429 66.00135 90.98683
#
# Poissons Ratio (x) = 0.09449 0.71983
# Poissons Ratio (y) = 0.06194 0.46575
# Poissons Ratio (z) = 0.34228 0.33785
#
# Static dielectric constant tensor:
#      x y z
#    x 1.565840 0.000000 0.000000 
#    y 0.000000 1.534220 0.000000 
#    z 0.000000 0.000000 1.549940 
# 
# From -- ./inp_files/29289.got.cif
#   From: 2010.05.17/outbox.cif.g08.bks.cpg/sg47_15_cif.got.tgz:29289.got - 2010.06.03 20:15:42.
