data_PCOD9388942
_publ_section_title
;
Structure prediction by ZEFSAII (Michael W. Deem and Ramdas Pophale) SiO2 
 PCOD9388942
Probable space group: P M M M
;
_chemical_formula_sum "Si O2"
_cell_formula_units_Z 36
_cell_length_a 9.501649
_cell_length_b 24.201029
_cell_length_c 7.410081
_cell_angle_alpha 90.000000
_cell_angle_beta 90.000000
_cell_angle_gamma 90.000000
_cell_volume 1703.945777
_symmetry_space_group_name_H-M "P M M M"
_symmetry_group_IT_number 47
_symmetry_cell_setting 'orthorhombic'
loop_
_space_group_symop_operation_xyz
x,y,z
-x,-y,z
x,-y,-z
-x,y,-z
-x,-y,-z
x,y,-z
-x,y,z
x,-y,z
loop_
_atom_site_type_symbol
_atom_site_label
_atom_site_fract_x
_atom_site_fract_y
_atom_site_fract_z
Si Si1 0.839418 0.879056 0.786743
Si Si2 0.838396 0.667577 0.220421
Si Si3 0.839943 0.000000 0.286037
Si Si4 0.662261 0.562149 0.219833
Si Si5 0.661758 0.774851 0.220829
O O1 0.742190 0.829997 0.716810
O O2 0.000000 0.878233 0.712734
O O3 0.777790 0.940750 0.764966
O O4 0.851631 0.869575 0.000000
O O5 0.763804 0.611021 0.279678
O O6 0.747998 0.720642 0.276159
O O7 0.000000 0.671399 0.278211
O O8 0.838440 0.667344 0.000000
O O9 0.848424 0.000000 0.500000
O O10 0.000000 0.000000 0.209702
O O11 0.500000 0.572298 0.273143
O O12 0.701922 0.500000 0.276578
O O13 0.663866 0.562341 0.000000
O O14 0.500000 0.773135 0.278965
O O15 0.660475 0.775150 0.000000
#
# Coordination Sequence:
#
# PCOD9388942 Si02
#       5
#     8   8   4   8   8
#     4   9  16  27  44  64  84 106 135 170 204 239
#     4   9  15  21  30  45  65  89 120 161 205 244
#     4   9  17  29  46  67  88 110 136 165 200 244
#     4   8  13  20  28  38  56  86 123 160 198 241
#     4   9  16  25  37  53  73  97 126 162 204 246
#
# _framework density 21.127433
#
# number of rings (size 3 to 8) (size 9 to 14) (size 15 to 20)
#    0.000    3.222    0.000    2.333    0.000    7.111 
#    0.000    2.778    0.000    4.000    0.000    0.000 
#    0.000    0.000    0.000    0.000    0.000    1.111 
#
# Total GULP energy -200865.205391 kJ/mol
# GULP energy per Si atom -5579.589039 kJ/mol
# Density = 2.107935 g / cm^3
# Si number density = 21.127433 Si / 1000 Ang^3
#
#
#
# Elastic Constant Matrix: (Units=GPa)
#
#
# Indices 1 2 3 4 5 6 
#
# 1 160.4400 144.8748 5.9938 0.0000 0.0000 0.0000
# 2 144.8748 243.3280 1.4098 0.0000 0.0000 0.0000
# 3 5.9938 1.4098 69.1707 0.0000 0.0000 0.0000
# 4 0.0000 0.0000 0.0000 -40.8143 0.0000 0.0000
# 5 0.0000 0.0000 0.0000 0.0000 -10.3215 0.0000
# 6 0.0000 0.0000 0.0000 0.0000 0.0000 20.5947
#
#
#
# Elastic Compliance Matrix: (Units=1/GPa)
#
#
# Indices 1 2 3 4 5 6 
#
# 1 0.013550 -0.008062 -0.001010 0.000000 0.000000 0.000000
# 2 -0.008062 0.008907 0.000517 0.000000 0.000000 0.000000
# 3 -0.001010 0.000517 0.014534 0.000000 0.000000 0.000000
# 4 0.000000 0.000000 0.000000 -0.024501 0.000000 0.000000
# 5 0.000000 0.000000 0.000000 0.000000 -0.096885 0.000000
# 6 0.000000 0.000000 0.000000 0.000000 0.000000 0.048556
#
#
# Mechanical properties :
#
#
# Convention : Reuss Voigt Hill
#
# Bulk Modulus (GPa) = 50.29784 86.38838 68.34311
# Shear Modulus (GPa) = -413.14059 15.26912 -198.93573
#
# Velocity S-wave (km/s) = -13.99898 2.69125 -9.71413
# Velocity P-wave (km/s) = 15.40898 7.11583 9.66441
#
# Compressibility (1/GPa) = 0.01988157
#
# Stress axis : x y z
#
# Youngs Moduli (GPa) = 73.79896 112.27594 68.80444
#
# Poissons Ratio (x) = 0.90515 0.06948
# Poissons Ratio (y) = 0.59496 -0.03558
# Poissons Ratio (z) = 0.07453 -0.05805
#
# Static dielectric constant tensor:
#      x y z
#    x 1.717900 0.000000 0.000000 
#    y 0.000000 1.747540 0.000000 
#    z 0.000000 0.000000 1.788220 
# 
# From -- ./inp_files/1366.got.cif
#   From: 2010.05.17/outbox.cif.g08.bks.cpg/sg47_1_cif.got.tgz:1366.got - 2010.06.03 20:15:42.
