data_PCOD9388970
_publ_section_title
;
Structure prediction by ZEFSAII (Michael W. Deem and Ramdas Pophale) SiO2 
 PCOD9388970
Probable space group: P M M M
;
_chemical_formula_sum "Si O2"
_cell_formula_units_Z 48
_cell_length_a 31.259067
_cell_length_b 7.732366
_cell_length_c 10.407350
_cell_angle_alpha 90.000000
_cell_angle_beta 90.000000
_cell_angle_gamma 90.000000
_cell_volume 2515.524630
_symmetry_space_group_name_H-M "P M M M"
_symmetry_group_IT_number 47
_symmetry_cell_setting 'orthorhombic'
loop_
_space_group_symop_operation_xyz
x,y,z
-x,-y,z
x,-y,-z
-x,y,-z
-x,-y,-z
x,y,-z
-x,y,z
x,-y,z
loop_
_atom_site_type_symbol
_atom_site_label
_atom_site_fract_x
_atom_site_fract_y
_atom_site_fract_z
Si Si1 0.118530 0.707641 0.855392
Si Si2 0.048145 0.207663 0.355335
Si Si3 0.714854 0.792564 0.644255
Si Si4 0.381949 0.211309 0.647134
Si Si5 0.548797 0.788808 0.146619
Si Si6 0.214862 0.707758 0.855257
O O1 0.120532 0.500000 0.861368
O O2 0.083347 0.749916 0.749983
O O3 0.166680 0.769769 0.823226
O O4 0.107857 0.769975 0.000000
O O5 0.058765 0.269903 0.500000
O O6 0.000000 0.269870 0.323075
O O7 0.046184 0.000000 0.361219
O O8 0.725639 0.729080 0.500000
O O9 0.666684 0.732324 0.676871
O O10 0.750052 0.751352 0.749849
O O11 0.712483 0.000000 0.637280
O O12 0.391703 0.261758 0.500000
O O13 0.416672 0.271662 0.749992
O O14 0.382381 0.000000 0.649940
O O15 0.500000 0.736108 0.176358
O O16 0.549230 0.000000 0.148099
O O17 0.558713 0.736303 0.000000
O O18 0.213041 0.500000 0.860722
O O19 0.225463 0.769682 0.000000
#
# Coordination Sequence:
#
# PCOD9388970 Si02
#       6
#     8   8   8   8   8   8
#     4   9  19  35  52  71  96 124 155 193 234 274
#     4   9  19  35  52  72 100 130 158 190 228 270
#     4   9  18  31  46  67  94 121 152 191 232 275
#     4   8  14  24  36  52  78 110 142 178 219 263
#     4   8  13  20  30  47  73 105 141 179 217 259
#     4   9  19  35  51  68  93 123 155 192 232 275
#
# _framework density 19.081506999999998
#
# number of rings (size 3 to 8) (size 9 to 14) (size 15 to 20)
#    0.000    3.333    0.000    3.000    0.000    4.333 
#    0.000   10.833    0.000    0.000    0.000    0.000 
#    0.000    0.667    0.000    7.333    0.000   12.000 
#
# Total GULP energy -267471.973010 kJ/mol
# GULP energy per Si atom -5572.332771 kJ/mol
# Density = 1.903808 g / cm^3
# Si number density = 19.081507 Si / 1000 Ang^3
#
#
#
# Elastic Constant Matrix: (Units=GPa)
#
#
# Indices 1 2 3 4 5 6 
#
# 1 189.9236 9.3089 170.0306 0.0000 0.0000 0.0000
# 2 9.3089 25.4752 8.6567 0.0000 0.0000 0.0000
# 3 170.0306 8.6567 186.5058 0.0000 0.0000 0.0000
# 4 0.0000 0.0000 0.0000 19.4628 0.0000 0.0000
# 5 0.0000 0.0000 0.0000 0.0000 46.5721 0.0000
# 6 0.0000 0.0000 0.0000 0.0000 0.0000 26.3985
#
#
#
# Elastic Compliance Matrix: (Units=1/GPa)
#
#
# Indices 1 2 3 4 5 6 
#
# 1 0.028709 -0.001622 -0.026097 0.000000 0.000000 0.000000
# 2 -0.001622 0.039975 -0.000376 0.000000 0.000000 0.000000
# 3 -0.026097 -0.000376 0.029171 0.000000 0.000000 0.000000
# 4 0.000000 0.000000 0.000000 0.051380 0.000000 0.000000
# 5 0.000000 0.000000 0.000000 0.000000 0.021472 0.000000
# 6 0.000000 0.000000 0.000000 0.000000 0.000000 0.037881
#
#
# Mechanical properties :
#
#
# Convention : Reuss Voigt Hill
#
# Bulk Modulus (GPa) = 24.00251 86.43303 55.21777
# Shear Modulus (GPa) = 17.94258 32.74725 25.34491
#
# Velocity S-wave (km/s) = 3.06978 4.14717 3.64846
# Velocity P-wave (km/s) = 5.01707 8.26602 6.83733
#
# Compressibility (1/GPa) = 0.04166231
#
# Stress axis : x y z
#
# Youngs Moduli (GPa) = 34.83279 25.01589 34.28041
#
# Poissons Ratio (x) = 0.04058 0.89463
# Poissons Ratio (y) = 0.05651 0.01290
# Poissons Ratio (z) = 0.90904 0.00942
#
# Static dielectric constant tensor:
#      x y z
#    x 1.652480 0.000000 0.000000 
#    y 0.000000 1.720860 0.000000 
#    z 0.000000 0.000000 1.653830 
# 
# From -- ./inp_files/2497.got.cif
#   From: 2010.05.17/outbox.cif.g08.bks.cpg/sg47_2_cif.got.tgz:2497.got - 2010.06.03 20:15:42.
