data_PCOD9388010
_publ_section_title
;
Structure prediction by ZEFSAII (Michael W. Deem and Ramdas Pophale) SiO2 
 PCOD9388010
Probable space group: P M M M
;
_chemical_formula_sum "Si O2"
_cell_formula_units_Z 44
_cell_length_a 14.108365
_cell_length_b 8.135164
_cell_length_c 17.019750
_cell_angle_alpha 90.000000
_cell_angle_beta 90.000000
_cell_angle_gamma 90.000000
_cell_volume 1953.422456
_symmetry_space_group_name_H-M "P M M M"
_symmetry_group_IT_number 47
_symmetry_cell_setting 'orthorhombic'
loop_
_space_group_symop_operation_xyz
x,y,z
-x,-y,z
x,-y,-z
-x,y,-z
-x,-y,-z
x,y,-z
-x,y,z
x,-y,z
loop_
_atom_site_type_symbol
_atom_site_label
_atom_site_fract_x
_atom_site_fract_y
_atom_site_fract_z
Si Si1 0.392894 0.194742 0.369358
Si Si2 0.195815 0.693287 0.416029
Si Si3 0.111325 0.197242 0.915031
Si Si4 0.384232 0.500000 0.089961
Si Si5 0.889649 0.302202 0.253977
Si Si6 0.386058 0.818924 0.182650
O O1 0.500000 0.250500 0.386561
O O2 0.308826 0.287131 0.411701
O O3 0.375924 0.210872 0.275620
O O4 0.387652 0.000000 0.387581
O O5 0.162271 0.763355 0.500000
O O6 0.171177 0.500000 0.416120
O O7 0.157165 0.763867 0.333972
O O8 0.150819 0.247876 0.830175
O O9 0.000000 0.250277 0.914246
O O10 0.112409 0.000000 0.916427
O O11 0.151058 0.254543 0.000000
O O12 0.500000 0.500000 0.093037
O O13 0.351789 0.664633 0.133335
O O14 0.356081 0.500000 0.000000
O O15 0.883491 0.500000 0.255009
O O16 0.000000 0.254109 0.256441
O O17 0.500000 0.827279 0.169752
O O18 0.347299 0.000000 0.162123
#
# Coordination Sequence:
#
# PCOD9388010 Si02
#       6
#     8   8   8   4   8   8
#     4   9  19  36  57  79 102 134 177 226 284 340
#     4  10  22  37  53  79 111 143 185 232 278 333
#     4   8  14  26  47  77 110 141 176 221 272 324
#     4   9  16  24  40  70 101 133 174 217 271 333
#     4   9  18  33  53  78 111 151 189 225 269 321
#     4   8  15  28  45  68  98 131 171 218 269 329
#
# _framework density 22.524569
#
# number of rings (size 3 to 8) (size 9 to 14) (size 15 to 20)
#    0.000    3.182    0.000    1.636    1.273    2.909 
#    0.000    7.273    0.000    1.091    0.000    3.818 
#    0.000    0.000    0.000    0.000    0.000    0.182 
#
# Total GULP energy -245506.475482 kJ/mol
# GULP energy per Si atom -5579.692625 kJ/mol
# Density = 2.247330 g / cm^3
# Si number density = 22.524569 Si / 1000 Ang^3
#
#
#
# Elastic Constant Matrix: (Units=GPa)
#
#
# Indices 1 2 3 4 5 6 
#
# 1 59.4639 9.4108 55.4515 0.0000 0.0000 0.0000
# 2 9.4108 51.0536 47.9039 0.0000 0.0000 0.0000
# 3 55.4515 47.9039 201.8554 0.0000 0.0000 0.0000
# 4 0.0000 0.0000 0.0000 130.4263 0.0000 0.0000
# 5 0.0000 0.0000 0.0000 0.0000 -4.5291 0.0000
# 6 0.0000 0.0000 0.0000 0.0000 0.0000 11.1443
#
#
#
# Elastic Compliance Matrix: (Units=1/GPa)
#
#
# Indices 1 2 3 4 5 6 
#
# 1 0.022791 0.002153 -0.006772 0.000000 0.000000 0.000000
# 2 0.002153 0.025402 -0.006620 0.000000 0.000000 0.000000
# 3 -0.006772 -0.006620 0.008385 0.000000 0.000000 0.000000
# 4 0.000000 0.000000 0.000000 0.007667 0.000000 0.000000
# 5 0.000000 0.000000 0.000000 0.000000 -0.220794 0.000000
# 6 0.000000 0.000000 0.000000 0.000000 0.000000 0.089732
#
#
# Mechanical properties :
#
#
# Convention : Reuss Voigt Hill
#
# Bulk Modulus (GPa) = 29.32476 59.76725 44.54600
# Shear Modulus (GPa) = -151.64274 40.71541 -55.46367
#
# Velocity S-wave (km/s) = -8.21398 4.25620 -4.96760
# Velocity P-wave (km/s) = 8.76995 7.12359 3.61707
#
# Compressibility (1/GPa) = 0.03410088
#
# Stress axis : x y z
#
# Youngs Moduli (GPa) = 43.87678 39.36741 119.25628
#
# Poissons Ratio (x) = -0.08476 0.80759
# Poissons Ratio (y) = -0.09446 0.78944
# Poissons Ratio (z) = 0.29713 0.26060
#
# Static dielectric constant tensor:
#      x y z
#    x 1.845350 0.000000 0.000000 
#    y 0.000000 1.806790 0.000000 
#    z 0.000000 0.000000 1.874540 
# 
# From -- ./inp_files/28432.got.cif
#   From: 2010.05.17/outbox.cif.g08.bks.cpg/sg47_15_cif.got.tgz:28432.got - 2010.06.03 20:15:42.
