data_PCOD9388608
_publ_section_title
;
Structure prediction by ZEFSAII (Michael W. Deem and Ramdas Pophale) SiO2 
 PCOD9388608
Probable space group: P M M M
;
_chemical_formula_sum "Si O2"
_cell_formula_units_Z 44
_cell_length_a 10.094919
_cell_length_b 29.096458
_cell_length_c 7.422359
_cell_angle_alpha 90.000000
_cell_angle_beta 90.000000
_cell_angle_gamma 90.000000
_cell_volume 2180.142690
_symmetry_space_group_name_H-M "P M M M"
_symmetry_group_IT_number 47
_symmetry_cell_setting 'orthorhombic'
loop_
_space_group_symop_operation_xyz
x,y,z
-x,-y,z
x,-y,-z
-x,y,-z
-x,-y,-z
x,y,-z
-x,y,z
x,-y,z
loop_
_atom_site_type_symbol
_atom_site_label
_atom_site_fract_x
_atom_site_fract_y
_atom_site_fract_z
Si Si1 0.851081 0.081850 0.215067
Si Si2 0.847651 0.448207 0.219679
Si Si3 0.151807 0.185441 0.780326
Si Si4 0.649206 0.000000 0.288223
Si Si5 0.347611 0.264922 0.219681
Si Si6 0.347500 0.631674 0.219688
O O1 0.817318 0.133337 0.279616
O O2 0.738623 0.044462 0.247155
O O3 0.000000 0.069182 0.281384
O O4 0.862110 0.085062 0.000000
O O5 0.809472 0.500000 0.274812
O O6 0.749771 0.408356 0.281768
O O7 0.000000 0.440203 0.273650
O O8 0.845843 0.447795 0.000000
O O9 0.251710 0.224579 0.717567
O O10 0.000000 0.195315 0.729724
O O11 0.156750 0.185548 0.000000
O O12 0.500000 0.000000 0.208559
O O13 0.633346 0.000000 0.500000
O O14 0.500000 0.257336 0.273535
O O15 0.308340 0.316611 0.274828
O O16 0.345541 0.264567 0.000000
O O17 0.500000 0.623974 0.273685
O O18 0.345789 0.631234 0.000000
#
# Coordination Sequence:
#
# PCOD9388608 Si02
#       6
#     8   8   8   4   8   8
#     4   9  18  33  52  72  92 115 146 181 215 256
#     4   8  13  19  24  30  41  59  88 128 172 217
#     4   8  14  24  38  57  78  97 120 153 191 232
#     4  11  24  37  48  68  96 121 148 181 214 252
#     4   8  13  20  29  43  64  87 110 138 176 225
#     4   8  13  19  25  34  49  70  97 129 167 214
#
# _framework density 20.182164
#
# number of rings (size 3 to 8) (size 9 to 14) (size 15 to 20)
#    0.000    3.545    0.000    3.273    0.000    4.000 
#    0.000    7.273    0.000    0.000    0.000    0.000 
#    0.000    0.000    0.000    0.000    0.000    0.000 
#
# Total GULP energy -245306.197759 kJ/mol
# GULP energy per Si atom -5575.140858 kJ/mol
# Density = 2.013623 g / cm^3
# Si number density = 20.182164 Si / 1000 Ang^3
#
#
#
# Elastic Constant Matrix: (Units=GPa)
#
#
# Indices 1 2 3 4 5 6 
#
# 1 158.7789 165.2696 6.2728 0.0000 0.0000 0.0000
# 2 165.2696 224.2638 8.1645 0.0000 0.0000 0.0000
# 3 6.2728 8.1645 63.0219 0.0000 0.0000 0.0000
# 4 0.0000 0.0000 0.0000 -45.7536 0.0000 0.0000
# 5 0.0000 0.0000 0.0000 0.0000 10.5181 0.0000
# 6 0.0000 0.0000 0.0000 0.0000 0.0000 86.0665
#
#
#
# Elastic Compliance Matrix: (Units=1/GPa)
#
#
# Indices 1 2 3 4 5 6 
#
# 1 0.027039 -0.019922 -0.000110 0.000000 0.000000 0.000000
# 2 -0.019922 0.019159 -0.000499 0.000000 0.000000 0.000000
# 3 -0.000110 -0.000499 0.015943 0.000000 0.000000 0.000000
# 4 0.000000 0.000000 0.000000 -0.021856 0.000000 0.000000
# 5 0.000000 0.000000 0.000000 0.000000 0.095074 0.000000
# 6 0.000000 0.000000 0.000000 0.000000 0.000000 0.011619
#
#
# Mechanical properties :
#
#
# Convention : Reuss Voigt Hill
#
# Bulk Modulus (GPa) = 47.44379 89.49761 68.47070
# Shear Modulus (GPa) = 25.63224 27.92338 26.77781
#
# Velocity S-wave (km/s) = 3.56763 3.72367 3.64649
# Velocity P-wave (km/s) = 6.36628 7.93277 7.19230
#
# Compressibility (1/GPa) = 0.02107757
#
# Stress axis : x y z
#
# Youngs Moduli (GPa) = 36.98352 52.19547 62.72291
#
# Poissons Ratio (x) = 1.03985 0.00692
# Poissons Ratio (y) = 0.73679 0.03130
# Poissons Ratio (z) = 0.00408 0.02605
#
# Static dielectric constant tensor:
#      x y z
#    x 1.700720 0.000000 0.000000 
#    y 0.000000 1.710300 0.000000 
#    z 0.000000 0.000000 1.773780 
# 
# From -- ./inp_files/2237.got.cif
#   From: 2010.05.17/outbox.cif.g08.bks.cpg/sg47_2_cif.got.tgz:2237.got - 2010.06.03 20:15:42.
