data_PCOD9388059
_publ_section_title
;
Structure prediction by ZEFSAII (Michael W. Deem and Ramdas Pophale) SiO2 
 PCOD9388059
Probable space group: P M M M
;
_chemical_formula_sum "Si O2"
_cell_formula_units_Z 38
_cell_length_a 17.895651
_cell_length_b 8.050875
_cell_length_c 12.367355
_cell_angle_alpha 90.000000
_cell_angle_beta 90.000000
_cell_angle_gamma 90.000000
_cell_volume 1781.834701
_symmetry_space_group_name_H-M "P M M M"
_symmetry_group_IT_number 47
_symmetry_cell_setting 'orthorhombic'
loop_
_space_group_symop_operation_xyz
x,y,z
-x,-y,z
x,-y,-z
-x,y,-z
-x,-y,-z
x,y,-z
-x,y,z
x,-y,z
loop_
_atom_site_type_symbol
_atom_site_label
_atom_site_fract_x
_atom_site_fract_y
_atom_site_fract_z
Si Si1 0.000000 0.188490 0.255898
Si Si2 0.840677 0.193335 0.000000
Si Si3 0.409855 0.812514 0.500000
Si Si4 0.583846 0.696645 0.736972
Si Si5 0.147433 0.698325 0.621988
Si Si6 0.740304 0.297171 0.800457
Si Si7 0.000000 0.747057 0.000000
O O1 0.925961 0.268726 0.306236
O O2 0.000000 0.188249 0.125382
O O3 0.000000 0.000000 0.293186
O O4 0.790245 0.227521 0.896434
O O5 0.913593 0.310728 0.000000
O O6 0.867197 0.000000 0.000000
O O7 0.500000 0.822034 0.500000
O O8 0.392753 0.721764 0.388260
O O9 0.380031 0.000000 0.500000
O O10 0.500000 0.767390 0.753459
O O11 0.578698 0.500000 0.756580
O O12 0.654294 0.760379 0.804565
O O13 0.141339 0.766024 0.500000
O O14 0.154385 0.500000 0.613359
O O15 0.219183 0.756714 0.689560
O O16 0.741195 0.500000 0.805734
#
# Coordination Sequence:
#
# PCOD9388059 Si02
#       7
#     4   4   4   8   8   8   2
#     4  12  23  40  62  85 114 151 195 239 285 342
#     4  12  24  43  65  86 116 151 190 238 294 348
#     4   9  17  29  49  81 119 154 191 238 287 341
#     4   9  18  34  57  83 114 155 198 240 289 342
#     4  10  22  39  58  84 120 156 188 232 290 345
#     4  10  22  39  61  88 117 150 196 245 287 339
#     4  12  25  42  63  86 117 152 189 240 291 340
#
# _framework density 21.326333000000002
#
# number of rings (size 3 to 8) (size 9 to 14) (size 15 to 20)
#    0.000    1.789    2.105    2.211    1.474    3.789 
#    0.000    2.632    0.000    3.158    0.000    0.000 
#    0.000    0.000    0.000    0.000    0.000    0.000 
#
# Total GULP energy -211813.930519 kJ/mol
# GULP energy per Si atom -5574.050803 kJ/mol
# Density = 2.127779 g / cm^3
# Si number density = 21.326333 Si / 1000 Ang^3
#
#
#
# Elastic Constant Matrix: (Units=GPa)
#
#
# Indices 1 2 3 4 5 6 
#
# 1 183.8221 13.8320 64.9687 0.0000 0.0000 0.0000
# 2 13.8320 22.7503 11.8948 0.0000 0.0000 0.0000
# 3 64.9687 11.8948 117.3016 0.0000 0.0000 0.0000
# 4 0.0000 0.0000 0.0000 34.3561 0.0000 0.0000
# 5 0.0000 0.0000 0.0000 0.0000 49.6913 0.0000
# 6 0.0000 0.0000 0.0000 0.0000 0.0000 -5.8136
#
#
#
# Elastic Compliance Matrix: (Units=1/GPa)
#
#
# Indices 1 2 3 4 5 6 
#
# 1 0.006877 -0.002312 -0.003575 0.000000 0.000000 0.000000
# 2 -0.002312 0.047194 -0.003505 0.000000 0.000000 0.000000
# 3 -0.003575 -0.003505 0.010860 0.000000 0.000000 0.000000
# 4 0.000000 0.000000 0.000000 0.029107 0.000000 0.000000
# 5 0.000000 0.000000 0.000000 0.000000 0.020124 0.000000
# 6 0.000000 0.000000 0.000000 0.000000 0.000000 -0.172011
#
#
# Mechanical properties :
#
#
# Convention : Reuss Voigt Hill
#
# Bulk Modulus (GPa) = 21.66954 56.14054 38.90504
# Shear Modulus (GPa) = -211.13404 31.19201 -89.97102
#
# Velocity S-wave (km/s) = -9.96075 3.82855 -6.50226
# Velocity P-wave (km/s) = 11.05014 6.77683 6.17172
#
# Compressibility (1/GPa) = 0.04614773
#
# Stress axis : x y z
#
# Youngs Moduli (GPa) = 145.40288 21.18918 92.07851
#
# Poissons Ratio (x) = 0.04900 0.32915
# Poissons Ratio (y) = 0.33624 0.32272
# Poissons Ratio (z) = 0.51976 0.07427
#
# Static dielectric constant tensor:
#      x y z
#    x 1.846960 0.000000 0.000000 
#    y 0.000000 1.783210 0.000000 
#    z 0.000000 0.000000 1.766750 
# 
# From -- ./inp_files/18237.got.cif
#   From: 2010.05.17/outbox.cif.g08.bks.cpg/sg47_10_cif.got.tgz:18237.got - 2010.06.03 20:15:42.
