data_PCOD9388444
_publ_section_title
;
Structure prediction by ZEFSAII (Michael W. Deem and Ramdas Pophale) SiO2 
 PCOD9388444
Probable space group: P M M M
;
_chemical_formula_sum "Si O2"
_cell_formula_units_Z 64
_cell_length_a 8.225975
_cell_length_b 15.975584
_cell_length_c 24.703812
_cell_angle_alpha 90.000000
_cell_angle_beta 90.000000
_cell_angle_gamma 90.000000
_cell_volume 3246.445392
_symmetry_space_group_name_H-M "P M M M"
_symmetry_group_IT_number 47
_symmetry_cell_setting 'orthorhombic'
loop_
_space_group_symop_operation_xyz
x,y,z
-x,-y,z
x,-y,-z
-x,y,-z
-x,-y,-z
x,y,-z
-x,y,z
x,-y,z
loop_
_atom_site_type_symbol
_atom_site_label
_atom_site_fract_x
_atom_site_fract_y
_atom_site_fract_z
Si Si1 0.697066 0.348071 0.941001
Si Si2 0.303960 0.905597 0.438099
Si Si3 0.300949 0.407923 0.825056
Si Si4 0.304241 0.149443 0.060151
Si Si5 0.193349 0.249473 0.633116
Si Si6 0.807263 0.092043 0.175314
Si Si7 0.693120 0.250036 0.243854
Si Si8 0.198330 0.594786 0.437502
O O1 0.500000 0.355674 0.941811
O O2 0.753870 0.393537 0.886989
O O3 0.731637 0.248899 0.936086
O O4 0.756459 0.377251 0.000000
O O5 0.249786 0.888815 0.500000
O O6 0.500000 0.906132 0.438330
O O7 0.247851 0.833566 0.398224
O O8 0.249951 0.000000 0.423337
O O9 0.500000 0.405269 0.825651
O O10 0.252266 0.500000 0.805943
O O11 0.243105 0.331593 0.788139
O O12 0.500000 0.140503 0.063314
O O13 0.228308 0.105322 0.111750
O O14 0.253114 0.120770 0.000000
O O15 0.242364 0.246255 0.695502
O O16 0.257750 0.332373 0.602196
O O17 0.000000 0.253356 0.630115
O O18 0.732441 0.167503 0.209341
O O19 0.000000 0.094327 0.183718
O O20 0.745358 0.000000 0.191485
O O21 0.500000 0.257885 0.246681
O O22 0.245632 0.611411 0.500000
O O23 0.250037 0.500000 0.423199
O O24 0.000000 0.594837 0.436481
#
# Coordination Sequence:
#
# PCOD9388444 Si02
#       8
#     8   8   8   8   8   8   8   8
#     4   8  13  24  46  77 109 137 169 213 264 320
#     4   9  19  37  60  86 117 151 184 219 266 327
#     4   9  17  30  51  79 108 139 178 226 278 328
#     4   9  17  32  56  84 112 143 180 220 267 331
#     4  11  22  35  56  85 114 147 189 234 276 321
#     4  11  24  40  58  80 107 140 182 234 287 335
#     4  11  23  40  58  77 107 148 190 233 279 329
#     4   8  15  30  53  82 116 151 185 221 264 319
#
# _framework density 19.713868000000002
#
# number of rings (size 3 to 8) (size 9 to 14) (size 15 to 20)
#    0.000    2.500    1.250    3.000    0.000    3.750 
#    0.000    3.125    0.000    2.250    0.000    4.375 
#    0.000    2.000    0.000    0.000    0.000    0.000 
#
# Total GULP energy -357138.725636 kJ/mol
# GULP energy per Si atom -5580.292588 kJ/mol
# Density = 1.966900 g / cm^3
# Si number density = 19.713868 Si / 1000 Ang^3
#
#
#
# Elastic Constant Matrix: (Units=GPa)
#
#
# Indices 1 2 3 4 5 6 
#
# 1 11.2435 12.6313 9.8309 0.0000 0.0000 0.0000
# 2 12.6313 153.5565 102.4772 0.0000 0.0000 0.0000
# 3 9.8309 102.4772 143.6254 0.0000 0.0000 0.0000
# 4 0.0000 0.0000 0.0000 -4.9360 0.0000 0.0000
# 5 0.0000 0.0000 0.0000 0.0000 9.8170 0.0000
# 6 0.0000 0.0000 0.0000 0.0000 0.0000 -16.9501
#
#
#
# Elastic Compliance Matrix: (Units=1/GPa)
#
#
# Indices 1 2 3 4 5 6 
#
# 1 0.098247 -0.006860 -0.001830 0.000000 0.000000 0.000000
# 2 -0.006860 0.012911 -0.008742 0.000000 0.000000 0.000000
# 3 -0.001830 -0.008742 0.013326 0.000000 0.000000 0.000000
# 4 0.000000 0.000000 0.000000 -0.202592 0.000000 0.000000
# 5 0.000000 0.000000 0.000000 0.000000 0.101864 0.000000
# 6 0.000000 0.000000 0.000000 0.000000 0.000000 -0.058997
#
#
# Mechanical properties :
#
#
# Convention : Reuss Voigt Hill
#
# Bulk Modulus (GPa) = 11.15846 62.03381 36.59613
# Shear Modulus (GPa) = 169.50470 9.81856 89.66163
#
# Velocity S-wave (km/s) = 9.28273 2.23413 6.75131
# Velocity P-wave (km/s) = 10.98019 6.17985 8.90941
#
# Compressibility (1/GPa) = 0.08961813
#
# Stress axis : x y z
#
# Youngs Moduli (GPa) = 10.17841 77.45404 75.04396
#
# Poissons Ratio (x) = 0.53137 0.13733
# Poissons Ratio (y) = 0.06983 0.65606
# Poissons Ratio (z) = 0.01863 0.67713
#
# Static dielectric constant tensor:
#      x y z
#    x 1.693400 0.000000 0.000000 
#    y 0.000000 1.709030 0.000000 
#    z 0.000000 0.000000 1.674450 
# 
# From -- ./inp_files/32105.got.cif
#   From: 2010.05.17/outbox.cif.g08.bks.cpg/sg47_17_cif.got.tgz:32105.got - 2010.06.03 20:15:42.
