data_PCOD9388552
_publ_section_title
;
Structure prediction by ZEFSAII (Michael W. Deem and Ramdas Pophale) SiO2 
 PCOD9388552
Probable space group: P M M M
;
_chemical_formula_sum "Si O2"
_cell_formula_units_Z 40
_cell_length_a 8.916631
_cell_length_b 11.242829
_cell_length_c 22.758363
_cell_angle_alpha 90.000000
_cell_angle_beta 90.000000
_cell_angle_gamma 90.000000
_cell_volume 2281.483960
_symmetry_space_group_name_H-M "P M M M"
_symmetry_group_IT_number 47
_symmetry_cell_setting 'orthorhombic'
loop_
_space_group_symop_operation_xyz
x,y,z
-x,-y,z
x,-y,-z
-x,y,-z
-x,-y,-z
x,y,-z
-x,y,z
x,-y,z
loop_
_atom_site_type_symbol
_atom_site_label
_atom_site_fract_x
_atom_site_fract_y
_atom_site_fract_z
Si Si1 0.168889 0.359407 0.000000
Si Si2 0.182411 0.866331 0.431165
Si Si3 0.174755 0.358952 0.221409
Si Si4 0.178935 0.000000 0.069689
Si Si5 0.322191 0.758275 0.110965
Si Si6 0.182658 0.364242 0.642344
O O1 0.254519 0.320521 0.941632
O O2 0.156668 0.500000 0.000000
O O3 0.000000 0.306201 0.000000
O O4 0.221884 0.855281 0.500000
O O5 0.234329 0.748937 0.395989
O O6 0.000000 0.866093 0.427790
O O7 0.230335 0.000000 0.411127
O O8 0.181806 0.500000 0.209574
O O9 0.272528 0.292012 0.173715
O O10 0.220836 0.342739 0.289260
O O11 0.000000 0.322585 0.215604
O O12 0.249714 0.114230 0.099770
O O13 0.000000 0.000000 0.075342
O O14 0.215411 0.000000 0.000000
O O15 0.500000 0.762909 0.106092
O O16 0.231516 0.500000 0.625987
O O17 0.000000 0.366605 0.639222
#
# Coordination Sequence:
#
# PCOD9388552 Si02
#       6
#     4   8   8   4   8   8
#     4  11  23  38  57  80 105 135 173 213 254 309
#     4   8  13  21  34  56  90 127 162 208 264 314
#     4   9  18  34  53  72 100 137 175 215 257 307
#     4  11  23  41  63  79 100 136 173 204 249 314
#     4  12  24  37  56  80 107 133 165 213 264 309
#     4   8  14  25  41  61  88 126 171 213 254 306
#
# _framework density 17.532449
#
# number of rings (size 3 to 8) (size 9 to 14) (size 15 to 20)
#    0.000    2.400    1.000    4.800    0.000    4.400 
#    1.800    2.000    0.000    0.000    0.000    0.000 
#    0.000    0.800    0.000    6.600    0.000    8.000 
#
# Total GULP energy -222980.518912 kJ/mol
# GULP energy per Si atom -5574.512973 kJ/mol
# Density = 1.749254 g / cm^3
# Si number density = 17.532449 Si / 1000 Ang^3
#
#
#
# Elastic Constant Matrix: (Units=GPa)
#
#
# Indices 1 2 3 4 5 6 
#
# 1 55.6100 37.2875 33.1979 0.0000 0.0000 0.0000
# 2 37.2875 147.2751 85.9045 0.0000 0.0000 0.0000
# 3 33.1979 85.9045 90.8862 0.0000 0.0000 0.0000
# 4 0.0000 0.0000 0.0000 37.2554 0.0000 0.0000
# 5 0.0000 0.0000 0.0000 0.0000 -6.2567 0.0000
# 6 0.0000 0.0000 0.0000 0.0000 0.0000 -12.2168
#
#
#
# Elastic Compliance Matrix: (Units=1/GPa)
#
#
# Indices 1 2 3 4 5 6 
#
# 1 0.023280 -0.002082 -0.006536 0.000000 0.000000 0.000000
# 2 -0.002082 0.015319 -0.013719 0.000000 0.000000 0.000000
# 3 -0.006536 -0.013719 0.026357 0.000000 0.000000 0.000000
# 4 0.000000 0.000000 0.000000 0.026842 0.000000 0.000000
# 5 0.000000 0.000000 0.000000 0.000000 -0.159829 0.000000
# 6 0.000000 0.000000 0.000000 0.000000 0.000000 -0.081854
#
#
# Mechanical properties :
#
#
# Convention : Reuss Voigt Hill
#
# Bulk Modulus (GPa) = 49.30227 67.39457 58.34842
# Shear Modulus (GPa) = -50.78714 12.91514 -18.93600
#
# Velocity S-wave (km/s) = -5.38799 2.71706 -3.28998
# Velocity P-wave (km/s) = 3.24431 6.95461 4.34977
#
# Compressibility (1/GPa) = 0.02028304
#
# Stress axis : x y z
#
# Youngs Moduli (GPa) = 42.95544 65.27633 37.94002
#
# Poissons Ratio (x) = 0.13590 0.24796
# Poissons Ratio (y) = 0.08943 0.52051
# Poissons Ratio (z) = 0.28074 0.89555
#
# Static dielectric constant tensor:
#      x y z
#    x 1.575380 0.000000 0.000000 
#    y 0.000000 1.629040 0.000000 
#    z 0.000000 0.000000 1.583830 
# 
# From -- ./inp_files/29358.got.cif
#   From: 2010.05.17/outbox.cif.g08.bks.cpg/sg47_15_cif.got.tgz:29358.got - 2010.06.03 20:15:42.
