data_PCOD9388396
_publ_section_title
;
Structure prediction by ZEFSAII (Michael W. Deem and Ramdas Pophale) SiO2 
 PCOD9388396
Probable space group: P M M M
;
_chemical_formula_sum "Si O2"
_cell_formula_units_Z 64
_cell_length_a 13.303942
_cell_length_b 19.177696
_cell_length_c 13.876997
_cell_angle_alpha 90.000000
_cell_angle_beta 90.000000
_cell_angle_gamma 90.000000
_cell_volume 3540.562517
_symmetry_space_group_name_H-M "P M M M"
_symmetry_group_IT_number 47
_symmetry_cell_setting 'orthorhombic'
loop_
_space_group_symop_operation_xyz
x,y,z
-x,-y,z
x,-y,-z
-x,y,-z
-x,-y,-z
x,y,-z
-x,y,z
x,-y,z
loop_
_atom_site_type_symbol
_atom_site_label
_atom_site_fract_x
_atom_site_fract_y
_atom_site_fract_z
Si Si1 0.175965 0.725438 0.883116
Si Si2 0.185963 0.575877 0.115318
Si Si3 0.620918 0.147528 0.611839
Si Si4 0.391573 0.219663 0.884444
Si Si5 0.616168 0.579589 0.769115
Si Si6 0.378407 0.307585 0.390580
Si Si7 0.888921 0.878266 0.116145
Si Si8 0.682024 0.077284 0.200608
O O1 0.140047 0.649361 0.849506
O O2 0.292431 0.738574 0.854474
O O3 0.119253 0.796198 0.856019
O O4 0.172625 0.723801 0.000000
O O5 0.149068 0.500000 0.151327
O O6 0.303552 0.581115 0.144600
O O7 0.176049 0.574809 0.000000
O O8 0.643871 0.133913 0.500000
O O9 0.500000 0.142436 0.623193
O O10 0.650544 0.227891 0.633962
O O11 0.671337 0.096083 0.687186
O O12 0.500000 0.244266 0.846439
O O13 0.375588 0.139755 0.853436
O O14 0.393574 0.223097 0.000000
O O15 0.500000 0.592974 0.798094
O O16 0.618919 0.500000 0.730747
O O17 0.648523 0.634041 0.686929
O O18 0.343398 0.322544 0.500000
O O19 0.500000 0.307333 0.393869
O O20 0.796914 0.916535 0.166117
O O21 0.000000 0.904602 0.138990
O O22 0.875098 0.882331 0.000000
O O23 0.643362 0.000000 0.180431
#
# Coordination Sequence:
#
# PCOD9388396 Si02
#       8
#     8   8   8   8   8   8   8   8
#     4   8  15  28  45  64  87 121 164 200 230 270
#     4   9  17  27  38  57  90 128 160 192 232 276
#     4   9  19  35  52  71  98 134 172 205 240 285
#     4   9  18  30  43  64  95 129 161 193 235 286
#     4   9  17  25  35  57  87 122 163 200 235 274
#     4   8  15  28  44  60  81 115 158 200 239 277
#     4   9  19  36  56  77 100 126 158 198 246 301
#     4  11  22  33  49  74  98 122 158 200 244 293
#
# _framework density 18.076222999999999
#
# number of rings (size 3 to 8) (size 9 to 14) (size 15 to 20)
#    0.000    3.000    0.000    2.250    3.500    3.500 
#    0.000    5.625    0.000    0.750    0.000    3.500 
#    0.000    0.000    0.000    0.000    0.000   11.000 
#
# Total GULP energy -356555.882562 kJ/mol
# GULP energy per Si atom -5571.185665 kJ/mol
# Density = 1.803508 g / cm^3
# Si number density = 18.076223 Si / 1000 Ang^3
#
#
#
# Elastic Constant Matrix: (Units=GPa)
#
#
# Indices 1 2 3 4 5 6 
#
# 1 41.2538 -1.2594 11.8835 0.0000 0.0000 0.0000
# 2 -1.2594 96.8487 5.9648 0.0000 0.0000 0.0000
# 3 11.8835 5.9648 35.3199 0.0000 0.0000 0.0000
# 4 0.0000 0.0000 0.0000 12.6685 0.0000 0.0000
# 5 0.0000 0.0000 0.0000 0.0000 11.4188 0.0000
# 6 0.0000 0.0000 0.0000 0.0000 0.0000 -1.8952
#
#
#
# Elastic Compliance Matrix: (Units=1/GPa)
#
#
# Indices 1 2 3 4 5 6 
#
# 1 0.026922 0.000917 -0.009213 0.000000 0.000000 0.000000
# 2 0.000917 0.010465 -0.002076 0.000000 0.000000 0.000000
# 3 -0.009213 -0.002076 0.031763 0.000000 0.000000 0.000000
# 4 0.000000 0.000000 0.000000 0.078936 0.000000 0.000000
# 5 0.000000 0.000000 0.000000 0.000000 0.087575 0.000000
# 6 0.000000 0.000000 0.000000 0.000000 0.000000 -0.527651
#
#
# Mechanical properties :
#
#
# Convention : Reuss Voigt Hill
#
# Bulk Modulus (GPa) = 20.65809 22.95558 21.80684
# Shear Modulus (GPa) = -19.59927 14.89400 -2.35264
#
# Velocity S-wave (km/s) = -3.29638 2.87358 -1.14207
# Velocity P-wave (km/s) = 1.74213 4.87204 3.21728
#
# Compressibility (1/GPa) = 0.04840719
#
# Stress axis : x y z
#
# Youngs Moduli (GPa) = 37.14426 95.55500 31.48318
#
# Poissons Ratio (x) = -0.08767 0.29005
# Poissons Ratio (y) = -0.03408 0.06536
# Poissons Ratio (z) = 0.34221 0.19838
#
# Static dielectric constant tensor:
#      x y z
#    x 1.621570 0.000000 0.000000 
#    y 0.000000 1.680580 0.000000 
#    z 0.000000 0.000000 1.616600 
# 
# From -- ./inp_files/24101.got.cif
#   From: 2010.05.17/outbox.cif.g08.bks.cpg/sg47_13_cif.got.tgz:24101.got - 2010.06.03 20:15:42.
