data_PCOD9388964
_publ_section_title
;
Structure prediction by ZEFSAII (Michael W. Deem and Ramdas Pophale) SiO2 
 PCOD9388964
Probable space group: P M M M
;
_chemical_formula_sum "Si O2"
_cell_formula_units_Z 44
_cell_length_a 7.526769
_cell_length_b 14.733791
_cell_length_c 21.974547
_cell_angle_alpha 90.000000
_cell_angle_beta 90.000000
_cell_angle_gamma 90.000000
_cell_volume 2436.929827
_symmetry_space_group_name_H-M "P M M M"
_symmetry_group_IT_number 47
_symmetry_cell_setting 'orthorhombic'
loop_
_space_group_symop_operation_xyz
x,y,z
-x,-y,z
x,-y,-z
-x,y,-z
-x,-y,-z
x,y,-z
-x,y,z
x,-y,z
loop_
_atom_site_type_symbol
_atom_site_label
_atom_site_fract_x
_atom_site_fract_y
_atom_site_fract_z
Si Si1 0.281458 0.783462 0.314146
Si Si2 0.283928 0.106103 0.567036
Si Si3 0.211895 0.605358 0.500000
Si Si4 0.289317 0.896499 0.198884
Si Si5 0.708771 0.602364 0.366146
Si Si6 0.786417 0.894485 0.934556
O O1 0.500000 0.782702 0.314105
O O2 0.224607 0.838503 0.374278
O O3 0.220741 0.834275 0.253369
O O4 0.220166 0.679696 0.321766
O O5 0.224849 0.139051 0.500000
O O6 0.500000 0.109154 0.566944
O O7 0.234596 0.000000 0.572603
O O8 0.273446 0.500000 0.500000
O O9 0.275048 0.640917 0.564869
O O10 0.000000 0.607499 0.500000
O O11 0.500000 0.904080 0.208545
O O12 0.265139 0.856678 0.131086
O O13 0.216397 0.000000 0.200646
O O14 0.500000 0.593772 0.353952
O O15 0.785809 0.500000 0.363940
O O16 0.000000 0.894832 0.935646
O O17 0.726336 0.000000 0.933526
O O18 0.725930 0.855635 0.000000
#
# Coordination Sequence:
#
# PCOD9388964 Si02
#       6
#     8   8   4   8   8   8
#     4   9  16  24  36  54  78 103 127 159 197 232
#     4   8  13  20  30  46  69  97 128 159 190 223
#     4   9  17  29  43  57  74  95 120 158 207 247
#     4   9  16  25  38  58  83 107 131 161 194 226
#     4   9  17  28  42  59  77  98 126 159 196 241
#     4   8  14  25  40  57  79 108 137 160 184 221
#
# _framework density 18.055503999999999
#
# number of rings (size 3 to 8) (size 9 to 14) (size 15 to 20)
#    0.000    3.364    0.000    1.909    1.273    3.636 
#    0.000    2.727    0.000    0.000    0.000    0.000 
#    0.000    2.182    0.000    9.091    0.000    1.818 
#
# Total GULP energy -245052.205620 kJ/mol
# GULP energy per Si atom -5569.368310 kJ/mol
# Density = 1.801441 g / cm^3
# Si number density = 18.055504 Si / 1000 Ang^3
#
#
#
# Elastic Constant Matrix: (Units=GPa)
#
#
# Indices 1 2 3 4 5 6 
#
# 1 44.1662 4.4123 1.6453 0.0000 0.0000 0.0000
# 2 4.4123 75.8227 77.1343 0.0000 0.0000 0.0000
# 3 1.6453 77.1343 171.4348 0.0000 0.0000 0.0000
# 4 0.0000 0.0000 0.0000 13.9664 0.0000 0.0000
# 5 0.0000 0.0000 0.0000 0.0000 37.7371 0.0000
# 6 0.0000 0.0000 0.0000 0.0000 0.0000 -2.8577
#
#
#
# Elastic Compliance Matrix: (Units=1/GPa)
#
#
# Indices 1 2 3 4 5 6 
#
# 1 0.022819 -0.002038 0.000698 0.000000 0.000000 0.000000
# 2 -0.002038 0.024503 -0.011005 0.000000 0.000000 0.000000
# 3 0.000698 -0.011005 0.010778 0.000000 0.000000 0.000000
# 4 0.000000 0.000000 0.000000 0.071601 0.000000 0.000000
# 5 0.000000 0.000000 0.000000 0.000000 0.026499 0.000000
# 6 0.000000 0.000000 0.000000 0.000000 0.000000 -0.349937
#
#
# Mechanical properties :
#
#
# Convention : Reuss Voigt Hill
#
# Bulk Modulus (GPa) = 29.93121 50.86751 40.39936
# Shear Modulus (GPa) = -31.66353 23.65127 -4.00613
#
# Velocity S-wave (km/s) = -4.19224 3.62321 -1.49118
# Velocity P-wave (km/s) = 2.61148 6.76295 4.41122
#
# Compressibility (1/GPa) = 0.03340994
#
# Stress axis : x y z
#
# Youngs Moduli (GPa) = 43.82246 40.81192 92.78200
#
# Poissons Ratio (x) = 0.08317 -0.06475
# Poissons Ratio (y) = 0.08931 1.02107
# Poissons Ratio (z) = -0.03058 0.44914
#
# Static dielectric constant tensor:
#      x y z
#    x 1.672500 0.000000 0.000000 
#    y 0.000000 1.636340 0.000000 
#    z 0.000000 0.000000 1.650320 
# 
# From -- ./inp_files/17704.got.cif
#   From: 2010.05.17/outbox.cif.g08.bks.cpg/sg47_9_cif.got.tgz:17704.got - 2010.06.03 20:15:42.
