data_PCOD9388230
_publ_section_title
;
Structure prediction by ZEFSAII (Michael W. Deem and Ramdas Pophale) SiO2 
 PCOD9388230
Probable space group: P M M M
;
_chemical_formula_sum "Si O2"
_cell_formula_units_Z 52
_cell_length_a 14.293002
_cell_length_b 7.548426
_cell_length_c 25.215631
_cell_angle_alpha 90.000000
_cell_angle_beta 90.000000
_cell_angle_gamma 90.000000
_cell_volume 2720.506055
_symmetry_space_group_name_H-M "P M M M"
_symmetry_group_IT_number 47
_symmetry_cell_setting 'orthorhombic'
loop_
_space_group_symop_operation_xyz
x,y,z
-x,-y,z
x,-y,-z
-x,y,-z
-x,-y,-z
x,y,-z
-x,y,z
x,-y,z
loop_
_atom_site_type_symbol
_atom_site_label
_atom_site_fract_x
_atom_site_fract_y
_atom_site_fract_z
Si Si1 0.385108 0.793427 0.000000
Si Si2 0.106101 0.786086 0.172378
Si Si3 0.113998 0.208886 0.056862
Si Si4 0.709541 0.292952 0.777336
Si Si5 0.612075 0.286532 0.442943
Si Si6 0.390682 0.283192 0.327439
Si Si7 0.605690 0.789258 0.114235
O O1 0.356387 0.718361 0.942446
O O2 0.500000 0.787180 0.000000
O O3 0.356173 0.000000 0.000000
O O4 0.140289 0.718446 0.114407
O O5 0.180267 0.736826 0.216563
O O6 0.000000 0.725732 0.181584
O O7 0.104005 0.000000 0.168589
O O8 0.000000 0.216534 0.057041
O O9 0.139257 0.000000 0.056579
O O10 0.145431 0.283683 0.000000
O O11 0.690411 0.500000 0.775519
O O12 0.665386 0.217284 0.723684
O O13 0.663433 0.231215 0.832258
O O14 0.648080 0.219091 0.500000
O O15 0.500000 0.255460 0.442524
O O16 0.624298 0.500000 0.443530
O O17 0.645547 0.222766 0.385342
O O18 0.500000 0.235191 0.321939
O O19 0.387586 0.500000 0.328421
O O20 0.500000 0.720034 0.122386
O O21 0.598756 0.000000 0.105890
#
# Coordination Sequence:
#
# PCOD9388230 Si02
#       7
#     4   8   8   8   8   8   8
#     4   7  12  26  47  65  78  99 138 187 227 248
#     4   9  18  33  50  64  80 105 141 185 224 258
#     4   7  10  20  41  64  77  86 111 157 210 257
#     4  11  21  30  42  63  92 122 144 167 209 267
#     4   7   9  15  30  52  78 110 146 178 203 229
#     4   8  14  24  37  56  86 121 150 172 199 243
#     4   9  17  31  50  67  83 107 144 187 221 250
#
# _framework density 19.114093
#
# number of rings (size 3 to 8) (size 9 to 14) (size 15 to 20)
#    0.000    3.615    0.000    4.615    0.000    1.231 
#    1.385    0.385    0.000    1.385    0.000    2.154 
#    0.000    3.077    0.000   25.077    0.000   15.692 
#
# Total GULP energy -289585.247648 kJ/mol
# GULP energy per Si atom -5568.947070 kJ/mol
# Density = 1.907059 g / cm^3
# Si number density = 19.114093 Si / 1000 Ang^3
#
#
#
# Elastic Constant Matrix: (Units=GPa)
#
#
# Indices 1 2 3 4 5 6 
#
# 1 54.3229 -4.9784 69.5210 0.0000 0.0000 0.0000
# 2 -4.9784 42.1860 6.9804 0.0000 0.0000 0.0000
# 3 69.5210 6.9804 206.1444 0.0000 0.0000 0.0000
# 4 0.0000 0.0000 0.0000 7.8181 0.0000 0.0000
# 5 0.0000 0.0000 0.0000 0.0000 14.6843 0.0000
# 6 0.0000 0.0000 0.0000 0.0000 0.0000 -27.9322
#
#
#
# Elastic Compliance Matrix: (Units=1/GPa)
#
#
# Indices 1 2 3 4 5 6 
#
# 1 0.033789 0.005906 -0.011595 0.000000 0.000000 0.000000
# 2 0.005906 0.024870 -0.002834 0.000000 0.000000 0.000000
# 3 -0.011595 -0.002834 0.008857 0.000000 0.000000 0.000000
# 4 0.000000 0.000000 0.000000 0.127908 0.000000 0.000000
# 5 0.000000 0.000000 0.000000 0.000000 0.068100 0.000000
# 6 0.000000 0.000000 0.000000 0.000000 0.000000 -0.035801
#
#
# Mechanical properties :
#
#
# Convention : Reuss Voigt Hill
#
# Bulk Modulus (GPa) = 19.81350 49.52214 34.66782
# Shear Modulus (GPa) = 19.11366 14.32273 16.71819
#
# Velocity S-wave (km/s) = 3.16567 2.74036 2.96066
# Velocity P-wave (km/s) = 4.87344 5.99814 5.46480
#
# Compressibility (1/GPa) = 0.05047064
#
# Stress axis : x y z
#
# Youngs Moduli (GPa) = 29.59566 40.20836 112.90139
#
# Poissons Ratio (x) = -0.23747 1.30910
# Poissons Ratio (y) = -0.17479 0.31996
# Poissons Ratio (z) = 0.34316 0.11395
#
# Static dielectric constant tensor:
#      x y z
#    x 1.679560 0.000000 0.000000 
#    y 0.000000 1.757420 0.000000 
#    z 0.000000 0.000000 1.735020 
# 
# From -- ./inp_files/32629.got.cif
#   From: 2010.05.17/outbox.cif.g08.bks.cpg/sg47_17_cif.got.tgz:32629.got - 2010.06.03 20:15:42.
