data_PCOD9388064
_publ_section_title
;
Structure prediction by ZEFSAII (Michael W. Deem and Ramdas Pophale) SiO2 
 PCOD9388064
Probable space group: P M M M
;
_chemical_formula_sum "Si O2"
_cell_formula_units_Z 40
_cell_length_a 8.757600
_cell_length_b 12.123895
_cell_length_c 20.758162
_cell_angle_alpha 90.000000
_cell_angle_beta 90.000000
_cell_angle_gamma 90.000000
_cell_volume 2204.023235
_symmetry_space_group_name_H-M "P M M M"
_symmetry_group_IT_number 47
_symmetry_cell_setting 'orthorhombic'
loop_
_space_group_symop_operation_xyz
x,y,z
-x,-y,z
x,-y,-z
-x,y,-z
-x,-y,-z
x,y,-z
-x,y,z
x,-y,z
loop_
_atom_site_type_symbol
_atom_site_label
_atom_site_fract_x
_atom_site_fract_y
_atom_site_fract_z
Si Si1 0.818256 0.000000 0.731085
Si Si2 0.817434 0.227644 0.073672
Si Si3 0.315935 0.372353 0.187203
Si Si4 0.317461 0.227399 0.687678
Si Si5 0.183478 0.371999 0.574940
Si Si6 0.682522 0.000000 0.875129
O O1 0.762826 0.890208 0.695147
O O2 0.742202 0.000000 0.801810
O O3 0.000000 0.000000 0.738109
O O4 0.756244 0.315687 0.124814
O O5 0.000000 0.218390 0.079544
O O6 0.744341 0.109646 0.090705
O O7 0.780047 0.257614 0.000000
O O8 0.500000 0.367888 0.181530
O O9 0.270518 0.500000 0.193858
O O10 0.273756 0.302054 0.250394
O O11 0.500000 0.212917 0.688773
O O12 0.266350 0.291486 0.623969
O O13 0.220474 0.350154 0.500000
O O14 0.223290 0.500000 0.588624
O O15 0.000000 0.361634 0.581959
O O16 0.500000 0.000000 0.875084
#
# Coordination Sequence:
#
# PCOD9388064 Si02
#       6
#     4   8   8   8   8   4
#     4  12  24  39  62  89 118 154 194 240 294 349
#     4  11  24  40  59  85 116 152 196 245 296 351
#     4  10  22  39  59  84 116 155 196 240 294 354
#     4  11  22  38  61  90 121 155 196 244 295 348
#     4   9  19  37  61  90 125 164 203 242 287 341
#     4  12  23  39  62  88 115 149 192 241 297 354
#
# _framework density 18.148629
#
# number of rings (size 3 to 8) (size 9 to 14) (size 15 to 20)
#    0.000    1.400    2.000    4.500    0.000    6.000 
#    0.000    3.500    0.000    3.000    0.000    0.000 
#    0.000    0.000    0.000    0.000    0.000    0.000 
#
# Total GULP energy -223631.278707 kJ/mol
# GULP energy per Si atom -5590.781968 kJ/mol
# Density = 1.810732 g / cm^3
# Si number density = 18.148629 Si / 1000 Ang^3
#
#
#
# Elastic Constant Matrix: (Units=GPa)
#
#
# Indices 1 2 3 4 5 6 
#
# 1 49.0833 52.2841 40.3491 0.0000 0.0000 0.0000
# 2 52.2841 152.1805 73.0849 0.0000 0.0000 0.0000
# 3 40.3491 73.0849 109.0231 0.0000 0.0000 0.0000
# 4 0.0000 0.0000 0.0000 35.4850 0.0000 0.0000
# 5 0.0000 0.0000 0.0000 0.0000 43.2960 0.0000
# 6 0.0000 0.0000 0.0000 0.0000 0.0000 27.9029
#
#
#
# Elastic Compliance Matrix: (Units=1/GPa)
#
#
# Indices 1 2 3 4 5 6 
#
# 1 0.035742 -0.008741 -0.007368 0.000000 0.000000 0.000000
# 2 -0.008741 0.011829 -0.004695 0.000000 0.000000 0.000000
# 3 -0.007368 -0.004695 0.015046 0.000000 0.000000 0.000000
# 4 0.000000 0.000000 0.000000 0.028181 0.000000 0.000000
# 5 0.000000 0.000000 0.000000 0.000000 0.023097 0.000000
# 6 0.000000 0.000000 0.000000 0.000000 0.000000 0.035839
#
#
# Mechanical properties :
#
#
# Convention : Reuss Voigt Hill
#
# Bulk Modulus (GPa) = 47.59811 71.30255 59.45033
# Shear Modulus (GPa) = 25.20874 30.97469 28.09171
#
# Velocity S-wave (km/s) = 3.73099 4.13573 3.93857
# Velocity P-wave (km/s) = 6.69658 7.88537 7.31517
#
# Compressibility (1/GPa) = 0.02100924
#
# Stress axis : x y z
#
# Youngs Moduli (GPa) = 27.97857 84.53910 66.46114
#
# Poissons Ratio (x) = 0.73896 0.48970
# Poissons Ratio (y) = 0.24456 0.31201
# Poissons Ratio (z) = 0.20615 0.39688
#
# Static dielectric constant tensor:
#      x y z
#    x 1.609600 0.000000 0.000000 
#    y 0.000000 1.597430 0.000000 
#    z 0.000000 0.000000 1.599000 
# 
# From -- ./inp_files/29346.got.cif
#   From: 2010.05.17/outbox.cif.g08.bks.cpg/sg47_15_cif.got.tgz:29346.got - 2010.06.03 20:15:42.
