data_PCOD9388459
_publ_section_title
;
Structure prediction by ZEFSAII (Michael W. Deem and Ramdas Pophale) SiO2 
 PCOD9388459
Probable space group: P M M M
;
_chemical_formula_sum "Si O2"
_cell_formula_units_Z 40
_cell_length_a 10.815293
_cell_length_b 8.784463
_cell_length_c 23.578737
_cell_angle_alpha 90.000000
_cell_angle_beta 90.000000
_cell_angle_gamma 90.000000
_cell_volume 2240.134248
_symmetry_space_group_name_H-M "P M M M"
_symmetry_group_IT_number 47
_symmetry_cell_setting 'orthorhombic'
loop_
_space_group_symop_operation_xyz
x,y,z
-x,-y,z
x,-y,-z
-x,y,-z
-x,-y,-z
x,y,-z
-x,y,z
x,-y,z
loop_
_atom_site_type_symbol
_atom_site_label
_atom_site_fract_x
_atom_site_fract_y
_atom_site_fract_z
Si Si1 0.500000 0.181865 0.067293
Si Si2 0.144254 0.168941 0.000000
Si Si3 0.750876 0.682033 0.889217
Si Si4 0.141304 0.685652 0.767735
Si Si5 0.356741 0.316991 0.318201
Si Si6 0.649643 0.822776 0.562130
O O1 0.617337 0.245679 0.100702
O O2 0.500000 0.000000 0.067639
O O3 0.500000 0.230225 0.000000
O O4 0.177552 0.261210 0.944246
O O5 0.000000 0.148596 0.000000
O O6 0.205789 0.000000 0.000000
O O7 0.740771 0.500000 0.888574
O O8 0.818363 0.729622 0.831358
O O9 0.139943 0.500000 0.765665
O O10 0.251100 0.736722 0.725489
O O11 0.000000 0.735703 0.755157
O O12 0.500000 0.263645 0.307749
O O13 0.360789 0.500000 0.314984
O O14 0.317356 0.268397 0.381580
O O15 0.692924 0.767018 0.500000
O O16 0.500000 0.818969 0.560477
O O17 0.685701 0.000000 0.567831
#
# Coordination Sequence:
#
# PCOD9388459 Si02
#       6
#     4   4   8   8   8   8
#     4  11  23  39  57  79 112 140 163 206 273 334
#     4  11  23  38  55  76 107 141 171 215 274 325
#     4  11  22  36  59  82 102 133 179 223 260 311
#     4   9  19  35  54  77 106 138 172 215 265 310
#     4   9  17  29  49  76 104 133 168 213 258 304
#     4   8  14  26  45  70 102 136 168 207 255 304
#
# _framework density 17.856072000000001
#
# number of rings (size 3 to 8) (size 9 to 14) (size 15 to 20)
#    0.000    2.400    1.000    2.400    1.400    2.400 
#    0.000    4.000    0.000    3.600    0.000    4.200 
#    0.000    0.000    0.000    0.000    0.000    0.000 
#
# Total GULP energy -222824.638128 kJ/mol
# GULP energy per Si atom -5570.615953 kJ/mol
# Density = 1.781543 g / cm^3
# Si number density = 17.856072 Si / 1000 Ang^3
#
#
#
# Elastic Constant Matrix: (Units=GPa)
#
#
# Indices 1 2 3 4 5 6 
#
# 1 122.9511 20.4045 72.8782 0.0000 0.0000 0.0000
# 2 20.4045 25.4128 22.1127 0.0000 0.0000 0.0000
# 3 72.8782 22.1127 150.9722 0.0000 0.0000 0.0000
# 4 0.0000 0.0000 0.0000 12.0876 0.0000 0.0000
# 5 0.0000 0.0000 0.0000 0.0000 -5.2378 0.0000
# 6 0.0000 0.0000 0.0000 0.0000 0.0000 13.5025
#
#
#
# Elastic Compliance Matrix: (Units=1/GPa)
#
#
# Indices 1 2 3 4 5 6 
#
# 1 0.011976 -0.005255 -0.005011 0.000000 0.000000 0.000000
# 2 -0.005255 0.047404 -0.004406 0.000000 0.000000 0.000000
# 3 -0.005011 -0.004406 0.009688 0.000000 0.000000 0.000000
# 4 0.000000 0.000000 0.000000 0.082729 0.000000 0.000000
# 5 0.000000 0.000000 0.000000 0.000000 -0.190919 0.000000
# 6 0.000000 0.000000 0.000000 0.000000 0.000000 0.074060
#
#
# Mechanical properties :
#
#
# Convention : Reuss Voigt Hill
#
# Bulk Modulus (GPa) = 25.17483 58.90301 42.03892
# Shear Modulus (GPa) = 64.49515 16.33317 40.41416
#
# Velocity S-wave (km/s) = 6.01647 3.02770 4.76261
# Velocity P-wave (km/s) = 7.89894 6.72918 7.33741
#
# Compressibility (1/GPa) = 0.03972221
#
# Stress axis : x y z
#
# Youngs Moduli (GPa) = 83.50124 21.09535 103.21788
#
# Poissons Ratio (x) = 0.11086 0.51726
# Poissons Ratio (y) = 0.43881 0.45482
# Poissons Ratio (z) = 0.41845 0.09295
#
# Static dielectric constant tensor:
#      x y z
#    x 1.803740 0.000000 0.000000 
#    y 0.000000 1.605650 0.000000 
#    z 0.000000 0.000000 1.608660 
# 
# From -- ./inp_files/30363.got.cif
#   From: 2010.05.17/outbox.cif.g08.bks.cpg/sg47_16_cif.got.tgz:30363.got - 2010.06.03 20:15:42.
