data_PCOD9388868
_publ_section_title
;
Structure prediction by ZEFSAII (Michael W. Deem and Ramdas Pophale) SiO2 
 PCOD9388868
Probable space group: P M M M
;
_chemical_formula_sum "Si O2"
_cell_formula_units_Z 52
_cell_length_a 15.424430
_cell_length_b 7.332350
_cell_length_c 23.802147
_cell_angle_alpha 90.000000
_cell_angle_beta 90.000000
_cell_angle_gamma 90.000000
_cell_volume 2691.959020
_symmetry_space_group_name_H-M "P M M M"
_symmetry_group_IT_number 47
_symmetry_cell_setting 'orthorhombic'
loop_
_space_group_symop_operation_xyz
x,y,z
-x,-y,z
x,-y,-z
-x,y,-z
-x,-y,-z
x,y,-z
-x,y,z
x,-y,z
loop_
_atom_site_type_symbol
_atom_site_label
_atom_site_fract_x
_atom_site_fract_y
_atom_site_fract_z
Si Si1 0.280625 0.723283 0.564834
Si Si2 0.400512 0.783879 0.790449
Si Si3 0.600618 0.221841 0.000000
Si Si4 0.402208 0.281347 0.335843
Si Si5 0.283674 0.777255 0.107191
Si Si6 0.097005 0.221618 0.065836
Si Si7 0.908500 0.718542 0.432718
O O1 0.295759 0.779049 0.500000
O O2 0.280394 0.500000 0.563759
O O3 0.348758 0.785043 0.610900
O O4 0.185327 0.784334 0.585114
O O5 0.500000 0.711619 0.795076
O O6 0.368646 0.757445 0.726698
O O7 0.332849 0.715128 0.836584
O O8 0.407194 0.000000 0.800043
O O9 0.655461 0.276320 0.945270
O O10 0.500000 0.281857 0.000000
O O11 0.598329 0.000000 0.000000
O O12 0.500000 0.210813 0.337574
O O13 0.405009 0.500000 0.340723
O O14 0.183935 0.717949 0.098061
O O15 0.281237 0.000000 0.107400
O O16 0.000000 0.280217 0.084522
O O17 0.096697 0.000000 0.067758
O O18 0.106365 0.271408 0.000000
O O19 0.909189 0.747699 0.500000
O O20 0.909031 0.500000 0.424369
O O21 0.000000 0.789716 0.409939
#
# Coordination Sequence:
#
# PCOD9388868 Si02
#       7
#     8   8   4   8   8   8   8
#     4   8  13  21  35  56  78  97 121 157 197 232
#     4   9  17  28  41  56  75 102 134 162 188 225
#     4   9  14  18  27  47  74  96 115 150 198 234
#     4   9  17  28  41  57  77 102 131 159 189 228
#     4   9  14  21  33  51  74  99 125 156 194 229
#     4   8  12  18  29  47  73 102 127 152 189 236
#     4   7   9  14  26  46  72  97 116 138 176 224
#
# _framework density 19.316787000000001
#
# number of rings (size 3 to 8) (size 9 to 14) (size 15 to 20)
#    0.000    3.615    0.769    2.308    0.000    2.154 
#    0.000    1.538    0.000    1.385    0.000    2.692 
#    0.000    3.077    0.000    5.538    0.000    4.615 
#
# Total GULP energy -289574.661058 kJ/mol
# GULP energy per Si atom -5568.743482 kJ/mol
# Density = 1.927282 g / cm^3
# Si number density = 19.316787 Si / 1000 Ang^3
#
#
#
# Elastic Constant Matrix: (Units=GPa)
#
#
# Indices 1 2 3 4 5 6 
#
# 1 168.3889 6.0706 107.0522 0.0000 0.0000 0.0000
# 2 6.0706 70.9400 0.0991 0.0000 0.0000 0.0000
# 3 107.0522 0.0991 135.1668 0.0000 0.0000 0.0000
# 4 0.0000 0.0000 0.0000 2.7843 0.0000 0.0000
# 5 0.0000 0.0000 0.0000 0.0000 -5.9761 0.0000
# 6 0.0000 0.0000 0.0000 0.0000 0.0000 -12.0026
#
#
#
# Elastic Compliance Matrix: (Units=1/GPa)
#
#
# Indices 1 2 3 4 5 6 
#
# 1 0.012034 -0.001016 -0.009530 0.000000 0.000000 0.000000
# 2 -0.001016 0.014182 0.000795 0.000000 0.000000 0.000000
# 3 -0.009530 0.000795 0.014946 0.000000 0.000000 0.000000
# 4 0.000000 0.000000 0.000000 0.359153 0.000000 0.000000
# 5 0.000000 0.000000 0.000000 0.000000 -0.167332 0.000000
# 6 0.000000 0.000000 0.000000 0.000000 0.000000 -0.083316
#
#
# Mechanical properties :
#
#
# Convention : Reuss Voigt Hill
#
# Bulk Modulus (GPa) = 46.17262 66.77106 56.47184
# Shear Modulus (GPa) = 28.34611 14.37938 21.36275
#
# Velocity S-wave (km/s) = 3.83487 2.73133 3.32914
# Velocity P-wave (km/s) = 6.60023 6.67744 6.63895
#
# Compressibility (1/GPa) = 0.02165786
#
# Stress axis : x y z
#
# Youngs Moduli (GPa) = 83.09733 70.51050 66.90907
#
# Poissons Ratio (x) = 0.07167 0.63766
# Poissons Ratio (y) = 0.08447 -0.05317
# Poissons Ratio (z) = 0.79194 -0.05603
#
# Static dielectric constant tensor:
#      x y z
#    x 1.706850 0.000000 0.000000 
#    y 0.000000 1.793870 0.000000 
#    z 0.000000 0.000000 1.623830 
# 
# From -- ./inp_files/7659.got.cif
#   From: 2010.05.17/outbox.cif.g08.bks.cpg/sg47_4_cif.got.tgz:7659.got - 2010.06.03 20:15:42.
