data_PCOD9388116
_publ_section_title
;
Structure prediction by ZEFSAII (Michael W. Deem and Ramdas Pophale) SiO2 
 PCOD9388116
Probable space group: P M M M
;
_chemical_formula_sum "Si O2"
_cell_formula_units_Z 25
_cell_length_a 12.138529
_cell_length_b 12.541812
_cell_length_c 7.354696
_cell_angle_alpha 90.000000
_cell_angle_beta 90.000000
_cell_angle_gamma 90.000000
_cell_volume 1119.672658
_symmetry_space_group_name_H-M "P M M M"
_symmetry_group_IT_number 47
_symmetry_cell_setting 'orthorhombic'
loop_
_space_group_symop_operation_xyz
x,y,z
-x,-y,z
x,-y,-z
-x,y,-z
-x,-y,-z
x,y,-z
-x,y,z
x,-y,z
loop_
_atom_site_type_symbol
_atom_site_label
_atom_site_fract_x
_atom_site_fract_y
_atom_site_fract_z
Si Si1 0.705195 0.500000 0.277515
Si Si2 0.500000 0.130174 0.791240
Si Si3 0.877986 0.677325 0.712792
Si Si4 0.500000 0.500000 0.000000
Si Si5 0.740074 0.121519 0.219523
O O1 0.687132 0.500000 0.500000
O O2 0.780681 0.398819 0.222733
O O3 0.595814 0.500000 0.160246
O O4 0.381009 0.159903 0.712650
O O5 0.500000 0.000000 0.794112
O O6 0.500000 0.169208 0.000000
O O7 0.886610 0.652389 0.500000
O O8 0.835973 0.797953 0.731595
O O9 0.000000 0.661735 0.791656
O O10 0.758072 0.000000 0.280611
O O11 0.732176 0.118776 0.000000
#
# Coordination Sequence:
#
# PCOD9388116 Si02
#       5
#     4   4   8   1   8
#     4  10  24  47  69  97 133 164 209 268 320 382
#     4   7  12  27  49  72 106 151 193 237 298 359
#     4  10  22  41  63  86 122 172 215 259 316 375
#     4  12  26  44  74 106 126 168 206 254 336 396
#     4   9  18  33  55  87 125 164 209 264 317 370
#
# _framework density 22.327956
#
# number of rings (size 3 to 8) (size 9 to 14) (size 15 to 20)
#    0.000    2.720    0.000    2.640    2.240    5.120 
#    2.880    6.400    0.000    2.880    0.000    0.000 
#    0.000    0.000    0.000    0.000    0.000    0.000 
#
# Total GULP energy -139233.353278 kJ/mol
# GULP energy per Si atom -5569.334131 kJ/mol
# Density = 2.227714 g / cm^3
# Si number density = 22.327956 Si / 1000 Ang^3
#
#
#
# Elastic Constant Matrix: (Units=GPa)
#
#
# Indices 1 2 3 4 5 6 
#
# 1 229.2670 69.9612 46.8050 0.0000 0.0000 0.0000
# 2 69.9612 77.0072 8.1855 0.0000 0.0000 0.0000
# 3 46.8050 8.1855 107.8120 0.0000 0.0000 0.0000
# 4 0.0000 0.0000 0.0000 15.9723 0.0000 0.0000
# 5 0.0000 0.0000 0.0000 0.0000 25.7384 0.0000
# 6 0.0000 0.0000 0.0000 0.0000 0.0000 -44.7404
#
#
#
# Elastic Compliance Matrix: (Units=1/GPa)
#
#
# Indices 1 2 3 4 5 6 
#
# 1 0.006613 -0.005749 -0.002434 0.000000 0.000000 0.000000
# 2 -0.005749 0.018090 0.001123 0.000000 0.000000 0.000000
# 3 -0.002434 0.001123 0.010247 0.000000 0.000000 0.000000
# 4 0.000000 0.000000 0.000000 0.062609 0.000000 0.000000
# 5 0.000000 0.000000 0.000000 0.000000 0.038853 0.000000
# 6 0.000000 0.000000 0.000000 0.000000 0.000000 -0.022351
#
#
# Mechanical properties :
#
#
# Convention : Reuss Voigt Hill
#
# Bulk Modulus (GPa) = 48.01358 73.77662 60.89510
# Shear Modulus (GPa) = 37.00286 18.66968 27.83627
#
# Velocity S-wave (km/s) = 4.07534 2.89478 3.53469
# Velocity P-wave (km/s) = 6.61022 6.65484 6.63257
#
# Compressibility (1/GPa) = 0.02082744
#
# Stress axis : x y z
#
# Youngs Moduli (GPa) = 151.21450 55.28008 97.58885
#
# Poissons Ratio (x) = 0.31782 0.23758
# Poissons Ratio (y) = 0.86937 -0.10955
# Poissons Ratio (z) = 0.36813 -0.06205
#
# Static dielectric constant tensor:
#      x y z
#    x 1.816610 0.000000 0.000000 
#    y 0.000000 1.835080 0.000000 
#    z 0.000000 0.000000 1.881750 
# 
# From -- ./inp_files/3050.got.cif
#   From: 2010.05.17/outbox.cif.g08.bks.cpg/sg47_2_cif.got.tgz:3050.got - 2010.06.03 20:15:42.
