data_PCOD9388821
_publ_section_title
;
Structure prediction by ZEFSAII (Michael W. Deem and Ramdas Pophale) SiO2 
 PCOD9388821
Probable space group: P M M M
;
_chemical_formula_sum "Si O2"
_cell_formula_units_Z 40
_cell_length_a 20.670495
_cell_length_b 18.051008
_cell_length_c 7.288076
_cell_angle_alpha 90.000000
_cell_angle_beta 90.000000
_cell_angle_gamma 90.000000
_cell_volume 2719.350754
_symmetry_space_group_name_H-M "P M M M"
_symmetry_group_IT_number 47
_symmetry_cell_setting 'orthorhombic'
loop_
_space_group_symop_operation_xyz
x,y,z
-x,-y,z
x,-y,-z
-x,y,-z
-x,-y,-z
x,y,-z
-x,y,z
x,-y,z
loop_
_atom_site_type_symbol
_atom_site_label
_atom_site_fract_x
_atom_site_fract_y
_atom_site_fract_z
Si Si1 0.574357 0.000000 0.276326
Si Si2 0.347083 0.854457 0.276565
Si Si3 0.421752 0.583768 0.000000
Si Si4 0.930366 0.911705 0.721264
Si Si5 0.789147 0.913345 0.276471
Si Si6 0.423799 0.291665 0.718622
O O1 0.611593 0.074009 0.218747
O O2 0.500000 0.000000 0.218289
O O3 0.574799 0.000000 0.500000
O O4 0.347569 0.854535 0.500000
O O5 0.273155 0.867085 0.217927
O O6 0.381246 0.778440 0.221251
O O7 0.404531 0.633926 0.824753
O O8 0.396350 0.500000 0.000000
O O9 0.500000 0.578681 0.000000
O O10 0.930830 0.904075 0.500000
O O11 0.859880 0.885143 0.784487
O O12 0.000000 0.882176 0.787543
O O13 0.930108 0.000000 0.758957
O O14 0.789573 0.913342 0.500000
O O15 0.781307 0.000000 0.223592
O O16 0.417449 0.300815 0.500000
O O17 0.500000 0.276673 0.756834
#
# Coordination Sequence:
#
# PCOD9388821 Si02
#       6
#     4   8   4   8   8   8
#     4   9  14  18  26  41  62  90 125 160 188 218
#     4   9  14  20  30  47  70  96 126 158 191 222
#     4   9  18  32  48  63  77  95 120 152 193 237
#     4   7   9  12  18  29  48  78 116 156 193 221
#     4   8  11  15  23  37  59  87 123 162 190 217
#     4   9  17  28  42  60  80 100 124 156 191 228
#
# _framework density 14.709393
#
# number of rings (size 3 to 8) (size 9 to 14) (size 15 to 20)
#    0.000    3.600    1.000    2.400    0.000    2.800 
#    0.000    2.000    0.000    0.600    0.000    2.800 
#    0.000    0.000    0.000    0.900    0.000   12.700 
#
# Total GULP energy -222722.616716 kJ/mol
# GULP energy per Si atom -5568.065418 kJ/mol
# Density = 1.467591 g / cm^3
# Si number density = 14.709393 Si / 1000 Ang^3
#
#
#
# Elastic Constant Matrix: (Units=GPa)
#
#
# Indices 1 2 3 4 5 6 
#
# 1 139.2404 60.5069 19.3568 0.0000 0.0000 0.0000
# 2 60.5069 102.5183 21.7383 0.0000 0.0000 0.0000
# 3 19.3568 21.7383 61.6851 0.0000 0.0000 0.0000
# 4 0.0000 0.0000 0.0000 17.9698 0.0000 0.0000
# 5 0.0000 0.0000 0.0000 0.0000 -8.9296 0.0000
# 6 0.0000 0.0000 0.0000 0.0000 0.0000 4.6869
#
#
#
# Elastic Compliance Matrix: (Units=1/GPa)
#
#
# Indices 1 2 3 4 5 6 
#
# 1 0.009729 -0.005506 -0.001113 0.000000 0.000000 0.000000
# 2 -0.005506 0.013658 -0.003085 0.000000 0.000000 0.000000
# 3 -0.001113 -0.003085 0.017648 0.000000 0.000000 0.000000
# 4 0.000000 0.000000 0.000000 0.055649 0.000000 0.000000
# 5 0.000000 0.000000 0.000000 0.000000 -0.111987 0.000000
# 6 0.000000 0.000000 0.000000 0.000000 0.000000 0.213362
#
#
# Mechanical properties :
#
#
# Convention : Reuss Voigt Hill
#
# Bulk Modulus (GPa) = 46.23888 56.29421 51.26654
# Shear Modulus (GPa) = 22.25421 16.20155 19.22788
#
# Velocity S-wave (km/s) = 3.89385 3.32240 3.61942
# Velocity P-wave (km/s) = 7.19161 7.28504 7.23848
#
# Compressibility (1/GPa) = 0.02162682
#
# Stress axis : x y z
#
# Youngs Moduli (GPa) = 102.78258 73.21460 56.66424
#
# Poissons Ratio (x) = 0.40315 0.06304
# Poissons Ratio (y) = 0.56596 0.17483
# Poissons Ratio (z) = 0.11435 0.22590
#
# Static dielectric constant tensor:
#      x y z
#    x 1.522080 0.000000 0.000000 
#    y 0.000000 1.439320 0.000000 
#    z 0.000000 0.000000 1.562930 
# 
# From -- ./inp_files/10835.got.cif
#   From: 2010.05.17/outbox.cif.g08.bks.cpg/sg47_6_cif.got.tgz:10835.got - 2010.06.03 20:15:42.
