data_PCOD9388588
_publ_section_title
;
Structure prediction by ZEFSAII (Michael W. Deem and Ramdas Pophale) SiO2 
 PCOD9388588
Probable space group: P M M M
;
_chemical_formula_sum "Si O2"
_cell_formula_units_Z 52
_cell_length_a 19.912086
_cell_length_b 7.489715
_cell_length_c 17.735028
_cell_angle_alpha 90.000000
_cell_angle_beta 90.000000
_cell_angle_gamma 90.000000
_cell_volume 2644.928461
_symmetry_space_group_name_H-M "P M M M"
_symmetry_group_IT_number 47
_symmetry_cell_setting 'orthorhombic'
loop_
_space_group_symop_operation_xyz
x,y,z
-x,-y,z
x,-y,-z
-x,y,-z
-x,-y,-z
x,y,-z
-x,y,z
x,-y,z
loop_
_atom_site_type_symbol
_atom_site_label
_atom_site_fract_x
_atom_site_fract_y
_atom_site_fract_z
Si Si1 0.678567 0.218266 0.869397
Si Si2 0.422171 0.218547 0.000000
Si Si3 0.075116 0.288140 0.000000
Si Si4 0.425787 0.285043 0.585647
Si Si5 0.690513 0.209306 0.701287
Si Si6 0.829661 0.789158 0.860893
Si Si7 0.919371 0.500000 0.589500
Si Si8 0.841914 0.782959 0.688884
O O1 0.668215 0.278853 0.783120
O O2 0.755547 0.276816 0.885693
O O3 0.676766 0.000000 0.873371
O O4 0.621584 0.276941 0.927521
O O5 0.500000 0.276416 0.000000
O O6 0.423551 0.000000 0.000000
O O7 0.116477 0.239422 0.925573
O O8 0.070112 0.500000 0.000000
O O9 0.000000 0.212061 0.000000
O O10 0.414755 0.222872 0.500000
O O11 0.500000 0.223911 0.610239
O O12 0.427165 0.500000 0.583837
O O13 0.366677 0.232650 0.640431
O O14 0.763898 0.271770 0.675399
O O15 0.701202 0.000000 0.714003
O O16 0.851833 0.729445 0.777243
O O17 0.820532 0.000000 0.851480
O O18 0.902496 0.500000 0.500000
O O19 0.888566 0.671997 0.632672
O O20 0.000000 0.500000 0.596168
O O21 0.850064 0.000000 0.680866
#
# Coordination Sequence:
#
# PCOD9388588 Si02
#       8
#     8   4   4   8   8   8   4   8
#     4   8  15  29  48  71 100 133 174 223 270 321
#     4   9  15  22  38  68 104 141 178 218 268 321
#     4  11  24  35  47  79 120 147 176 226 278 331
#     4   9  19  34  49  70 105 146 183 220 270 335
#     4   9  18  33  54  81 108 137 181 236 288 333
#     4   9  18  36  59  78 105 150 193 231 282 339
#     4  11  26  44  64  91 120 156 193 229 294 370
#     4   9  21  41  64  91 119 151 198 251 295 344
#
# _framework density 19.660267000000001
#
# number of rings (size 3 to 8) (size 9 to 14) (size 15 to 20)
#    0.000    2.846    0.000    3.000    2.154    4.923 
#    0.000    6.154    0.000    0.000    0.000    0.000 
#    0.000    3.077    0.000    0.000    0.000    0.000 
#
# Total GULP energy -289899.881522 kJ/mol
# GULP energy per Si atom -5574.997722 kJ/mol
# Density = 1.961552 g / cm^3
# Si number density = 19.660267 Si / 1000 Ang^3
#
#
#
# Elastic Constant Matrix: (Units=GPa)
#
#
# Indices 1 2 3 4 5 6 
#
# 1 168.6208 22.2354 126.4389 0.0000 0.0000 0.0000
# 2 22.2354 67.7794 25.5253 0.0000 0.0000 0.0000
# 3 126.4389 25.5253 141.9007 0.0000 0.0000 0.0000
# 4 0.0000 0.0000 0.0000 22.8203 0.0000 0.0000
# 5 0.0000 0.0000 0.0000 0.0000 81.7042 0.0000
# 6 0.0000 0.0000 0.0000 0.0000 0.0000 20.7792
#
#
#
# Elastic Compliance Matrix: (Units=1/GPa)
#
#
# Indices 1 2 3 4 5 6 
#
# 1 0.017872 0.000144 -0.015950 0.000000 0.000000 0.000000
# 2 0.000144 0.015827 -0.002975 0.000000 0.000000 0.000000
# 3 -0.015950 -0.002975 0.021794 0.000000 0.000000 0.000000
# 4 0.000000 0.000000 0.000000 0.043821 0.000000 0.000000
# 5 0.000000 0.000000 0.000000 0.000000 0.012239 0.000000
# 6 0.000000 0.000000 0.000000 0.000000 0.000000 0.048125
#
#
# Mechanical properties :
#
#
# Convention : Reuss Voigt Hill
#
# Bulk Modulus (GPa) = 55.77179 80.74446 68.25813
# Shear Modulus (GPa) = 24.60418 38.66749 31.63583
#
# Velocity S-wave (km/s) = 3.54145 4.43965 4.01574
# Velocity P-wave (km/s) = 6.71951 8.21217 7.50305
#
# Compressibility (1/GPa) = 0.01793021
#
# Stress axis : x y z
#
# Youngs Moduli (GPa) = 55.95488 63.18327 45.88316
#
# Poissons Ratio (x) = -0.00909 0.73184
# Poissons Ratio (y) = -0.00805 0.13651
# Poissons Ratio (z) = 0.89249 0.18798
#
# Static dielectric constant tensor:
#      x y z
#    x 1.691760 0.000000 0.000000 
#    y 0.000000 1.751590 0.000000 
#    z 0.000000 0.000000 1.639730 
# 
# From -- ./inp_files/28569.got.cif
#   From: 2010.05.17/outbox.cif.g08.bks.cpg/sg47_15_cif.got.tgz:28569.got - 2010.06.03 20:15:42.
