data_PCOD9388243
_publ_section_title
;
Structure prediction by ZEFSAII (Michael W. Deem and Ramdas Pophale) SiO2 
 PCOD9388243
Probable space group: P M M M
;
_chemical_formula_sum "Si O2"
_cell_formula_units_Z 56
_cell_length_a 30.242933
_cell_length_b 8.776758
_cell_length_c 14.137734
_cell_angle_alpha 90.000000
_cell_angle_beta 90.000000
_cell_angle_gamma 90.000000
_cell_volume 3752.648069
_symmetry_space_group_name_H-M "P M M M"
_symmetry_group_IT_number 47
_symmetry_cell_setting 'orthorhombic'
loop_
_space_group_symop_operation_xyz
x,y,z
-x,-y,z
x,-y,-z
-x,y,-z
-x,-y,-z
x,y,-z
-x,y,z
x,-y,z
loop_
_atom_site_type_symbol
_atom_site_label
_atom_site_fract_x
_atom_site_fract_y
_atom_site_fract_z
Si Si1 0.144259 0.315701 0.389734
Si Si2 0.952443 0.319238 0.614466
Si Si3 0.449117 0.183341 0.889768
Si Si4 0.633855 0.318918 0.213027
Si Si5 0.679600 0.816322 0.391549
Si Si6 0.281945 0.816009 0.107861
Si Si7 0.229032 0.182862 0.709889
O O1 0.150437 0.269498 0.500000
O O2 0.143482 0.500000 0.388555
O O3 0.095673 0.259763 0.355653
O O4 0.184460 0.257154 0.327297
O O5 0.951984 0.308445 0.500000
O O6 0.953059 0.500000 0.636486
O O7 0.000000 0.254418 0.647024
O O8 0.500000 0.224055 0.867860
O O9 0.413144 0.260510 0.823722
O O10 0.445243 0.000000 0.882412
O O11 0.440820 0.223271 0.000000
O O12 0.635567 0.500000 0.211919
O O13 0.646317 0.257400 0.316891
O O14 0.671992 0.252997 0.144126
O O15 0.672612 0.771213 0.500000
O O16 0.729309 0.776589 0.357336
O O17 0.675950 0.000000 0.384627
O O18 0.244652 0.772731 0.184514
O O19 0.286113 0.000000 0.111884
O O20 0.272541 0.771840 0.000000
O O21 0.224184 0.000000 0.707046
#
# Coordination Sequence:
#
# PCOD9388243 Si02
#       7
#     8   8   8   8   8   8   8
#     4   9  16  24  36  56  81 109 138 167 202 244
#     4   7  10  18  32  49  70  99 136 171 197 229
#     4   9  18  33  52  71  91 118 150 179 207 246
#     4  11  21  30  45  71  98 118 137 170 218 261
#     4   9  18  33  50  64  82 115 156 186 205 238
#     4   9  18  33  49  61  79 112 150 180 204 242
#     4   9  17  28  42  61  82 105 136 173 212 248
#
# _framework density 14.922796
#
# number of rings (size 3 to 8) (size 9 to 14) (size 15 to 20)
#    0.000    3.000    0.000    4.714    0.000    6.000 
#    0.000    0.714    0.000    0.857    0.000    5.000 
#    0.000    0.571    0.000    7.143    0.000    0.286 
#
# Total GULP energy -311825.628938 kJ/mol
# GULP energy per Si atom -5568.314802 kJ/mol
# Density = 1.488883 g / cm^3
# Si number density = 14.922796 Si / 1000 Ang^3
#
#
#
# Elastic Constant Matrix: (Units=GPa)
#
#
# Indices 1 2 3 4 5 6 
#
# 1 143.4434 34.5928 77.7009 0.0000 0.0000 0.0000
# 2 34.5928 15.2519 30.0574 0.0000 0.0000 0.0000
# 3 77.7009 30.0574 109.4331 0.0000 0.0000 0.0000
# 4 0.0000 0.0000 0.0000 7.1153 0.0000 0.0000
# 5 0.0000 0.0000 0.0000 0.0000 19.6739 0.0000
# 6 0.0000 0.0000 0.0000 0.0000 0.0000 22.7999
#
#
#
# Elastic Compliance Matrix: (Units=1/GPa)
#
#
# Indices 1 2 3 4 5 6 
#
# 1 0.015829 -0.029981 -0.003004 0.000000 0.000000 0.000000
# 2 -0.029981 0.199719 -0.033569 0.000000 0.000000 0.000000
# 3 -0.003004 -0.033569 0.020491 0.000000 0.000000 0.000000
# 4 0.000000 0.000000 0.000000 0.140542 0.000000 0.000000
# 5 0.000000 0.000000 0.000000 0.000000 0.050829 0.000000
# 6 0.000000 0.000000 0.000000 0.000000 0.000000 0.043860
#
#
# Mechanical properties :
#
#
# Convention : Reuss Voigt Hill
#
# Bulk Modulus (GPa) = 9.71514 61.42563 35.57038
# Shear Modulus (GPa) = 7.82855 18.30300 13.06577
#
# Velocity S-wave (km/s) = 2.29291 3.50596 2.96219
# Velocity P-wave (km/s) = 3.67890 7.59214 5.96552
#
# Compressibility (1/GPa) = 0.10293215
#
# Stress axis : x y z
#
# Youngs Moduli (GPa) = 63.17516 5.00702 48.80120
#
# Poissons Ratio (x) = 0.15011 0.14662
# Poissons Ratio (y) = 1.89405 1.63818
# Poissons Ratio (z) = 0.18980 0.16808
#
# Static dielectric constant tensor:
#      x y z
#    x 1.505240 0.000000 0.000000 
#    y 0.000000 1.505460 0.000000 
#    z 0.000000 0.000000 1.482680 
# 
# From -- ./inp_files/25801.got.cif
#   From: 2010.05.17/outbox.cif.g08.bks.cpg/sg47_13_cif.got.tgz:25801.got - 2010.06.03 20:15:42.
