data_PCOD9388848
_publ_section_title
;
Structure prediction by ZEFSAII (Michael W. Deem and Ramdas Pophale) SiO2 
 PCOD9388848
Probable space group: P M M M
;
_chemical_formula_sum "Si O2"
_cell_formula_units_Z 36
_cell_length_a 7.360025
_cell_length_b 15.338688
_cell_length_c 14.506623
_cell_angle_alpha 90.000000
_cell_angle_beta 90.000000
_cell_angle_gamma 90.000000
_cell_volume 1637.698035
_symmetry_space_group_name_H-M "P M M M"
_symmetry_group_IT_number 47
_symmetry_cell_setting 'orthorhombic'
loop_
_space_group_symop_operation_xyz
x,y,z
-x,-y,z
x,-y,-z
-x,y,-z
-x,-y,-z
x,y,-z
-x,y,z
x,-y,z
loop_
_atom_site_type_symbol
_atom_site_label
_atom_site_fract_x
_atom_site_fract_y
_atom_site_fract_z
Si Si1 0.709245 0.761840 0.610650
Si Si2 0.721321 0.598168 0.727874
Si Si3 0.000000 0.901446 0.387513
Si Si4 0.716568 0.094021 0.111623
Si Si5 0.721721 0.714915 0.105620
O O1 0.717853 0.755463 0.500000
O O2 0.500000 0.774410 0.638487
O O3 0.775348 0.671321 0.654055
O O4 0.826206 0.844726 0.639869
O O5 0.500000 0.595281 0.725842
O O6 0.785215 0.500000 0.712148
O O7 0.776224 0.638153 0.826251
O O8 0.000000 0.904453 0.500000
O O9 0.000000 0.000000 0.354401
O O10 0.500000 0.093161 0.129361
O O11 0.783679 0.189486 0.140805
O O12 0.788653 0.000000 0.144579
O O13 0.738536 0.094749 0.000000
O O14 0.500000 0.717226 0.105300
O O15 0.778929 0.702686 0.000000
#
# Coordination Sequence:
#
# PCOD9388848 Si02
#       5
#     8   8   4   8   8
#     4   9  18  33  53  78 109 142 175 214 259 308
#     4   9  17  28  42  63  95 136 179 221 266 314
#     4   9  18  34  57  83 110 141 175 211 257 315
#     4   7   9  14  25  41  64  98 139 184 237 292
#     4   8  13  21  34  55  86 124 166 213 263 313
#
# _framework density 21.982074000000001
#
# number of rings (size 3 to 8) (size 9 to 14) (size 15 to 20)
#    0.000    3.667    0.000    2.000    0.000    1.333 
#    0.000    8.333    0.000    6.000    0.000    0.778 
#    0.000    2.667    0.000    0.222    0.000    0.000 
#
# Total GULP energy -200832.643998 kJ/mol
# GULP energy per Si atom -5578.684555 kJ/mol
# Density = 2.193204 g / cm^3
# Si number density = 21.982074 Si / 1000 Ang^3
#
#
#
# Elastic Constant Matrix: (Units=GPa)
#
#
# Indices 1 2 3 4 5 6 
#
# 1 89.1893 57.7300 24.5223 0.0000 0.0000 0.0000
# 2 57.7300 240.2854 43.4264 0.0000 0.0000 0.0000
# 3 24.5223 43.4264 53.8177 0.0000 0.0000 0.0000
# 4 0.0000 0.0000 0.0000 42.9021 0.0000 0.0000
# 5 0.0000 0.0000 0.0000 0.0000 -9.0650 0.0000
# 6 0.0000 0.0000 0.0000 0.0000 0.0000 28.7599
#
#
#
# Elastic Compliance Matrix: (Units=1/GPa)
#
#
# Indices 1 2 3 4 5 6 
#
# 1 0.014084 -0.002604 -0.004317 0.000000 0.000000 0.000000
# 2 -0.002604 0.005354 -0.003134 0.000000 0.000000 0.000000
# 3 -0.004317 -0.003134 0.023077 0.000000 0.000000 0.000000
# 4 0.000000 0.000000 0.000000 0.023309 0.000000 0.000000
# 5 0.000000 0.000000 0.000000 0.000000 -0.110314 0.000000
# 6 0.000000 0.000000 0.000000 0.000000 0.000000 0.034771
#
#
# Mechanical properties :
#
#
# Convention : Reuss Voigt Hill
#
# Bulk Modulus (GPa) = 44.62922 70.51666 57.57294
# Shear Modulus (GPa) = 280.00970 29.69362 154.85166
#
# Velocity S-wave (km/s) = 11.29856 3.67933 8.40223
# Velocity P-wave (km/s) = 13.80422 7.08511 10.97167
#
# Compressibility (1/GPa) = 0.02240684
#
# Stress axis : x y z
#
# Youngs Moduli (GPa) = 71.00130 186.79068 43.33395
#
# Poissons Ratio (x) = 0.48635 0.18705
# Poissons Ratio (y) = 0.18487 0.13579
# Poissons Ratio (z) = 0.30648 0.58531
#
# Static dielectric constant tensor:
#      x y z
#    x 2.086380 0.000000 0.000000 
#    y 0.000000 1.790700 0.000000 
#    z 0.000000 0.000000 1.801560 
# 
# From -- ./inp_files/20571.got.cif
#   From: 2010.05.17/outbox.cif.g08.bks.cpg/sg47_11_cif.got.tgz:20571.got - 2010.06.03 20:15:42.
