data_PCOD9388670
_publ_section_title
;
Structure prediction by ZEFSAII (Michael W. Deem and Ramdas Pophale) SiO2 
 PCOD9388670
Probable space group: P M M M
;
_chemical_formula_sum "Si O2"
_cell_formula_units_Z 33
_cell_length_a 10.283964
_cell_length_b 19.991198
_cell_length_c 8.055219
_cell_angle_alpha 90.000000
_cell_angle_beta 90.000000
_cell_angle_gamma 90.000000
_cell_volume 1656.062490
_symmetry_space_group_name_H-M "P M M M"
_symmetry_group_IT_number 47
_symmetry_cell_setting 'orthorhombic'
loop_
_space_group_symop_operation_xyz
x,y,z
-x,-y,z
x,-y,-z
-x,y,-z
-x,-y,-z
x,y,-z
-x,y,z
x,-y,z
loop_
_atom_site_type_symbol
_atom_site_label
_atom_site_fract_x
_atom_site_fract_y
_atom_site_fract_z
Si Si1 0.000000 0.500000 0.500000
Si Si2 0.500000 0.422559 0.199627
Si Si3 0.257554 0.332468 0.307214
Si Si4 0.147861 0.923380 0.299339
Si Si5 0.352580 0.188023 0.802653
Si Si6 0.000000 0.394243 0.813049
O O1 0.000000 0.442915 0.652058
O O2 0.500000 0.500000 0.254099
O O3 0.373000 0.383604 0.261649
O O4 0.500000 0.421101 0.000000
O O5 0.226346 0.340525 0.500000
O O6 0.306229 0.257470 0.276238
O O7 0.129874 0.350163 0.203937
O O8 0.149363 0.922260 0.500000
O O9 0.253468 0.871267 0.237307
O O10 0.000000 0.906304 0.246677
O O11 0.174527 0.000000 0.247004
O O12 0.500000 0.172588 0.746988
O O13 0.354928 0.198276 0.000000
O O14 0.000000 0.424290 0.000000
#
# Coordination Sequence:
#
# PCOD9388670 Si02
#       6
#     1   4   8   8   8   4
#     4  12  26  52  68 108 136 176 228 278 344 410
#     4  11  25  43  67  97 132 175 220 273 344 404
#     4  12  25  45  67  98 132 176 230 280 335 407
#     4   9  20  40  65  94 129 170 217 270 329 397
#     4  11  24  41  63  92 131 175 220 276 337 396
#     4  12  27  47  73 100 138 178 223 283 344 408
#
# _framework density 19.926784000000001
#
# number of rings (size 3 to 8) (size 9 to 14) (size 15 to 20)
#    0.000    1.091    2.424    4.182    3.394    3.879 
#    0.000    3.636    0.000    0.000    0.000    0.000 
#    0.000    0.000    0.000    0.000    0.000    0.000 
#
# Total GULP energy -184206.570647 kJ/mol
# GULP energy per Si atom -5582.017292 kJ/mol
# Density = 1.988143 g / cm^3
# Si number density = 19.926784 Si / 1000 Ang^3
#
#
#
# Elastic Constant Matrix: (Units=GPa)
#
#
# Indices 1 2 3 4 5 6 
#
# 1 166.7856 92.9293 30.8129 0.0000 0.0000 0.0000
# 2 92.9293 136.4436 30.2344 0.0000 0.0000 0.0000
# 3 30.8129 30.2344 103.0857 0.0000 0.0000 0.0000
# 4 0.0000 0.0000 0.0000 48.4030 0.0000 0.0000
# 5 0.0000 0.0000 0.0000 0.0000 33.4322 0.0000
# 6 0.0000 0.0000 0.0000 0.0000 0.0000 66.1360
#
#
#
# Elastic Compliance Matrix: (Units=1/GPa)
#
#
# Indices 1 2 3 4 5 6 
#
# 1 0.009765 -0.006421 -0.001035 0.000000 0.000000 0.000000
# 2 -0.006421 0.012061 -0.001618 0.000000 0.000000 0.000000
# 3 -0.001035 -0.001618 0.010485 0.000000 0.000000 0.000000
# 4 0.000000 0.000000 0.000000 0.020660 0.000000 0.000000
# 5 0.000000 0.000000 0.000000 0.000000 0.029911 0.000000
# 6 0.000000 0.000000 0.000000 0.000000 0.000000 0.015120
#
#
# Mechanical properties :
#
#
# Convention : Reuss Voigt Hill
#
# Bulk Modulus (GPa) = 70.61624 79.36311 74.98968
# Shear Modulus (GPa) = 41.36620 46.41679 43.89149
#
# Velocity S-wave (km/s) = 4.56116 4.83159 4.69832
# Velocity P-wave (km/s) = 7.95322 8.42849 8.19430
#
# Compressibility (1/GPa) = 0.01416105
#
# Stress axis : x y z
#
# Youngs Moduli (GPa) = 102.40932 82.91248 95.37667
#
# Poissons Ratio (x) = 0.53239 0.09876
# Poissons Ratio (y) = 0.65758 0.15433
# Poissons Ratio (z) = 0.10604 0.13416
#
# Static dielectric constant tensor:
#      x y z
#    x 1.681940 0.000000 0.000000 
#    y 0.000000 1.666750 0.000000 
#    z 0.000000 0.000000 1.712890 
# 
# From -- ./inp_files/1121.got.cif
#   From: 2010.05.17/outbox.cif.g08.bks.cpg/sg47_1_cif.got.tgz:1121.got - 2010.06.03 20:15:42.
