data_PCOD9388041
_publ_section_title
;
Structure prediction by ZEFSAII (Michael W. Deem and Ramdas Pophale) SiO2 
 PCOD9388041
Probable space group: P M M M
;
_chemical_formula_sum "Si O2"
_cell_formula_units_Z 58
_cell_length_a 7.737824
_cell_length_b 23.862769
_cell_length_c 16.322122
_cell_angle_alpha 90.000000
_cell_angle_beta 90.000000
_cell_angle_gamma 90.000000
_cell_volume 3013.813016
_symmetry_space_group_name_H-M "P M M M"
_symmetry_group_IT_number 47
_symmetry_cell_setting 'orthorhombic'
loop_
_space_group_symop_operation_xyz
x,y,z
-x,-y,z
x,-y,-z
-x,y,-z
-x,-y,-z
x,y,-z
-x,y,z
x,-y,z
loop_
_atom_site_type_symbol
_atom_site_label
_atom_site_fract_x
_atom_site_fract_y
_atom_site_fract_z
Si Si1 0.706150 0.063167 0.090989
Si Si2 0.210845 0.934610 0.591490
Si Si3 0.801695 0.870160 0.749382
Si Si4 0.297456 0.357572 0.140010
Si Si5 0.296840 0.743337 0.262553
Si Si6 0.789952 0.435702 0.712275
Si Si7 0.000000 0.365588 0.000000
Si Si8 0.208525 0.337784 0.407442
O O1 0.500000 0.059115 0.084678
O O2 0.736988 0.105238 0.165016
O O3 0.772003 0.000000 0.109166
O O4 0.771246 0.079888 0.000000
O O5 0.269642 0.917605 0.500000
O O6 0.277320 0.897808 0.667310
O O7 0.000000 0.931477 0.589501
O O8 0.255316 0.000000 0.603937
O O9 0.789376 0.803384 0.746027
O O10 0.000000 0.887349 0.747501
O O11 0.500000 0.353313 0.113585
O O12 0.250844 0.301644 0.192317
O O13 0.282074 0.408457 0.204807
O O14 0.154257 0.365151 0.070860
O O15 0.500000 0.753139 0.255740
O O16 0.259203 0.713381 0.348801
O O17 0.738150 0.500000 0.701419
O O18 0.735433 0.394727 0.638406
O O19 0.000000 0.433824 0.716927
O O20 0.273402 0.333347 0.500000
O O21 0.000000 0.338855 0.410165
#
# Coordination Sequence:
#
# PCOD9388041 Si02
#       8
#     8   8   8   8   8   8   2   8
#     4   9  19  37  57  76 105 144 181 221 276 340
#     4   8  15  29  48  73 106 139 173 218 271 328
#     4  11  21  32  54  83 108 138 182 232 284 340
#     4  10  22  40  61  87 116 154 196 238 296 352
#     4  10  22  39  56  76 110 150 189 233 284 346
#     4   9  17  33  58  86 121 161 195 236 288 339
#     4  12  22  40  69  88 114 148 191 252 294 350
#     4   9  18  33  56  85 116 152 193 236 281 333
#
# _framework density 19.244724000000001
#
# number of rings (size 3 to 8) (size 9 to 14) (size 15 to 20)
#    0.000    2.483    0.690    2.276    1.931    2.483 
#    1.241    4.138    0.000    2.069    0.000    8.690 
#    0.000    0.000    0.000    0.000    0.000    0.000 
#
# Total GULP energy -322894.875052 kJ/mol
# GULP energy per Si atom -5567.153018 kJ/mol
# Density = 1.920092 g / cm^3
# Si number density = 19.244724 Si / 1000 Ang^3
#
#
#
# Elastic Constant Matrix: (Units=GPa)
#
#
# Indices 1 2 3 4 5 6 
#
# 1 48.8575 2.7316 24.9011 0.0000 0.0000 0.0000
# 2 2.7316 96.6382 61.5037 0.0000 0.0000 0.0000
# 3 24.9011 61.5037 138.9004 0.0000 0.0000 0.0000
# 4 0.0000 0.0000 0.0000 3.2011 0.0000 0.0000
# 5 0.0000 0.0000 0.0000 0.0000 37.7430 0.0000
# 6 0.0000 0.0000 0.0000 0.0000 0.0000 17.0612
#
#
#
# Elastic Compliance Matrix: (Units=1/GPa)
#
#
# Indices 1 2 3 4 5 6 
#
# 1 0.023040 0.002753 -0.005350 0.000000 0.000000 0.000000
# 2 0.002753 0.014737 -0.007019 0.000000 0.000000 0.000000
# 3 -0.005350 -0.007019 0.011266 0.000000 0.000000 0.000000
# 4 0.000000 0.000000 0.000000 0.312390 0.000000 0.000000
# 5 0.000000 0.000000 0.000000 0.000000 0.026495 0.000000
# 6 0.000000 0.000000 0.000000 0.000000 0.000000 0.058613
#
#
# Mechanical properties :
#
#
# Convention : Reuss Voigt Hill
#
# Bulk Modulus (GPa) = 33.54211 51.40767 42.47489
# Shear Modulus (GPa) = 10.51059 24.61838 17.56449
#
# Velocity S-wave (km/s) = 2.33953 3.58051 3.02436
# Velocity P-wave (km/s) = 4.97644 6.62299 5.85786
#
# Compressibility (1/GPa) = 0.02981327
#
# Stress axis : x y z
#
# Youngs Moduli (GPa) = 43.40217 67.85531 88.75905
#
# Poissons Ratio (x) = -0.18684 0.47484
# Poissons Ratio (y) = -0.11951 0.62301
# Poissons Ratio (z) = 0.23219 0.47628
#
# Static dielectric constant tensor:
#      x y z
#    x 1.716230 0.000000 0.000000 
#    y 0.000000 1.648840 0.000000 
#    z 0.000000 0.000000 1.688660 
# 
# From -- ./inp_files/21866.got.cif
#   From: 2010.05.17/outbox.cif.g08.bks.cpg/sg47_11_cif.got.tgz:21866.got - 2010.06.03 20:15:42.
