data_PCOD9388627
_publ_section_title
;
Structure prediction by ZEFSAII (Michael W. Deem and Ramdas Pophale) SiO2 
 PCOD9388627
Probable space group: P M M M
;
_chemical_formula_sum "Si O2"
_cell_formula_units_Z 44
_cell_length_a 7.798664
_cell_length_b 29.202119
_cell_length_c 9.626201
_cell_angle_alpha 90.000000
_cell_angle_beta 90.000000
_cell_angle_gamma 90.000000
_cell_volume 2192.247087
_symmetry_space_group_name_H-M "P M M M"
_symmetry_group_IT_number 47
_symmetry_cell_setting 'orthorhombic'
loop_
_space_group_symop_operation_xyz
x,y,z
-x,-y,z
x,-y,-z
-x,y,-z
-x,-y,-z
x,y,-z
-x,y,z
x,-y,z
loop_
_atom_site_type_symbol
_atom_site_label
_atom_site_fract_x
_atom_site_fract_y
_atom_site_fract_z
Si Si1 0.790106 0.088028 0.339840
Si Si2 0.793716 0.551104 0.157852
Si Si3 0.209242 0.174100 0.839625
Si Si4 0.790379 0.000000 0.160615
Si Si5 0.205930 0.276962 0.843198
Si Si6 0.296839 0.637262 0.345079
O O1 0.734852 0.084412 0.500000
O O2 0.733367 0.134859 0.265409
O O3 0.736908 0.044987 0.245779
O O4 0.000000 0.088014 0.340907
O O5 0.733677 0.500000 0.198926
O O6 0.748413 0.591755 0.260234
O O7 0.000000 0.549525 0.152381
O O8 0.732751 0.560227 0.000000
O O9 0.265776 0.225790 0.803868
O O10 0.000000 0.173674 0.837288
O O11 0.258699 0.164649 0.000000
O O12 0.000000 0.000000 0.158182
O O13 0.734008 0.000000 0.000000
O O14 0.247955 0.317387 0.739098
O O15 0.000000 0.274502 0.850249
O O16 0.268548 0.287092 0.000000
O O17 0.220886 0.636862 0.500000
O O18 0.500000 0.637870 0.356622
#
# Coordination Sequence:
#
# PCOD9388627 Si02
#       6
#     8   8   8   4   8   8
#     4   9  15  21  30  47  72 102 139 182 226 276
#     4   9  19  37  60  83 104 128 163 205 244 285
#     4   8  14  25  40  58  80 106 140 185 234 281
#     4   9  15  21  29  41  63 101 144 183 226 275
#     4   9  18  33  53  74  94 121 162 208 248 290
#     4  11  24  37  49  72 106 138 166 199 241 289
#
# _framework density 20.070730999999999
#
# number of rings (size 3 to 8) (size 9 to 14) (size 15 to 20)
#    0.000    2.818    0.000    3.545    0.000    9.091 
#    0.000    4.545    0.000    0.000    0.000    0.000 
#    0.000    0.000    0.000    0.818    0.000   16.182 
#
# Total GULP energy -245494.020822 kJ/mol
# GULP energy per Si atom -5579.409564 kJ/mol
# Density = 2.002505 g / cm^3
# Si number density = 20.070731 Si / 1000 Ang^3
#
#
#
# Elastic Constant Matrix: (Units=GPa)
#
#
# Indices 1 2 3 4 5 6 
#
# 1 24.5914 10.4629 8.9044 0.0000 0.0000 0.0000
# 2 10.4629 213.6192 161.5601 0.0000 0.0000 0.0000
# 3 8.9044 161.5601 195.0742 0.0000 0.0000 0.0000
# 4 0.0000 0.0000 0.0000 -12.2120 0.0000 0.0000
# 5 0.0000 0.0000 0.0000 0.0000 13.6176 0.0000
# 6 0.0000 0.0000 0.0000 0.0000 0.0000 -54.8898
#
#
#
# Elastic Compliance Matrix: (Units=1/GPa)
#
#
# Indices 1 2 3 4 5 6 
#
# 1 0.041553 -0.001608 -0.000565 0.000000 0.000000 0.000000
# 2 -0.001608 0.012591 -0.010355 0.000000 0.000000 0.000000
# 3 -0.000565 -0.010355 0.013728 0.000000 0.000000 0.000000
# 4 0.000000 0.000000 0.000000 -0.081887 0.000000 0.000000
# 5 0.000000 0.000000 0.000000 0.000000 0.073434 0.000000
# 6 0.000000 0.000000 0.000000 0.000000 0.000000 -0.018218
#
#
# Mechanical properties :
#
#
# Convention : Reuss Voigt Hill
#
# Bulk Modulus (GPa) = 23.35516 88.34884 55.85200
# Shear Modulus (GPa) = 62.08944 6.12699 34.10821
#
# Velocity S-wave (km/s) = 5.56799 1.74909 4.12685
# Velocity P-wave (km/s) = 7.27999 6.94215 7.11308
#
# Compressibility (1/GPa) = 0.04281710
#
# Stress axis : x y z
#
# Youngs Moduli (GPa) = 24.06544 79.42103 72.84551
#
# Poissons Ratio (x) = 0.12769 0.04117
# Poissons Ratio (y) = 0.03869 0.75428
# Poissons Ratio (z) = 0.01360 0.82237
#
# Static dielectric constant tensor:
#      x y z
#    x 1.730710 0.000000 0.000000 
#    y 0.000000 1.705180 0.000000 
#    z 0.000000 0.000000 1.697930 
# 
# From -- ./inp_files/2240.got.cif
#   From: 2010.05.17/outbox.cif.g08.bks.cpg/sg47_2_cif.got.tgz:2240.got - 2010.06.03 20:15:42.
