data_PCOD9388705
_publ_section_title
;
Structure prediction by ZEFSAII (Michael W. Deem and Ramdas Pophale) SiO2 
 PCOD9388705
Probable space group: P M M M
;
_chemical_formula_sum "Si O2"
_cell_formula_units_Z 32
_cell_length_a 8.796034
_cell_length_b 14.262144
_cell_length_c 13.261682
_cell_angle_alpha 90.000000
_cell_angle_beta 90.000000
_cell_angle_gamma 90.000000
_cell_volume 1663.682032
_symmetry_space_group_name_H-M "P M M M"
_symmetry_group_IT_number 47
_symmetry_cell_setting 'orthorhombic'
loop_
_space_group_symop_operation_xyz
x,y,z
-x,-y,z
x,-y,-z
-x,y,-z
-x,-y,-z
x,y,-z
-x,y,z
x,-y,z
loop_
_atom_site_type_symbol
_atom_site_label
_atom_site_fract_x
_atom_site_fract_y
_atom_site_fract_z
Si Si1 0.815624 0.391161 0.777838
Si Si2 0.680292 0.212571 0.693220
Si Si3 0.182198 0.890314 0.500000
Si Si4 0.173439 0.613861 0.000000
Si Si5 0.179989 0.112795 0.113911
O O1 0.776564 0.500000 0.759805
O O2 0.746052 0.317626 0.701249
O O3 0.759820 0.363026 0.891024
O O4 0.000000 0.385086 0.778345
O O5 0.500000 0.213968 0.684222
O O6 0.752562 0.158626 0.599302
O O7 0.730048 0.160631 0.796183
O O8 0.000000 0.883073 0.500000
O O9 0.223419 0.000000 0.500000
O O10 0.164642 0.500000 0.000000
O O11 0.000000 0.649949 0.000000
O O12 0.000000 0.133397 0.126283
O O13 0.196934 0.000000 0.119262
O O14 0.223932 0.142363 0.000000
#
# Coordination Sequence:
#
# PCOD9388705 Si02
#       5
#     8   8   4   4   8
#     4   9  18  35  59  86 118 160 210 254 290 340
#     4  12  25  38  58  90 127 159 191 240 309 372
#     4  11  25  47  72  91 110 147 205 260 298 349
#     4   7  12  26  51  81 110 147 198 249 287 322
#     4   9  19  37  60  85 115 155 203 249 291 346
#
# _framework density 19.234444
#
# number of rings (size 3 to 8) (size 9 to 14) (size 15 to 20)
#    0.000    2.250    0.000    5.625    1.750    5.500 
#    0.000    1.875    0.000    6.000    0.000    0.000 
#    0.000    0.000    0.000    0.000    0.000    0.000 
#
# Total GULP energy -178714.338698 kJ/mol
# GULP energy per Si atom -5584.823084 kJ/mol
# Density = 1.919067 g / cm^3
# Si number density = 19.234444 Si / 1000 Ang^3
#
#
#
# Elastic Constant Matrix: (Units=GPa)
#
#
# Indices 1 2 3 4 5 6 
#
# 1 61.2248 61.3033 55.9186 0.0000 0.0000 0.0000
# 2 61.3033 136.4673 91.2085 0.0000 0.0000 0.0000
# 3 55.9186 91.2085 134.7584 0.0000 0.0000 0.0000
# 4 0.0000 0.0000 0.0000 39.6565 0.0000 0.0000
# 5 0.0000 0.0000 0.0000 0.0000 -87.5429 0.0000
# 6 0.0000 0.0000 0.0000 0.0000 0.0000 200.8249
#
#
#
# Elastic Compliance Matrix: (Units=1/GPa)
#
#
# Indices 1 2 3 4 5 6 
#
# 1 0.032616 -0.010237 -0.006606 0.000000 0.000000 0.000000
# 2 -0.010237 0.016594 -0.006983 0.000000 0.000000 0.000000
# 3 -0.006606 -0.006983 0.014888 0.000000 0.000000 0.000000
# 4 0.000000 0.000000 0.000000 0.025217 0.000000 0.000000
# 5 0.000000 0.000000 0.000000 0.000000 -0.011423 0.000000
# 6 0.000000 0.000000 0.000000 0.000000 0.000000 0.004979
#
#
# Mechanical properties :
#
#
# Convention : Reuss Voigt Hill
#
# Bulk Modulus (GPa) = 60.80267 83.25682 72.02975
# Shear Modulus (GPa) = 36.76337 38.85572 37.80954
#
# Velocity S-wave (km/s) = 4.37662 4.49944 4.43845
# Velocity P-wave (km/s) = 7.56437 8.38883 7.98725
#
# Compressibility (1/GPa) = 0.01644665
#
# Stress axis : x y z
#
# Youngs Moduli (GPa) = 30.65940 60.26434 67.16733
#
# Poissons Ratio (x) = 0.61692 0.44369
# Poissons Ratio (y) = 0.31386 0.46904
# Poissons Ratio (z) = 0.20253 0.42084
#
# Static dielectric constant tensor:
#      x y z
#    x 1.635170 0.000000 0.000000 
#    y 0.000000 1.696940 0.000000 
#    z 0.000000 0.000000 1.663340 
# 
# From -- ./inp_files/3414.got.cif
#   From: 2010.05.17/outbox.cif.g08.bks.cpg/sg47_2_cif.got.tgz:3414.got - 2010.06.03 20:15:42.
