data_PCOD9388667
_publ_section_title
;
Structure prediction by ZEFSAII (Michael W. Deem and Ramdas Pophale) SiO2 
 PCOD9388667
Probable space group: P M M M
;
_chemical_formula_sum "Si O2"
_cell_formula_units_Z 40
_cell_length_a 9.397690
_cell_length_b 7.726530
_cell_length_c 28.357877
_cell_angle_alpha 90.000000
_cell_angle_beta 90.000000
_cell_angle_gamma 90.000000
_cell_volume 2059.108942
_symmetry_space_group_name_H-M "P M M M"
_symmetry_group_IT_number 47
_symmetry_cell_setting 'orthorhombic'
loop_
_space_group_symop_operation_xyz
x,y,z
-x,-y,z
x,-y,-z
-x,y,-z
-x,-y,-z
x,y,-z
-x,y,z
x,-y,z
loop_
_atom_site_type_symbol
_atom_site_label
_atom_site_fract_x
_atom_site_fract_y
_atom_site_fract_z
Si Si1 0.826029 0.202176 0.000000
Si Si2 0.838657 0.208230 0.898506
Si Si3 0.832010 0.802184 0.391218
Si Si4 0.331987 0.290495 0.701643
Si Si5 0.660987 0.707992 0.193544
Si Si6 0.665874 0.500000 0.556441
O O1 0.781364 0.275679 0.050863
O O2 0.000000 0.207217 0.000000
O O3 0.783360 0.000000 0.000000
O O4 0.751534 0.246737 0.851884
O O5 0.000000 0.272525 0.892767
O O6 0.844778 0.000000 0.903100
O O7 0.764591 0.786898 0.339120
O O8 0.745901 0.667136 0.422997
O O9 0.000000 0.759882 0.390261
O O10 0.816171 0.000000 0.407802
O O11 0.500000 0.247871 0.695575
O O12 0.321147 0.500000 0.698383
O O13 0.288254 0.234833 0.754558
O O14 0.500000 0.772771 0.187426
O O15 0.655502 0.500000 0.196230
O O16 0.500000 0.500000 0.571652
O O17 0.670853 0.500000 0.500000
#
# Coordination Sequence:
#
# PCOD9388667 Si02
#       6
#     4   8   8   8   8   4
#     4   7  12  26  46  65  88 122 164 213 270 327
#     4   9  17  30  49  71  94 124 168 221 273 328
#     4  11  24  40  62  95 130 162 200 249 304 358
#     4   9  18  35  58  80 107 150 197 236 281 342
#     4   9  19  34  50  72 105 142 178 217 266 326
#     4  11  25  45  69  95 125 165 211 254 295 344
#
# _framework density 19.425881
#
# number of rings (size 3 to 8) (size 9 to 14) (size 15 to 20)
#    0.000    2.600    1.000    3.300    0.000    5.200 
#    0.000    9.000    0.000    4.800    0.000    0.000 
#    0.000    0.000    0.000    0.000    0.000    0.000 
#
# Total GULP energy -223073.661249 kJ/mol
# GULP energy per Si atom -5576.841531 kJ/mol
# Density = 1.938167 g / cm^3
# Si number density = 19.425881 Si / 1000 Ang^3
#
#
#
# Elastic Constant Matrix: (Units=GPa)
#
#
# Indices 1 2 3 4 5 6 
#
# 1 97.2239 45.4015 75.6976 0.0000 0.0000 0.0000
# 2 45.4015 66.9721 41.3431 0.0000 0.0000 0.0000
# 3 75.6976 41.3431 143.7519 0.0000 0.0000 0.0000
# 4 0.0000 0.0000 0.0000 28.2612 0.0000 0.0000
# 5 0.0000 0.0000 0.0000 0.0000 35.2814 0.0000
# 6 0.0000 0.0000 0.0000 0.0000 0.0000 23.5550
#
#
#
# Elastic Compliance Matrix: (Units=1/GPa)
#
#
# Indices 1 2 3 4 5 6 
#
# 1 0.021175 -0.009084 -0.008538 0.000000 0.000000 0.000000
# 2 -0.009084 0.022052 -0.001558 0.000000 0.000000 0.000000
# 3 -0.008538 -0.001558 0.011901 0.000000 0.000000 0.000000
# 4 0.000000 0.000000 0.000000 0.035384 0.000000 0.000000
# 5 0.000000 0.000000 0.000000 0.000000 0.028344 0.000000
# 6 0.000000 0.000000 0.000000 0.000000 0.000000 0.042454
#
#
# Mechanical properties :
#
#
# Convention : Reuss Voigt Hill
#
# Bulk Modulus (GPa) = 59.64322 70.31470 64.97896
# Shear Modulus (GPa) = 24.35934 27.11991 25.73962
#
# Velocity S-wave (km/s) = 3.54498 3.74046 3.64403
# Velocity P-wave (km/s) = 6.89387 7.41146 7.15734
#
# Compressibility (1/GPa) = 0.01676637
#
# Stress axis : x y z
#
# Youngs Moduli (GPa) = 47.22481 45.34700 84.02961
#
# Poissons Ratio (x) = 0.41195 0.71744
# Poissons Ratio (y) = 0.42901 0.13096
# Poissons Ratio (z) = 0.40320 0.07067
#
# Static dielectric constant tensor:
#      x y z
#    x 1.656420 0.000000 0.000000 
#    y 0.000000 1.715800 0.000000 
#    z 0.000000 0.000000 1.701980 
# 
# From -- ./inp_files/33088.got.cif
#   From: 2010.05.17/outbox.cif.g08.bks.cpg/sg47_17_cif.got.tgz:33088.got - 2010.06.03 20:15:42.
