data_PCOD9388450
_publ_section_title
;
Structure prediction by ZEFSAII (Michael W. Deem and Ramdas Pophale) SiO2 
 PCOD9388450
Probable space group: P M M M
;
_chemical_formula_sum "Si O2"
_cell_formula_units_Z 40
_cell_length_a 11.687723
_cell_length_b 9.164286
_cell_length_c 24.019057
_cell_angle_alpha 90.000000
_cell_angle_beta 90.000000
_cell_angle_gamma 90.000000
_cell_volume 2572.672459
_symmetry_space_group_name_H-M "P M M M"
_symmetry_group_IT_number 47
_symmetry_cell_setting 'orthorhombic'
loop_
_space_group_symop_operation_xyz
x,y,z
-x,-y,z
x,-y,-z
-x,y,-z
-x,-y,-z
x,y,-z
-x,y,z
x,-y,z
loop_
_atom_site_type_symbol
_atom_site_label
_atom_site_fract_x
_atom_site_fract_y
_atom_site_fract_z
Si Si1 0.264914 0.824105 0.399178
Si Si2 0.138986 0.829234 0.061446
Si Si3 0.863203 0.670030 0.500000
Si Si4 0.139319 0.667822 0.172481
Si Si5 0.866827 0.174400 0.285722
Si Si6 0.500000 0.325944 0.567143
O O1 0.184935 0.753384 0.446346
O O2 0.210139 0.791013 0.339055
O O3 0.388139 0.751210 0.407959
O O4 0.270660 0.000000 0.405717
O O5 0.179809 0.742306 0.115346
O O6 0.000000 0.821449 0.061556
O O7 0.168329 0.000000 0.066596
O O8 0.176377 0.776886 0.000000
O O9 0.824495 0.500000 0.500000
O O10 0.000000 0.672139 0.500000
O O11 0.173921 0.500000 0.174522
O O12 0.173024 0.750283 0.228822
O O13 0.000000 0.673456 0.171398
O O14 0.000000 0.216415 0.296274
O O15 0.865107 0.000000 0.277756
O O16 0.500000 0.500000 0.577569
O O17 0.500000 0.305319 0.500000
#
# Coordination Sequence:
#
# PCOD9388450 Si02
#       6
#     8   8   4   8   8   4
#     4  11  22  36  56  76  94 120 158 198 233 274
#     4   8  13  21  33  49  72 107 150 191 228 265
#     4  11  23  36  51  74 103 129 151 183 232 283
#     4   9  16  24  36  56  82 114 150 187 227 271
#     4   9  18  32  48  67  92 121 153 190 232 277
#     4  11  23  39  57  75  98 124 151 186 237 292
#
# _framework density 15.548035
#
# number of rings (size 3 to 8) (size 9 to 14) (size 15 to 20)
#    0.000    2.400    1.000    3.000    0.000    6.400 
#    0.000    4.000    0.000    0.000    0.000    0.000 
#    0.000    0.000    0.000    0.900    0.000   17.800 
#
# Total GULP energy -222946.027408 kJ/mol
# GULP energy per Si atom -5573.650685 kJ/mol
# Density = 1.551265 g / cm^3
# Si number density = 15.548035 Si / 1000 Ang^3
#
#
#
# Elastic Constant Matrix: (Units=GPa)
#
#
# Indices 1 2 3 4 5 6 
#
# 1 56.6590 38.2076 50.2377 0.0000 0.0000 0.0000
# 2 38.2076 83.2432 90.2011 0.0000 0.0000 0.0000
# 3 50.2377 90.2011 181.8870 0.0000 0.0000 0.0000
# 4 0.0000 0.0000 0.0000 -1.7910 0.0000 0.0000
# 5 0.0000 0.0000 0.0000 0.0000 -1.2124 0.0000
# 6 0.0000 0.0000 0.0000 0.0000 0.0000 14.3631
#
#
#
# Elastic Compliance Matrix: (Units=1/GPa)
#
#
# Indices 1 2 3 4 5 6 
#
# 1 0.026182 -0.009038 -0.002749 0.000000 0.000000 0.000000
# 2 -0.009038 0.029087 -0.011928 0.000000 0.000000 0.000000
# 3 -0.002749 -0.011928 0.012173 0.000000 0.000000 0.000000
# 4 0.000000 0.000000 0.000000 -0.558334 0.000000 0.000000
# 5 0.000000 0.000000 0.000000 0.000000 -0.824805 0.000000
# 6 0.000000 0.000000 0.000000 0.000000 0.000000 0.069623
#
#
# Mechanical properties :
#
#
# Convention : Reuss Voigt Hill
#
# Bulk Modulus (GPa) = 49.97503 75.45356 62.71430
# Shear Modulus (GPa) = -4.19472 11.81479 3.81003
#
# Velocity S-wave (km/s) = -1.64431 2.75960 1.56710
# Velocity P-wave (km/s) = 5.34856 7.66737 6.61043
#
# Compressibility (1/GPa) = 0.02000999
#
# Stress axis : x y z
#
# Youngs Moduli (GPa) = 38.19426 34.38014 82.15064
#
# Poissons Ratio (x) = 0.31073 0.22587
# Poissons Ratio (y) = 0.34520 0.97991
# Poissons Ratio (z) = 0.10501 0.41009
#
# Static dielectric constant tensor:
#      x y z
#    x 1.495480 0.000000 0.000000 
#    y 0.000000 1.518250 0.000000 
#    z 0.000000 0.000000 1.519030 
# 
# From -- ./inp_files/18929.got.cif
#   From: 2010.05.17/outbox.cif.g08.bks.cpg/sg47_10_cif.got.tgz:18929.got - 2010.06.03 20:15:42.
