data_PCOD9388793
_publ_section_title
;
Structure prediction by ZEFSAII (Michael W. Deem and Ramdas Pophale) SiO2 
 PCOD9388793
Probable space group: P M M M
;
_chemical_formula_sum "Si O2"
_cell_formula_units_Z 48
_cell_length_a 9.847488
_cell_length_b 7.390765
_cell_length_c 32.393989
_cell_angle_alpha 90.000000
_cell_angle_beta 90.000000
_cell_angle_gamma 90.000000
_cell_volume 2357.649733
_symmetry_space_group_name_H-M "P M M M"
_symmetry_group_IT_number 47
_symmetry_cell_setting 'orthorhombic'
loop_
_space_group_symop_operation_xyz
x,y,z
-x,-y,z
x,-y,-z
-x,y,-z
-x,-y,-z
x,y,-z
-x,y,z
x,-y,z
loop_
_atom_site_type_symbol
_atom_site_label
_atom_site_fract_x
_atom_site_fract_y
_atom_site_fract_z
Si Si1 0.843241 0.720452 0.302577
Si Si2 0.656236 0.721281 0.621882
Si Si3 0.653754 0.784070 0.866502
Si Si4 0.335743 0.215500 0.044468
Si Si5 0.152821 0.716426 0.210175
Si Si6 0.844955 0.720338 0.453040
O O1 0.841786 0.500000 0.303244
O O2 0.740285 0.780157 0.337858
O O3 0.806066 0.779517 0.256069
O O4 0.000000 0.773521 0.310567
O O5 0.500000 0.779076 0.622266
O O6 0.656160 0.500000 0.621893
O O7 0.737942 0.779474 0.581130
O O8 0.500000 0.715293 0.860043
O O9 0.710016 0.714633 0.910723
O O10 0.746478 0.754509 0.827025
O O11 0.643624 0.000000 0.871522
O O12 0.500000 0.235991 0.045272
O O13 0.308033 0.000000 0.043360
O O14 0.288163 0.289142 0.000000
O O15 0.145261 0.500000 0.213187
O O16 0.000000 0.783506 0.201688
O O17 0.814261 0.776823 0.500000
O O18 0.844221 0.500000 0.452873
O O19 0.000000 0.774673 0.443042
#
# Coordination Sequence:
#
# PCOD9388793 Si02
#       6
#     8   8   8   8   8   8
#     4   8  14  25  38  49  64  90 125 162 196 233
#     4   9  15  20  28  44  63  82 109 150 197 238
#     4   9  17  28  44  68  92 111 136 172 213 255
#     4   7  10  19  37  60  84 108 134 166 203 242
#     4   9  18  31  45  61  82 111 146 179 211 250
#     4   8  13  20  28  37  52  79 114 148 184 229
#
# _framework density 20.359256999999999
#
# number of rings (size 3 to 8) (size 9 to 14) (size 15 to 20)
#    0.000    3.667    0.000    3.500    0.000    3.667 
#    0.000    3.333    0.000    1.000    0.000    5.833 
#    0.000    0.000    0.000    0.000    0.000    0.833 
#
# Total GULP energy -267444.115286 kJ/mol
# GULP energy per Si atom -5571.752402 kJ/mol
# Density = 2.031292 g / cm^3
# Si number density = 20.359257 Si / 1000 Ang^3
#
#
#
# Elastic Constant Matrix: (Units=GPa)
#
#
# Indices 1 2 3 4 5 6 
#
# 1 125.7776 4.4372 145.4431 0.0000 0.0000 0.0000
# 2 4.4372 66.9905 7.2910 0.0000 0.0000 0.0000
# 3 145.4431 7.2910 242.7351 0.0000 0.0000 0.0000
# 4 0.0000 0.0000 0.0000 7.5869 0.0000 0.0000
# 5 0.0000 0.0000 0.0000 0.0000 38.8890 0.0000
# 6 0.0000 0.0000 0.0000 0.0000 0.0000 1.2482
#
#
#
# Elastic Compliance Matrix: (Units=1/GPa)
#
#
# Indices 1 2 3 4 5 6 
#
# 1 0.025886 -0.000027 -0.015510 0.000000 0.000000 0.000000
# 2 -0.000027 0.014976 -0.000434 0.000000 0.000000 0.000000
# 3 -0.015510 -0.000434 0.013426 0.000000 0.000000 0.000000
# 4 0.000000 0.000000 0.000000 0.131806 0.000000 0.000000
# 5 0.000000 0.000000 0.000000 0.000000 0.025714 0.000000
# 6 0.000000 0.000000 0.000000 0.000000 0.000000 0.801137
#
#
# Mechanical properties :
#
#
# Convention : Reuss Voigt Hill
#
# Bulk Modulus (GPa) = 44.74658 83.31619 64.03139
# Shear Modulus (GPa) = 4.75133 28.10029 16.42581
#
# Velocity S-wave (km/s) = 1.52932 3.71916 2.84350
# Velocity P-wave (km/s) = 5.01444 7.71069 6.50382
#
# Compressibility (1/GPa) = 0.02234808
#
# Stress axis : x y z
#
# Youngs Moduli (GPa) = 38.63034 66.77143 74.48204
#
# Poissons Ratio (x) = 0.00177 1.15521
# Poissons Ratio (y) = 0.00103 0.03232
# Poissons Ratio (z) = 0.59915 0.02897
#
# Static dielectric constant tensor:
#      x y z
#    x 1.686330 0.000000 0.000000 
#    y 0.000000 1.867670 0.000000 
#    z 0.000000 0.000000 1.748500 
# 
# From -- ./inp_files/4719.got.cif
#   From: 2010.05.17/outbox.cif.g08.bks.cpg/sg47_3_cif.got.tgz:4719.got - 2010.06.03 20:15:42.
