data_PCOD9388691
_publ_section_title
;
Structure prediction by ZEFSAII (Michael W. Deem and Ramdas Pophale) SiO2 
 PCOD9388691
Probable space group: P M M M
;
_chemical_formula_sum "Si O2"
_cell_formula_units_Z 44
_cell_length_a 7.431684
_cell_length_b 31.676055
_cell_length_c 9.416790
_cell_angle_alpha 90.000000
_cell_angle_beta 90.000000
_cell_angle_gamma 90.000000
_cell_volume 2216.772927
_symmetry_space_group_name_H-M "P M M M"
_symmetry_group_IT_number 47
_symmetry_cell_setting 'orthorhombic'
loop_
_space_group_symop_operation_xyz
x,y,z
-x,-y,z
x,-y,-z
-x,y,-z
-x,-y,-z
x,y,-z
-x,y,z
x,-y,z
loop_
_atom_site_type_symbol
_atom_site_label
_atom_site_fract_x
_atom_site_fract_y
_atom_site_fract_z
Si Si1 0.000000 0.050272 0.831323
Si Si2 0.220413 0.628784 0.837160
Si Si3 0.786013 0.290538 0.661812
Si Si4 0.284630 0.801437 0.337922
Si Si5 0.714392 0.894443 0.671031
Si Si6 0.780844 0.547041 0.664323
O O1 0.171511 0.071430 0.755187
O O2 0.000000 0.000000 0.811058
O O3 0.000000 0.058886 0.000000
O O4 0.281956 0.670374 0.753219
O O5 0.279090 0.585970 0.759459
O O6 0.000000 0.628839 0.835347
O O7 0.276644 0.629745 0.000000
O O8 0.713130 0.291075 0.500000
O O9 0.757593 0.243981 0.727604
O O10 0.000000 0.296039 0.651240
O O11 0.214265 0.799021 0.500000
O O12 0.500000 0.804093 0.345179
O O13 0.227653 0.847020 0.280662
O O14 0.744848 0.896923 0.500000
O O15 0.500000 0.899257 0.693368
O O16 0.727852 0.552993 0.500000
O O17 0.724107 0.500000 0.710133
O O18 0.000000 0.547189 0.666471
#
# Coordination Sequence:
#
# PCOD9388691 Si02
#       6
#     4   8   8   8   8   8
#     4  11  25  41  57  83 119 159 197 231 276 337
#     4   9  16  24  33  49  78 112 145 185 230 276
#     4   9  16  25  41  64  88 119 154 186 230 289
#     4   8  15  29  50  76 101 125 160 208 257 303
#     4   9  19  37  62  89 115 145 186 240 292 334
#     4   8  13  21  33  48  68  99 140 184 229 280
#
# _framework density 19.848672000000001
#
# number of rings (size 3 to 8) (size 9 to 14) (size 15 to 20)
#    0.000    3.182    0.000    2.455    1.273    4.000 
#    0.000    4.545    0.000    1.636    0.000    0.000 
#    0.000    0.727    0.000    8.364    0.000   10.727 
#
# Total GULP energy -245283.662675 kJ/mol
# GULP energy per Si atom -5574.628697 kJ/mol
# Density = 1.980350 g / cm^3
# Si number density = 19.848672 Si / 1000 Ang^3
#
#
#
# Elastic Constant Matrix: (Units=GPa)
#
#
# Indices 1 2 3 4 5 6 
#
# 1 74.2452 39.0648 28.0039 0.0000 0.0000 0.0000
# 2 39.0648 214.6802 102.4373 0.0000 0.0000 0.0000
# 3 28.0039 102.4373 87.1055 0.0000 0.0000 0.0000
# 4 0.0000 0.0000 0.0000 -17.4924 0.0000 0.0000
# 5 0.0000 0.0000 0.0000 0.0000 0.5872 0.0000
# 6 0.0000 0.0000 0.0000 0.0000 0.0000 74.8295
#
#
#
# Elastic Compliance Matrix: (Units=1/GPa)
#
#
# Indices 1 2 3 4 5 6 
#
# 1 0.015422 -0.001004 -0.003778 0.000000 0.000000 0.000000
# 2 -0.001004 0.010680 -0.012237 0.000000 0.000000 0.000000
# 3 -0.003778 -0.012237 0.027085 0.000000 0.000000 0.000000
# 4 0.000000 0.000000 0.000000 -0.057168 0.000000 0.000000
# 5 0.000000 0.000000 0.000000 0.000000 1.702873 0.000000
# 6 0.000000 0.000000 0.000000 0.000000 0.000000 0.013364
#
#
# Mechanical properties :
#
#
# Convention : Reuss Voigt Hill
#
# Bulk Modulus (GPa) = 52.21739 79.44922 65.83330
# Shear Modulus (GPa) = 2.85278 25.35320 14.10299
#
# Velocity S-wave (km/s) = 1.20016 3.57785 2.66846
# Velocity P-wave (km/s) = 5.31840 7.56190 6.53711
#
# Compressibility (1/GPa) = 0.01915071
#
# Stress axis : x y z
#
# Youngs Moduli (GPa) = 64.84302 93.63616 36.92031
#
# Poissons Ratio (x) = 0.09399 0.13947
# Poissons Ratio (y) = 0.06508 0.45178
# Poissons Ratio (z) = 0.24495 1.14580
#
# Static dielectric constant tensor:
#      x y z
#    x 1.842220 0.000000 0.000000 
#    y 0.000000 1.711300 0.000000 
#    z 0.000000 0.000000 1.656770 
# 
# From -- ./inp_files/2039.got.cif
#   From: 2010.05.17/outbox.cif.g08.bks.cpg/sg47_2_cif.got.tgz:2039.got - 2010.06.03 20:15:42.
