data_PCOD9388363
_publ_section_title
;
Structure prediction by ZEFSAII (Michael W. Deem and Ramdas Pophale) SiO2 
 PCOD9388363
Probable space group: P M M M
;
_chemical_formula_sum "Si O2"
_cell_formula_units_Z 48
_cell_length_a 13.155376
_cell_length_b 13.155410
_cell_length_c 15.359809
_cell_angle_alpha 90.000000
_cell_angle_beta 90.000000
_cell_angle_gamma 90.000000
_cell_volume 2658.235591
_symmetry_space_group_name_H-M "P M M M"
_symmetry_group_IT_number 47
_symmetry_cell_setting 'orthorhombic'
loop_
_space_group_symop_operation_xyz
x,y,z
-x,-y,z
x,-y,-z
-x,y,-z
-x,-y,-z
x,y,-z
-x,y,z
x,-y,z
loop_
_atom_site_type_symbol
_atom_site_label
_atom_site_fract_x
_atom_site_fract_y
_atom_site_fract_z
Si Si1 0.614542 0.500000 0.894747
Si Si2 0.000000 0.885459 0.394747
Si Si3 0.806800 0.251616 0.399678
Si Si4 0.617138 0.116369 0.855412
Si Si5 0.248384 0.693201 0.100322
Si Si6 0.383632 0.117139 0.355413
Si Si7 0.119183 0.380817 0.750000
O O1 0.500000 0.500000 0.859873
O O2 0.674714 0.602400 0.871917
O O3 0.608719 0.500000 0.000000
O O4 0.897600 0.825286 0.371917
O O5 0.000000 0.891281 0.500000
O O6 0.000000 0.000000 0.359873
O O7 0.824041 0.281187 0.500000
O O8 0.700648 0.192651 0.391504
O O9 0.816603 0.344139 0.333019
O O10 0.500000 0.137587 0.881362
O O11 0.692651 0.200648 0.891504
O O12 0.620962 0.120963 0.750000
O O13 0.640877 0.000000 0.880878
O O14 0.155860 0.683397 0.166981
O O15 0.218813 0.675959 0.000000
O O16 0.500000 0.140878 0.380880
O O17 0.362413 0.000000 0.381362
O O18 0.134410 0.500000 0.767937
O O19 0.000000 0.365590 0.732062
#
# Coordination Sequence:
#
# PCOD9388363 Si02
#       7
#     4   4   8   8   8   8   8
#     4   9  18  32  53  85 116 141 179 235 289 331
#     4   9  18  32  53  85 116 141 179 235 289 331
#     4  11  21  36  59  86 115 148 190 237 285 341
#     4   9  18  33  55  85 121 159 195 230 274 335
#     4  11  21  36  59  86 115 148 190 237 285 341
#     4   9  18  33  55  85 121 159 195 230 274 335
#     4  11  24  42  62  83 108 142 188 241 300 354
#
# _framework density 18.057089999999999
#
# number of rings (size 3 to 8) (size 9 to 14) (size 15 to 20)
#    0.000    2.000    3.333    2.000    0.000    3.333 
#    0.000    3.333    0.000    0.000    0.000    2.333 
#    0.000    0.000    0.000    0.000    0.000    0.000 
#
# Total GULP energy -267844.347188 kJ/mol
# GULP energy per Si atom -5580.090566 kJ/mol
# Density = 1.801599 g / cm^3
# Si number density = 18.057090 Si / 1000 Ang^3
#
#
#
# Elastic Constant Matrix: (Units=GPa)
#
#
# Indices 1 2 3 4 5 6 
#
# 1 76.0162 33.4503 20.3410 0.0000 0.0000 0.0000
# 2 33.4503 76.0166 20.3415 0.0000 0.0000 0.0000
# 3 20.3410 20.3415 71.1022 0.0000 0.0000 0.0000
# 4 0.0000 0.0000 0.0000 11.4415 0.0000 0.0000
# 5 0.0000 0.0000 0.0000 0.0000 11.4407 0.0000
# 6 0.0000 0.0000 0.0000 0.0000 0.0000 30.7775
#
#
#
# Elastic Compliance Matrix: (Units=1/GPa)
#
#
# Indices 1 2 3 4 5 6 
#
# 1 0.016857 -0.006635 -0.002924 0.000000 0.000000 0.000000
# 2 -0.006635 0.016857 -0.002924 0.000000 0.000000 0.000000
# 3 -0.002924 -0.002924 0.015737 0.000000 0.000000 0.000000
# 4 0.000000 0.000000 0.000000 0.087401 0.000000 0.000000
# 5 0.000000 0.000000 0.000000 0.000000 0.087407 0.000000
# 6 0.000000 0.000000 0.000000 0.000000 0.000000 0.032491
#
#
# Mechanical properties :
#
#
# Convention : Reuss Voigt Hill
#
# Bulk Modulus (GPa) = 40.84290 41.26676 41.05483
# Shear Modulus (GPa) = 17.24840 20.66541 18.95690
#
# Velocity S-wave (km/s) = 3.09401 3.38664 3.24363
# Velocity P-wave (km/s) = 5.95245 6.18025 6.06742
#
# Compressibility (1/GPa) = 0.02448406
#
# Stress axis : x y z
#
# Youngs Moduli (GPa) = 59.32092 59.32099 63.54251
#
# Poissons Ratio (x) = 0.39362 0.18582
# Poissons Ratio (y) = 0.39362 0.18583
# Poissons Ratio (z) = 0.17347 0.17348
#
# Static dielectric constant tensor:
#      x y z
#    x 1.613580 0.000000 0.000000 
#    y 0.000000 1.613580 0.000000 
#    z 0.000000 0.000000 1.622540 
# 
# From -- ./inp_files/23584.got.cif
#   From: 2010.05.17/outbox.cif.g08.bks.cpg/sg47_12_cif.got.tgz:23584.got - 2010.06.03 20:15:42.
