data_PCOD9388027
_publ_section_title
;
Structure prediction by ZEFSAII (Michael W. Deem and Ramdas Pophale) SiO2 
 PCOD9388027
Probable space group: P M M M
;
_chemical_formula_sum "Si O2"
_cell_formula_units_Z 52
_cell_length_a 10.652047
_cell_length_b 7.744018
_cell_length_c 31.374741
_cell_angle_alpha 90.000000
_cell_angle_beta 90.000000
_cell_angle_gamma 90.000000
_cell_volume 2588.091206
_symmetry_space_group_name_H-M "P M M M"
_symmetry_group_IT_number 47
_symmetry_cell_setting 'orthorhombic'
loop_
_space_group_symop_operation_xyz
x,y,z
-x,-y,z
x,-y,-z
-x,y,-z
-x,-y,-z
x,y,-z
-x,y,z
x,-y,z
loop_
_atom_site_type_symbol
_atom_site_label
_atom_site_fract_x
_atom_site_fract_y
_atom_site_fract_z
Si Si1 0.222406 0.701687 0.547800
Si Si2 0.359037 0.295100 0.796062
Si Si3 0.500000 0.806085 0.448667
Si Si4 0.848412 0.705139 0.954266
Si Si5 0.145668 0.712161 0.860325
Si Si6 0.865115 0.708133 0.363679
Si Si7 0.360820 0.205319 0.301587
O O1 0.206040 0.776706 0.500000
O O2 0.189219 0.500000 0.544477
O O3 0.369230 0.715006 0.560780
O O4 0.150319 0.776996 0.588073
O O5 0.500000 0.224035 0.804362
O O6 0.364946 0.500000 0.804297
O O7 0.245540 0.228169 0.825178
O O8 0.333174 0.271632 0.745939
O O9 0.500000 0.818363 0.500000
O O10 0.500000 0.000000 0.430455
O O11 0.820025 0.500000 0.954692
O O12 0.811056 0.770806 0.907665
O O13 0.000000 0.720136 0.954318
O O14 0.803461 0.777287 0.000000
O O15 0.143887 0.500000 0.860658
O O16 0.000000 0.764372 0.852996
O O17 0.866451 0.500000 0.366529
O O18 0.747661 0.752206 0.334606
O O19 0.000000 0.765088 0.346032
O O20 0.500000 0.270588 0.314408
O O21 0.367482 0.000000 0.298717
#
# Coordination Sequence:
#
# PCOD9388027 Si02
#       7
#     8   8   4   8   8   8   8
#     4   9  18  33  53  77 105 135 166 200 239 283
#     4   9  17  30  48  69  93 121 153 193 244 296
#     4   9  17  29  47  73 103 133 167 205 239 273
#     4   7   9  14  26  47  78 115 152 188 225 268
#     4   8  13  21  36  60  87 117 155 194 231 277
#     4  10  22  38  56  80 107 135 166 200 243 294
#     4  10  22  39  57  76  98 128 167 208 250 297
#
# _framework density 20.092027000000002
#
# number of rings (size 3 to 8) (size 9 to 14) (size 15 to 20)
#    0.000    3.154    0.000    2.077    1.077    3.692 
#    0.000    3.077    0.000    0.462    0.000    6.462 
#    0.000    0.615    0.000    7.692    0.000    7.077 
#
# Total GULP energy -289580.469591 kJ/mol
# GULP energy per Si atom -5568.855184 kJ/mol
# Density = 2.004630 g / cm^3
# Si number density = 20.092027 Si / 1000 Ang^3
#
#
#
# Elastic Constant Matrix: (Units=GPa)
#
#
# Indices 1 2 3 4 5 6 
#
# 1 117.7506 1.7045 99.7275 0.0000 0.0000 0.0000
# 2 1.7045 28.4058 2.4263 0.0000 0.0000 0.0000
# 3 99.7275 2.4263 136.7163 0.0000 0.0000 0.0000
# 4 0.0000 0.0000 0.0000 -25.7684 0.0000 0.0000
# 5 0.0000 0.0000 0.0000 0.0000 45.2444 0.0000
# 6 0.0000 0.0000 0.0000 0.0000 0.0000 -20.7390
#
#
#
# Elastic Compliance Matrix: (Units=1/GPa)
#
#
# Indices 1 2 3 4 5 6 
#
# 1 0.022220 0.000051 -0.016209 0.000000 0.000000 0.000000
# 2 0.000051 0.035258 -0.000663 0.000000 0.000000 0.000000
# 3 -0.016209 -0.000663 0.019150 0.000000 0.000000 0.000000
# 4 0.000000 0.000000 0.000000 -0.038807 0.000000 0.000000
# 5 0.000000 0.000000 0.000000 0.000000 0.022102 0.000000
# 6 0.000000 0.000000 0.000000 0.000000 0.000000 -0.048218
#
#
# Mechanical properties :
#
#
# Convention : Reuss Voigt Hill
#
# Bulk Modulus (GPa) = 23.26369 54.50992 38.88681
# Shear Modulus (GPa) = 83.78682 11.68169 47.73425
#
# Velocity S-wave (km/s) = 6.46468 2.41386 4.87949
# Velocity P-wave (km/s) = 8.20527 5.91253 7.15138
#
# Compressibility (1/GPa) = 0.04298544
#
# Stress axis : x y z
#
# Youngs Moduli (GPa) = 45.00429 28.36262 52.21914
#
# Poissons Ratio (x) = -0.00145 0.84644
# Poissons Ratio (y) = -0.00230 0.03462
# Poissons Ratio (z) = 0.72949 0.01881
#
# Static dielectric constant tensor:
#      x y z
#    x 1.713390 0.000000 0.000000 
#    y 0.000000 1.740950 0.000000 
#    z 0.000000 0.000000 1.739650 
# 
# From -- ./inp_files/33585.got.cif
#   From: 2010.05.17/outbox.cif.g08.bks.cpg/sg47_17_cif.got.tgz:33585.got - 2010.06.03 20:15:42.
