data_PCOD9388773
_publ_section_title
;
Structure prediction by ZEFSAII (Michael W. Deem and Ramdas Pophale) SiO2 
 PCOD9388773
Probable space group: P M M M
;
_chemical_formula_sum "Si O2"
_cell_formula_units_Z 40
_cell_length_a 7.484035
_cell_length_b 9.814229
_cell_length_c 29.001511
_cell_angle_alpha 90.000000
_cell_angle_beta 90.000000
_cell_angle_gamma 90.000000
_cell_volume 2130.161950
_symmetry_space_group_name_H-M "P M M M"
_symmetry_group_IT_number 47
_symmetry_cell_setting 'orthorhombic'
loop_
_space_group_symop_operation_xyz
x,y,z
-x,-y,z
x,-y,-z
-x,y,-z
-x,-y,-z
x,y,-z
-x,y,z
x,-y,z
loop_
_atom_site_type_symbol
_atom_site_label
_atom_site_fract_x
_atom_site_fract_y
_atom_site_fract_z
Si Si1 0.287550 0.661587 0.872932
Si Si2 0.780747 0.342268 0.600599
Si Si3 0.286082 0.155427 0.212719
Si Si4 0.213413 0.154751 0.316157
Si Si5 0.000000 0.665215 0.052280
Si Si6 0.791571 0.665686 0.500000
O O1 0.500000 0.682029 0.879994
O O2 0.259314 0.500000 0.864876
O O3 0.226198 0.747277 0.828485
O O4 0.173162 0.702872 0.917530
O O5 0.728789 0.500000 0.606697
O O6 0.719370 0.250277 0.642961
O O7 0.718438 0.293006 0.549924
O O8 0.000000 0.340845 0.599583
O O9 0.500000 0.149117 0.209061
O O10 0.245922 0.206151 0.264289
O O11 0.216727 0.000000 0.208750
O O12 0.000000 0.147626 0.321815
O O13 0.284169 0.000000 0.318812
O O14 0.000000 0.500000 0.049696
O O15 0.000000 0.717391 0.000000
O O16 0.785790 0.500000 0.500000
O O17 0.000000 0.706023 0.500000
#
# Coordination Sequence:
#
# PCOD9388773 Si02
#       6
#     8   8   8   8   4   4
#     4   9  18  32  50  73  99 126 160 201 237 273
#     4   8  13  22  36  55  79 108 141 175 216 267
#     4   9  18  32  48  65  88 122 157 186 226 279
#     4   9  17  27  39  59  86 111 138 178 225 270
#     4   9  18  32  51  77 105 131 161 196 237 282
#     4   7  10  18  33  51  74 105 138 172 212 263
#
# _framework density 18.777916000000001
#
# number of rings (size 3 to 8) (size 9 to 14) (size 15 to 20)
#    0.000    3.400    0.000    1.200    1.400    1.200 
#    0.000    2.500    0.000    4.200    0.000    3.500 
#    0.000    5.600    0.000    0.000    0.000    0.000 
#
# Total GULP energy -222807.381729 kJ/mol
# GULP energy per Si atom -5570.184543 kJ/mol
# Density = 1.873518 g / cm^3
# Si number density = 18.777916 Si / 1000 Ang^3
#
#
#
# Elastic Constant Matrix: (Units=GPa)
#
#
# Indices 1 2 3 4 5 6 
#
# 1 59.3478 19.3552 36.9329 0.0000 0.0000 0.0000
# 2 19.3552 46.7655 82.6404 0.0000 0.0000 0.0000
# 3 36.9329 82.6404 233.7631 0.0000 0.0000 0.0000
# 4 0.0000 0.0000 0.0000 -20.8806 0.0000 0.0000
# 5 0.0000 0.0000 0.0000 0.0000 122.7169 0.0000
# 6 0.0000 0.0000 0.0000 0.0000 0.0000 2.0843
#
#
#
# Elastic Compliance Matrix: (Units=1/GPa)
#
#
# Indices 1 2 3 4 5 6 
#
# 1 0.019511 -0.007002 -0.000607 0.000000 0.000000 0.000000
# 2 -0.007002 0.059492 -0.019925 0.000000 0.000000 0.000000
# 3 -0.000607 -0.019925 0.011418 0.000000 0.000000 0.000000
# 4 0.000000 0.000000 0.000000 -0.047891 0.000000 0.000000
# 5 0.000000 0.000000 0.000000 0.000000 0.008149 0.000000
# 6 0.000000 0.000000 0.000000 0.000000 0.000000 0.479774
#
#
# Mechanical properties :
#
#
# Convention : Reuss Voigt Hill
#
# Bulk Modulus (GPa) = 28.28752 68.63703 48.46228
# Shear Modulus (GPa) = 8.37092 34.18065 21.27578
#
# Velocity S-wave (km/s) = 2.11365 4.27108 3.36969
# Velocity P-wave (km/s) = 4.58843 7.80731 6.40343
#
# Compressibility (1/GPa) = 0.03535128
#
# Stress axis : x y z
#
# Youngs Moduli (GPa) = 51.25209 16.80895 87.58228
#
# Poissons Ratio (x) = 0.11770 0.05317
# Poissons Ratio (y) = 0.35889 1.74511
# Poissons Ratio (z) = 0.03112 0.33493
#
# Static dielectric constant tensor:
#      x y z
#    x 1.725580 0.000000 0.000000 
#    y 0.000000 1.634470 0.000000 
#    z 0.000000 0.000000 1.650820 
# 
# From -- ./inp_files/33070.got.cif
#   From: 2010.05.17/outbox.cif.g08.bks.cpg/sg47_17_cif.got.tgz:33070.got - 2010.06.03 20:15:42.
