data_PCOD9388777
_publ_section_title
;
Structure prediction by ZEFSAII (Michael W. Deem and Ramdas Pophale) SiO2 
 PCOD9388777
Probable space group: P M M M
;
_chemical_formula_sum "Si O2"
_cell_formula_units_Z 40
_cell_length_a 27.084590
_cell_length_b 7.370778
_cell_length_c 9.530813
_cell_angle_alpha 90.000000
_cell_angle_beta 90.000000
_cell_angle_gamma 90.000000
_cell_volume 1902.679089
_symmetry_space_group_name_H-M "P M M M"
_symmetry_group_IT_number 47
_symmetry_cell_setting 'orthorhombic'
loop_
_space_group_symop_operation_xyz
x,y,z
-x,-y,z
x,-y,-z
-x,y,-z
-x,-y,-z
x,y,-z
-x,y,z
x,-y,z
loop_
_atom_site_type_symbol
_atom_site_label
_atom_site_fract_x
_atom_site_fract_y
_atom_site_fract_z
Si Si1 0.500000 0.285434 0.670027
Si Si2 0.299649 0.282852 0.159435
Si Si3 0.000000 0.221206 0.161988
Si Si4 0.392615 0.722090 0.662736
Si Si5 0.810978 0.215942 0.839639
Si Si6 0.095900 0.221776 0.338393
O O1 0.500000 0.500000 0.701600
O O2 0.500000 0.267903 0.500000
O O3 0.553490 0.215675 0.717104
O O4 0.304539 0.500000 0.153610
O O5 0.345449 0.215631 0.250227
O O6 0.244567 0.246428 0.214326
O O7 0.301617 0.212930 0.000000
O O8 0.048747 0.277370 0.246495
O O9 0.000000 0.000000 0.159924
O O10 0.000000 0.280247 0.000000
O O11 0.387822 0.774191 0.500000
O O12 0.393416 0.500000 0.665379
O O13 0.854071 0.283153 0.738516
O O14 0.817761 0.000000 0.849135
O O15 0.814222 0.287504 0.000000
O O16 0.092761 0.279993 0.500000
O O17 0.095962 0.000000 0.340063
#
# Coordination Sequence:
#
# PCOD9388777 Si02
#       6
#     4   8   4   8   8   8
#     4   7  10  18  33  53  76 101 128 158 194 237
#     4   9  17  28  41  59  83 107 132 166 204 237
#     4   9  15  23  37  57  82 111 138 163 198 246
#     4   8  13  22  37  56  78 104 132 161 196 240
#     4   9  17  29  43  58  79 109 140 165 194 238
#     4   9  16  25  38  58  83 107 133 169 207 237
#
# _framework density 21.022987000000001
#
# number of rings (size 3 to 8) (size 9 to 14) (size 15 to 20)
#    0.000    3.400    0.000    2.100    0.000    4.400 
#    0.000    0.500    0.000    3.000    0.000    1.400 
#    0.000   11.200    0.000    0.000    0.000    0.000 
#
# Total GULP energy -223082.317198 kJ/mol
# GULP energy per Si atom -5577.057930 kJ/mol
# Density = 2.097514 g / cm^3
# Si number density = 21.022987 Si / 1000 Ang^3
#
#
#
# Elastic Constant Matrix: (Units=GPa)
#
#
# Indices 1 2 3 4 5 6 
#
# 1 269.2636 2.8738 130.1015 0.0000 0.0000 0.0000
# 2 2.8738 73.6475 4.1093 0.0000 0.0000 0.0000
# 3 130.1015 4.1093 119.8164 0.0000 0.0000 0.0000
# 4 0.0000 0.0000 0.0000 -6.6562 0.0000 0.0000
# 5 0.0000 0.0000 0.0000 0.0000 44.6056 0.0000
# 6 0.0000 0.0000 0.0000 0.0000 0.0000 11.7813
#
#
#
# Elastic Compliance Matrix: (Units=1/GPa)
#
#
# Indices 1 2 3 4 5 6 
#
# 1 0.007815 0.000169 -0.008492 0.000000 0.000000 0.000000
# 2 0.000169 0.013608 -0.000650 0.000000 0.000000 0.000000
# 3 -0.008492 -0.000650 0.017589 0.000000 0.000000 0.000000
# 4 0.000000 0.000000 0.000000 -0.150235 0.000000 0.000000
# 5 0.000000 0.000000 0.000000 0.000000 0.022419 0.000000
# 6 0.000000 0.000000 0.000000 0.000000 0.000000 0.084880
#
#
# Mechanical properties :
#
#
# Convention : Reuss Voigt Hill
#
# Bulk Modulus (GPa) = 47.46950 81.87741 64.67346
# Shear Modulus (GPa) = 237.60713 31.65568 134.63140
#
# Velocity S-wave (km/s) = 10.64274 3.88463 8.01119
# Velocity P-wave (km/s) = 13.17773 7.69101 10.78898
#
# Compressibility (1/GPa) = 0.02106616
#
# Stress axis : x y z
#
# Youngs Moduli (GPa) = 127.95998 73.48690 56.85410
#
# Poissons Ratio (x) = -0.01241 0.48278
# Poissons Ratio (y) = -0.02161 0.03696
# Poissons Ratio (z) = 1.08658 0.04777
#
# Static dielectric constant tensor:
#      x y z
#    x 1.750360 0.000000 0.000000 
#    y 0.000000 1.851960 0.000000 
#    z 0.000000 0.000000 1.713440 
# 
# From -- ./inp_files/13156.got.cif
#   From: 2010.05.17/outbox.cif.g08.bks.cpg/sg47_7_cif.got.tgz:13156.got - 2010.06.03 20:15:42.
