data_PCOD9388571
_publ_section_title
;
Structure prediction by ZEFSAII (Michael W. Deem and Ramdas Pophale) SiO2 
 PCOD9388571
Probable space group: P M M M
;
_chemical_formula_sum "Si O2"
_cell_formula_units_Z 32
_cell_length_a 12.464015
_cell_length_b 8.510431
_cell_length_c 15.756695
_cell_angle_alpha 90.000000
_cell_angle_beta 90.000000
_cell_angle_gamma 90.000000
_cell_volume 1671.377866
_symmetry_space_group_name_H-M "P M M M"
_symmetry_group_IT_number 47
_symmetry_cell_setting 'orthorhombic'
loop_
_space_group_symop_operation_xyz
x,y,z
-x,-y,z
x,-y,-z
-x,y,-z
-x,-y,-z
x,y,-z
-x,y,z
x,-y,z
loop_
_atom_site_type_symbol
_atom_site_label
_atom_site_fract_x
_atom_site_fract_y
_atom_site_fract_z
Si Si1 0.500000 0.321026 0.101107
Si Si2 0.375420 0.811564 0.500000
Si Si3 0.273983 0.812604 0.842839
Si Si4 0.000000 0.690943 0.598165
Si Si5 0.767509 0.311758 0.655613
Si Si6 0.875510 0.808362 0.000000
O O1 0.500000 0.500000 0.135214
O O2 0.393044 0.232121 0.128133
O O3 0.500000 0.329378 0.000000
O O4 0.500000 0.758147 0.500000
O O5 0.312498 0.754039 0.583893
O O6 0.375060 0.000000 0.500000
O O7 0.258645 0.736943 0.751023
O O8 0.189631 0.758377 0.915527
O O9 0.263319 0.000000 0.835519
O O10 0.888846 0.745667 0.638002
O O11 0.000000 0.500000 0.602952
O O12 0.000000 0.734982 0.500000
O O13 0.765360 0.500000 0.647659
O O14 0.000000 0.757837 0.000000
O O15 0.874822 0.000000 0.000000
#
# Coordination Sequence:
#
# PCOD9388571 Si02
#       6
#     4   4   8   4   8   4
#     4  11  23  41  65  90 121 158 207 261 309 368
#     4  11  25  44  63  88 124 163 206 257 309 368
#     4  11  23  40  64  92 125 163 207 256 308 365
#     4   9  18  38  64  89 120 159 201 251 307 365
#     4  11  23  41  65  92 125 163 205 252 308 369
#     4   9  20  39  61  88 126 167 204 249 308 369
#
# _framework density 19.145879999999998
#
# number of rings (size 3 to 8) (size 9 to 14) (size 15 to 20)
#    0.000    1.500    2.500    2.250    3.500    1.500 
#    0.000    2.500    0.000    3.000    0.000    0.000 
#    0.000    0.000    0.000    0.000    0.000    0.000 
#
# Total GULP energy -178740.919642 kJ/mol
# GULP energy per Si atom -5585.653739 kJ/mol
# Density = 1.910230 g / cm^3
# Si number density = 19.145880 Si / 1000 Ang^3
#
#
#
# Elastic Constant Matrix: (Units=GPa)
#
#
# Indices 1 2 3 4 5 6 
#
# 1 200.6650 25.2218 101.1998 0.0000 0.0000 0.0000
# 2 25.2218 38.0433 19.2662 0.0000 0.0000 0.0000
# 3 101.1998 19.2662 162.9956 0.0000 0.0000 0.0000
# 4 0.0000 0.0000 0.0000 9.4417 0.0000 0.0000
# 5 0.0000 0.0000 0.0000 0.0000 -13.0374 0.0000
# 6 0.0000 0.0000 0.0000 0.0000 0.0000 4.2465
#
#
#
# Elastic Compliance Matrix: (Units=1/GPa)
#
#
# Indices 1 2 3 4 5 6 
#
# 1 0.007524 -0.002789 -0.004341 0.000000 0.000000 0.000000
# 2 -0.002789 0.028994 -0.001695 0.000000 0.000000 0.000000
# 3 -0.004341 -0.001695 0.009031 0.000000 0.000000 0.000000
# 4 0.000000 0.000000 0.000000 0.105913 0.000000 0.000000
# 5 0.000000 0.000000 0.000000 0.000000 -0.076703 0.000000
# 6 0.000000 0.000000 0.000000 0.000000 0.000000 0.235489
#
#
# Mechanical properties :
#
#
# Convention : Reuss Voigt Hill
#
# Bulk Modulus (GPa) = 35.84728 77.00883 56.42806
# Shear Modulus (GPa) = 14.82806 17.19790 16.01298
#
# Velocity S-wave (km/s) = 2.78596 3.00034 2.89514
# Velocity P-wave (km/s) = 5.39562 7.23272 6.38063
#
# Compressibility (1/GPa) = 0.02789612
#
# Stress axis : x y z
#
# Youngs Moduli (GPa) = 132.91663 34.49036 110.72937
#
# Poissons Ratio (x) = 0.09620 0.48073
# Poissons Ratio (y) = 0.37074 0.18772
# Poissons Ratio (z) = 0.57705 0.05847
#
# Static dielectric constant tensor:
#      x y z
#    x 1.658980 0.000000 0.000000 
#    y 0.000000 1.668390 0.000000 
#    z 0.000000 0.000000 1.674700 
# 
# From -- ./inp_files/22376.got.cif
#   From: 2010.05.17/outbox.cif.g08.bks.cpg/sg47_12_cif.got.tgz:22376.got - 2010.06.03 20:15:42.
