data_PCOD9388624
_publ_section_title
;
Structure prediction by ZEFSAII (Michael W. Deem and Ramdas Pophale) SiO2 
 PCOD9388624
Probable space group: P M M M
;
_chemical_formula_sum "Si O2"
_cell_formula_units_Z 64
_cell_length_a 15.255160
_cell_length_b 24.953085
_cell_length_c 7.585235
_cell_angle_alpha 90.000000
_cell_angle_beta 90.000000
_cell_angle_gamma 90.000000
_cell_volume 2887.420618
_symmetry_space_group_name_H-M "P M M M"
_symmetry_group_IT_number 47
_symmetry_cell_setting 'orthorhombic'
loop_
_space_group_symop_operation_xyz
x,y,z
-x,-y,z
x,-y,-z
-x,y,-z
-x,-y,-z
x,y,-z
-x,y,z
x,-y,z
loop_
_atom_site_type_symbol
_atom_site_label
_atom_site_fract_x
_atom_site_fract_y
_atom_site_fract_z
Si Si1 0.720701 0.442059 0.794541
Si Si2 0.789076 0.059759 0.700424
Si Si3 0.400480 0.222601 0.284848
Si Si4 0.593597 0.064411 0.203647
Si Si5 0.900761 0.607816 0.286873
Si Si6 0.100441 0.729474 0.285380
Si Si7 0.402443 0.656438 0.709126
Si Si8 0.778328 0.172876 0.716871
O O1 0.697602 0.500000 0.713677
O O2 0.823711 0.430943 0.770748
O O3 0.666681 0.390599 0.733028
O O4 0.701814 0.445102 0.000000
O O5 0.821950 0.056741 0.500000
O O6 0.684252 0.071059 0.695903
O O7 0.818845 0.116313 0.780413
O O8 0.802141 0.000000 0.779907
O O9 0.400536 0.220945 0.500000
O O10 0.500000 0.210660 0.227302
O O11 0.379056 0.283754 0.227089
O O12 0.322044 0.184124 0.227328
O O13 0.500000 0.084973 0.275605
O O14 0.586184 0.000000 0.198723
O O15 0.602482 0.081800 0.000000
O O16 0.901413 0.607803 0.500000
O O17 0.878849 0.668741 0.228636
O O18 0.000000 0.594963 0.228824
O O19 0.103901 0.728763 0.500000
O O20 0.165227 0.775908 0.226796
O O21 0.000000 0.740670 0.235327
O O22 0.409762 0.663098 0.500000
O O23 0.500000 0.642447 0.777484
O O24 0.779845 0.171328 0.500000
#
# Coordination Sequence:
#
# PCOD9388624 Si02
#       8
#     8   8   8   8   8   8   8   8
#     4  11  24  37  49  71 105 142 172 195 227 282
#     4   9  17  26  36  56  86 117 149 183 218 260
#     4   8  14  25  43  68  92 113 145 191 241 288
#     4   8  14  25  39  52  69 100 142 182 217 254
#     4   9  18  34  57  81 100 120 154 204 253 291
#     4   8  14  26  47  74  95 111 143 193 243 286
#     4   9  18  34  56  77  95 121 164 218 263 290
#     4   9  15  23  39  62  90 122 148 180 230 280
#
# _framework density 22.165113000000002
#
# number of rings (size 3 to 8) (size 9 to 14) (size 15 to 20)
#    0.000    3.125    0.000    3.000    0.000    4.750 
#    0.000    5.000    0.000    3.375    0.000    2.625 
#    0.000    0.000    0.000    3.125    0.000    3.250 
#
# Total GULP energy -356710.309016 kJ/mol
# GULP energy per Si atom -5573.598578 kJ/mol
# Density = 2.211466 g / cm^3
# Si number density = 22.165113 Si / 1000 Ang^3
#
#
#
# Elastic Constant Matrix: (Units=GPa)
#
#
# Indices 1 2 3 4 5 6 
#
# 1 39.9810 43.2205 -5.6651 0.0000 0.0000 0.0000
# 2 43.2205 139.4965 0.1924 0.0000 0.0000 0.0000
# 3 -5.6651 0.1924 46.7332 0.0000 0.0000 0.0000
# 4 0.0000 0.0000 0.0000 19.2258 0.0000 0.0000
# 5 0.0000 0.0000 0.0000 0.0000 -69.0578 0.0000
# 6 0.0000 0.0000 0.0000 0.0000 0.0000 3.5878
#
#
#
# Elastic Compliance Matrix: (Units=1/GPa)
#
#
# Indices 1 2 3 4 5 6 
#
# 1 0.038627 -0.011974 0.004732 0.000000 0.000000 0.000000
# 2 -0.011974 0.010881 -0.001496 0.000000 0.000000 0.000000
# 3 0.004732 -0.001496 0.021978 0.000000 0.000000 0.000000
# 4 0.000000 0.000000 0.000000 0.052013 0.000000 0.000000
# 5 0.000000 0.000000 0.000000 0.000000 -0.014481 0.000000
# 6 0.000000 0.000000 0.000000 0.000000 0.000000 0.278725
#
#
# Mechanical properties :
#
#
# Convention : Reuss Voigt Hill
#
# Bulk Modulus (GPa) = 18.51595 33.52293 26.01944
# Shear Modulus (GPa) = 11.81409 3.31535 7.56472
#
# Velocity S-wave (km/s) = 2.31119 1.22434 1.84941
# Velocity P-wave (km/s) = 3.93623 4.14194 4.04040
#
# Compressibility (1/GPa) = 0.05400750
#
# Stress axis : x y z
#
# Youngs Moduli (GPa) = 25.88860 91.90534 45.50045
#
# Poissons Ratio (x) = 1.10051 -0.21530
# Poissons Ratio (y) = 0.31000 0.06808
# Poissons Ratio (z) = -0.12250 0.13752
#
# Static dielectric constant tensor:
#      x y z
#    x 1.818760 0.000000 0.000000 
#    y 0.000000 1.897130 0.000000 
#    z 0.000000 0.000000 1.847150 
# 
# From -- ./inp_files/7773.got.cif
#   From: 2010.05.17/outbox.cif.g08.bks.cpg/sg47_4_cif.got.tgz:7773.got - 2010.06.03 20:15:42.
