data_PCOD9388973
_publ_section_title
;
Structure prediction by ZEFSAII (Michael W. Deem and Ramdas Pophale) SiO2 
 PCOD9388973
Probable space group: P M M M
;
_chemical_formula_sum "Si O2"
_cell_formula_units_Z 64
_cell_length_a 7.356053
_cell_length_b 20.988995
_cell_length_c 20.753152
_cell_angle_alpha 90.000000
_cell_angle_beta 90.000000
_cell_angle_gamma 90.000000
_cell_volume 3204.206969
_symmetry_space_group_name_H-M "P M M M"
_symmetry_group_IT_number 47
_symmetry_cell_setting 'orthorhombic'
loop_
_space_group_symop_operation_xyz
x,y,z
-x,-y,z
x,-y,-z
-x,y,-z
-x,-y,-z
x,y,-z
-x,y,z
x,-y,z
loop_
_atom_site_type_symbol
_atom_site_label
_atom_site_fract_x
_atom_site_fract_y
_atom_site_fract_z
Si Si1 0.284646 0.748547 0.789494
Si Si2 0.278721 0.706254 0.429137
Si Si3 0.720259 0.393993 0.240379
Si Si4 0.721771 0.183085 0.332181
Si Si5 0.278491 0.073321 0.427139
Si Si6 0.789634 0.431745 0.901320
Si Si7 0.721604 0.430904 0.616715
Si Si8 0.218115 0.290134 0.930162
O O1 0.500000 0.746093 0.779524
O O2 0.216279 0.679203 0.766392
O O3 0.218045 0.803365 0.741176
O O4 0.259027 0.750205 0.866272
O O5 0.224006 0.728476 0.500000
O O6 0.500000 0.705524 0.427424
O O7 0.223839 0.754956 0.373778
O O8 0.218626 0.633716 0.417723
O O9 0.500000 0.394701 0.238998
O O10 0.783596 0.428841 0.176251
O O11 0.774026 0.423436 0.308292
O O12 0.500000 0.179969 0.332637
O O13 0.783657 0.121265 0.371577
O O14 0.224068 0.092567 0.500000
O O15 0.500000 0.074304 0.426980
O O16 0.223576 0.000000 0.416932
O O17 0.710306 0.500000 0.921821
O O18 0.712059 0.363165 0.922096
O O19 0.000000 0.431812 0.921954
O O20 0.500000 0.430585 0.614065
O O21 0.780805 0.500000 0.591900
O O22 0.000000 0.294497 0.931017
O O23 0.278512 0.265547 0.000000
#
# Coordination Sequence:
#
# PCOD9388973 Si02
#       8
#     8   8   8   8   8   8   8   8
#     4   9  16  26  42  60  79 103 134 169 202 240
#     4   9  15  21  29  43  66  97 130 162 199 241
#     4   9  15  25  38  52  71  97 127 160 202 248
#     4   9  14  22  35  52  76 106 138 170 202 236
#     4   8  13  20  31  51  82 119 151 173 198 237
#     4   9  17  27  39  56  75  94 122 160 200 246
#     4   9  15  21  29  42  62  89 123 163 203 239
#     4   9  18  31  44  58  79 105 130 162 207 253
#
# _framework density 19.973741
#
# number of rings (size 3 to 8) (size 9 to 14) (size 15 to 20)
#    0.000    3.125    1.250    1.125    0.000    3.000 
#    0.000    2.500    0.000    0.000    0.000    3.500 
#    0.000    4.500    0.000   10.250    0.000    4.750 
#
# Total GULP energy -356935.973104 kJ/mol
# GULP energy per Si atom -5577.124580 kJ/mol
# Density = 1.992828 g / cm^3
# Si number density = 19.973741 Si / 1000 Ang^3
#
#
#
# Elastic Constant Matrix: (Units=GPa)
#
#
# Indices 1 2 3 4 5 6 
#
# 1 71.6709 2.9413 -0.7757 0.0000 0.0000 0.0000
# 2 2.9413 98.2513 68.5240 0.0000 0.0000 0.0000
# 3 -0.7757 68.5240 145.5730 0.0000 0.0000 0.0000
# 4 0.0000 0.0000 0.0000 57.0066 0.0000 0.0000
# 5 0.0000 0.0000 0.0000 0.0000 12.2836 0.0000
# 6 0.0000 0.0000 0.0000 0.0000 0.0000 -3.6160
#
#
#
# Elastic Compliance Matrix: (Units=1/GPa)
#
#
# Indices 1 2 3 4 5 6 
#
# 1 0.013986 -0.000701 0.000404 0.000000 0.000000 0.000000
# 2 -0.000701 0.015188 -0.007153 0.000000 0.000000 0.000000
# 3 0.000404 -0.007153 0.010239 0.000000 0.000000 0.000000
# 4 0.000000 0.000000 0.000000 0.017542 0.000000 0.000000
# 5 0.000000 0.000000 0.000000 0.000000 0.081409 0.000000
# 6 0.000000 0.000000 0.000000 0.000000 0.000000 -0.276552
#
#
# Mechanical properties :
#
#
# Convention : Reuss Voigt Hill
#
# Bulk Modulus (GPa) = 40.79369 50.76381 45.77875
# Shear Modulus (GPa) = -43.43325 29.45524 -6.98901
#
# Velocity S-wave (km/s) = -4.66823 3.84435 -1.87262
# Velocity P-wave (km/s) = 2.93062 6.72129 4.27711
#
# Compressibility (1/GPa) = 0.02451360
#
# Stress axis : x y z
#
# Youngs Moduli (GPa) = 71.50114 65.84318 97.67027
#
# Poissons Ratio (x) = 0.04614 -0.03949
# Poissons Ratio (y) = 0.05010 0.69862
# Poissons Ratio (z) = -0.02891 0.47096
#
# Static dielectric constant tensor:
#      x y z
#    x 1.794030 0.000000 0.000000 
#    y 0.000000 1.685010 0.000000 
#    z 0.000000 0.000000 1.724190 
# 
# From -- ./inp_files/30166.got.cif
#   From: 2010.05.17/outbox.cif.g08.bks.cpg/sg47_16_cif.got.tgz:30166.got - 2010.06.03 20:15:42.
