data_PCOD9388121
_publ_section_title
;
Structure prediction by ZEFSAII (Michael W. Deem and Ramdas Pophale) SiO2 
 PCOD9388121
Probable space group: P M M M
;
_chemical_formula_sum "Si O2"
_cell_formula_units_Z 56
_cell_length_a 16.127219
_cell_length_b 19.524516
_cell_length_c 9.037454
_cell_angle_alpha 90.000000
_cell_angle_beta 90.000000
_cell_angle_gamma 90.000000
_cell_volume 2845.678680
_symmetry_space_group_name_H-M "P M M M"
_symmetry_group_IT_number 47
_symmetry_cell_setting 'orthorhombic'
loop_
_space_group_symop_operation_xyz
x,y,z
-x,-y,z
x,-y,-z
-x,y,-z
-x,-y,-z
x,y,-z
-x,y,z
x,-y,z
loop_
_atom_site_type_symbol
_atom_site_label
_atom_site_fract_x
_atom_site_fract_y
_atom_site_fract_z
Si Si1 0.907681 0.352904 0.175826
Si Si2 0.399957 0.922564 0.172306
Si Si3 0.342773 0.212922 0.674638
Si Si4 0.252699 0.418114 0.327010
Si Si5 0.592299 0.656105 0.823369
Si Si6 0.829767 0.790220 0.173362
Si Si7 0.100023 0.922500 0.327303
O O1 0.832159 0.389588 0.257350
O O2 0.895150 0.271098 0.193639
O O3 0.000000 0.372850 0.226230
O O4 0.901303 0.367090 0.000000
O O5 0.500000 0.919895 0.180886
O O6 0.363113 0.863823 0.273678
O O7 0.374265 0.000000 0.212178
O O8 0.377328 0.910594 0.000000
O O9 0.351193 0.220237 0.500000
O O10 0.400040 0.267432 0.758435
O O11 0.249985 0.228110 0.729429
O O12 0.256333 0.399388 0.500000
O O13 0.253891 0.500000 0.313459
O O14 0.332844 0.386744 0.246368
O O15 0.500000 0.628838 0.789387
O O16 0.602096 0.658503 0.000000
O O17 0.863072 0.863233 0.226684
O O18 0.807017 0.792081 0.000000
O O19 0.122854 0.911068 0.500000
O O20 0.000000 0.920049 0.319065
O O21 0.125751 0.000000 0.286499
#
# Coordination Sequence:
#
# PCOD9388121 Si02
#       7
#     8   8   8   8   8   8   8
#     4  10  22  41  66  95 127 167 214 261 311 369
#     4   9  19  37  59  82 112 154 204 256 310 369
#     4  12  24  37  58  88 122 160 204 256 315 372
#     4  11  25  44  67  98 134 169 207 253 307 370
#     4  11  24  43  68  96 127 167 213 258 309 371
#     4  11  22  37  59  86 118 158 207 259 310 366
#     4   9  19  36  56  80 114 156 202 254 313 374
#
# _framework density 19.678963
#
# number of rings (size 3 to 8) (size 9 to 14) (size 15 to 20)
#    0.000    1.571    1.429    4.286    0.000    7.714 
#    0.000    4.286    0.000    0.000    0.000    0.000 
#    0.000    0.000    0.000    0.000    0.000    0.000 
#
# Total GULP energy -313006.525400 kJ/mol
# GULP energy per Si atom -5589.402239 kJ/mol
# Density = 1.963417 g / cm^3
# Si number density = 19.678963 Si / 1000 Ang^3
#
#
#
# Elastic Constant Matrix: (Units=GPa)
#
#
# Indices 1 2 3 4 5 6 
#
# 1 132.1053 47.1767 67.6033 0.0000 0.0000 0.0000
# 2 47.1767 76.2939 53.3514 0.0000 0.0000 0.0000
# 3 67.6033 53.3514 95.7406 0.0000 0.0000 0.0000
# 4 0.0000 0.0000 0.0000 34.9142 0.0000 0.0000
# 5 0.0000 0.0000 0.0000 0.0000 4.0078 0.0000
# 6 0.0000 0.0000 0.0000 0.0000 0.0000 10.1251
#
#
#
# Elastic Compliance Matrix: (Units=1/GPa)
#
#
# Indices 1 2 3 4 5 6 
#
# 1 0.012132 -0.002476 -0.007186 0.000000 0.000000 0.000000
# 2 -0.002476 0.021981 -0.010501 0.000000 0.000000 0.000000
# 3 -0.007186 -0.010501 0.021371 0.000000 0.000000 0.000000
# 4 0.000000 0.000000 0.000000 0.028642 0.000000 0.000000
# 5 0.000000 0.000000 0.000000 0.000000 0.249516 0.000000
# 6 0.000000 0.000000 0.000000 0.000000 0.000000 0.098765
#
#
# Mechanical properties :
#
#
# Convention : Reuss Voigt Hill
#
# Bulk Modulus (GPa) = 65.97513 71.15585 68.56549
# Shear Modulus (GPa) = 10.46497 18.87664 14.67080
#
# Velocity S-wave (km/s) = 2.30855 3.10050 2.73336
# Velocity P-wave (km/s) = 6.38000 7.00388 6.69920
#
# Compressibility (1/GPa) = 0.01515723
#
# Stress axis : x y z
#
# Youngs Moduli (GPa) = 82.42987 45.49311 46.79328
#
# Poissons Ratio (x) = 0.11266 0.33627
# Poissons Ratio (y) = 0.20412 0.49135
# Poissons Ratio (z) = 0.59236 0.47770
#
# Static dielectric constant tensor:
#      x y z
#    x 1.695720 0.000000 0.000000 
#    y 0.000000 1.687550 0.000000 
#    z 0.000000 0.000000 1.657670 
# 
# From -- ./inp_files/7190.got.cif
#   From: 2010.05.17/outbox.cif.g08.bks.cpg/sg47_4_cif.got.tgz:7190.got - 2010.06.03 20:15:42.
