data_PCOD9388231
_publ_section_title
;
Structure prediction by ZEFSAII (Michael W. Deem and Ramdas Pophale) SiO2 
 PCOD9388231
Probable space group: P M M M
;
_chemical_formula_sum "Si O2"
_cell_formula_units_Z 52
_cell_length_a 9.013214
_cell_length_b 13.971438
_cell_length_c 27.605285
_cell_angle_alpha 90.000000
_cell_angle_beta 90.000000
_cell_angle_gamma 90.000000
_cell_volume 3476.266199
_symmetry_space_group_name_H-M "P M M M"
_symmetry_group_IT_number 47
_symmetry_cell_setting 'orthorhombic'
loop_
_space_group_symop_operation_xyz
x,y,z
-x,-y,z
x,-y,-z
-x,y,-z
-x,-y,-z
x,y,-z
-x,y,z
x,-y,z
loop_
_atom_site_type_symbol
_atom_site_label
_atom_site_fract_x
_atom_site_fract_y
_atom_site_fract_z
Si Si1 0.321817 0.390956 0.610006
Si Si2 0.679509 0.202842 0.446390
Si Si3 0.320883 0.613600 0.794162
Si Si4 0.822694 0.708811 0.701514
Si Si5 0.328126 0.383714 0.902094
Si Si6 0.828754 0.383538 0.000000
Si Si7 0.679013 0.110054 0.653886
O O1 0.500000 0.384062 0.618303
O O2 0.287765 0.500000 0.596417
O O3 0.283683 0.311303 0.569880
O O4 0.239989 0.360406 0.659161
O O5 0.736745 0.179876 0.500000
O O6 0.500000 0.197101 0.448472
O O7 0.723856 0.135764 0.401545
O O8 0.500000 0.624290 0.790939
O O9 0.289731 0.500000 0.788524
O O10 0.241160 0.671748 0.752229
O O11 0.273914 0.644235 0.848534
O O12 0.758917 0.813212 0.687845
O O13 0.000000 0.708633 0.701297
O O14 0.500000 0.356413 0.906171
O O15 0.322846 0.500000 0.902053
O O16 0.244539 0.349922 0.949962
O O17 0.816037 0.500000 0.000000
O O18 0.000000 0.358734 0.000000
O O19 0.500000 0.123654 0.657200
O O20 0.712514 0.000000 0.664814
#
# Coordination Sequence:
#
# PCOD9388231 Si02
#       7
#     8   8   8   8   8   4   8
#     4   9  17  29  44  61  84 115 146 172 200 240
#     4   8  14  25  43  69  93 106 126 167 212 248
#     4   9  17  29  44  61  83 113 148 183 216 250
#     4  11  21  30  43  63  86 110 137 173 214 255
#     4   8  14  24  37  52  72 104 145 182 213 246
#     4   9  15  21  31  49  75 107 142 181 218 247
#     4   9  18  33  51  67  83 106 135 166 205 255
#
# _framework density 14.958577
#
# number of rings (size 3 to 8) (size 9 to 14) (size 15 to 20)
#    0.000    3.000    0.000    3.923    0.000    4.923 
#    0.000    4.615    0.000    7.385    0.000    8.615 
#    0.000    0.000    0.000    0.692    0.000   13.462 
#
# Total GULP energy -289540.054370 kJ/mol
# GULP energy per Si atom -5568.077969 kJ/mol
# Density = 1.492453 g / cm^3
# Si number density = 14.958577 Si / 1000 Ang^3
#
#
#
# Elastic Constant Matrix: (Units=GPa)
#
#
# Indices 1 2 3 4 5 6 
#
# 1 35.6230 20.2642 41.9270 0.0000 0.0000 0.0000
# 2 20.2642 54.4496 23.6568 0.0000 0.0000 0.0000
# 3 41.9270 23.6568 123.9524 0.0000 0.0000 0.0000
# 4 0.0000 0.0000 0.0000 10.4996 0.0000 0.0000
# 5 0.0000 0.0000 0.0000 0.0000 -6.2858 0.0000
# 6 0.0000 0.0000 0.0000 0.0000 0.0000 9.1571
#
#
#
# Elastic Compliance Matrix: (Units=1/GPa)
#
#
# Indices 1 2 3 4 5 6 
#
# 1 0.054260 -0.013324 -0.015810 0.000000 0.000000 0.000000
# 2 -0.013324 0.023298 0.000060 0.000000 0.000000 0.000000
# 3 -0.015810 0.000060 0.013404 0.000000 0.000000 0.000000
# 4 0.000000 0.000000 0.000000 0.095242 0.000000 0.000000
# 5 0.000000 0.000000 0.000000 0.000000 -0.159090 0.000000
# 6 0.000000 0.000000 0.000000 0.000000 0.000000 0.109205
#
#
# Mechanical properties :
#
#
# Convention : Reuss Voigt Hill
#
# Bulk Modulus (GPa) = 30.47556 42.85789 36.66673
# Shear Modulus (GPa) = 24.34220 11.21932 17.78076
#
# Velocity S-wave (km/s) = 4.03837 2.74163 3.45144
# Velocity P-wave (km/s) = 6.49323 6.22377 6.35993
#
# Compressibility (1/GPa) = 0.03281318
#
# Stress axis : x y z
#
# Youngs Moduli (GPa) = 18.42993 42.92169 74.60499
#
# Poissons Ratio (x) = 0.57190 1.17953
# Poissons Ratio (y) = 0.24557 -0.00451
# Poissons Ratio (z) = 0.29138 -0.00259
#
# Static dielectric constant tensor:
#      x y z
#    x 1.495070 0.000000 0.000000 
#    y 0.000000 1.478450 0.000000 
#    z 0.000000 0.000000 1.507390 
# 
# From -- ./inp_files/33401.got.cif
#   From: 2010.05.17/outbox.cif.g08.bks.cpg/sg47_17_cif.got.tgz:33401.got - 2010.06.03 20:15:42.
