data_PCOD9388486
_publ_section_title
;
Structure prediction by ZEFSAII (Michael W. Deem and Ramdas Pophale) SiO2 
 PCOD9388486
Probable space group: P M M M
;
_chemical_formula_sum "Si O2"
_cell_formula_units_Z 44
_cell_length_a 9.088271
_cell_length_b 17.034864
_cell_length_c 15.059241
_cell_angle_alpha 90.000000
_cell_angle_beta 90.000000
_cell_angle_gamma 90.000000
_cell_volume 2331.433448
_symmetry_space_group_name_H-M "P M M M"
_symmetry_group_IT_number 47
_symmetry_cell_setting 'orthorhombic'
loop_
_space_group_symop_operation_xyz
x,y,z
-x,-y,z
x,-y,-z
-x,y,-z
-x,-y,-z
x,y,-z
-x,y,z
x,-y,z
loop_
_atom_site_type_symbol
_atom_site_label
_atom_site_fract_x
_atom_site_fract_y
_atom_site_fract_z
Si Si1 0.176467 0.090898 0.395516
Si Si2 0.327338 0.810881 0.756423
Si Si3 0.331245 0.594577 0.400192
Si Si4 0.179063 0.500000 0.102786
Si Si5 0.165448 0.905915 0.102202
Si Si6 0.175226 0.353328 0.774462
O O1 0.209396 0.102218 0.500000
O O2 0.255822 0.153125 0.332744
O O3 0.000000 0.097682 0.384463
O O4 0.215722 0.000000 0.372459
O O5 0.500000 0.801381 0.744415
O O6 0.286571 0.871706 0.833666
O O7 0.254129 0.729465 0.786597
O O8 0.294368 0.621699 0.500000
O O9 0.500000 0.619499 0.380217
O O10 0.331237 0.500000 0.401242
O O11 0.220946 0.621328 0.324716
O O12 0.223831 0.577893 0.157487
O O13 0.000000 0.500000 0.102441
O O14 0.227723 0.500000 0.000000
O O15 0.000000 0.881510 0.131523
O O16 0.168476 0.000000 0.104279
O O17 0.184289 0.881107 0.000000
O O18 0.000000 0.344906 0.782188
#
# Coordination Sequence:
#
# PCOD9388486 Si02
#       6
#     8   8   8   4   8   8
#     4   9  19  38  63  88 116 155 203 249 290 338
#     4  12  25  37  54  85 123 159 192 235 291 349
#     4   9  18  34  57  83 113 147 178 218 280 345
#     4   9  20  40  64  87 108 136 183 241 296 347
#     4   9  19  38  63  87 112 147 191 237 286 341
#     4  11  22  38  60  85 112 147 194 244 289 340
#
# _framework density 18.872509999999998
#
# number of rings (size 3 to 8) (size 9 to 14) (size 15 to 20)
#    0.000    2.091    0.909    4.364    0.000    5.455 
#    0.000    4.545    0.000    3.818    0.000    0.000 
#    0.000    0.000    0.000    0.000    0.000    0.000 
#
# Total GULP energy -245601.772603 kJ/mol
# GULP energy per Si atom -5581.858468 kJ/mol
# Density = 1.882956 g / cm^3
# Si number density = 18.872510 Si / 1000 Ang^3
#
#
#
# Elastic Constant Matrix: (Units=GPa)
#
#
# Indices 1 2 3 4 5 6 
#
# 1 69.2123 43.1457 41.7426 0.0000 0.0000 0.0000
# 2 43.1457 85.8708 49.9731 0.0000 0.0000 0.0000
# 3 41.7426 49.9731 93.9858 0.0000 0.0000 0.0000
# 4 0.0000 0.0000 0.0000 -42.3833 0.0000 0.0000
# 5 0.0000 0.0000 0.0000 0.0000 968.9400 0.0000
# 6 0.0000 0.0000 0.0000 0.0000 0.0000 18.0353
#
#
#
# Elastic Compliance Matrix: (Units=1/GPa)
#
#
# Indices 1 2 3 4 5 6 
#
# 1 0.023110 -0.008165 -0.005923 0.000000 0.000000 0.000000
# 2 -0.008165 0.019748 -0.006874 0.000000 0.000000 0.000000
# 3 -0.005923 -0.006874 0.016925 0.000000 0.000000 0.000000
# 4 0.000000 0.000000 0.000000 -0.023594 0.000000 0.000000
# 5 0.000000 0.000000 0.000000 0.000000 0.001032 0.000000
# 6 0.000000 0.000000 0.000000 0.000000 0.000000 0.055447
#
#
# Mechanical properties :
#
#
# Convention : Reuss Voigt Hill
#
# Bulk Modulus (GPa) = 55.98934 57.64352 56.81643
# Shear Modulus (GPa) = 35.57578 196.53224 116.05401
#
# Velocity S-wave (km/s) = 4.34644 10.21581 7.85030
# Velocity P-wave (km/s) = 7.41082 13.02921 10.59907
#
# Compressibility (1/GPa) = 0.01786054
#
# Stress axis : x y z
#
# Youngs Moduli (GPa) = 43.27090 50.63753 59.08299
#
# Poissons Ratio (x) = 0.41345 0.34993
# Poissons Ratio (y) = 0.35330 0.40613
# Poissons Ratio (z) = 0.25628 0.34808
#
# Static dielectric constant tensor:
#      x y z
#    x 1.635690 0.000000 0.000000 
#    y 0.000000 1.647070 0.000000 
#    z 0.000000 0.000000 1.657850 
# 
# From -- ./inp_files/20917.got.cif
#   From: 2010.05.17/outbox.cif.g08.bks.cpg/sg47_11_cif.got.tgz:20917.got - 2010.06.03 20:15:42.
