data_PCOD9388221
_publ_section_title
;
Structure prediction by ZEFSAII (Michael W. Deem and Ramdas Pophale) SiO2 
 PCOD9388221
Probable space group: P M M M
;
_chemical_formula_sum "Si O2"
_cell_formula_units_Z 52
_cell_length_a 27.561964
_cell_length_b 14.289683
_cell_length_c 7.796640
_cell_angle_alpha 90.000000
_cell_angle_beta 90.000000
_cell_angle_gamma 90.000000
_cell_volume 3070.720140
_symmetry_space_group_name_H-M "P M M M"
_symmetry_group_IT_number 47
_symmetry_cell_setting 'orthorhombic'
loop_
_space_group_symop_operation_xyz
x,y,z
-x,-y,z
x,-y,-z
-x,y,-z
-x,-y,-z
x,y,-z
-x,y,z
x,-y,z
loop_
_atom_site_type_symbol
_atom_site_label
_atom_site_fract_x
_atom_site_fract_y
_atom_site_fract_z
Si Si1 0.247735 0.895007 0.292975
Si Si2 0.200115 0.603977 0.299026
Si Si3 0.150507 0.789430 0.289689
Si Si4 0.054335 0.891646 0.709284
Si Si5 0.703850 0.293888 0.800443
Si Si6 0.500000 0.386201 0.301322
Si Si7 0.605478 0.392592 0.707295
O O1 0.247588 0.897080 0.500000
O O2 0.194333 0.858834 0.239230
O O3 0.285150 0.814317 0.240134
O O4 0.257475 0.000000 0.230588
O O5 0.187986 0.596885 0.500000
O O6 0.196629 0.500000 0.223324
O O7 0.165919 0.686283 0.227770
O O8 0.254895 0.643627 0.289958
O O9 0.150308 0.788191 0.500000
O O10 0.098594 0.827345 0.232152
O O11 0.054581 0.890042 0.500000
O O12 0.000000 0.864024 0.764258
O O13 0.062361 0.000000 0.758904
O O14 0.650341 0.327838 0.754200
O O15 0.711719 0.309077 0.000000
O O16 0.500000 0.500000 0.302688
O O17 0.500000 0.354722 0.500000
O O18 0.447536 0.360181 0.226586
O O19 0.602257 0.395583 0.500000
O O20 0.614236 0.500000 0.765284
#
# Coordination Sequence:
#
# PCOD9388221 Si02
#       7
#     8   8   8   8   8   4   8
#     4   9  17  30  47  63  80 107 143 177 207 244
#     4   9  17  29  43  57  76 107 146 181 210 243
#     4   8  13  22  37  56  77 103 136 170 203 243
#     4   8  12  17  28  50  79 106 129 158 203 257
#     4  11  21  29  40  62  90 115 138 168 210 255
#     4   7  12  24  43  65  84 107 142 179 209 236
#     4   9  16  28  46  65  87 115 146 177 206 240
#
# _framework density 16.934138999999998
#
# number of rings (size 3 to 8) (size 9 to 14) (size 15 to 20)
#    0.000    3.154    0.000    4.615    0.000    4.615 
#    0.000    0.385    0.000    1.846    0.000    3.769 
#    0.000   14.154    0.000   39.385    0.000   36.923 
#
# Total GULP energy -289608.622911 kJ/mol
# GULP energy per Si atom -5569.396594 kJ/mol
# Density = 1.689560 g / cm^3
# Si number density = 16.934139 Si / 1000 Ang^3
#
#
#
# Elastic Constant Matrix: (Units=GPa)
#
#
# Indices 1 2 3 4 5 6 
#
# 1 159.7500 86.9454 -0.5352 0.0000 0.0000 0.0000
# 2 86.9454 123.9617 2.9678 0.0000 0.0000 0.0000
# 3 -0.5352 2.9678 23.1832 0.0000 0.0000 0.0000
# 4 0.0000 0.0000 0.0000 -14.4694 0.0000 0.0000
# 5 0.0000 0.0000 0.0000 0.0000 -20.4696 0.0000
# 6 0.0000 0.0000 0.0000 0.0000 0.0000 24.0473
#
#
#
# Elastic Compliance Matrix: (Units=1/GPa)
#
#
# Indices 1 2 3 4 5 6 
#
# 1 0.010155 -0.007150 0.001150 0.000000 0.000000 0.000000
# 2 -0.007150 0.013126 -0.001845 0.000000 0.000000 0.000000
# 3 0.001150 -0.001845 0.043397 0.000000 0.000000 0.000000
# 4 0.000000 0.000000 0.000000 -0.069111 0.000000 0.000000
# 5 0.000000 0.000000 0.000000 0.000000 -0.048853 0.000000
# 6 0.000000 0.000000 0.000000 0.000000 0.000000 0.041585
#
#
# Mechanical properties :
#
#
# Convention : Reuss Voigt Hill
#
# Bulk Modulus (GPa) = 19.61281 53.96122 36.78702
# Shear Modulus (GPa) = 217.51310 12.32279 114.91794
#
# Velocity S-wave (km/s) = 11.34572 2.70050 8.24676
# Velocity P-wave (km/s) = 13.53665 6.45431 10.60422
#
# Compressibility (1/GPa) = 0.05098709
#
# Stress axis : x y z
#
# Youngs Moduli (GPa) = 98.47119 76.18267 23.04283
#
# Poissons Ratio (x) = 0.54473 -0.02649
# Poissons Ratio (y) = 0.70410 0.04252
# Poissons Ratio (z) = -0.11322 0.14059
#
# Static dielectric constant tensor:
#      x y z
#    x 1.581810 0.000000 0.000000 
#    y 0.000000 1.573670 0.000000 
#    z 0.000000 0.000000 1.609170 
# 
# From -- ./inp_files/13384.got.cif
#   From: 2010.05.17/outbox.cif.g08.bks.cpg/sg47_7_cif.got.tgz:13384.got - 2010.06.03 20:15:42.
