data_PCOD9388787
_publ_section_title
;
Structure prediction by ZEFSAII (Michael W. Deem and Ramdas Pophale) SiO2 
 PCOD9388787
Probable space group: P M M M
;
_chemical_formula_sum "Si O2"
_cell_formula_units_Z 40
_cell_length_a 13.540426
_cell_length_b 7.601727
_cell_length_c 19.995290
_cell_angle_alpha 90.000000
_cell_angle_beta 90.000000
_cell_angle_gamma 90.000000
_cell_volume 2058.127635
_symmetry_space_group_name_H-M "P M M M"
_symmetry_group_IT_number 47
_symmetry_cell_setting 'orthorhombic'
loop_
_space_group_symop_operation_xyz
x,y,z
-x,-y,z
x,-y,-z
-x,y,-z
-x,-y,-z
x,y,-z
-x,y,z
x,-y,z
loop_
_atom_site_type_symbol
_atom_site_label
_atom_site_fract_x
_atom_site_fract_y
_atom_site_fract_z
Si Si1 0.500000 0.704094 0.081316
Si Si2 0.889184 0.710849 0.173657
Si Si3 0.715454 0.209676 0.423675
Si Si4 0.888723 0.211802 0.671462
Si Si5 0.500000 0.709017 0.423862
Si Si6 0.715534 0.716003 0.077503
O O1 0.500000 0.500000 0.102874
O O2 0.606705 0.778612 0.100595
O O3 0.500000 0.705060 0.000000
O O4 0.892395 0.500000 0.165312
O O5 0.866977 0.746856 0.251268
O O6 0.803971 0.776760 0.124661
O O7 0.000000 0.778997 0.159670
O O8 0.717960 0.280379 0.500000
O O9 0.803588 0.279430 0.377661
O O10 0.605669 0.238907 0.394346
O O11 0.728356 0.000000 0.428167
O O12 0.000000 0.276580 0.656383
O O13 0.890970 0.000000 0.665456
O O14 0.500000 0.500000 0.427519
O O15 0.500000 0.783467 0.500000
O O16 0.712868 0.500000 0.078615
O O17 0.730601 0.765875 0.000000
#
# Coordination Sequence:
#
# PCOD9388787 Si02
#       6
#     4   8   8   8   4   8
#     4   7  10  18  33  54  80 106 130 163 210 254
#     4   9  17  28  42  61  86 115 144 176 216 261
#     4   9  17  30  49  70  90 115 150 189 224 261
#     4   9  18  32  48  65  88 119 150 182 225 272
#     4   9  17  29  46  69  96 122 146 177 222 271
#     4   8  13  22  38  60  84 109 139 176 215 254
#
# _framework density 19.435141000000002
#
# number of rings (size 3 to 8) (size 9 to 14) (size 15 to 20)
#    0.000    3.400    0.000    1.500    0.000    2.800 
#    0.000    5.000    0.000    1.800    0.000    8.400 
#    0.000    2.400    0.000    0.000    0.000    0.000 
#
# Total GULP energy -222770.959956 kJ/mol
# GULP energy per Si atom -5569.273999 kJ/mol
# Density = 1.939091 g / cm^3
# Si number density = 19.435141 Si / 1000 Ang^3
#
#
#
# Elastic Constant Matrix: (Units=GPa)
#
#
# Indices 1 2 3 4 5 6 
#
# 1 226.9237 7.0451 117.1473 0.0000 0.0000 0.0000
# 2 7.0451 42.4022 1.8959 0.0000 0.0000 0.0000
# 3 117.1473 1.8959 80.1415 0.0000 0.0000 0.0000
# 4 0.0000 0.0000 0.0000 17.7019 0.0000 0.0000
# 5 0.0000 0.0000 0.0000 0.0000-1213.4352 0.0000
# 6 0.0000 0.0000 0.0000 0.0000 0.0000 -1.0900
#
#
#
# Elastic Compliance Matrix: (Units=1/GPa)
#
#
# Indices 1 2 3 4 5 6 
#
# 1 0.018099 -0.001826 -0.026413 0.000000 0.000000 0.000000
# 2 -0.001826 0.023793 0.002107 0.000000 0.000000 0.000000
# 3 -0.026413 0.002107 0.051038 0.000000 0.000000 0.000000
# 4 0.000000 0.000000 0.000000 0.056491 0.000000 0.000000
# 5 0.000000 0.000000 0.000000 0.000000 -0.000824 0.000000
# 6 0.000000 0.000000 0.000000 0.000000 0.000000 -0.917404
#
#
# Mechanical properties :
#
#
# Convention : Reuss Voigt Hill
#
# Bulk Modulus (GPa) = 24.59174 66.84931 45.72052
# Shear Modulus (GPa) = -7.11251 -224.47273 -115.79262
#
# Velocity S-wave (km/s) = -1.91509 -10.75868 -7.72712
# Velocity P-wave (km/s) = 2.79117 10.94812 7.48568
#
# Compressibility (1/GPa) = 0.04066406
#
# Stress axis : x y z
#
# Youngs Moduli (GPa) = 55.25181 42.02932 19.59342
#
# Poissons Ratio (x) = 0.07675 0.51752
# Poissons Ratio (y) = 0.10090 -0.04127
# Poissons Ratio (z) = 1.45937 -0.08854
#
# Static dielectric constant tensor:
#      x y z
#    x 1.721450 0.000000 0.000000 
#    y 0.000000 1.729430 0.000000 
#    z 0.000000 0.000000 1.640430 
# 
# From -- ./inp_files/30336.got.cif
#   From: 2010.05.17/outbox.cif.g08.bks.cpg/sg47_16_cif.got.tgz:30336.got - 2010.06.03 20:15:42.
