data_PCOD9388167
_publ_section_title
;
Structure prediction by ZEFSAII (Michael W. Deem and Ramdas Pophale) SiO2 
 PCOD9388167
Probable space group: P M M M
;
_chemical_formula_sum "Si O2"
_cell_formula_units_Z 64
_cell_length_a 9.049234
_cell_length_b 18.893285
_cell_length_c 26.977387
_cell_angle_alpha 90.000000
_cell_angle_beta 90.000000
_cell_angle_gamma 90.000000
_cell_volume 4612.317300
_symmetry_space_group_name_H-M "P M M M"
_symmetry_group_IT_number 47
_symmetry_cell_setting 'orthorhombic'
loop_
_space_group_symop_operation_xyz
x,y,z
-x,-y,z
x,-y,-z
-x,y,-z
-x,-y,-z
x,y,-z
-x,y,z
x,-y,z
loop_
_atom_site_type_symbol
_atom_site_label
_atom_site_fract_x
_atom_site_fract_y
_atom_site_fract_z
Si Si1 0.330362 0.709043 0.798641
Si Si2 0.819935 0.918132 0.944179
Si Si3 0.176124 0.666142 0.644728
Si Si4 0.822059 0.917735 0.251929
Si Si5 0.675591 0.582412 0.441427
Si Si6 0.670675 0.794044 0.306120
Si Si7 0.678184 0.417315 0.264538
Si Si8 0.177506 0.165622 0.848324
O O1 0.500000 0.705971 0.815298
O O2 0.326376 0.751029 0.746097
O O3 0.279401 0.630746 0.782868
O O4 0.237821 0.756653 0.836044
O O5 0.768818 0.867948 0.899826
O O6 0.000000 0.916938 0.943700
O O7 0.777401 0.000000 0.935173
O O8 0.773297 0.898342 0.000000
O O9 0.232564 0.634208 0.593135
O O10 0.242385 0.743753 0.656049
O O11 0.241371 0.614779 0.687568
O O12 0.000000 0.667787 0.647544
O O13 0.746589 0.868354 0.293089
O O14 0.781743 0.885578 0.197890
O O15 0.000000 0.912239 0.256318
O O16 0.780886 0.000000 0.255144
O O17 0.700928 0.593180 0.500000
O O18 0.500000 0.591814 0.432076
O O19 0.710598 0.500000 0.430068
O O20 0.500000 0.802262 0.320665
O O21 0.500000 0.408479 0.271231
O O22 0.709279 0.500000 0.258692
O O23 0.000000 0.168158 0.849489
#
# Coordination Sequence:
#
# PCOD9388167 Si02
#       8
#     8   8   8   8   8   8   8   8
#     4   8  15  26  38  53  73  98 127 159 193 228
#     4   8  13  21  34  53  75  98 128 164 193 220
#     4  11  20  28  41  61  84 108 134 166 204 238
#     4   9  16  25  38  58  83 106 129 162 203 242
#     4   9  18  32  47  61  80 109 142 171 198 231
#     4   9  17  29  42  55  75 105 139 168 193 231
#     4   9  17  29  43  57  76 104 135 162 190 232
#     4   9  15  23  37  55  75 102 132 159 192 233
#
# _framework density 13.875889000000001
#
# number of rings (size 3 to 8) (size 9 to 14) (size 15 to 20)
#    0.000    3.000    0.000    3.750    0.000    7.000 
#    0.000    0.625    0.000    1.500    0.000    0.875 
#    0.000    1.000    0.000   11.500    0.000    2.250 
#
# Total GULP energy -356334.024020 kJ/mol
# GULP energy per Si atom -5567.719125 kJ/mol
# Density = 1.384431 g / cm^3
# Si number density = 13.875889 Si / 1000 Ang^3
#
#
#
# Elastic Constant Matrix: (Units=GPa)
#
#
# Indices 1 2 3 4 5 6 
#
# 1 40.4299 41.9345 35.2146 0.0000 0.0000 0.0000
# 2 41.9345 105.2772 46.6880 0.0000 0.0000 0.0000
# 3 35.2146 46.6880 63.7045 0.0000 0.0000 0.0000
# 4 0.0000 0.0000 0.0000 26.0769 0.0000 0.0000
# 5 0.0000 0.0000 0.0000 0.0000 13.6412 0.0000
# 6 0.0000 0.0000 0.0000 0.0000 0.0000 21.5638
#
#
#
# Elastic Compliance Matrix: (Units=1/GPa)
#
#
# Indices 1 2 3 4 5 6 
#
# 1 0.057789 -0.013115 -0.022333 0.000000 0.000000 0.000000
# 2 -0.013115 0.017049 -0.005245 0.000000 0.000000 0.000000
# 3 -0.022333 -0.005245 0.031887 0.000000 0.000000 0.000000
# 4 0.000000 0.000000 0.000000 0.038348 0.000000 0.000000
# 5 0.000000 0.000000 0.000000 0.000000 0.073307 0.000000
# 6 0.000000 0.000000 0.000000 0.000000 0.000000 0.046374
#
#
# Mechanical properties :
#
#
# Convention : Reuss Voigt Hill
#
# Bulk Modulus (GPa) = 39.46529 50.78730 45.12629
# Shear Modulus (GPa) = 14.10093 17.96135 16.03114
#
# Velocity S-wave (km/s) = 3.19128 3.60172 3.40269
# Velocity P-wave (km/s) = 6.48709 7.34691 6.93035
#
# Compressibility (1/GPa) = 0.02533872
#
# Stress axis : x y z
#
# Youngs Moduli (GPa) = 17.30431 58.65544 31.36068
#
# Poissons Ratio (x) = 0.76924 0.70039
# Poissons Ratio (y) = 0.22694 0.16450
# Poissons Ratio (z) = 0.38646 0.30766
#
# Static dielectric constant tensor:
#      x y z
#    x 1.467730 0.000000 0.000000 
#    y 0.000000 1.458510 0.000000 
#    z 0.000000 0.000000 1.445320 
# 
# From -- ./inp_files/10249.got.cif
#   From: 2010.05.17/outbox.cif.g08.bks.cpg/sg47_6_cif.got.tgz:10249.got - 2010.06.03 20:15:42.
