data_PCOD9388469
_publ_section_title
;
Structure prediction by ZEFSAII (Michael W. Deem and Ramdas Pophale) SiO2 
 PCOD9388469
Probable space group: P M M M
;
_chemical_formula_sum "Si O2"
_cell_formula_units_Z 40
_cell_length_a 22.963393
_cell_length_b 11.256015
_cell_length_c 8.692385
_cell_angle_alpha 90.000000
_cell_angle_beta 90.000000
_cell_angle_gamma 90.000000
_cell_volume 2246.775479
_symmetry_space_group_name_H-M "P M M M"
_symmetry_group_IT_number 47
_symmetry_cell_setting 'orthorhombic'
loop_
_space_group_symop_operation_xyz
x,y,z
-x,-y,z
x,-y,-z
-x,y,-z
-x,-y,-z
x,y,-z
-x,y,z
x,-y,z
loop_
_atom_site_type_symbol
_atom_site_label
_atom_site_fract_x
_atom_site_fract_y
_atom_site_fract_z
Si Si1 0.500000 0.140401 0.672453
Si Si2 0.612761 0.743507 0.815649
Si Si3 0.431614 0.500000 0.683908
Si Si4 0.859079 0.136146 0.684936
Si Si5 0.068228 0.633494 0.687174
Si Si6 0.732152 0.860101 0.180845
O O1 0.500000 0.194252 0.500000
O O2 0.441509 0.179332 0.757386
O O3 0.500000 0.000000 0.661225
O O4 0.599481 0.614200 0.752104
O O5 0.675502 0.790615 0.762061
O O6 0.613134 0.745045 0.000000
O O7 0.500000 0.500000 0.728719
O O8 0.428824 0.500000 0.500000
O O9 0.864313 0.133228 0.500000
O O10 0.897366 0.248666 0.740869
O O11 0.792244 0.160244 0.730726
O O12 0.873578 0.000000 0.739588
O O13 0.071595 0.633526 0.500000
O O14 0.088274 0.500000 0.736679
O O15 0.000000 0.643972 0.727720
O O16 0.718596 0.000000 0.191930
O O17 0.741463 0.832559 0.000000
#
# Coordination Sequence:
#
# PCOD9388469 Si02
#       6
#     4   8   4   8   8   8
#     4  11  23  36  53  80 109 133 163 211 268 317
#     4  11  22  37  58  78 100 133 175 215 253 306
#     4  11  23  39  57  77 106 136 165 206 263 318
#     4   9  17  29  48  75 103 131 168 212 255 302
#     4   8  14  26  45  70 102 136 168 207 255 304
#     4   9  19  36  55  75 102 135 168 206 254 304
#
# _framework density 17.803291999999999
#
# number of rings (size 3 to 8) (size 9 to 14) (size 15 to 20)
#    0.000    2.400    1.000    2.400    0.000    4.000 
#    1.800    4.000    0.000    0.600    0.000    4.200 
#    0.000    0.000    0.000    0.000    0.000    0.000 
#
# Total GULP energy -222931.394156 kJ/mol
# GULP energy per Si atom -5573.284854 kJ/mol
# Density = 1.776277 g / cm^3
# Si number density = 17.803292 Si / 1000 Ang^3
#
#
#
# Elastic Constant Matrix: (Units=GPa)
#
#
# Indices 1 2 3 4 5 6 
#
# 1 103.4953 89.9016 14.0147 0.0000 0.0000 0.0000
# 2 89.9016 147.7699 20.9310 0.0000 0.0000 0.0000
# 3 14.0147 20.9310 18.1639 0.0000 0.0000 0.0000
# 4 0.0000 0.0000 0.0000 19.1330 0.0000 0.0000
# 5 0.0000 0.0000 0.0000 0.0000 39.6649 0.0000
# 6 0.0000 0.0000 0.0000 0.0000 0.0000 51.6262
#
#
#
# Elastic Compliance Matrix: (Units=1/GPa)
#
#
# Indices 1 2 3 4 5 6 
#
# 1 0.020537 -0.012249 -0.001730 0.000000 0.000000 0.000000
# 2 -0.012249 0.015394 -0.008287 0.000000 0.000000 0.000000
# 3 -0.001730 -0.008287 0.065939 0.000000 0.000000 0.000000
# 4 0.000000 0.000000 0.000000 0.052266 0.000000 0.000000
# 5 0.000000 0.000000 0.000000 0.000000 0.025211 0.000000
# 6 0.000000 0.000000 0.000000 0.000000 0.000000 0.019370
#
#
# Mechanical properties :
#
#
# Convention : Reuss Voigt Hill
#
# Bulk Modulus (GPa) = 17.44117 57.68042 37.56079
# Shear Modulus (GPa) = 19.05758 31.72360 25.39059
#
# Velocity S-wave (km/s) = 3.27533 4.22583 3.78057
# Velocity P-wave (km/s) = 4.91137 7.50195 6.34038
#
# Compressibility (1/GPa) = 0.05733560
#
# Stress axis : x y z
#
# Youngs Moduli (GPa) = 48.69225 64.96205 15.16553
#
# Poissons Ratio (x) = 0.79575 0.02624
# Poissons Ratio (y) = 0.59646 0.12568
# Poissons Ratio (z) = 0.08425 0.53836
#
# Static dielectric constant tensor:
#      x y z
#    x 1.588040 0.000000 0.000000 
#    y 0.000000 1.668970 0.000000 
#    z 0.000000 0.000000 1.609140 
# 
# From -- ./inp_files/10679.got.cif
#   From: 2010.05.17/outbox.cif.g08.bks.cpg/sg47_6_cif.got.tgz:10679.got - 2010.06.03 20:15:42.
