data_PCOD9388265
_publ_section_title
;
Structure prediction by ZEFSAII (Michael W. Deem and Ramdas Pophale) SiO2 
 PCOD9388265
Probable space group: P M M M
;
_chemical_formula_sum "Si O2"
_cell_formula_units_Z 56
_cell_length_a 15.387866
_cell_length_b 23.667734
_cell_length_c 7.697254
_cell_angle_alpha 90.000000
_cell_angle_beta 90.000000
_cell_angle_gamma 90.000000
_cell_volume 2803.308497
_symmetry_space_group_name_H-M "P M M M"
_symmetry_group_IT_number 47
_symmetry_cell_setting 'orthorhombic'
loop_
_space_group_symop_operation_xyz
x,y,z
-x,-y,z
x,-y,-z
-x,y,-z
-x,-y,-z
x,y,-z
-x,y,z
x,-y,z
loop_
_atom_site_type_symbol
_atom_site_label
_atom_site_fract_x
_atom_site_fract_y
_atom_site_fract_z
Si Si1 0.277555 0.937780 0.213083
Si Si2 0.402679 0.709590 0.792408
Si Si3 0.901229 0.764047 0.710472
Si Si4 0.096070 0.894590 0.205572
Si Si5 0.399825 0.836624 0.211607
Si Si6 0.222783 0.334354 0.295474
Si Si7 0.097175 0.564282 0.791032
O O1 0.178787 0.928088 0.273735
O O2 0.336591 0.885810 0.273359
O O3 0.308928 0.000000 0.263716
O O4 0.277341 0.936052 0.000000
O O5 0.500000 0.695153 0.727456
O O6 0.378735 0.772910 0.728299
O O7 0.323170 0.668170 0.756932
O O8 0.409277 0.713701 0.000000
O O9 0.898835 0.765316 0.500000
O O10 0.885675 0.827747 0.773150
O O11 0.831980 0.718762 0.778801
O O12 0.000000 0.747974 0.761495
O O13 0.000000 0.905950 0.280016
O O14 0.091548 0.906569 0.000000
O O15 0.500000 0.847848 0.258083
O O16 0.395308 0.836361 0.000000
O O17 0.221712 0.326702 0.500000
O O18 0.170570 0.391262 0.256801
O O19 0.113518 0.500000 0.730468
O O20 0.000000 0.581363 0.729627
O O21 0.094084 0.562669 0.000000
#
# Coordination Sequence:
#
# PCOD9388265 Si02
#       7
#     8   8   8   8   8   8   8
#     4   9  16  24  36  57  84 112 143 184 234 285
#     4   9  18  33  52  72  96 129 167 206 248 295
#     4   9  18  31  45  65  95 126 155 190 236 290
#     4   9  17  28  42  60  82 112 151 191 231 278
#     4   8  14  25  41  61  85 114 149 189 235 288
#     4  11  21  31  49  77 106 134 163 201 250 297
#     4   9  19  36  56  78 106 141 178 209 235 272
#
# _framework density 19.976396999999999
#
# number of rings (size 3 to 8) (size 9 to 14) (size 15 to 20)
#    0.000    2.857    0.000    3.000    0.000    4.286 
#    0.000    5.000    0.000    0.857    0.000    5.000 
#    0.000    0.000    0.000   12.286    0.000   10.000 
#
# Total GULP energy -312378.063962 kJ/mol
# GULP energy per Si atom -5578.179714 kJ/mol
# Density = 1.993093 g / cm^3
# Si number density = 19.976397 Si / 1000 Ang^3
#
#
#
# Elastic Constant Matrix: (Units=GPa)
#
#
# Indices 1 2 3 4 5 6 
#
# 1 136.6762 81.2550 5.2451 0.0000 0.0000 0.0000
# 2 81.2550 71.3060 -2.4720 0.0000 0.0000 0.0000
# 3 5.2451 -2.4720 32.4845 0.0000 0.0000 0.0000
# 4 0.0000 0.0000 0.0000 51.9105 0.0000 0.0000
# 5 0.0000 0.0000 0.0000 0.0000 -1.9574 0.0000
# 6 0.0000 0.0000 0.0000 0.0000 0.0000 14.9119
#
#
#
# Elastic Compliance Matrix: (Units=1/GPa)
#
#
# Indices 1 2 3 4 5 6 
#
# 1 0.023765 -0.027286 -0.005914 0.000000 0.000000 0.000000
# 2 -0.027286 0.045390 0.007860 0.000000 0.000000 0.000000
# 3 -0.005914 0.007860 0.032337 0.000000 0.000000 0.000000
# 4 0.000000 0.000000 0.000000 0.019264 0.000000 0.000000
# 5 0.000000 0.000000 0.000000 0.000000 -0.510876 0.000000
# 6 0.000000 0.000000 0.000000 0.000000 0.000000 0.067061
#
#
# Mechanical properties :
#
#
# Convention : Reuss Voigt Hill
#
# Bulk Modulus (GPa) = 19.68039 45.39143 32.53591
# Shear Modulus (GPa) = -19.57395 23.40225 1.91415
#
# Velocity S-wave (km/s) = -3.13366 3.42642 0.97994
# Velocity P-wave (km/s) = 1.79440 6.19885 4.19558
#
# Compressibility (1/GPa) = 0.05081201
#
# Stress axis : x y z
#
# Youngs Moduli (GPa) = 42.07792 22.03127 30.92446
#
# Poissons Ratio (x) = 0.60115 0.18288
# Poissons Ratio (y) = 1.14815 -0.24306
# Poissons Ratio (z) = 0.24884 -0.17316
#
# Static dielectric constant tensor:
#      x y z
#    x 1.776330 0.000000 0.000000 
#    y 0.000000 1.690780 0.000000 
#    z 0.000000 0.000000 1.742800 
# 
# From -- ./inp_files/7278.got.cif
#   From: 2010.05.17/outbox.cif.g08.bks.cpg/sg47_4_cif.got.tgz:7278.got - 2010.06.03 20:15:42.
