data_PCOD9388935
_publ_section_title
;
Structure prediction by ZEFSAII (Michael W. Deem and Ramdas Pophale) SiO2 
 PCOD9388935
Probable space group: P M M M
;
_chemical_formula_sum "Si O2"
_cell_formula_units_Z 44
_cell_length_a 7.363698
_cell_length_b 9.592451
_cell_length_c 29.871765
_cell_angle_alpha 90.000000
_cell_angle_beta 90.000000
_cell_angle_gamma 90.000000
_cell_volume 2110.019371
_symmetry_space_group_name_H-M "P M M M"
_symmetry_group_IT_number 47
_symmetry_cell_setting 'orthorhombic'
loop_
_space_group_symop_operation_xyz
x,y,z
-x,-y,z
x,-y,-z
-x,y,-z
-x,-y,-z
x,y,-z
-x,y,z
x,-y,z
loop_
_atom_site_type_symbol
_atom_site_label
_atom_site_fract_x
_atom_site_fract_y
_atom_site_fract_z
Si Si1 0.717708 0.339028 0.818117
Si Si2 0.721317 0.337388 0.279612
Si Si3 0.721095 0.339398 0.550337
Si Si4 0.785755 0.340986 0.083595
Si Si5 0.777343 0.839788 0.000000
Si Si6 0.722048 0.160255 0.365010
O O1 0.500000 0.340786 0.816618
O O2 0.781694 0.500000 0.819558
O O3 0.778584 0.283858 0.769720
O O4 0.765445 0.278771 0.866455
O O5 0.500000 0.336588 0.280246
O O6 0.774506 0.500000 0.284322
O O7 0.781592 0.244762 0.321114
O O8 0.777994 0.299738 0.500000
O O9 0.500000 0.337994 0.550480
O O10 0.775031 0.500000 0.558477
O O11 0.781059 0.239062 0.589976
O O12 0.710870 0.500000 0.082748
O O13 0.715882 0.243633 0.044096
O O14 0.000000 0.353717 0.075757
O O15 0.000000 0.841120 0.000000
O O16 0.719431 0.000000 0.000000
O O17 0.500000 0.161805 0.364972
O O18 0.778801 0.000000 0.364057
#
# Coordination Sequence:
#
# PCOD9388935 Si02
#       6
#     8   8   8   8   4   8
#     4   8  14  25  41  60  80 102 129 160 194 232
#     4   8  13  22  35  47  61  86 118 147 175 214
#     4   8  13  20  28  37  51  75 109 147 184 222
#     4   9  16  27  45  66  83 100 128 165 197 224
#     4   9  17  29  44  61  82 108 134 157 186 230
#     4   9  15  20  27  41  60  81 108 145 186 223
#
# _framework density 20.852889999999999
#
# number of rings (size 3 to 8) (size 9 to 14) (size 15 to 20)
#    0.000    3.545    0.000    2.455    0.000    3.636 
#    0.000    3.182    0.000    4.364    0.000    0.000 
#    0.000    0.000    0.000    0.000    0.000    0.909 
#
# Total GULP energy -245271.166543 kJ/mol
# GULP energy per Si atom -5574.344694 kJ/mol
# Density = 2.080543 g / cm^3
# Si number density = 20.852890 Si / 1000 Ang^3
#
#
#
# Elastic Constant Matrix: (Units=GPa)
#
#
# Indices 1 2 3 4 5 6 
#
# 1 73.7311 4.9267 4.0427 0.0000 0.0000 0.0000
# 2 4.9267 116.1831 131.3258 0.0000 0.0000 0.0000
# 3 4.0427 131.3258 261.8922 0.0000 0.0000 0.0000
# 4 0.0000 0.0000 0.0000 -4.9694 0.0000 0.0000
# 5 0.0000 0.0000 0.0000 0.0000 15.0786 0.0000
# 6 0.0000 0.0000 0.0000 0.0000 0.0000 -8.9087
#
#
#
# Elastic Compliance Matrix: (Units=1/GPa)
#
#
# Indices 1 2 3 4 5 6 
#
# 1 0.013605 -0.000784 0.000183 0.000000 0.000000 0.000000
# 2 -0.000784 0.019914 -0.009974 0.000000 0.000000 0.000000
# 3 0.000183 -0.009974 0.008817 0.000000 0.000000 0.000000
# 4 0.000000 0.000000 0.000000 -0.201233 0.000000 0.000000
# 5 0.000000 0.000000 0.000000 0.000000 0.066319 0.000000
# 6 0.000000 0.000000 0.000000 0.000000 0.000000 -0.112250
#
#
# Mechanical properties :
#
#
# Convention : Reuss Voigt Hill
#
# Bulk Modulus (GPa) = 47.19885 81.37742 64.28814
# Shear Modulus (GPa) = -28.30997 21.00752 -3.65123
#
# Velocity S-wave (km/s) = -3.68857 3.17742 -1.32467
# Velocity P-wave (km/s) = 2.13135 7.25056 5.34384
#
# Compressibility (1/GPa) = 0.02118695
#
# Stress axis : x y z
#
# Youngs Moduli (GPa) = 73.50162 50.21568 113.41844
#
# Poissons Ratio (x) = 0.03936 -0.02076
# Poissons Ratio (y) = 0.05761 1.13121
# Poissons Ratio (z) = -0.01345 0.50084
#
# Static dielectric constant tensor:
#      x y z
#    x 1.822920 0.000000 0.000000 
#    y 0.000000 1.689140 0.000000 
#    z 0.000000 0.000000 1.758420 
# 
# From -- ./inp_files/34477.got.cif
#   From: 2010.05.17/outbox.cif.g08.bks.cpg/sg47_18_cif.got.tgz:34477.got - 2010.06.03 20:15:42.
