data_PCOD9388674
_publ_section_title
;
Structure prediction by ZEFSAII (Michael W. Deem and Ramdas Pophale) SiO2 
 PCOD9388674
Probable space group: P M M M
;
_chemical_formula_sum "Si O2"
_cell_formula_units_Z 48
_cell_length_a 9.259406
_cell_length_b 15.516236
_cell_length_c 16.933144
_cell_angle_alpha 90.000000
_cell_angle_beta 90.000000
_cell_angle_gamma 90.000000
_cell_volume 2432.803911
_symmetry_space_group_name_H-M "P M M M"
_symmetry_group_IT_number 47
_symmetry_cell_setting 'orthorhombic'
loop_
_space_group_symop_operation_xyz
x,y,z
-x,-y,z
x,-y,-z
-x,y,-z
-x,-y,-z
x,y,-z
-x,y,z
x,-y,z
loop_
_atom_site_type_symbol
_atom_site_label
_atom_site_fract_x
_atom_site_fract_y
_atom_site_fract_z
Si Si1 0.327420 0.167463 0.834915
Si Si2 0.663933 0.902480 0.405501
Si Si3 0.173400 0.000000 0.094811
Si Si4 0.672081 0.601178 0.594085
Si Si5 0.342923 0.657316 0.092643
Si Si6 0.172296 0.242434 0.320323
Si Si7 0.839617 0.500000 0.097155
O O1 0.500000 0.152091 0.825114
O O2 0.246195 0.082808 0.864352
O O3 0.306012 0.243440 0.898436
O O4 0.254676 0.209805 0.758061
O O5 0.660395 0.905958 0.500000
O O6 0.500000 0.878162 0.379362
O O7 0.781389 0.833490 0.380297
O O8 0.692612 0.000000 0.375819
O O9 0.000000 0.000000 0.106120
O O10 0.201321 0.000000 0.000000
O O11 0.699143 0.615624 0.500000
O O12 0.500000 0.615189 0.606695
O O13 0.702677 0.500000 0.610453
O O14 0.762561 0.668462 0.645914
O O15 0.500000 0.644714 0.129996
O O16 0.236434 0.586560 0.125636
O O17 0.352884 0.638364 0.000000
O O18 0.000000 0.247583 0.309571
O O19 0.000000 0.500000 0.125939
O O20 0.842342 0.500000 0.000000
#
# Coordination Sequence:
#
# PCOD9388674 Si02
#       7
#     8   8   4   8   8   8   4
#     4  11  24  42  64  88 117 161 209 252 299 358
#     4   9  19  37  61  86 113 152 202 248 291 350
#     4  11  25  45  69  97 128 159 196 253 321 381
#     4   9  19  39  67  94 121 161 215 266 308 363
#     4   9  18  35  59  85 111 143 192 246 288 337
#     4  12  25  38  56  87 128 164 198 250 314 370
#     4   9  17  29  51  83 115 147 178 217 280 349
#
# _framework density 19.730319000000001
#
# number of rings (size 3 to 8) (size 9 to 14) (size 15 to 20)
#    0.000    2.000    0.000    4.500    1.167    7.000 
#    1.500    3.333    0.000    0.000    0.000    0.000 
#    0.000    0.000    0.000    0.000    0.000    0.000 
#
# Total GULP energy -267772.789905 kJ/mol
# GULP energy per Si atom -5578.599790 kJ/mol
# Density = 1.968541 g / cm^3
# Si number density = 19.730319 Si / 1000 Ang^3
#
#
#
# Elastic Constant Matrix: (Units=GPa)
#
#
# Indices 1 2 3 4 5 6 
#
# 1 138.1389 112.4192 47.5226 0.0000 0.0000 0.0000
# 2 112.4192 155.2732 40.8547 0.0000 0.0000 0.0000
# 3 47.5226 40.8547 56.7769 0.0000 0.0000 0.0000
# 4 0.0000 0.0000 0.0000 24.6937 0.0000 0.0000
# 5 0.0000 0.0000 0.0000 0.0000 23.0002 0.0000
# 6 0.0000 0.0000 0.0000 0.0000 0.0000 105.5858
#
#
#
# Elastic Compliance Matrix: (Units=1/GPa)
#
#
# Indices 1 2 3 4 5 6 
#
# 1 0.020100 -0.012491 -0.007836 0.000000 0.000000 0.000000
# 2 -0.012491 0.015707 -0.000847 0.000000 0.000000 0.000000
# 3 -0.007836 -0.000847 0.024781 0.000000 0.000000 0.000000
# 4 0.000000 0.000000 0.000000 0.040496 0.000000 0.000000
# 5 0.000000 0.000000 0.000000 0.000000 0.043478 0.000000
# 6 0.000000 0.000000 0.000000 0.000000 0.000000 0.009471
#
#
# Mechanical properties :
#
#
# Convention : Reuss Voigt Hill
#
# Bulk Modulus (GPa) = 54.82416 83.53133 69.17775
# Shear Modulus (GPa) = 24.69623 40.61543 32.65583
#
# Velocity S-wave (km/s) = 3.54176 4.54202 4.07272
# Velocity P-wave (km/s) = 6.67626 8.36272 7.56662
#
# Compressibility (1/GPa) = 0.01824013
#
# Stress axis : x y z
#
# Youngs Moduli (GPa) = 49.75129 63.66747 40.35356
#
# Poissons Ratio (x) = 0.79526 0.31620
# Poissons Ratio (y) = 0.62144 0.03418
# Poissons Ratio (z) = 0.38984 0.05393
#
# Static dielectric constant tensor:
#      x y z
#    x 1.681360 0.000000 0.000000 
#    y 0.000000 1.731660 0.000000 
#    z 0.000000 0.000000 1.605070 
# 
# From -- ./inp_files/26559.got.cif
#   From: 2010.05.17/outbox.cif.g08.bks.cpg/sg47_14_cif.got.tgz:26559.got - 2010.06.03 20:15:42.
