data_PCOD9388956
_publ_section_title
;
Structure prediction by ZEFSAII (Michael W. Deem and Ramdas Pophale) SiO2 
 PCOD9388956
Probable space group: P M M M
;
_chemical_formula_sum "Si O2"
_cell_formula_units_Z 52
_cell_length_a 9.256096
_cell_length_b 35.744756
_cell_length_c 7.363919
_cell_angle_alpha 90.000000
_cell_angle_beta 90.000000
_cell_angle_gamma 90.000000
_cell_volume 2436.403361
_symmetry_space_group_name_H-M "P M M M"
_symmetry_group_IT_number 47
_symmetry_cell_setting 'orthorhombic'
loop_
_space_group_symop_operation_xyz
x,y,z
-x,-y,z
x,-y,-z
-x,y,-z
-x,-y,-z
x,y,-z
-x,y,z
x,-y,z
loop_
_atom_site_type_symbol
_atom_site_label
_atom_site_fract_x
_atom_site_fract_y
_atom_site_fract_z
Si Si1 0.834571 0.620991 0.283935
Si Si2 0.833529 0.000000 0.721647
Si Si3 0.166272 0.149200 0.278370
Si Si4 0.832941 0.540150 0.216861
Si Si5 0.830793 0.297729 0.278986
Si Si6 0.333571 0.074635 0.278347
Si Si7 0.333827 0.223690 0.721881
O O1 0.844187 0.624333 0.500000
O O2 0.763435 0.580531 0.253854
O O3 0.775596 0.661082 0.220096
O O4 0.000000 0.618624 0.212429
O O5 0.750735 0.037431 0.779207
O O6 0.833267 0.000000 0.500000
O O7 0.000000 0.000000 0.779096
O O8 0.166706 0.149170 0.500000
O O9 0.252482 0.112308 0.220703
O O10 0.244725 0.187243 0.220805
O O11 0.000000 0.148119 0.220859
O O12 0.771228 0.500000 0.280213
O O13 0.000000 0.541587 0.284623
O O14 0.839521 0.538274 0.000000
O O15 0.826694 0.296804 0.500000
O O16 0.740464 0.262158 0.216877
O O17 0.000000 0.294568 0.228614
O O18 0.333251 0.074635 0.500000
O O19 0.500000 0.074175 0.220911
O O20 0.332099 0.223843 0.500000
O O21 0.500000 0.221358 0.777999
#
# Coordination Sequence:
#
# PCOD9388956 Si02
#       7
#     8   4   8   8   8   8   8
#     4   8  13  20  30  44  62  87 118 146 172 209
#     4   9  15  21  27  33  41  55  77 107 147 195
#     4   9  15  21  28  37  49  66  88 113 143 184
#     4   8  13  20  29  43  66  94 119 144 178 217
#     4   8  13  21  31  42  58  80 104 129 158 194
#     4   9  15  21  27  34  44  58  79 110 148 189
#     4   9  15  21  29  41  56  73  93 118 150 189
#
# _framework density 21.342936000000002
#
# number of rings (size 3 to 8) (size 9 to 14) (size 15 to 20)
#    0.000    3.462    0.000    3.000    0.000    6.769 
#    0.000    1.538    0.000    0.000    0.000    0.000 
#    0.000    1.231    0.000    7.692    0.000    8.923 
#
# Total GULP energy -289878.477027 kJ/mol
# GULP energy per Si atom -5574.586097 kJ/mol
# Density = 2.129436 g / cm^3
# Si number density = 21.342936 Si / 1000 Ang^3
#
#
#
# Elastic Constant Matrix: (Units=GPa)
#
#
# Indices 1 2 3 4 5 6 
#
# 1 134.4316 121.5687 3.1492 0.0000 0.0000 0.0000
# 2 121.5687 293.9920 7.7559 0.0000 0.0000 0.0000
# 3 3.1492 7.7559 75.6521 0.0000 0.0000 0.0000
# 4 0.0000 0.0000 0.0000 50.3554 0.0000 0.0000
# 5 0.0000 0.0000 0.0000 0.0000 -11.5943 0.0000
# 6 0.0000 0.0000 0.0000 0.0000 0.0000 -8.7796
#
#
#
# Elastic Compliance Matrix: (Units=1/GPa)
#
#
# Indices 1 2 3 4 5 6 
#
# 1 0.011882 -0.004914 0.000009 0.000000 0.000000 0.000000
# 2 -0.004914 0.005443 -0.000353 0.000000 0.000000 0.000000
# 3 0.000009 -0.000353 0.013254 0.000000 0.000000 0.000000
# 4 0.000000 0.000000 0.000000 0.019859 0.000000 0.000000
# 5 0.000000 0.000000 0.000000 0.000000 -0.086249 0.000000
# 6 0.000000 0.000000 0.000000 0.000000 0.000000 -0.113901
#
#
# Mechanical properties :
#
#
# Convention : Reuss Voigt Hill
#
# Bulk Modulus (GPa) = 49.84287 85.44703 67.64495
# Shear Modulus (GPa) = -37.73328 30.76975 -3.48176
#
# Velocity S-wave (km/s) = -4.20926 3.80107 -1.27863
# Velocity P-wave (km/s) = 0.46886 7.70625 5.43905
#
# Compressibility (1/GPa) = 0.02006305
#
# Stress axis : x y z
#
# Youngs Moduli (GPa) = 84.16164 183.73672 75.44743
#
# Poissons Ratio (x) = 0.90280 -0.00069
# Poissons Ratio (y) = 0.41353 0.02667
# Poissons Ratio (z) = -0.00077 0.06494
#
# Static dielectric constant tensor:
#      x y z
#    x 1.702370 0.000000 0.000000 
#    y 0.000000 1.796370 0.000000 
#    z 0.000000 0.000000 1.839570 
# 
# From -- ./inp_files/15666.got.cif
#   From: 2010.05.17/outbox.cif.g08.bks.cpg/sg47_8_cif.got.tgz:15666.got - 2010.06.03 20:15:42.
