data_PCOD9388344
_publ_section_title
;
Structure prediction by ZEFSAII (Michael W. Deem and Ramdas Pophale) SiO2 
 PCOD9388344
Probable space group: P M M M
;
_chemical_formula_sum "Si O2"
_cell_formula_units_Z 52
_cell_length_a 23.546632
_cell_length_b 8.943101
_cell_length_c 14.468770
_cell_angle_alpha 90.000000
_cell_angle_beta 90.000000
_cell_angle_gamma 90.000000
_cell_volume 3046.832258
_symmetry_space_group_name_H-M "P M M M"
_symmetry_group_IT_number 47
_symmetry_cell_setting 'orthorhombic'
loop_
_space_group_symop_operation_xyz
x,y,z
-x,-y,z
x,-y,-z
-x,y,-z
-x,-y,-z
x,y,-z
-x,y,z
x,-y,z
loop_
_atom_site_type_symbol
_atom_site_label
_atom_site_fract_x
_atom_site_fract_y
_atom_site_fract_z
Si Si1 0.114996 0.820534 0.209758
Si Si2 0.776281 0.677195 0.110280
Si Si3 0.713746 0.321533 0.393907
Si Si4 0.669263 0.822397 0.212990
Si Si5 0.000000 0.818068 0.106195
Si Si6 0.151410 0.678890 0.394418
Si Si7 0.433965 0.321138 0.891673
O O1 0.168674 0.750848 0.156602
O O2 0.117994 0.764047 0.314951
O O3 0.056985 0.772589 0.159453
O O4 0.118891 0.000000 0.206920
O O5 0.776106 0.500000 0.130176
O O6 0.719986 0.749283 0.153288
O O7 0.777388 0.698406 0.000000
O O8 0.699085 0.284967 0.500000
O O9 0.706256 0.500000 0.381294
O O10 0.679094 0.233495 0.317348
O O11 0.781145 0.290820 0.381849
O O12 0.610088 0.764987 0.171754
O O13 0.673146 0.000000 0.207845
O O14 0.000000 0.000000 0.104484
O O15 0.000000 0.766336 0.000000
O O16 0.136485 0.719664 0.500000
O O17 0.144003 0.500000 0.384691
O O18 0.500000 0.286635 0.872358
O O19 0.426347 0.500000 0.880390
O O20 0.423241 0.287164 0.000000
#
# Coordination Sequence:
#
# PCOD9388344 Si02
#       7
#     8   8   8   8   4   8   8
#     4  11  21  35  57  82 106 138 179 225 274 324
#     4  11  23  37  53  75 107 144 180 223 271 319
#     4   9  18  34  56  79 107 145 183 219 265 324
#     4  12  23  33  52  84 116 144 176 221 276 327
#     4   9  20  38  56  75 106 146 181 217 268 331
#     4   9  18  34  56  80 108 142 177 217 269 326
#     4   9  19  37  59  80 106 147 194 231 265 313
#
# _framework density 17.066905999999999
#
# number of rings (size 3 to 8) (size 9 to 14) (size 15 to 20)
#    0.000    1.923    1.538    4.615    0.000    4.923 
#    0.000    4.231    0.000    5.538    0.000    3.231 
#    0.000    0.000    0.000    0.000    0.000    0.000 
#
# Total GULP energy -290406.697104 kJ/mol
# GULP energy per Si atom -5584.744175 kJ/mol
# Density = 1.702806 g / cm^3
# Si number density = 17.066906 Si / 1000 Ang^3
#
#
#
# Elastic Constant Matrix: (Units=GPa)
#
#
# Indices 1 2 3 4 5 6 
#
# 1 102.1308 56.8987 85.7821 0.0000 0.0000 0.0000
# 2 56.8987 70.5557 77.5127 0.0000 0.0000 0.0000
# 3 85.7821 77.5127 148.6058 0.0000 0.0000 0.0000
# 4 0.0000 0.0000 0.0000 11.1375 0.0000 0.0000
# 5 0.0000 0.0000 0.0000 0.0000 29.8997 0.0000
# 6 0.0000 0.0000 0.0000 0.0000 0.0000 37.1802
#
#
#
# Elastic Compliance Matrix: (Units=1/GPa)
#
#
# Indices 1 2 3 4 5 6 
#
# 1 0.020960 -0.008457 -0.007688 0.000000 0.000000 0.000000
# 2 -0.008457 0.036607 -0.014212 0.000000 0.000000 0.000000
# 3 -0.007688 -0.014212 0.018580 0.000000 0.000000 0.000000
# 4 0.000000 0.000000 0.000000 0.089787 0.000000 0.000000
# 5 0.000000 0.000000 0.000000 0.000000 0.033445 0.000000
# 6 0.000000 0.000000 0.000000 0.000000 0.000000 0.026896
#
#
# Mechanical properties :
#
#
# Convention : Reuss Voigt Hill
#
# Bulk Modulus (GPa) = 64.79780 84.63105 74.71442
# Shear Modulus (GPa) = 17.11539 22.38340 19.74939
#
# Velocity S-wave (km/s) = 3.17020 3.62541 3.40542
# Velocity P-wave (km/s) = 7.17284 8.19879 7.70291
#
# Compressibility (1/GPa) = 0.01543262
#
# Stress axis : x y z
#
# Youngs Moduli (GPa) = 47.70922 27.31714 53.82037
#
# Poissons Ratio (x) = 0.23102 0.41378
# Poissons Ratio (y) = 0.40348 0.76492
# Poissons Ratio (z) = 0.36679 0.38824
#
# Static dielectric constant tensor:
#      x y z
#    x 1.549560 0.000000 0.000000 
#    y 0.000000 1.566650 0.000000 
#    z 0.000000 0.000000 1.578280 
# 
# From -- ./inp_files/10997.got.cif
#   From: 2010.05.17/outbox.cif.g08.bks.cpg/sg47_6_cif.got.tgz:10997.got - 2010.06.03 20:15:42.
