data_PCOD9388708
_publ_section_title
;
Structure prediction by ZEFSAII (Michael W. Deem and Ramdas Pophale) SiO2 
 PCOD9388708
Probable space group: P M M M
;
_chemical_formula_sum "Si O2"
_cell_formula_units_Z 33
_cell_length_a 7.947067
_cell_length_b 18.604598
_cell_length_c 12.403022
_cell_angle_alpha 90.000000
_cell_angle_beta 90.000000
_cell_angle_gamma 90.000000
_cell_volume 1833.811445
_symmetry_space_group_name_H-M "P M M M"
_symmetry_group_IT_number 47
_symmetry_cell_setting 'orthorhombic'
loop_
_space_group_symop_operation_xyz
x,y,z
-x,-y,z
x,-y,-z
-x,y,-z
-x,-y,-z
x,y,-z
-x,y,z
x,-y,z
loop_
_atom_site_type_symbol
_atom_site_label
_atom_site_fract_x
_atom_site_fract_y
_atom_site_fract_z
Si Si1 0.305405 0.805533 0.700517
Si Si2 0.184670 0.110791 0.500000
Si Si3 0.203207 0.919891 0.873868
Si Si4 0.805555 0.500000 0.630858
Si Si5 0.500000 0.000000 0.500000
Si Si6 0.796092 0.657063 0.625311
O O1 0.500000 0.811943 0.671348
O O2 0.197006 0.840217 0.605552
O O3 0.273403 0.854251 0.805228
O O4 0.260806 0.721576 0.701643
O O5 0.000000 0.076176 0.500000
O O6 0.348543 0.060978 0.500000
O O7 0.000000 0.918211 0.867040
O O8 0.257382 0.000000 0.834169
O O9 0.248645 0.914826 0.000000
O O10 0.809020 0.500000 0.500000
O O11 0.732488 0.577850 0.659788
O O12 0.000000 0.500000 0.668071
O O13 0.743251 0.670564 0.500000
O O14 0.000000 0.654630 0.624224
#
# Coordination Sequence:
#
# PCOD9388708 Si02
#       6
#     8   4   8   4   1   8
#     4  12  23  35  51  79 114 145 185 226 264 328
#     4  12  25  41  57  77 112 150 182 230 280 322
#     4   9  20  39  60  79  98 130 181 234 284 333
#     4   7  12  24  45  73 100 131 179 224 258 322
#     4  12  26  44  52  82 106 142 198 228 268 352
#     4   9  16  29  50  74 103 142 181 219 272 320
#
# _framework density 17.995305999999999
#
# number of rings (size 3 to 8) (size 9 to 14) (size 15 to 20)
#    0.000    2.061    2.424    4.545    1.697    0.970 
#    0.000    1.818    0.000    2.182    0.000    0.848 
#    0.000    6.788    0.000    0.000    0.000    0.000 
#
# Total GULP energy -183713.438748 kJ/mol
# GULP energy per Si atom -5567.073901 kJ/mol
# Density = 1.795435 g / cm^3
# Si number density = 17.995306 Si / 1000 Ang^3
#
#
#
# Elastic Constant Matrix: (Units=GPa)
#
#
# Indices 1 2 3 4 5 6 
#
# 1 81.2283 32.5441 9.7366 0.0000 0.0000 0.0000
# 2 32.5441 194.9709 51.2786 0.0000 0.0000 0.0000
# 3 9.7366 51.2786 43.6339 0.0000 0.0000 0.0000
# 4 0.0000 0.0000 0.0000 1.3899 0.0000 0.0000
# 5 0.0000 0.0000 0.0000 0.0000 13.1869 0.0000
# 6 0.0000 0.0000 0.0000 0.0000 0.0000 19.8847
#
#
#
# Elastic Compliance Matrix: (Units=1/GPa)
#
#
# Indices 1 2 3 4 5 6 
#
# 1 0.013201 -0.002068 -0.000516 0.000000 0.000000 0.000000
# 2 -0.002068 0.007747 -0.008643 0.000000 0.000000 0.000000
# 3 -0.000516 -0.008643 0.033191 0.000000 0.000000 0.000000
# 4 0.000000 0.000000 0.000000 0.719489 0.000000 0.000000
# 5 0.000000 0.000000 0.000000 0.000000 0.075833 0.000000
# 6 0.000000 0.000000 0.000000 0.000000 0.000000 0.050290
#
#
# Mechanical properties :
#
#
# Convention : Reuss Voigt Hill
#
# Bulk Modulus (GPa) = 31.55996 56.32796 43.94396
# Shear Modulus (GPa) = 5.36040 21.97722 13.66881
#
# Velocity S-wave (km/s) = 1.72779 3.49847 2.75903
# Velocity P-wave (km/s) = 4.64287 6.90568 5.88408
#
# Compressibility (1/GPa) = 0.03168572
#
# Stress axis : x y z
#
# Youngs Moduli (GPa) = 75.75010 129.07591 30.12906
#
# Poissons Ratio (x) = 0.26692 0.01553
# Poissons Ratio (y) = 0.15665 0.26041
# Poissons Ratio (z) = 0.03905 1.11564
#
# Static dielectric constant tensor:
#      x y z
#    x 1.638170 0.000000 0.000000 
#    y 0.000000 1.673680 0.000000 
#    z 0.000000 0.000000 1.585730 
# 
# From -- ./inp_files/14833.got.cif
#   From: 2010.05.17/outbox.cif.g08.bks.cpg/sg47_8_cif.got.tgz:14833.got - 2010.06.03 20:15:42.
