data_PCOD9388729
_publ_section_title
;
Structure prediction by ZEFSAII (Michael W. Deem and Ramdas Pophale) SiO2 
 PCOD9388729
Probable space group: P M M M
;
_chemical_formula_sum "Si O2"
_cell_formula_units_Z 40
_cell_length_a 27.191217
_cell_length_b 9.435350
_cell_length_c 7.403014
_cell_angle_alpha 90.000000
_cell_angle_beta 90.000000
_cell_angle_gamma 90.000000
_cell_volume 1899.307273
_symmetry_space_group_name_H-M "P M M M"
_symmetry_group_IT_number 47
_symmetry_cell_setting 'orthorhombic'
loop_
_space_group_symop_operation_xyz
x,y,z
-x,-y,z
x,-y,-z
-x,y,-z
-x,-y,-z
x,y,-z
-x,y,z
x,-y,z
loop_
_atom_site_type_symbol
_atom_site_label
_atom_site_fract_x
_atom_site_fract_y
_atom_site_fract_z
Si Si1 0.000000 0.838820 0.714048
Si Si2 0.798990 0.662813 0.221052
Si Si3 0.297157 0.837177 0.779512
Si Si4 0.500000 0.672405 0.789823
Si Si5 0.107538 0.161580 0.786493
Si Si6 0.607322 0.335568 0.778958
O O1 0.947283 0.775782 0.764621
O O2 0.000000 0.847761 0.500000
O O3 0.000000 0.000000 0.790781
O O4 0.797275 0.500000 0.278939
O O5 0.750704 0.749200 0.276877
O O6 0.848346 0.742270 0.283484
O O7 0.799217 0.661950 0.000000
O O8 0.347262 0.760377 0.721703
O O9 0.294652 0.000000 0.721720
O O10 0.297298 0.836764 0.000000
O O11 0.500000 0.500000 0.785578
O O12 0.446730 0.714212 0.715265
O O13 0.500000 0.715923 0.000000
O O14 0.107998 0.000000 0.712399
O O15 0.115834 0.149373 0.000000
O O16 0.614642 0.500000 0.726717
O O17 0.606028 0.334513 0.000000
#
# Coordination Sequence:
#
# PCOD9388729 Si02
#       6
#     4   8   8   4   8   8
#     4   9  17  29  46  67  88 110 136 163 192 232
#     4   9  16  25  37  53  72  94 121 154 193 236
#     4   9  15  21  29  43  63  85 110 145 191 237
#     4   7  10  16  25  35  47  69 105 145 182 223
#     4   9  16  27  44  64  84 106 133 165 198 231
#     4   8  12  18  27  37  51  75 108 145 185 229
#
# _framework density 21.060309
#
# number of rings (size 3 to 8) (size 9 to 14) (size 15 to 20)
#    0.000    3.400    0.000    2.700    0.000    6.000 
#    0.000    1.000    0.000    6.600    0.000    0.000 
#    0.000    0.000    0.000    0.000    0.000    0.000 
#
# Total GULP energy -223051.722636 kJ/mol
# GULP energy per Si atom -5576.293066 kJ/mol
# Density = 2.101237 g / cm^3
# Si number density = 21.060309 Si / 1000 Ang^3
#
#
#
# Elastic Constant Matrix: (Units=GPa)
#
#
# Indices 1 2 3 4 5 6 
#
# 1 268.5901 127.7917 3.9228 0.0000 0.0000 0.0000
# 2 127.7917 132.9102 5.3954 0.0000 0.0000 0.0000
# 3 3.9228 5.3954 69.9186 0.0000 0.0000 0.0000
# 4 0.0000 0.0000 0.0000 -11.7669 0.0000 0.0000
# 5 0.0000 0.0000 0.0000 0.0000 -39.7663 0.0000
# 6 0.0000 0.0000 0.0000 0.0000 0.0000 32.1137
#
#
#
# Elastic Compliance Matrix: (Units=1/GPa)
#
#
# Indices 1 2 3 4 5 6 
#
# 1 0.006864 -0.006604 0.000125 0.000000 0.000000 0.000000
# 2 -0.006604 0.013902 -0.000702 0.000000 0.000000 0.000000
# 3 0.000125 -0.000702 0.014350 0.000000 0.000000 0.000000
# 4 0.000000 0.000000 0.000000 -0.084984 0.000000 0.000000
# 5 0.000000 0.000000 0.000000 0.000000 -0.025147 0.000000
# 6 0.000000 0.000000 0.000000 0.000000 0.000000 0.031139
#
#
# Mechanical properties :
#
#
# Convention : Reuss Voigt Hill
#
# Bulk Modulus (GPa) = 48.18942 82.84872 65.51907
# Shear Modulus (GPa) = -221.28821 18.40336 -101.44243
#
# Velocity S-wave (km/s) = -10.26166 2.95929 -6.94782
# Velocity P-wave (km/s) = 10.83840 7.14848 5.76065
#
# Compressibility (1/GPa) = 0.02075144
#
# Stress axis : x y z
#
# Youngs Moduli (GPa) = 145.69689 71.93031 69.68856
#
# Poissons Ratio (x) = 0.47505 -0.00868
# Poissons Ratio (y) = 0.96223 0.04894
# Poissons Ratio (z) = -0.01815 0.05051
#
# Static dielectric constant tensor:
#      x y z
#    x 1.764840 0.000000 0.000000 
#    y 0.000000 1.711390 0.000000 
#    z 0.000000 0.000000 1.786880 
# 
# From -- ./inp_files/12977.got.cif
#   From: 2010.05.17/outbox.cif.g08.bks.cpg/sg47_7_cif.got.tgz:12977.got - 2010.06.03 20:15:42.
