data_PCOD9388261
_publ_section_title
;
Structure prediction by ZEFSAII (Michael W. Deem and Ramdas Pophale) SiO2 
 PCOD9388261
Probable space group: P M M M
;
_chemical_formula_sum "Si O2"
_cell_formula_units_Z 52
_cell_length_a 31.783433
_cell_length_b 11.780155
_cell_length_c 9.225050
_cell_angle_alpha 90.000000
_cell_angle_beta 90.000000
_cell_angle_gamma 90.000000
_cell_volume 3453.985723
_symmetry_space_group_name_H-M "P M M M"
_symmetry_group_IT_number 47
_symmetry_cell_setting 'orthorhombic'
loop_
_space_group_symop_operation_xyz
x,y,z
-x,-y,z
x,-y,-z
-x,y,-z
-x,-y,-z
x,y,-z
-x,y,z
x,-y,z
loop_
_atom_site_type_symbol
_atom_site_label
_atom_site_fract_x
_atom_site_fract_y
_atom_site_fract_z
Si Si1 0.252912 0.862131 0.333857
Si Si2 0.500000 0.364318 0.331209
Si Si3 0.000000 0.861621 0.167351
Si Si4 0.450546 0.000000 0.337481
Si Si5 0.427423 0.771637 0.826384
Si Si6 0.338967 0.866365 0.172856
Si Si7 0.830945 0.861550 0.167263
Si Si8 0.915491 0.138357 0.667295
O O1 0.251962 0.823558 0.500000
O O2 0.296642 0.833590 0.255976
O O3 0.211668 0.823887 0.246783
O O4 0.251375 0.000000 0.334986
O O5 0.500000 0.500000 0.328962
O O6 0.500000 0.325190 0.500000
O O7 0.458069 0.318230 0.250957
O O8 0.042332 0.825405 0.249571
O O9 0.000000 0.000000 0.168250
O O10 0.000000 0.825970 0.000000
O O11 0.440760 0.109300 0.242759
O O12 0.500000 0.000000 0.357895
O O13 0.430800 0.000000 0.500000
O O14 0.377162 0.779084 0.798406
O O15 0.433689 0.767785 0.000000
O O16 0.349484 0.000000 0.210754
O O17 0.331602 0.866597 0.000000
O O18 0.872979 0.825650 0.251493
O O19 0.830774 0.000000 0.168504
O O20 0.831798 0.826110 0.000000
O O21 0.915777 0.174118 0.500000
O O22 0.915530 0.000000 0.668120
#
# Coordination Sequence:
#
# PCOD9388261 Si02
#       8
#     8   4   4   4   8   8   8   8
#     4   9  16  24  34  50  70  94 121 146 175 218
#     4  11  25  42  55  70  93 119 147 179 214 251
#     4   9  15  21  27  35  47  63  87 123 169 219
#     4  11  21  31  47  73 100 122 142 168 210 251
#     4  11  21  34  53  73  93 117 147 178 208 246
#     4   9  17  29  42  61  87 109 129 157 195 235
#     4   9  15  22  31  41  55  79 107 136 171 213
#     4   9  15  21  28  37  49  66  92 129 170 214
#
# _framework density 15.055071999999999
#
# number of rings (size 3 to 8) (size 9 to 14) (size 15 to 20)
#    0.000    2.385    1.538    2.538    0.000    8.615 
#    0.000    0.000    0.000    0.000    0.000    0.000 
#    0.000    0.000    0.000    0.000    0.000    0.000 
#
# Total GULP energy -289502.380240 kJ/mol
# GULP energy per Si atom -5567.353466 kJ/mol
# Density = 1.502081 g / cm^3
# Si number density = 15.055072 Si / 1000 Ang^3
#
#
#
# Elastic Constant Matrix: (Units=GPa)
#
#
# Indices 1 2 3 4 5 6 
#
# 1 161.6159 18.7658 102.3147 0.0000 0.0000 0.0000
# 2 18.7658 21.5667 17.1359 0.0000 0.0000 0.0000
# 3 102.3147 17.1359 131.8837 0.0000 0.0000 0.0000
# 4 0.0000 0.0000 0.0000 8.4067 0.0000 0.0000
# 5 0.0000 0.0000 0.0000 0.0000 -9.3420 0.0000
# 6 0.0000 0.0000 0.0000 0.0000 0.0000 0.7004
#
#
#
# Elastic Compliance Matrix: (Units=1/GPa)
#
#
# Indices 1 2 3 4 5 6 
#
# 1 0.012393 -0.003506 -0.009159 0.000000 0.000000 0.000000
# 2 -0.003506 0.052698 -0.004127 0.000000 0.000000 0.000000
# 3 -0.009159 -0.004127 0.015224 0.000000 0.000000 0.000000
# 4 0.000000 0.000000 0.000000 0.118953 0.000000 0.000000
# 5 0.000000 0.000000 0.000000 0.000000 -0.107044 0.000000
# 6 0.000000 0.000000 0.000000 0.000000 0.000000 1.427821
#
#
# Mechanical properties :
#
#
# Convention : Reuss Voigt Hill
#
# Bulk Modulus (GPa) = 21.39919 65.72212 43.56065
# Shear Modulus (GPa) = 3.18633 11.74300 7.46466
#
# Velocity S-wave (km/s) = 1.45638 2.79588 2.22913
# Velocity P-wave (km/s) = 4.13193 7.36015 5.96845
#
# Compressibility (1/GPa) = 0.04673074
#
# Stress axis : x y z
#
# Youngs Moduli (GPa) = 80.69245 18.97608 65.68617
#
# Poissons Ratio (x) = 0.06653 0.60160
# Poissons Ratio (y) = 0.28293 0.27109
# Poissons Ratio (z) = 0.73903 0.07831
#
# Static dielectric constant tensor:
#      x y z
#    x 1.523460 0.000000 0.000000 
#    y 0.000000 1.459710 0.000000 
#    z 0.000000 0.000000 1.518380 
# 
# From -- ./inp_files/14147.got.cif
#   From: 2010.05.17/outbox.cif.g08.bks.cpg/sg47_8_cif.got.tgz:14147.got - 2010.06.03 20:15:42.
