data_PCOD9388832
_publ_section_title
;
Structure prediction by ZEFSAII (Michael W. Deem and Ramdas Pophale) SiO2 
 PCOD9388832
Probable space group: P M M M
;
_chemical_formula_sum "Si O2"
_cell_formula_units_Z 44
_cell_length_a 7.331384
_cell_length_b 14.719222
_cell_length_c 22.088999
_cell_angle_alpha 90.000000
_cell_angle_beta 90.000000
_cell_angle_gamma 90.000000
_cell_volume 2383.673995
_symmetry_space_group_name_H-M "P M M M"
_symmetry_group_IT_number 47
_symmetry_cell_setting 'orthorhombic'
loop_
_space_group_symop_operation_xyz
x,y,z
-x,-y,z
x,-y,-z
-x,y,-z
-x,-y,-z
x,y,-z
-x,y,z
x,-y,z
loop_
_atom_site_type_symbol
_atom_site_label
_atom_site_fract_x
_atom_site_fract_y
_atom_site_fract_z
Si Si1 0.723649 0.284089 0.684936
Si Si2 0.712619 0.897521 0.633707
Si Si3 0.280128 0.608353 0.065116
Si Si4 0.782831 0.104976 0.500000
Si Si5 0.721534 0.606189 0.433427
Si Si6 0.722559 0.605723 0.802496
O O1 0.500000 0.284170 0.684756
O O2 0.786596 0.180302 0.677175
O O3 0.782515 0.339106 0.625204
O O4 0.781608 0.334067 0.745997
O O5 0.500000 0.906585 0.647876
O O6 0.722393 0.858902 0.564869
O O7 0.791479 0.000000 0.634805
O O8 0.500000 0.618316 0.064619
O O9 0.243709 0.500000 0.065273
O O10 0.217342 0.640521 0.131125
O O11 0.213432 0.644528 0.000000
O O12 0.000000 0.105519 0.500000
O O13 0.716936 0.000000 0.500000
O O14 0.781173 0.639999 0.500000
O O15 0.500000 0.609142 0.433404
O O16 0.772232 0.500000 0.428454
O O17 0.500000 0.605773 0.802730
O O18 0.776448 0.500000 0.795115
#
# Coordination Sequence:
#
# PCOD9388832 Si02
#       6
#     8   8   8   4   8   8
#     4   9  15  20  29  43  62  87 110 132 165 208
#     4   9  17  27  38  53  72  90 108 135 173 214
#     4   7   9  13  21  33  51  78 110 139 166 197
#     4   9  17  29  43  55  66  83 110 144 179 211
#     4   8  13  19  25  35  54  78 101 126 157 192
#     4   8  12  17  25  39  61  86 110 139 173 203
#
# _framework density 18.458901000000001
#
# number of rings (size 3 to 8) (size 9 to 14) (size 15 to 20)
#    0.000    3.727    0.000    3.000    1.273    3.273 
#    0.000    0.000    0.000    0.000    0.000    0.000 
#    0.000    6.545    0.000   10.182    0.000    1.273 
#
# Total GULP energy -245088.548872 kJ/mol
# GULP energy per Si atom -5570.194293 kJ/mol
# Density = 1.841689 g / cm^3
# Si number density = 18.458901 Si / 1000 Ang^3
#
#
#
# Elastic Constant Matrix: (Units=GPa)
#
#
# Indices 1 2 3 4 5 6 
#
# 1 70.7389 4.1058 4.8070 0.0000 0.0000 0.0000
# 2 4.1058 79.8440 84.6354 0.0000 0.0000 0.0000
# 3 4.8070 84.6354 196.5058 0.0000 0.0000 0.0000
# 4 0.0000 0.0000 0.0000 6.3553 0.0000 0.0000
# 5 0.0000 0.0000 0.0000 0.0000 -39.6516 0.0000
# 6 0.0000 0.0000 0.0000 0.0000 0.0000 -26.0274
#
#
#
# Elastic Compliance Matrix: (Units=1/GPa)
#
#
# Indices 1 2 3 4 5 6 
#
# 1 0.014179 -0.000665 -0.000060 0.000000 0.000000 0.000000
# 2 -0.000665 0.023077 -0.009923 0.000000 0.000000 0.000000
# 3 -0.000060 -0.009923 0.009364 0.000000 0.000000 0.000000
# 4 0.000000 0.000000 0.000000 0.157348 0.000000 0.000000
# 5 0.000000 0.000000 0.000000 0.000000 -0.025220 0.000000
# 6 0.000000 0.000000 0.000000 0.000000 0.000000 -0.038421
#
#
# Mechanical properties :
#
#
# Convention : Reuss Voigt Hill
#
# Bulk Modulus (GPa) = 39.48907 59.35390 49.42149
# Shear Modulus (GPa) = 29.40023 5.03795 17.21909
#
# Velocity S-wave (km/s) = 3.99524 1.65384 3.05755
# Velocity P-wave (km/s) = 6.53621 5.98927 6.26871
#
# Compressibility (1/GPa) = 0.02532346
#
# Stress axis : x y z
#
# Youngs Moduli (GPa) = 70.52579 43.33266 106.78843
#
# Poissons Ratio (x) = 0.02882 0.00645
# Poissons Ratio (y) = 0.04691 1.05968
# Poissons Ratio (z) = 0.00426 0.43000
#
# Static dielectric constant tensor:
#      x y z
#    x 1.679660 0.000000 0.000000 
#    y 0.000000 1.636980 0.000000 
#    z 0.000000 0.000000 1.666160 
# 
# From -- ./inp_files/12429.got.cif
#   From: 2010.05.17/outbox.cif.g08.bks.cpg/sg47_7_cif.got.tgz:12429.got - 2010.06.03 20:15:42.
