data_PCOD9388309
_publ_section_title
;
Structure prediction by ZEFSAII (Michael W. Deem and Ramdas Pophale) SiO2 
 PCOD9388309
Probable space group: P M M M
;
_chemical_formula_sum "Si O2"
_cell_formula_units_Z 52
_cell_length_a 14.567262
_cell_length_b 20.523262
_cell_length_c 9.448842
_cell_angle_alpha 90.000000
_cell_angle_beta 90.000000
_cell_angle_gamma 90.000000
_cell_volume 2824.898888
_symmetry_space_group_name_H-M "P M M M"
_symmetry_group_IT_number 47
_symmetry_cell_setting 'orthorhombic'
loop_
_space_group_symop_operation_xyz
x,y,z
-x,-y,z
x,-y,-z
-x,y,-z
-x,-y,-z
x,y,-z
-x,y,z
x,-y,z
loop_
_atom_site_type_symbol
_atom_site_label
_atom_site_fract_x
_atom_site_fract_y
_atom_site_fract_z
Si Si1 0.606119 0.611598 0.165570
Si Si2 0.394921 0.000000 0.328234
Si Si3 0.219940 0.427655 0.331984
Si Si4 0.279539 0.127579 0.669698
Si Si5 0.890445 0.320564 0.162398
Si Si6 0.107032 0.832406 0.168696
Si Si7 0.608496 0.767426 0.837460
O O1 0.500000 0.596725 0.198687
O O2 0.679269 0.577500 0.264398
O O3 0.619232 0.689811 0.180538
O O4 0.621364 0.595591 0.000000
O O5 0.339337 0.064606 0.287641
O O6 0.500000 0.000000 0.276259
O O7 0.398754 0.000000 0.500000
O O8 0.224290 0.419577 0.500000
O O9 0.182049 0.500000 0.300840
O O10 0.160357 0.370708 0.262652
O O11 0.272679 0.129842 0.500000
O O12 0.179648 0.127285 0.741257
O O13 0.332657 0.190511 0.729848
O O14 0.874637 0.244549 0.196560
O O15 0.000000 0.330481 0.167931
O O16 0.859640 0.331044 0.000000
O O17 0.000000 0.845202 0.201843
O O18 0.119123 0.842317 0.000000
O O19 0.500000 0.781676 0.821286
O O20 0.635145 0.783110 0.000000
#
# Coordination Sequence:
#
# PCOD9388309 Si02
#       7
#     8   4   8   8   8   8   8
#     4   9  19  36  56  76  99 132 175 220 265 314
#     4   9  20  38  54  73 110 154 187 215 252 301
#     4  11  24  37  49  72 107 142 173 211 264 319
#     4  11  21  33  54  81 108 142 182 221 260 304
#     4   9  19  37  60  82 103 133 174 216 259 312
#     4   9  19  37  59  82 109 138 169 213 269 320
#     4   9  18  33  53  78 107 135 167 215 271 320
#
# _framework density 18.407738999999999
#
# number of rings (size 3 to 8) (size 9 to 14) (size 15 to 20)
#    0.000    2.385    0.000    4.154    0.000    8.615 
#    0.000    8.077    0.000    5.077    0.000    0.000 
#    0.000    0.000    0.000    0.000    0.000    0.000 
#
# Total GULP energy -290350.522663 kJ/mol
# GULP energy per Si atom -5583.663897 kJ/mol
# Density = 1.836584 g / cm^3
# Si number density = 18.407739 Si / 1000 Ang^3
#
#
#
# Elastic Constant Matrix: (Units=GPa)
#
#
# Indices 1 2 3 4 5 6 
#
# 1 104.0637 58.3475 56.8007 0.0000 0.0000 0.0000
# 2 58.3475 48.7854 42.7206 0.0000 0.0000 0.0000
# 3 56.8007 42.7206 58.9938 0.0000 0.0000 0.0000
# 4 0.0000 0.0000 0.0000 29.5848 0.0000 0.0000
# 5 0.0000 0.0000 0.0000 0.0000 12.8836 0.0000
# 6 0.0000 0.0000 0.0000 0.0000 0.0000 10.7645
#
#
#
# Elastic Compliance Matrix: (Units=1/GPa)
#
#
# Indices 1 2 3 4 5 6 
#
# 1 0.030515 -0.029431 -0.008068 0.000000 0.000000 0.000000
# 2 -0.029431 0.084411 -0.032790 0.000000 0.000000 0.000000
# 3 -0.008068 -0.032790 0.048464 0.000000 0.000000 0.000000
# 4 0.000000 0.000000 0.000000 0.033801 0.000000 0.000000
# 5 0.000000 0.000000 0.000000 0.000000 0.077618 0.000000
# 6 0.000000 0.000000 0.000000 0.000000 0.000000 0.092898
#
#
# Mechanical properties :
#
#
# Convention : Reuss Voigt Hill
#
# Bulk Modulus (GPa) = 43.83585 58.62005 51.22795
# Shear Modulus (GPa) = 9.69205 14.24486 11.96846
#
# Velocity S-wave (km/s) = 2.29709 2.78484 2.55264
# Velocity P-wave (km/s) = 5.55887 6.50038 6.04797
#
# Compressibility (1/GPa) = 0.02281238
#
# Stress axis : x y z
#
# Youngs Moduli (GPa) = 32.77109 11.84685 20.63401
#
# Poissons Ratio (x) = 0.34866 0.16647
# Poissons Ratio (y) = 0.96448 0.67658
# Poissons Ratio (z) = 0.26439 0.38845
#
# Static dielectric constant tensor:
#      x y z
#    x 1.645740 0.000000 0.000000 
#    y 0.000000 1.629190 0.000000 
#    z 0.000000 0.000000 1.603900 
# 
# From -- ./inp_files/6993.got.cif
#   From: 2010.05.17/outbox.cif.g08.bks.cpg/sg47_4_cif.got.tgz:6993.got - 2010.06.03 20:15:42.
