data_PCOD9388543
_publ_section_title
;
Structure prediction by ZEFSAII (Michael W. Deem and Ramdas Pophale) SiO2 
 PCOD9388543
Probable space group: P M M M
;
_chemical_formula_sum "Si O2"
_cell_formula_units_Z 32
_cell_length_a 15.949878
_cell_length_b 8.247609
_cell_length_c 12.489232
_cell_angle_alpha 90.000000
_cell_angle_beta 90.000000
_cell_angle_gamma 90.000000
_cell_volume 1642.937954
_symmetry_space_group_name_H-M "P M M M"
_symmetry_group_IT_number 47
_symmetry_cell_setting 'orthorhombic'
loop_
_space_group_symop_operation_xyz
x,y,z
-x,-y,z
x,-y,-z
-x,y,-z
-x,-y,-z
x,y,-z
-x,y,z
x,-y,z
loop_
_atom_site_type_symbol
_atom_site_label
_atom_site_fract_x
_atom_site_fract_y
_atom_site_fract_z
Si Si1 0.652967 0.191831 0.729685
Si Si2 0.903728 0.197533 0.000000
Si Si3 0.000000 0.801815 0.375828
Si Si4 0.500000 0.692993 0.122393
Si Si5 0.841556 0.801443 0.231265
Si Si6 0.399868 0.685112 0.500000
O O1 0.582757 0.258245 0.810742
O O2 0.747717 0.254848 0.743585
O O3 0.627653 0.228563 0.608199
O O4 0.654847 0.000000 0.747169
O O5 0.862453 0.249908 0.110467
O O6 0.000000 0.248038 0.000000
O O7 0.902139 0.000000 0.000000
O O8 0.083962 0.750499 0.311796
O O9 0.000000 0.750402 0.500000
O O10 0.000000 0.000000 0.375249
O O11 0.500000 0.500000 0.116196
O O12 0.500000 0.758293 0.000000
O O13 0.841925 0.000000 0.234550
O O14 0.368489 0.500000 0.500000
O O15 0.500000 0.680642 0.500000
#
# Coordination Sequence:
#
# PCOD9388543 Si02
#       6
#     8   4   4   4   8   4
#     4  11  23  37  60  91 119 146 189 248 298 335
#     4   9  14  26  46  69 109 154 186 217 273 346
#     4   9  16  27  43  67 111 157 183 217 280 351
#     4  11  25  44  61  80 115 161 201 233 280 353
#     4   9  18  29  46  77 113 149 184 227 283 340
#     4  11  23  41  63  82 112 155 197 236 284 354
#
# _framework density 19.477302999999999
#
# number of rings (size 3 to 8) (size 9 to 14) (size 15 to 20)
#    0.000    2.000    2.500    1.500    3.500    1.500 
#    0.000    0.000    0.000    0.000    0.000    4.375 
#    0.000    6.000    0.000    0.000    0.000    0.000 
#
# Total GULP energy -178578.620775 kJ/mol
# GULP energy per Si atom -5580.581899 kJ/mol
# Density = 1.943297 g / cm^3
# Si number density = 19.477303 Si / 1000 Ang^3
#
#
#
# Elastic Constant Matrix: (Units=GPa)
#
#
# Indices 1 2 3 4 5 6 
#
# 1 195.0752 19.4572 117.2702 0.0000 0.0000 0.0000
# 2 19.4572 18.2043 9.0044 0.0000 0.0000 0.0000
# 3 117.2702 9.0044 203.2033 0.0000 0.0000 0.0000
# 4 0.0000 0.0000 0.0000 18.1171 0.0000 0.0000
# 5 0.0000 0.0000 0.0000 0.0000 71.8267 0.0000
# 6 0.0000 0.0000 0.0000 0.0000 0.0000 -20.9323
#
#
#
# Elastic Compliance Matrix: (Units=1/GPa)
#
#
# Indices 1 2 3 4 5 6 
#
# 1 0.008622 -0.006906 -0.004670 0.000000 0.000000 0.000000
# 2 -0.006906 0.061694 0.001252 0.000000 0.000000 0.000000
# 3 -0.004670 0.001252 0.007561 0.000000 0.000000 0.000000
# 4 0.000000 0.000000 0.000000 0.055196 0.000000 0.000000
# 5 0.000000 0.000000 0.000000 0.000000 0.013922 0.000000
# 6 0.000000 0.000000 0.000000 0.000000 0.000000 -0.047773
#
#
# Mechanical properties :
#
#
# Convention : Reuss Voigt Hill
#
# Bulk Modulus (GPa) = 17.47373 78.66071 48.06722
# Shear Modulus (GPa) = 35.98462 31.85236 33.91849
#
# Velocity S-wave (km/s) = 4.30294 4.04834 4.17758
# Velocity P-wave (km/s) = 5.80326 7.89466 6.92833
#
# Compressibility (1/GPa) = 0.05722875
#
# Stress axis : x y z
#
# Youngs Moduli (GPa) = 115.97592 16.20901 132.26010
#
# Poissons Ratio (x) = 0.11194 0.61767
# Poissons Ratio (y) = 0.80092 -0.16555
# Poissons Ratio (z) = 0.54162 -0.02029
#
# Static dielectric constant tensor:
#      x y z
#    x 1.684120 0.000000 0.000000 
#    y 0.000000 1.678000 0.000000 
#    z 0.000000 0.000000 1.766770 
# 
# From -- ./inp_files/17111.got.cif
#   From: 2010.05.17/outbox.cif.g08.bks.cpg/sg47_9_cif.got.tgz:17111.got - 2010.06.03 20:15:42.
