data_PCOD9388807
_publ_section_title
;
Structure prediction by ZEFSAII (Michael W. Deem and Ramdas Pophale) SiO2 
 PCOD9388807
Probable space group: P M M M
;
_chemical_formula_sum "Si O2"
_cell_formula_units_Z 44
_cell_length_a 7.405527
_cell_length_b 9.891729
_cell_length_c 29.412072
_cell_angle_alpha 90.000000
_cell_angle_beta 90.000000
_cell_angle_gamma 90.000000
_cell_volume 2154.536222
_symmetry_space_group_name_H-M "P M M M"
_symmetry_group_IT_number 47
_symmetry_cell_setting 'orthorhombic'
loop_
_space_group_symop_operation_xyz
x,y,z
-x,-y,z
x,-y,-z
-x,y,-z
-x,-y,-z
x,y,-z
-x,y,z
x,-y,z
loop_
_atom_site_type_symbol
_atom_site_label
_atom_site_fract_x
_atom_site_fract_y
_atom_site_fract_z
Si Si1 0.220056 0.844061 0.283647
Si Si2 0.291156 0.334962 0.000000
Si Si3 0.780077 0.154063 0.551827
Si Si4 0.216174 0.847902 0.818284
Si Si5 0.284389 0.652496 0.901923
Si Si6 0.220857 0.344379 0.366310
O O1 0.278844 0.807776 0.232359
O O2 0.279458 0.740110 0.322105
O O3 0.000000 0.842930 0.284388
O O4 0.273271 0.000000 0.292757
O O5 0.212626 0.295887 0.950884
O O6 0.289227 0.500000 0.000000
O O7 0.500000 0.289345 0.000000
O O8 0.723739 0.183002 0.500000
O O9 0.721152 0.262399 0.588905
O O10 0.000000 0.154707 0.552033
O O11 0.725778 0.000000 0.563376
O O12 0.255625 0.747257 0.859043
O O13 0.000000 0.854910 0.815166
O O14 0.282757 0.000000 0.827734
O O15 0.500000 0.642485 0.907885
O O16 0.216253 0.500000 0.893707
O O17 0.278736 0.500000 0.365862
O O18 0.000000 0.344755 0.366293
#
# Coordination Sequence:
#
# PCOD9388807 Si02
#       6
#     8   4   8   8   8   8
#     4   8  14  25  38  49  66  96 130 161 195 240
#     4   7  12  26  46  65  86 112 142 175 208 247
#     4   8  13  20  28  37  52  79 115 152 191 237
#     4   9  18  31  45  63  88 116 145 178 217 258
#     4   9  17  30  49  70  89 112 144 179 214 254
#     4   9  15  20  28  44  63  83 113 156 201 240
#
# _framework density 20.422029999999999
#
# number of rings (size 3 to 8) (size 9 to 14) (size 15 to 20)
#    0.000    3.545    0.000    3.273    0.000    4.000 
#    0.000    4.545    0.000    4.364    0.000    0.000 
#    0.000    0.000    0.000    0.000    0.000    0.909 
#
# Total GULP energy -245271.548541 kJ/mol
# GULP energy per Si atom -5574.353376 kJ/mol
# Density = 2.037555 g / cm^3
# Si number density = 20.422030 Si / 1000 Ang^3
#
#
#
# Elastic Constant Matrix: (Units=GPa)
#
#
# Indices 1 2 3 4 5 6 
#
# 1 65.7150 4.5480 6.0582 0.0000 0.0000 0.0000
# 2 4.5480 152.1506 156.1774 0.0000 0.0000 0.0000
# 3 6.0582 156.1774 228.5122 0.0000 0.0000 0.0000
# 4 0.0000 0.0000 0.0000 41.6784 0.0000 0.0000
# 5 0.0000 0.0000 0.0000 0.0000 13.9877 0.0000
# 6 0.0000 0.0000 0.0000 0.0000 0.0000 3.1067
#
#
#
# Elastic Compliance Matrix: (Units=1/GPa)
#
#
# Indices 1 2 3 4 5 6 
#
# 1 0.015255 -0.000137 -0.000311 0.000000 0.000000 0.000000
# 2 -0.000137 0.022022 -0.015048 0.000000 0.000000 0.000000
# 3 -0.000311 -0.015048 0.014669 0.000000 0.000000 0.000000
# 4 0.000000 0.000000 0.000000 0.023993 0.000000 0.000000
# 5 0.000000 0.000000 0.000000 0.000000 0.071491 0.000000
# 6 0.000000 0.000000 0.000000 0.000000 0.000000 0.321886
#
#
# Mechanical properties :
#
#
# Convention : Reuss Voigt Hill
#
# Bulk Modulus (GPa) = 47.71981 86.66055 67.19018
# Shear Modulus (GPa) = 9.85623 30.39418 20.12521
#
# Velocity S-wave (km/s) = 2.19926 3.86204 3.14262
# Velocity P-wave (km/s) = 5.46503 7.90026 6.79267
#
# Compressibility (1/GPa) = 0.02095566
#
# Stress axis : x y z
#
# Youngs Moduli (GPa) = 65.55073 45.40816 68.17202
#
# Poissons Ratio (x) = 0.00622 0.02119
# Poissons Ratio (y) = 0.00897 1.02583
# Poissons Ratio (z) = 0.02038 0.68329
#
# Static dielectric constant tensor:
#      x y z
#    x 1.825230 0.000000 0.000000 
#    y 0.000000 1.690330 0.000000 
#    z 0.000000 0.000000 1.733810 
# 
# From -- ./inp_files/2298.got.cif
#   From: 2010.05.17/outbox.cif.g08.bks.cpg/sg47_2_cif.got.tgz:2298.got - 2010.06.03 20:15:42.
