data_PCOD9388226
_publ_section_title
;
Structure prediction by ZEFSAII (Michael W. Deem and Ramdas Pophale) SiO2 
 PCOD9388226
Probable space group: P M M M
;
_chemical_formula_sum "Si O2"
_cell_formula_units_Z 52
_cell_length_a 14.199066
_cell_length_b 7.889929
_cell_length_c 29.188376
_cell_angle_alpha 90.000000
_cell_angle_beta 90.000000
_cell_angle_gamma 90.000000
_cell_volume 3269.962748
_symmetry_space_group_name_H-M "P M M M"
_symmetry_group_IT_number 47
_symmetry_cell_setting 'orthorhombic'
loop_
_space_group_symop_operation_xyz
x,y,z
-x,-y,z
x,-y,-z
-x,y,-z
-x,-y,-z
x,y,-z
-x,y,z
x,-y,z
loop_
_atom_site_type_symbol
_atom_site_label
_atom_site_fract_x
_atom_site_fract_y
_atom_site_fract_z
Si Si1 0.104364 0.698553 0.595437
Si Si2 0.798031 0.196542 0.686219
Si Si3 0.885352 0.695018 0.882067
Si Si4 0.114844 0.000000 0.052741
Si Si5 0.395102 0.294964 0.643451
Si Si6 0.704204 0.707550 0.551128
Si Si7 0.107618 0.295650 0.220418
O O1 0.098109 0.500000 0.583603
O O2 0.138941 0.709145 0.648098
O O3 0.190943 0.767583 0.565419
O O4 0.000000 0.773279 0.589855
O O5 0.689251 0.238151 0.676264
O O6 0.829608 0.238794 0.737347
O O7 0.813905 0.000000 0.677398
O O8 0.854902 0.500000 0.890202
O O9 0.855417 0.831620 0.919685
O O10 0.858746 0.752038 0.830569
O O11 0.000000 0.691889 0.881847
O O12 0.000000 0.000000 0.052801
O O13 0.145428 0.000000 0.000000
O O14 0.500000 0.235602 0.654988
O O15 0.395280 0.500000 0.643898
O O16 0.365152 0.240887 0.592045
O O17 0.679119 0.762020 0.500000
O O18 0.705178 0.500000 0.551432
O O19 0.104480 0.500000 0.220359
O O20 0.000000 0.233727 0.226845
#
# Coordination Sequence:
#
# PCOD9388226 Si02
#       7
#     8   8   8   4   8   8   8
#     4   9  17  29  43  59  84 114 139 166 200 244
#     4  11  21  29  42  64  85 107 137 172 210 255
#     4   8  15  26  38  54  78 110 148 190 232 268
#     4   9  16  24  36  54  78 112 153 197 234 263
#     4   9  18  33  50  64  81 106 133 165 207 255
#     4   8  14  25  43  68  89 101 125 168 211 249
#     4   9  17  29  44  61  84 114 145 180 219 256
#
# _framework density 15.902322
#
# number of rings (size 3 to 8) (size 9 to 14) (size 15 to 20)
#    0.000    3.000    0.000    3.692    1.077    3.692 
#    0.000    4.615    0.000    7.385    0.000    8.615 
#    0.000    0.000    0.000    0.000    0.000    1.538 
#
# Total GULP energy -289665.236047 kJ/mol
# GULP energy per Si atom -5570.485309 kJ/mol
# Density = 1.586613 g / cm^3
# Si number density = 15.902322 Si / 1000 Ang^3
#
#
#
# Elastic Constant Matrix: (Units=GPa)
#
#
# Indices 1 2 3 4 5 6 
#
# 1 53.6110 3.7959 23.6062 0.0000 0.0000 0.0000
# 2 3.7959 31.9260 23.3671 0.0000 0.0000 0.0000
# 3 23.6062 23.3671 111.0134 0.0000 0.0000 0.0000
# 4 0.0000 0.0000 0.0000 68.3495 0.0000 0.0000
# 5 0.0000 0.0000 0.0000 0.0000 7.9090 0.0000
# 6 0.0000 0.0000 0.0000 0.0000 0.0000 2.0387
#
#
#
# Elastic Compliance Matrix: (Units=1/GPa)
#
#
# Indices 1 2 3 4 5 6 
#
# 1 0.020601 0.000895 -0.004569 0.000000 0.000000 0.000000
# 2 0.000895 0.037066 -0.007992 0.000000 0.000000 0.000000
# 3 -0.004569 -0.007992 0.011662 0.000000 0.000000 0.000000
# 4 0.000000 0.000000 0.000000 0.014631 0.000000 0.000000
# 5 0.000000 0.000000 0.000000 0.000000 0.126438 0.000000
# 6 0.000000 0.000000 0.000000 0.000000 0.000000 0.490506
#
#
# Mechanical properties :
#
#
# Convention : Reuss Voigt Hill
#
# Bulk Modulus (GPa) = 21.74111 33.12096 27.43104
# Shear Modulus (GPa) = 6.76071 25.37820 16.06945
#
# Velocity S-wave (km/s) = 2.06413 3.99918 3.18230
# Velocity P-wave (km/s) = 4.40252 6.49597 5.54886
#
# Compressibility (1/GPa) = 0.04599580
#
# Stress axis : x y z
#
# Youngs Moduli (GPa) = 48.54035 26.97920 85.75041
#
# Poissons Ratio (x) = -0.02414 0.39180
# Poissons Ratio (y) = -0.04343 0.68533
# Poissons Ratio (z) = 0.22178 0.21562
#
# Static dielectric constant tensor:
#      x y z
#    x 1.522780 0.000000 0.000000 
#    y 0.000000 1.576060 0.000000 
#    z 0.000000 0.000000 1.531610 
# 
# From -- ./inp_files/32653.got.cif
#   From: 2010.05.17/outbox.cif.g08.bks.cpg/sg47_17_cif.got.tgz:32653.got - 2010.06.03 20:15:42.
