data_PCOD9388297
_publ_section_title
;
Structure prediction by ZEFSAII (Michael W. Deem and Ramdas Pophale) SiO2 
 PCOD9388297
Probable space group: P M M M
;
_chemical_formula_sum "Si O2"
_cell_formula_units_Z 52
_cell_length_a 21.057974
_cell_length_b 7.545455
_cell_length_c 15.181974
_cell_angle_alpha 90.000000
_cell_angle_beta 90.000000
_cell_angle_gamma 90.000000
_cell_volume 2412.294140
_symmetry_space_group_name_H-M "P M M M"
_symmetry_group_IT_number 47
_symmetry_cell_setting 'orthorhombic'
loop_
_space_group_symop_operation_xyz
x,y,z
-x,-y,z
x,-y,-z
-x,y,-z
-x,-y,-z
x,y,-z
-x,y,z
x,-y,z
loop_
_atom_site_type_symbol
_atom_site_label
_atom_site_fract_x
_atom_site_fract_y
_atom_site_fract_z
Si Si1 0.000000 0.718150 0.101789
Si Si2 0.232293 0.786160 0.099057
Si Si3 0.621321 0.783891 0.902117
Si Si4 0.569452 0.216905 0.718613
Si Si5 0.687177 0.784634 0.602211
Si Si6 0.115377 0.704409 0.220330
Si Si7 0.170500 0.789456 0.598354
O O1 0.061433 0.781647 0.156545
O O2 0.000000 0.500000 0.098433
O O3 0.000000 0.775990 0.000000
O O4 0.305191 0.731089 0.113582
O O5 0.182523 0.725814 0.171150
O O6 0.232158 0.000000 0.100587
O O7 0.213516 0.729054 0.000000
O O8 0.579575 0.728345 0.819814
O O9 0.620624 0.000000 0.903293
O O10 0.602277 0.725166 0.000000
O O11 0.500000 0.272410 0.686186
O O12 0.629834 0.278960 0.662722
O O13 0.570402 0.000000 0.716528
O O14 0.675278 0.742959 0.500000
O O15 0.758678 0.721455 0.622999
O O16 0.687762 0.000000 0.610435
O O17 0.099453 0.500000 0.226605
O O18 0.123036 0.764028 0.320873
O O19 0.153490 0.722184 0.500000
O O20 0.177465 0.000000 0.590046
#
# Coordination Sequence:
#
# PCOD9388297 Si02
#       7
#     4   8   8   8   8   8   8
#     4   9  20  38  54  71 102 140 167 185 222 287
#     4   9  17  30  49  71  95 126 164 204 245 290
#     4   8  14  24  37  54  79 114 154 193 234 280
#     4   9  15  20  29  50  82 119 154 187 226 276
#     4   8  14  25  41  60  83 115 153 190 232 282
#     4  11  21  33  53  77 101 130 161 198 242 284
#     4   9  18  34  55  75  97 129 166 202 243 291
#
# _framework density 21.556245000000001
#
# number of rings (size 3 to 8) (size 9 to 14) (size 15 to 20)
#    0.000    3.000    0.000    3.692    0.000    4.308 
#    0.000    5.000    0.000    5.077    0.000    0.000 
#    0.000    9.846    0.000   27.077    0.000   27.077 
#
# Total GULP energy -290066.704738 kJ/mol
# GULP energy per Si atom -5578.205860 kJ/mol
# Density = 2.150718 g / cm^3
# Si number density = 21.556245 Si / 1000 Ang^3
#
#
#
# Elastic Constant Matrix: (Units=GPa)
#
#
# Indices 1 2 3 4 5 6 
#
# 1 66.2630 8.1111 76.4904 0.0000 0.0000 0.0000
# 2 8.1111 45.3142 9.9586 0.0000 0.0000 0.0000
# 3 76.4904 9.9586 145.4043 0.0000 0.0000 0.0000
# 4 0.0000 0.0000 0.0000 -6.8934 0.0000 0.0000
# 5 0.0000 0.0000 0.0000 0.0000 22.6377 0.0000
# 6 0.0000 0.0000 0.0000 0.0000 0.0000 9.2967
#
#
#
# Elastic Compliance Matrix: (Units=1/GPa)
#
#
# Indices 1 2 3 4 5 6 
#
# 1 0.038699 -0.002491 -0.020187 0.000000 0.000000 0.000000
# 2 -0.002491 0.022566 -0.000235 0.000000 0.000000 0.000000
# 3 -0.020187 -0.000235 0.017513 0.000000 0.000000 0.000000
# 4 0.000000 0.000000 0.000000 -0.145067 0.000000 0.000000
# 5 0.000000 0.000000 0.000000 0.000000 0.044174 0.000000
# 6 0.000000 0.000000 0.000000 0.000000 0.000000 0.107565
#
#
# Mechanical properties :
#
#
# Convention : Reuss Voigt Hill
#
# Bulk Modulus (GPa) = 30.34744 49.56685 39.95714
# Shear Modulus (GPa) = 35.14660 15.83631 25.49146
#
# Velocity S-wave (km/s) = 4.04228 2.71338 3.44256
# Velocity P-wave (km/s) = 5.99128 5.73243 5.86328
#
# Compressibility (1/GPa) = 0.03295171
#
# Stress axis : x y z
#
# Youngs Moduli (GPa) = 25.84017 44.31514 57.10005
#
# Poissons Ratio (x) = 0.11037 1.15270
# Poissons Ratio (y) = 0.06436 0.01344
# Poissons Ratio (z) = 0.52165 0.01043
#
# Static dielectric constant tensor:
#      x y z
#    x 1.776850 0.000000 0.000000 
#    y 0.000000 1.837100 0.000000 
#    z 0.000000 0.000000 1.787260 
# 
# From -- ./inp_files/25016.got.cif
#   From: 2010.05.17/outbox.cif.g08.bks.cpg/sg47_13_cif.got.tgz:25016.got - 2010.06.03 20:15:42.
