data_PCOD9388022
_publ_section_title
;
Structure prediction by ZEFSAII (Michael W. Deem and Ramdas Pophale) SiO2 
 PCOD9388022
Probable space group: P M M M
;
_chemical_formula_sum "Si O2"
_cell_formula_units_Z 28
_cell_length_a 7.462973
_cell_length_b 9.357074
_cell_length_c 21.975797
_cell_angle_alpha 90.000000
_cell_angle_beta 90.000000
_cell_angle_gamma 90.000000
_cell_volume 1534.604860
_symmetry_space_group_name_H-M "P M M M"
_symmetry_group_IT_number 47
_symmetry_cell_setting 'orthorhombic'
loop_
_space_group_symop_operation_xyz
x,y,z
-x,-y,z
x,-y,-z
-x,y,-z
-x,-y,-z
x,y,-z
-x,y,z
x,-y,z
loop_
_atom_site_type_symbol
_atom_site_label
_atom_site_fract_x
_atom_site_fract_y
_atom_site_fract_z
Si Si1 0.500000 0.670283 0.277721
Si Si2 0.210719 0.669145 0.620646
Si Si3 0.500000 0.829578 0.149981
Si Si4 0.781679 0.836049 0.500000
Si Si5 0.212956 0.666813 0.928438
O O1 0.500000 0.500000 0.263565
O O2 0.671507 0.701129 0.320293
O O3 0.500000 0.761452 0.216914
O O4 0.229796 0.500000 0.607796
O O5 0.272954 0.755696 0.561466
O O6 0.000000 0.698252 0.631066
O O7 0.670979 0.768962 0.113388
O O8 0.500000 0.000000 0.152027
O O9 0.000000 0.832764 0.500000
O O10 0.724190 0.000000 0.500000
O O11 0.255480 0.500000 0.915326
O O12 0.000000 0.685533 0.919691
O O13 0.251652 0.690897 0.000000
#
# Coordination Sequence:
#
# PCOD9388022 Si02
#       5
#     4   8   4   4   8
#     4  10  22  38  54  74 101 140 190 229 260 312
#     4   9  18  34  55  76  99 130 172 223 271 313
#     4  12  25  37  53  82 120 155 183 221 278 337
#     4   9  17  30  51  78 105 133 164 205 265 330
#     4   9  19  38  64  89 111 142 187 233 273 318
#
# _framework density 18.245740000000001
#
# number of rings (size 3 to 8) (size 9 to 14) (size 15 to 20)
#    0.000    2.429    0.000    3.000    0.000    7.429 
#    0.000    7.143    0.000    0.000    0.000    0.000 
#    0.000    0.000    0.000    0.000    0.000    0.000 
#
# Total GULP energy -156366.841695 kJ/mol
# GULP energy per Si atom -5584.530061 kJ/mol
# Density = 1.820421 g / cm^3
# Si number density = 18.245740 Si / 1000 Ang^3
#
#
#
# Elastic Constant Matrix: (Units=GPa)
#
#
# Indices 1 2 3 4 5 6 
#
# 1 89.3734 71.0720 77.4384 0.0000 0.0000 0.0000
# 2 71.0720 126.1208 121.7041 0.0000 0.0000 0.0000
# 3 77.4384 121.7041 160.0530 0.0000 0.0000 0.0000
# 4 0.0000 0.0000 0.0000 -16.3396 0.0000 0.0000
# 5 0.0000 0.0000 0.0000 0.0000 56.4693 0.0000
# 6 0.0000 0.0000 0.0000 0.0000 0.0000 2.4785
#
#
#
# Elastic Compliance Matrix: (Units=1/GPa)
#
#
# Indices 1 2 3 4 5 6 
#
# 1 0.021060 -0.007645 -0.004377 0.000000 0.000000 0.000000
# 2 -0.007645 0.032557 -0.021058 0.000000 0.000000 0.000000
# 3 -0.004377 -0.021058 0.024378 0.000000 0.000000 0.000000
# 4 0.000000 0.000000 0.000000 -0.061201 0.000000 0.000000
# 5 0.000000 0.000000 0.000000 0.000000 0.017709 0.000000
# 6 0.000000 0.000000 0.000000 0.000000 0.000000 0.403476
#
#
# Mechanical properties :
#
#
# Convention : Reuss Voigt Hill
#
# Bulk Modulus (GPa) = 84.47892 101.77511 93.12702
# Shear Modulus (GPa) = 9.84093 15.54382 12.69237
#
# Velocity S-wave (km/s) = 2.32492 2.92192 2.64035
# Velocity P-wave (km/s) = 7.32176 8.20273 7.77473
#
# Compressibility (1/GPa) = 0.01183727
#
# Stress axis : x y z
#
# Youngs Moduli (GPa) = 47.48239 30.71539 41.02110
#
# Poissons Ratio (x) = 0.23481 0.17954
# Poissons Ratio (y) = 0.36298 0.86381
# Poissons Ratio (z) = 0.20782 0.64679
#
# Static dielectric constant tensor:
#      x y z
#    x 1.650210 0.000000 0.000000 
#    y 0.000000 1.599320 0.000000 
#    z 0.000000 0.000000 1.587190 
# 
# From -- ./inp_files/29008.got.cif
#   From: 2010.05.17/outbox.cif.g08.bks.cpg/sg47_15_cif.got.tgz:29008.got - 2010.06.03 20:15:42.
