data_PCOD9388534
_publ_section_title
;
Structure prediction by ZEFSAII (Michael W. Deem and Ramdas Pophale) SiO2 
 PCOD9388534
Probable space group: P M M M
;
_chemical_formula_sum "Si O2"
_cell_formula_units_Z 40
_cell_length_a 9.210491
_cell_length_b 12.734179
_cell_length_c 22.717658
_cell_angle_alpha 90.000000
_cell_angle_beta 90.000000
_cell_angle_gamma 90.000000
_cell_volume 2664.509605
_symmetry_space_group_name_H-M "P M M M"
_symmetry_group_IT_number 47
_symmetry_cell_setting 'orthorhombic'
loop_
_space_group_symop_operation_xyz
x,y,z
-x,-y,z
x,-y,-z
-x,y,-z
-x,-y,-z
x,y,-z
-x,y,z
x,-y,z
loop_
_atom_site_type_symbol
_atom_site_label
_atom_site_fract_x
_atom_site_fract_y
_atom_site_fract_z
Si Si1 0.167820 0.627592 0.616578
Si Si2 0.169351 0.875946 0.069796
Si Si3 0.826719 0.373827 0.251279
Si Si4 0.333089 0.628083 0.500000
Si Si5 0.171054 0.500000 0.070653
Si Si6 0.673192 0.306251 0.134942
O O1 0.171759 0.500000 0.616615
O O2 0.216052 0.658491 0.682250
O O3 0.257169 0.663951 0.560181
O O4 0.000000 0.658026 0.609479
O O5 0.274148 0.802889 0.107056
O O6 0.000000 0.850454 0.082751
O O7 0.190074 0.000000 0.080361
O O8 0.191070 0.857326 0.000000
O O9 0.806250 0.500000 0.245772
O O10 0.734824 0.318954 0.200804
O O11 0.000000 0.354767 0.244342
O O12 0.325245 0.500000 0.500000
O O13 0.500000 0.658218 0.500000
O O14 0.249587 0.601694 0.097318
O O15 0.000000 0.500000 0.087156
O O16 0.180516 0.500000 0.000000
O O17 0.500000 0.317560 0.133320
#
# Coordination Sequence:
#
# PCOD9388534 Si02
#       6
#     8   8   8   4   4   8
#     4   8  14  24  38  54  73 105 149 190 220 253
#     4   9  19  37  58  74  88 114 153 190 226 275
#     4   9  17  30  46  61  83 120 159 190 222 267
#     4   9  15  21  31  51  77 107 140 181 228 265
#     4  11  23  37  51  65  87 122 159 190 221 267
#     4  12  23  32  47  72  98 121 146 186 238 282
#
# _framework density 15.012143
#
# number of rings (size 3 to 8) (size 9 to 14) (size 15 to 20)
#    0.000    2.400    1.000    4.800    0.000    6.000 
#    0.000    3.000    0.000    0.000    0.000    0.000 
#    0.000    0.000    0.000    0.900    0.000   17.500 
#
# Total GULP energy -223000.614091 kJ/mol
# GULP energy per Si atom -5575.015352 kJ/mol
# Density = 1.497797 g / cm^3
# Si number density = 15.012143 Si / 1000 Ang^3
#
#
#
# Elastic Constant Matrix: (Units=GPa)
#
#
# Indices 1 2 3 4 5 6 
#
# 1 108.4364 38.0683 86.3835 0.0000 0.0000 0.0000
# 2 38.0683 31.6586 36.8961 0.0000 0.0000 0.0000
# 3 86.3835 36.8961 129.0321 0.0000 0.0000 0.0000
# 4 0.0000 0.0000 0.0000 3.0934 0.0000 0.0000
# 5 0.0000 0.0000 0.0000 0.0000 -10.5052 0.0000
# 6 0.0000 0.0000 0.0000 0.0000 0.0000 12.7714
#
#
#
# Elastic Compliance Matrix: (Units=1/GPa)
#
#
# Indices 1 2 3 4 5 6 
#
# 1 0.023731 -0.015028 -0.011590 0.000000 0.000000 0.000000
# 2 -0.015028 0.056892 -0.006207 0.000000 0.000000 0.000000
# 3 -0.011590 -0.006207 0.017284 0.000000 0.000000 0.000000
# 4 0.000000 0.000000 0.000000 0.323270 0.000000 0.000000
# 5 0.000000 0.000000 0.000000 0.000000 -0.095191 0.000000
# 6 0.000000 0.000000 0.000000 0.000000 0.000000 0.078300
#
#
# Mechanical properties :
#
#
# Convention : Reuss Voigt Hill
#
# Bulk Modulus (GPa) = 31.00159 65.75811 48.37985
# Shear Modulus (GPa) = 10.40178 8.25720 9.32949
#
# Velocity S-wave (km/s) = 2.63514 2.34783 2.49562
# Velocity P-wave (km/s) = 5.47307 7.15878 6.37191
#
# Compressibility (1/GPa) = 0.03225641
#
# Stress axis : x y z
#
# Youngs Moduli (GPa) = 42.13968 17.57732 57.85715
#
# Poissons Ratio (x) = 0.26415 0.67055
# Poissons Ratio (y) = 0.63328 0.35912
# Poissons Ratio (z) = 0.48839 0.10910
#
# Static dielectric constant tensor:
#      x y z
#    x 1.495710 0.000000 0.000000 
#    y 0.000000 1.472700 0.000000 
#    z 0.000000 0.000000 1.512980 
# 
# From -- ./inp_files/4116.got.cif
#   From: 2010.05.17/outbox.cif.g08.bks.cpg/sg47_3_cif.got.tgz:4116.got - 2010.06.03 20:15:42.
