data_PCOD9388668
_publ_section_title
;
Structure prediction by ZEFSAII (Michael W. Deem and Ramdas Pophale) SiO2 
 PCOD9388668
Probable space group: P M M M
;
_chemical_formula_sum "Si O2"
_cell_formula_units_Z 33
_cell_length_a 10.161129
_cell_length_b 22.927209
_cell_length_c 7.806717
_cell_angle_alpha 90.000000
_cell_angle_beta 90.000000
_cell_angle_gamma 90.000000
_cell_volume 1818.702195
_symmetry_space_group_name_H-M "P M M M"
_symmetry_group_IT_number 47
_symmetry_cell_setting 'orthorhombic'
loop_
_space_group_symop_operation_xyz
x,y,z
-x,-y,z
x,-y,-z
-x,y,-z
-x,-y,-z
x,y,-z
-x,y,z
x,-y,z
loop_
_atom_site_type_symbol
_atom_site_label
_atom_site_fract_x
_atom_site_fract_y
_atom_site_fract_z
Si Si1 0.349615 0.717417 0.706907
Si Si2 0.286283 0.500000 0.689504
Si Si3 0.339260 0.067125 0.000000
Si Si4 0.340024 0.848833 0.696056
Si Si5 0.500000 0.500000 0.000000
Si Si6 0.851763 0.384027 0.202527
O O1 0.353379 0.716955 0.500000
O O2 0.500000 0.706775 0.767503
O O3 0.307380 0.783078 0.755396
O O4 0.249983 0.668281 0.766374
O O5 0.347900 0.500000 0.500000
O O6 0.386685 0.500000 0.847658
O O7 0.198811 0.442040 0.706388
O O8 0.296922 0.102731 0.831351
O O9 0.500000 0.067239 0.000000
O O10 0.296801 0.000000 0.000000
O O11 0.294879 0.858080 0.500000
O O12 0.500000 0.849919 0.691313
O O13 0.000000 0.368537 0.256980
O O14 0.853460 0.396210 0.000000
#
# Coordination Sequence:
#
# PCOD9388668 Si02
#       6
#     8   4   4   8   1   8
#     4   9  19  34  54  80 107 142 191 237 283 339
#     4  12  26  44  68  89 116 155 189 232 291 343
#     4   9  16  24  39  66  97 137 183 215 256 325
#     4   8  15  28  43  65 100 136 173 223 274 319
#     4  12  26  48  62  94 120 140 184 244 278 334
#     4  11  24  41  59  84 119 154 190 236 288 343
#
# _framework density 18.144805999999999
#
# number of rings (size 3 to 8) (size 9 to 14) (size 15 to 20)
#    0.000    2.303    1.212    2.727    3.394    4.364 
#    0.000    2.424    0.000    0.000    0.000    0.000 
#    0.000    1.939    0.000    5.333    0.000    5.333 
#
# Total GULP energy -183809.740786 kJ/mol
# GULP energy per Si atom -5569.992145 kJ/mol
# Density = 1.810351 g / cm^3
# Si number density = 18.144806 Si / 1000 Ang^3
#
#
#
# Elastic Constant Matrix: (Units=GPa)
#
#
# Indices 1 2 3 4 5 6 
#
# 1 77.6542 58.2806 33.7346 0.0000 0.0000 0.0000
# 2 58.2806 164.9235 65.0920 0.0000 0.0000 0.0000
# 3 33.7346 65.0920 104.4699 0.0000 0.0000 0.0000
# 4 0.0000 0.0000 0.0000 33.4338 0.0000 0.0000
# 5 0.0000 0.0000 0.0000 0.0000 3.7541 0.0000
# 6 0.0000 0.0000 0.0000 0.0000 0.0000 -4.8166
#
#
#
# Elastic Compliance Matrix: (Units=1/GPa)
#
#
# Indices 1 2 3 4 5 6 
#
# 1 0.017987 -0.005389 -0.002450 0.000000 0.000000 0.000000
# 2 -0.005389 0.009655 -0.004276 0.000000 0.000000 0.000000
# 3 -0.002450 -0.004276 0.013028 0.000000 0.000000 0.000000
# 4 0.000000 0.000000 0.000000 0.029910 0.000000 0.000000
# 5 0.000000 0.000000 0.000000 0.000000 0.266374 0.000000
# 6 0.000000 0.000000 0.000000 0.000000 0.000000 -0.207614
#
#
# Mechanical properties :
#
#
# Convention : Reuss Voigt Hill
#
# Bulk Modulus (GPa) = 60.83039 73.47355 67.15197
# Shear Modulus (GPa) = 31.43690 19.13695 25.28692
#
# Velocity S-wave (km/s) = 4.16691 3.25111 3.73717
# Velocity P-wave (km/s) = 7.53317 7.39417 7.46399
#
# Compressibility (1/GPa) = 0.01643915
#
# Stress axis : x y z
#
# Youngs Moduli (GPa) = 55.59696 103.56969 76.76069
#
# Poissons Ratio (x) = 0.55813 0.18809
# Poissons Ratio (y) = 0.29961 0.32821
# Poissons Ratio (z) = 0.13623 0.44284
#
# Static dielectric constant tensor:
#      x y z
#    x 1.595990 0.000000 0.000000 
#    y 0.000000 1.612630 0.000000 
#    z 0.000000 0.000000 1.651390 
# 
# From -- ./inp_files/1178.got.cif
#   From: 2010.05.17/outbox.cif.g08.bks.cpg/sg47_1_cif.got.tgz:1178.got - 2010.06.03 20:15:42.
