data_PCOD9388862
_publ_section_title
;
Structure prediction by ZEFSAII (Michael W. Deem and Ramdas Pophale) SiO2 
 PCOD9388862
Probable space group: P M M M
;
_chemical_formula_sum "Si O2"
_cell_formula_units_Z 44
_cell_length_a 9.262207
_cell_length_b 7.365581
_cell_length_c 30.326483
_cell_angle_alpha 90.000000
_cell_angle_beta 90.000000
_cell_angle_gamma 90.000000
_cell_volume 2068.919249
_symmetry_space_group_name_H-M "P M M M"
_symmetry_group_IT_number 47
_symmetry_cell_setting 'orthorhombic'
loop_
_space_group_symop_operation_xyz
x,y,z
-x,-y,z
x,-y,-z
-x,y,-z
-x,-y,-z
x,y,-z
-x,y,z
x,-y,z
loop_
_atom_site_type_symbol
_atom_site_label
_atom_site_fract_x
_atom_site_fract_y
_atom_site_fract_z
Si Si1 0.666244 0.721625 0.500000
Si Si2 0.833444 0.217730 0.142115
Si Si3 0.826224 0.218444 0.047505
Si Si4 0.833898 0.721530 0.412201
Si Si5 0.665761 0.722003 0.675573
Si Si6 0.164608 0.284550 0.761284
O O1 0.666666 0.500000 0.500000
O O2 0.500000 0.779057 0.500000
O O3 0.748728 0.779290 0.455853
O O4 0.770354 0.283134 0.095229
O O5 0.769281 0.258741 0.189926
O O6 0.000000 0.284191 0.144296
O O7 0.838586 0.000000 0.139069
O O8 0.000000 0.249452 0.048278
O O9 0.806774 0.000000 0.046581
O O10 0.772217 0.287745 0.000000
O O11 0.833621 0.500000 0.412279
O O12 0.754452 0.778606 0.367511
O O13 0.000000 0.779308 0.413101
O O14 0.500000 0.779354 0.673120
O O15 0.665957 0.500000 0.675759
O O16 0.741800 0.784243 0.720604
O O17 0.153262 0.500000 0.755065
O O18 0.000000 0.211073 0.760788
#
# Coordination Sequence:
#
# PCOD9388862 Si02
#       6
#     4   8   8   8   8   8
#     4   9  15  21  29  43  65  93 124 157 194 235
#     4   8  13  21  34  52  73  98 127 156 187 226
#     4   7   9  14  26  45  68  93 121 151 181 217
#     4   9  15  22  32  46  65  90 122 159 196 232
#     4   9  16  25  36  49  66  91 124 158 190 228
#     4   9  16  25  37  53  73  97 125 157 192 228
#
# _framework density 21.267143000000001
#
# number of rings (size 3 to 8) (size 9 to 14) (size 15 to 20)
#    0.000    3.545    0.000    3.000    0.000    5.455 
#    0.000    0.000    0.000    1.091    0.000    3.818 
#    0.000    0.727    0.000    9.909    0.000   26.182 
#
# Total GULP energy -245197.080613 kJ/mol
# GULP energy per Si atom -5572.660923 kJ/mol
# Density = 2.121874 g / cm^3
# Si number density = 21.267143 Si / 1000 Ang^3
#
#
#
# Elastic Constant Matrix: (Units=GPa)
#
#
# Indices 1 2 3 4 5 6 
#
# 1 111.0052 4.5117 109.3119 0.0000 0.0000 0.0000
# 2 4.5117 75.5269 4.8734 0.0000 0.0000 0.0000
# 3 109.3119 4.8734 290.9204 0.0000 0.0000 0.0000
# 4 0.0000 0.0000 0.0000 10.2237 0.0000 0.0000
# 5 0.0000 0.0000 0.0000 0.0000 -9.0539 0.0000
# 6 0.0000 0.0000 0.0000 0.0000 0.0000 -5.0847
#
#
#
# Elastic Compliance Matrix: (Units=1/GPa)
#
#
# Indices 1 2 3 4 5 6 
#
# 1 0.014319 -0.000509 -0.005372 0.000000 0.000000 0.000000
# 2 -0.000509 0.013273 -0.000031 0.000000 0.000000 0.000000
# 3 -0.005372 -0.000031 0.005456 0.000000 0.000000 0.000000
# 4 0.000000 0.000000 0.000000 0.097812 0.000000 0.000000
# 5 0.000000 0.000000 0.000000 0.000000 -0.110449 0.000000
# 6 0.000000 0.000000 0.000000 0.000000 0.000000 -0.196668
#
#
# Mechanical properties :
#
#
# Convention : Reuss Voigt Hill
#
# Bulk Modulus (GPa) = 47.11499 79.42739 63.27119
# Shear Modulus (GPa) = -31.77451 23.13404 -4.32024
#
# Velocity S-wave (km/s) = -3.86951 3.30173 -1.42682
# Velocity P-wave (km/s) = 1.49595 7.20859 5.20585
#
# Compressibility (1/GPa) = 0.02122467
#
# Stress axis : x y z
#
# Youngs Moduli (GPa) = 69.83652 75.34254 183.27347
#
# Poissons Ratio (x) = 0.03833 0.98451
# Poissons Ratio (y) = 0.03553 0.00571
# Poissons Ratio (z) = 0.37515 0.00235
#
# Static dielectric constant tensor:
#      x y z
#    x 1.703160 0.000000 0.000000 
#    y 0.000000 1.866050 0.000000 
#    z 0.000000 0.000000 1.803120 
# 
# From -- ./inp_files/33179.got.cif
#   From: 2010.05.17/outbox.cif.g08.bks.cpg/sg47_17_cif.got.tgz:33179.got - 2010.06.03 20:15:42.
