data_PCOD9388355
_publ_section_title
;
Structure prediction by ZEFSAII (Michael W. Deem and Ramdas Pophale) SiO2 
 PCOD9388355
Probable space group: P M M M
;
_chemical_formula_sum "Si O2"
_cell_formula_units_Z 40
_cell_length_a 12.129657
_cell_length_b 8.649020
_cell_length_c 21.017228
_cell_angle_alpha 90.000000
_cell_angle_beta 90.000000
_cell_angle_gamma 90.000000
_cell_volume 2204.909949
_symmetry_space_group_name_H-M "P M M M"
_symmetry_group_IT_number 47
_symmetry_cell_setting 'orthorhombic'
loop_
_space_group_symop_operation_xyz
x,y,z
-x,-y,z
x,-y,-z
-x,y,-z
-x,-y,-z
x,y,-z
-x,y,z
x,-y,z
loop_
_atom_site_type_symbol
_atom_site_label
_atom_site_fract_x
_atom_site_fract_y
_atom_site_fract_z
Si Si1 0.766686 0.685754 0.807474
Si Si2 0.000000 0.185566 0.381998
Si Si3 0.000000 0.184816 0.231600
Si Si4 0.626692 0.688270 0.071875
Si Si5 0.371284 0.185268 0.311138
Si Si6 0.232908 0.685273 0.572541
O O1 0.769263 0.500000 0.807003
O O2 0.708144 0.739464 0.872612
O O3 0.694525 0.742929 0.747925
O O4 0.889584 0.748886 0.799357
O O5 0.000000 0.224772 0.306838
O O6 0.110194 0.253599 0.412830
O O7 0.000000 0.000000 0.388200
O O8 0.000000 0.000000 0.227048
O O9 0.500000 0.735294 0.084888
O O10 0.627489 0.500000 0.071995
O O11 0.655732 0.737603 0.000000
O O12 0.500000 0.228168 0.308664
O O13 0.314896 0.242889 0.375888
O O14 0.361935 0.000000 0.307800
O O15 0.262915 0.725434 0.500000
O O16 0.233480 0.500000 0.578911
#
# Coordination Sequence:
#
# PCOD9388355 Si02
#       6
#     8   4   4   8   8   8
#     4  11  21  35  60  89 114 146 191 239 284 329
#     4  11  22  38  61  85 112 149 189 229 280 342
#     4  11  23  38  57  82 115 152 188 230 285 341
#     4   8  15  30  54  86 121 151 182 227 281 332
#     4  11  24  40  58  82 114 152 190 229 279 340
#     4  11  24  40  60  86 114 144 184 237 289 335
#
# _framework density 18.14133
#
# number of rings (size 3 to 8) (size 9 to 14) (size 15 to 20)
#    0.000    1.600    2.000    3.900    0.000    6.400 
#    0.000    2.500    0.000    5.400    0.000    7.000 
#    0.000    0.000    0.000    0.000    0.000    0.000 
#
# Total GULP energy -223517.336777 kJ/mol
# GULP energy per Si atom -5587.933419 kJ/mol
# Density = 1.810004 g / cm^3
# Si number density = 18.141330 Si / 1000 Ang^3
#
#
#
# Elastic Constant Matrix: (Units=GPa)
#
#
# Indices 1 2 3 4 5 6 
#
# 1 160.1729 42.2451 100.7144 0.0000 0.0000 0.0000
# 2 42.2451 36.7860 41.4176 0.0000 0.0000 0.0000
# 3 100.7144 41.4176 165.2115 0.0000 0.0000 0.0000
# 4 0.0000 0.0000 0.0000 -9.5799 0.0000 0.0000
# 5 0.0000 0.0000 0.0000 0.0000 37.5762 0.0000
# 6 0.0000 0.0000 0.0000 0.0000 0.0000 6.6534
#
#
#
# Elastic Compliance Matrix: (Units=1/GPa)
#
#
# Indices 1 2 3 4 5 6 
#
# 1 0.011385 -0.007329 -0.005103 0.000000 0.000000 0.000000
# 2 -0.007329 0.042593 -0.006210 0.000000 0.000000 0.000000
# 3 -0.005103 -0.006210 0.010721 0.000000 0.000000 0.000000
# 4 0.000000 0.000000 0.000000 -0.104385 0.000000 0.000000
# 5 0.000000 0.000000 0.000000 0.000000 0.026613 0.000000
# 6 0.000000 0.000000 0.000000 0.000000 0.000000 0.150299
#
#
# Mechanical properties :
#
#
# Convention : Reuss Voigt Hill
#
# Bulk Modulus (GPa) = 36.47739 81.21385 58.84562
# Shear Modulus (GPa) = 27.22629 18.78283 23.00456
#
# Velocity S-wave (km/s) = 3.87820 3.22119 3.56487
# Velocity P-wave (km/s) = 6.34074 7.66155 7.03222
#
# Compressibility (1/GPa) = 0.02741424
#
# Stress axis : x y z
#
# Youngs Moduli (GPa) = 87.83511 23.47819 93.27917
#
# Poissons Ratio (x) = 0.17207 0.47601
# Poissons Ratio (y) = 0.64374 0.57926
# Poissons Ratio (z) = 0.44823 0.14580
#
# Static dielectric constant tensor:
#      x y z
#    x 1.591490 0.000000 0.000000 
#    y 0.000000 1.611540 0.000000 
#    z 0.000000 0.000000 1.613760 
# 
# From -- ./inp_files/18937.got.cif
#   From: 2010.05.17/outbox.cif.g08.bks.cpg/sg47_10_cif.got.tgz:18937.got - 2010.06.03 20:15:42.
