data_PCOD9388902
_publ_section_title
;
Structure prediction by ZEFSAII (Michael W. Deem and Ramdas Pophale) SiO2 
 PCOD9388902
Probable space group: P M M M
;
_chemical_formula_sum "Si O2"
_cell_formula_units_Z 44
_cell_length_a 7.365267
_cell_length_b 31.548011
_cell_length_c 10.140914
_cell_angle_alpha 90.000000
_cell_angle_beta 90.000000
_cell_angle_gamma 90.000000
_cell_volume 2356.337953
_symmetry_space_group_name_H-M "P M M M"
_symmetry_group_IT_number 47
_symmetry_cell_setting 'orthorhombic'
loop_
_space_group_symop_operation_xyz
x,y,z
-x,-y,z
x,-y,-z
-x,y,-z
-x,-y,-z
x,y,-z
-x,y,z
x,-y,z
loop_
_atom_site_type_symbol
_atom_site_label
_atom_site_fract_x
_atom_site_fract_y
_atom_site_fract_z
Si Si1 0.721259 0.120740 0.651365
Si Si2 0.000000 0.451551 0.839045
Si Si3 0.293131 0.384004 0.839475
Si Si4 0.278845 0.216540 0.348529
Si Si5 0.721778 0.710059 0.848173
Si Si6 0.278745 0.952184 0.151533
O O1 0.775632 0.112841 0.500000
O O2 0.500000 0.120408 0.653183
O O3 0.776746 0.168631 0.687712
O O4 0.783510 0.084371 0.750252
O O5 0.171882 0.423403 0.797671
O O6 0.000000 0.500000 0.793514
O O7 0.000000 0.452654 0.000000
O O8 0.500000 0.388675 0.794977
O O9 0.223355 0.337141 0.802869
O O10 0.293607 0.383456 0.000000
O O11 0.224134 0.224514 0.500000
O O12 0.500000 0.216931 0.346959
O O13 0.218161 0.252592 0.247923
O O14 0.500000 0.709436 0.848700
O O15 0.778132 0.716710 0.000000
O O16 0.500000 0.951809 0.153211
O O17 0.223353 0.000000 0.189001
O O18 0.224268 0.944614 0.000000
#
# Coordination Sequence:
#
# PCOD9388902 Si02
#       6
#     8   4   8   8   8   8
#     4   8  13  19  25  34  49  69  94 130 179 228
#     4   9  16  24  36  56  81 111 143 171 208 255
#     4   8  14  24  36  52  77 106 136 172 209 247
#     4   8  13  20  29  43  63  83 107 145 189 233
#     4   8  13  21  33  48  67  93 121 149 188 236
#     4   8  13  19  24  30  42  63  95 136 179 223
#
# _framework density 18.673044999999998
#
# number of rings (size 3 to 8) (size 9 to 14) (size 15 to 20)
#    0.000    3.909    0.000    2.727    0.000    1.455 
#    0.000    7.273    0.000    0.000    0.000    0.636 
#    0.000    1.455    0.000    7.091    0.000    7.273 
#
# Total GULP energy -245147.521135 kJ/mol
# GULP energy per Si atom -5571.534571 kJ/mol
# Density = 1.863054 g / cm^3
# Si number density = 18.673045 Si / 1000 Ang^3
#
#
#
# Elastic Constant Matrix: (Units=GPa)
#
#
# Indices 1 2 3 4 5 6 
#
# 1 72.0466 39.9426 17.3949 0.0000 0.0000 0.0000
# 2 39.9426 231.1702 105.8589 0.0000 0.0000 0.0000
# 3 17.3949 105.8589 66.3692 0.0000 0.0000 0.0000
# 4 0.0000 0.0000 0.0000 -5.3559 0.0000 0.0000
# 5 0.0000 0.0000 0.0000 0.0000 -8.0344 0.0000
# 6 0.0000 0.0000 0.0000 0.0000 0.0000-1557.9928
#
#
#
# Elastic Compliance Matrix: (Units=1/GPa)
#
#
# Indices 1 2 3 4 5 6 
#
# 1 0.015361 -0.003006 0.000769 0.000000 0.000000 0.000000
# 2 -0.003006 0.016633 -0.025742 0.000000 0.000000 0.000000
# 3 0.000769 -0.025742 0.055924 0.000000 0.000000 0.000000
# 4 0.000000 0.000000 0.000000 -0.186709 0.000000 0.000000
# 5 0.000000 0.000000 0.000000 0.000000 -0.124465 0.000000
# 6 0.000000 0.000000 0.000000 0.000000 0.000000 -0.000642
#
#
# Mechanical properties :
#
#
# Convention : Reuss Voigt Hill
#
# Bulk Modulus (GPa) = 31.28933 77.33097 54.31015
# Shear Modulus (GPa) = -31.78947 -300.51732 -166.15339
#
# Velocity S-wave (km/s) = -4.13052 -12.69984 -9.44317
# Velocity P-wave (km/s) = 2.44039 13.17364 9.47365
#
# Compressibility (1/GPa) = 0.03195977
#
# Stress axis : x y z
#
# Youngs Moduli (GPa) = 65.10027 60.12059 17.88131
#
# Poissons Ratio (x) = 0.18074 -0.01375
# Poissons Ratio (y) = 0.19571 0.46030
# Poissons Ratio (z) = -0.05006 1.54763
#
# Static dielectric constant tensor:
#      x y z
#    x -0.929650 0.000000 0.000000 
#    y 0.000000 1.632950 0.000000 
#    z 0.000000 0.000000 1.603600 
# 
# From -- ./inp_files/2180.got.cif
#   From: 2010.05.17/outbox.cif.g08.bks.cpg/sg47_2_cif.got.tgz:2180.got - 2010.06.03 20:15:42.
