data_PCOD9388548
_publ_section_title
;
Structure prediction by ZEFSAII (Michael W. Deem and Ramdas Pophale) SiO2 
 PCOD9388548
Probable space group: P M M M
;
_chemical_formula_sum "Si O2"
_cell_formula_units_Z 52
_cell_length_a 32.431928
_cell_length_b 9.126182
_cell_length_c 11.567114
_cell_angle_alpha 90.000000
_cell_angle_beta 90.000000
_cell_angle_gamma 90.000000
_cell_volume 3423.630672
_symmetry_space_group_name_H-M "P M M M"
_symmetry_group_IT_number 47
_symmetry_cell_setting 'orthorhombic'
loop_
_space_group_symop_operation_xyz
x,y,z
-x,-y,z
x,-y,-z
-x,y,-z
-x,-y,-z
x,y,-z
-x,y,z
x,-y,z
loop_
_atom_site_type_symbol
_atom_site_label
_atom_site_fract_x
_atom_site_fract_y
_atom_site_fract_z
Si Si1 0.000000 0.178760 0.864830
Si Si2 0.500000 0.829957 0.861944
Si Si3 0.652479 0.176222 0.138153
Si Si4 0.549792 0.174832 0.500000
Si Si5 0.254593 0.831087 0.859565
Si Si6 0.423863 0.323619 0.738016
Si Si7 0.089518 0.828773 0.859096
Si Si8 0.172384 0.331308 0.140887
O O1 0.955454 0.225817 0.816814
O O2 0.000000 0.000000 0.862263
O O3 0.000000 0.221366 0.000000
O O4 0.539838 0.744701 0.816440
O O5 0.500000 0.000000 0.819638
O O6 0.500000 0.833414 0.000000
O O7 0.699323 0.217695 0.172895
O O8 0.618827 0.266015 0.208377
O O9 0.647695 0.000000 0.155664
O O10 0.647676 0.201375 0.000000
O O11 0.500000 0.193040 0.500000
O O12 0.568205 0.253383 0.387487
O O13 0.558182 0.000000 0.500000
O O14 0.214983 0.741707 0.819126
O O15 0.249726 0.000000 0.824943
O O16 0.254373 0.827911 0.000000
O O17 0.425829 0.500000 0.735003
O O18 0.130345 0.745943 0.819648
O O19 0.093420 0.000000 0.830363
O O20 0.088398 0.819934 0.000000
O O21 0.171663 0.500000 0.173027
O O22 0.172457 0.321810 0.000000
#
# Coordination Sequence:
#
# PCOD9388548 Si02
#       8
#     4   4   8   4   8   8   8   8
#     4   7  10  16  25  35  45  63  97 141 185 228
#     4  11  23  38  55  74  99 131 161 183 208 251
#     4   9  18  33  51  70  94 123 152 179 212 261
#     4  11  23  41  63  77  92 124 160 186 214 253
#     4   8  14  25  40  55  72  99 133 164 194 235
#     4  12  24  36  54  78 102 122 147 185 225 259
#     4   8  12  18  27  36  48  70 103 142 184 233
#     4   9  15  20  27  42  63  85 111 147 192 240
#
# _framework density 15.188554
#
# number of rings (size 3 to 8) (size 9 to 14) (size 15 to 20)
#    0.000    2.692    0.769    4.615    0.000    5.538 
#    0.000    1.923    0.000    2.308    0.000    0.000 
#    0.000    0.000    0.000    0.000    0.000    0.000 
#
# Total GULP energy -289508.894315 kJ/mol
# GULP energy per Si atom -5567.478737 kJ/mol
# Density = 1.515398 g / cm^3
# Si number density = 15.188554 Si / 1000 Ang^3
#
#
#
# Elastic Constant Matrix: (Units=GPa)
#
#
# Indices 1 2 3 4 5 6 
#
# 1 185.3937 93.1332 33.9743 0.0000 0.0000 0.0000
# 2 93.1332 99.6405 30.4316 0.0000 0.0000 0.0000
# 3 33.9743 30.4316 37.9468 0.0000 0.0000 0.0000
# 4 0.0000 0.0000 0.0000 11.0893 0.0000 0.0000
# 5 0.0000 0.0000 0.0000 0.0000 -2.7464 0.0000
# 6 0.0000 0.0000 0.0000 0.0000 0.0000 -4.2764
#
#
#
# Elastic Compliance Matrix: (Units=1/GPa)
#
#
# Indices 1 2 3 4 5 6 
#
# 1 0.010280 -0.009003 -0.001984 0.000000 0.000000 0.000000
# 2 -0.009003 0.021176 -0.008922 0.000000 0.000000 0.000000
# 3 -0.001984 -0.008922 0.035284 0.000000 0.000000 0.000000
# 4 0.000000 0.000000 0.000000 0.090177 0.000000 0.000000
# 5 0.000000 0.000000 0.000000 0.000000 -0.364110 0.000000
# 6 0.000000 0.000000 0.000000 0.000000 0.000000 -0.233840
#
#
# Mechanical properties :
#
#
# Convention : Reuss Voigt Hill
#
# Bulk Modulus (GPa) = 37.14354 70.89547 54.01950
# Shear Modulus (GPa) = -12.74721 11.84276 -0.45223
#
# Velocity S-wave (km/s) = -2.90015 2.79537 -0.54625
# Velocity P-wave (km/s) = 3.64603 7.56287 5.93677
#
# Compressibility (1/GPa) = 0.02692258
#
# Stress axis : x y z
#
# Youngs Moduli (GPa) = 97.27546 47.22404 28.34163
#
# Poissons Ratio (x) = 0.42515 0.05623
# Poissons Ratio (y) = 0.87575 0.25285
# Poissons Ratio (z) = 0.19301 0.42131
#
# Static dielectric constant tensor:
#      x y z
#    x 1.537850 0.000000 0.000000 
#    y 0.000000 1.502620 0.000000 
#    z 0.000000 0.000000 1.477690 
# 
# From -- ./inp_files/20075.got.cif
#   From: 2010.05.17/outbox.cif.g08.bks.cpg/sg47_11_cif.got.tgz:20075.got - 2010.06.03 20:15:42.
