data_PCOD9388272
_publ_section_title
;
Structure prediction by ZEFSAII (Michael W. Deem and Ramdas Pophale) SiO2 
 PCOD9388272
Probable space group: P M M M
;
_chemical_formula_sum "Si O2"
_cell_formula_units_Z 56
_cell_length_a 9.272424
_cell_length_b 14.333610
_cell_length_c 31.873266
_cell_angle_alpha 90.000000
_cell_angle_beta 90.000000
_cell_angle_gamma 90.000000
_cell_volume 4236.190025
_symmetry_space_group_name_H-M "P M M M"
_symmetry_group_IT_number 47
_symmetry_cell_setting 'orthorhombic'
loop_
_space_group_symop_operation_xyz
x,y,z
-x,-y,z
x,-y,-z
-x,y,-z
-x,-y,-z
x,y,-z
-x,y,z
x,-y,z
loop_
_atom_site_type_symbol
_atom_site_label
_atom_site_fract_x
_atom_site_fract_y
_atom_site_fract_z
Si Si1 0.833846 0.113575 0.751537
Si Si2 0.333367 0.886304 0.500000
Si Si3 0.829994 0.607870 0.949747
Si Si4 0.833418 0.886313 0.416013
Si Si5 0.328809 0.890047 0.835883
Si Si6 0.169799 0.888150 0.000000
Si Si7 0.666491 0.113728 0.667960
Si Si8 0.327635 0.212290 0.077036
O O1 0.758910 0.141413 0.795036
O O2 0.745759 0.144092 0.710511
O O3 0.000000 0.143045 0.749446
O O4 0.831786 0.000000 0.751130
O O5 0.500000 0.856832 0.500000
O O6 0.250541 0.856714 0.542090
O O7 0.333069 0.000000 0.500000
O O8 0.797803 0.500000 0.939532
O O9 0.732162 0.682969 0.926660
O O10 0.000000 0.624323 0.941397
O O11 0.809475 0.619305 0.000000
O O12 0.751901 0.856787 0.373707
O O13 0.000000 0.856795 0.416389
O O14 0.833125 0.000000 0.416041
O O15 0.500000 0.882398 0.827261
O O16 0.295889 0.832782 0.877779
O O17 0.298084 0.000000 0.843355
O O18 0.247246 0.845861 0.040784
O O19 0.000000 0.862742 0.000000
O O20 0.181529 0.000000 0.000000
O O21 0.500000 0.143050 0.666908
O O22 0.667282 0.000000 0.668038
O O23 0.500000 0.209203 0.070368
#
# Coordination Sequence:
#
# PCOD9388272 Si02
#       8
#     8   4   8   8   8   4   8   8
#     4   9  16  25  37  52  67  85 113 146 175 206
#     4   9  15  21  27  35  49  69  93 121 159 209
#     4   9  18  33  51  68  87 109 130 155 188 225
#     4   9  15  21  28  38  52  70  94 126 163 204
#     4   9  18  31  43  56  78 105 127 149 182 222
#     4  11  23  35  46  61  84 113 139 160 184 219
#     4   9  15  22  32  44  58  77 101 131 169 210
#     4  11  21  32  48  68  86 105 130 161 192 223
#
# _framework density 13.219426
#
# number of rings (size 3 to 8) (size 9 to 14) (size 15 to 20)
#    0.000    2.571    0.714    3.000    0.000    8.571 
#    0.000    2.143    0.000    0.000    0.000    0.000 
#    0.000    0.000    0.000    0.000    0.000    0.000 
#
# Total GULP energy -312056.133446 kJ/mol
# GULP energy per Si atom -5572.430954 kJ/mol
# Density = 1.318934 g / cm^3
# Si number density = 13.219426 Si / 1000 Ang^3
#
#
#
# Elastic Constant Matrix: (Units=GPa)
#
#
# Indices 1 2 3 4 5 6 
#
# 1 120.2848 31.4762 93.6872 0.0000 0.0000 0.0000
# 2 31.4762 33.8161 31.5713 0.0000 0.0000 0.0000
# 3 93.6872 31.5713 137.4665 0.0000 0.0000 0.0000
# 4 0.0000 0.0000 0.0000 0.9569 0.0000 0.0000
# 5 0.0000 0.0000 0.0000 0.0000 15.1437 0.0000
# 6 0.0000 0.0000 0.0000 0.0000 0.0000 12.6818
#
#
#
# Elastic Compliance Matrix: (Units=1/GPa)
#
#
# Indices 1 2 3 4 5 6 
#
# 1 0.018975 -0.007114 -0.011298 0.000000 0.000000 0.000000
# 2 -0.007114 0.040310 -0.004409 0.000000 0.000000 0.000000
# 3 -0.011298 -0.004409 0.015987 0.000000 0.000000 0.000000
# 4 0.000000 0.000000 0.000000 1.045028 0.000000 0.000000
# 5 0.000000 0.000000 0.000000 0.000000 0.066034 0.000000
# 6 0.000000 0.000000 0.000000 0.000000 0.000000 0.078853
#
#
# Mechanical properties :
#
#
# Convention : Reuss Voigt Hill
#
# Bulk Modulus (GPa) = 33.75047 67.22630 50.48839
# Shear Modulus (GPa) = 3.78585 14.74533 9.26559
#
# Velocity S-wave (km/s) = 1.69413 3.34343 2.65034
# Velocity P-wave (km/s) = 5.42339 8.11599 6.90226
#
# Compressibility (1/GPa) = 0.02962922
#
# Stress axis : x y z
#
# Youngs Moduli (GPa) = 52.70038 24.80763 62.54959
#
# Poissons Ratio (x) = 0.17648 0.70670
# Poissons Ratio (y) = 0.37491 0.27581
# Poissons Ratio (z) = 0.59542 0.10939
#
# Static dielectric constant tensor:
#      x y z
#    x 1.442990 0.000000 0.000000 
#    y 0.000000 1.395380 0.000000 
#    z 0.000000 0.000000 1.426080 
# 
# From -- ./inp_files/34390.got.cif
#   From: 2010.05.17/outbox.cif.g08.bks.cpg/sg47_18_cif.got.tgz:34390.got - 2010.06.03 20:15:42.
