data_PCOD9388042
_publ_section_title
;
Structure prediction by ZEFSAII (Michael W. Deem and Ramdas Pophale) SiO2 
 PCOD9388042
Probable space group: P M M M
;
_chemical_formula_sum "Si O2"
_cell_formula_units_Z 64
_cell_length_a 14.814486
_cell_length_b 8.009721
_cell_length_c 27.225401
_cell_angle_alpha 90.000000
_cell_angle_beta 90.000000
_cell_angle_gamma 90.000000
_cell_volume 3230.563350
_symmetry_space_group_name_H-M "P M M M"
_symmetry_group_IT_number 47
_symmetry_cell_setting 'orthorhombic'
loop_
_space_group_symop_operation_xyz
x,y,z
-x,-y,z
x,-y,-z
-x,y,-z
-x,-y,-z
x,y,-z
-x,y,z
x,-y,z
loop_
_atom_site_type_symbol
_atom_site_label
_atom_site_fract_x
_atom_site_fract_y
_atom_site_fract_z
Si Si1 0.708076 0.801411 0.657719
Si Si2 0.706713 0.701178 0.445147
Si Si3 0.713215 0.302436 0.850864
Si Si4 0.898329 0.796319 0.697462
Si Si5 0.396321 0.297996 0.243923
Si Si6 0.397654 0.200681 0.055042
Si Si7 0.899820 0.200913 0.811297
Si Si8 0.905023 0.691974 0.441018
O O1 0.661902 0.741435 0.606901
O O2 0.811279 0.735993 0.667167
O O3 0.651528 0.753491 0.705684
O O4 0.713532 0.000000 0.655317
O O5 0.675760 0.756201 0.500000
O O6 0.713422 0.500000 0.448096
O O7 0.807585 0.773702 0.435345
O O8 0.603634 0.500000 0.757585
O O9 0.658894 0.233524 0.803437
O O10 0.669303 0.247136 0.901670
O O11 0.817631 0.257610 0.844445
O O12 0.884037 0.748072 0.754486
O O13 0.000000 0.739949 0.683823
O O14 0.899024 0.000000 0.695181
O O15 0.500000 0.241053 0.242091
O O16 0.295277 0.500000 0.151417
O O17 0.500000 0.260450 0.065802
O O18 0.400902 0.000000 0.053281
O O19 0.372928 0.259533 0.000000
O O20 0.000000 0.259593 0.825730
O O21 0.900947 0.000000 0.811193
O O22 0.909990 0.679445 0.500000
O O23 0.902904 0.500000 0.422583
O O24 0.000000 0.772010 0.424722
#
# Coordination Sequence:
#
# PCOD9388042 Si02
#       8
#     8   8   8   8   8   8   8   8
#     4  11  21  33  53  78 104 133 170 219 267 311
#     4   9  18  32  49  68  94 131 170 206 253 317
#     4  11  21  33  55  86 119 150 183 228 279 330
#     4   8  15  29  48  71 102 139 176 214 258 310
#     4  10  22  39  56  77 108 142 173 209 261 326
#     4   9  19  36  57  82 114 154 199 241 278 325
#     4   9  17  32  54  77 107 150 194 230 267 319
#     4   7  10  19  37  60  85 115 154 197 235 276
#
# _framework density 19.810787000000001
#
# number of rings (size 3 to 8) (size 9 to 14) (size 15 to 20)
#    0.000    2.750    1.250    3.375    0.000    2.750 
#    0.000    0.625    0.000    1.875    0.000    8.750 
#    0.000    0.000    0.000    0.000    0.000    0.000 
#
# Total GULP energy -356593.245346 kJ/mol
# GULP energy per Si atom -5571.769459 kJ/mol
# Density = 1.976570 g / cm^3
# Si number density = 19.810787 Si / 1000 Ang^3
#
#
#
# Elastic Constant Matrix: (Units=GPa)
#
#
# Indices 1 2 3 4 5 6 
#
# 1 94.2537 13.4403 84.8717 0.0000 0.0000 0.0000
# 2 13.4403 22.3904 16.5281 0.0000 0.0000 0.0000
# 3 84.8717 16.5281 173.6664 0.0000 0.0000 0.0000
# 4 0.0000 0.0000 0.0000 13.4703 0.0000 0.0000
# 5 0.0000 0.0000 0.0000 0.0000 -5.5359 0.0000
# 6 0.0000 0.0000 0.0000 0.0000 0.0000 4.1771
#
#
#
# Elastic Compliance Matrix: (Units=1/GPa)
#
#
# Indices 1 2 3 4 5 6 
#
# 1 0.019457 -0.005013 -0.009032 0.000000 0.000000 0.000000
# 2 -0.005013 0.049328 -0.002245 0.000000 0.000000 0.000000
# 3 -0.009032 -0.002245 0.010386 0.000000 0.000000 0.000000
# 4 0.000000 0.000000 0.000000 0.074237 0.000000 0.000000
# 5 0.000000 0.000000 0.000000 0.000000 -0.180641 0.000000
# 6 0.000000 0.000000 0.000000 0.000000 0.000000 0.239401
#
#
# Mechanical properties :
#
#
# Convention : Reuss Voigt Hill
#
# Bulk Modulus (GPa) = 21.46272 57.77675 39.61974
# Shear Modulus (GPa) = 19.21025 14.12034 16.66530
#
# Velocity S-wave (km/s) = 3.11736 2.67265 2.90353
# Velocity P-wave (km/s) = 4.88002 6.22509 5.59313
#
# Compressibility (1/GPa) = 0.04659241
#
# Stress axis : x y z
#
# Youngs Moduli (GPa) = 51.39482 20.27243 96.28612
#
# Poissons Ratio (x) = 0.10162 0.86964
# Poissons Ratio (y) = 0.25762 0.21616
# Poissons Ratio (z) = 0.46419 0.04551
#
# Static dielectric constant tensor:
#      x y z
#    x 1.781120 0.000000 0.000000 
#    y 0.000000 1.710160 0.000000 
#    z 0.000000 0.000000 1.720510 
# 
# From -- ./inp_files/21962.got.cif
#   From: 2010.05.17/outbox.cif.g08.bks.cpg/sg47_11_cif.got.tgz:21962.got - 2010.06.03 20:15:42.
