data_PCOD9388969
_publ_section_title
;
Structure prediction by ZEFSAII (Michael W. Deem and Ramdas Pophale) SiO2 
 PCOD9388969
Probable space group: P M M M
;
_chemical_formula_sum "Si O2"
_cell_formula_units_Z 44
_cell_length_a 10.086852
_cell_length_b 7.412771
_cell_length_c 29.114996
_cell_angle_alpha 90.000000
_cell_angle_beta 90.000000
_cell_angle_gamma 90.000000
_cell_volume 2176.972622
_symmetry_space_group_name_H-M "P M M M"
_symmetry_group_IT_number 47
_symmetry_cell_setting 'orthorhombic'
loop_
_space_group_symop_operation_xyz
x,y,z
-x,-y,z
x,-y,-z
-x,y,-z
-x,-y,-z
x,y,-z
-x,y,z
x,-y,z
loop_
_atom_site_type_symbol
_atom_site_label
_atom_site_fract_x
_atom_site_fract_y
_atom_site_fract_z
Si Si1 0.152349 0.280117 0.418995
Si Si2 0.147868 0.715370 0.684597
Si Si3 0.346658 0.219940 0.131832
Si Si4 0.350909 0.784689 0.234149
Si Si5 0.346646 0.720536 0.500000
Si Si6 0.847483 0.219957 0.948246
O O1 0.152887 0.500000 0.419907
O O2 0.182631 0.220625 0.366828
O O3 0.261582 0.221673 0.455626
O O4 0.000000 0.226791 0.430057
O O5 0.139589 0.500000 0.680708
O O6 0.251862 0.750476 0.724446
O O7 0.000000 0.782889 0.696117
O O8 0.500000 0.271460 0.124489
O O9 0.307777 0.279108 0.183406
O O10 0.250255 0.282765 0.091605
O O11 0.342900 0.000000 0.131050
O O12 0.500000 0.716200 0.243326
O O13 0.360122 0.000000 0.230239
O O14 0.348469 0.500000 0.500000
O O15 0.500000 0.778752 0.500000
O O16 0.000000 0.273853 0.940222
O O17 0.845678 0.000000 0.947891
O O18 0.809292 0.275249 0.000000
#
# Coordination Sequence:
#
# PCOD9388969 Si02
#       6
#     8   8   8   8   4   8
#     4   8  14  25  39  55  80 112 139 167 208 253
#     4   9  18  31  46  66  90 115 147 184 218 256
#     4   8  14  24  36  51  74 104 137 171 205 245
#     4   9  18  31  45  63  88 117 149 183 218 258
#     4   9  15  21  33  57  84 107 136 171 204 246
#     4   8  13  20  30  47  72 100 130 165 205 248
#
# _framework density 20.211555000000001
#
# number of rings (size 3 to 8) (size 9 to 14) (size 15 to 20)
#    0.000    3.545    0.000    3.000    0.000    3.636 
#    0.000    5.455    0.000    0.000    0.000    0.636 
#    0.000    5.818    0.000    8.000    0.000   13.091 
#
# Total GULP energy -245300.188493 kJ/mol
# GULP energy per Si atom -5575.004284 kJ/mol
# Density = 2.016555 g / cm^3
# Si number density = 20.211555 Si / 1000 Ang^3
#
#
#
# Elastic Constant Matrix: (Units=GPa)
#
#
# Indices 1 2 3 4 5 6 
#
# 1 163.0126 4.1319 166.8791 0.0000 0.0000 0.0000
# 2 4.1319 62.9128 6.2468 0.0000 0.0000 0.0000
# 3 166.8791 6.2468 225.7969 0.0000 0.0000 0.0000
# 4 0.0000 0.0000 0.0000 10.7119 0.0000 0.0000
# 5 0.0000 0.0000 0.0000 0.0000 67.4229 0.0000
# 6 0.0000 0.0000 0.0000 0.0000 0.0000 4.0830
#
#
#
# Elastic Compliance Matrix: (Units=1/GPa)
#
#
# Indices 1 2 3 4 5 6 
#
# 1 0.025205 0.000195 -0.018634 0.000000 0.000000 0.000000
# 2 0.000195 0.015940 -0.000585 0.000000 0.000000 0.000000
# 3 -0.018634 -0.000585 0.018217 0.000000 0.000000 0.000000
# 4 0.000000 0.000000 0.000000 0.093354 0.000000 0.000000
# 5 0.000000 0.000000 0.000000 0.000000 0.014832 0.000000
# 6 0.000000 0.000000 0.000000 0.000000 0.000000 0.244918
#
#
# Mechanical properties :
#
#
# Convention : Reuss Voigt Hill
#
# Bulk Modulus (GPa) = 46.91695 89.58201 68.24948
# Shear Modulus (GPa) = 10.92612 34.74120 22.83366
#
# Velocity S-wave (km/s) = 2.32758 4.15043 3.36480
# Velocity P-wave (km/s) = 5.52149 8.20893 6.99547
#
# Compressibility (1/GPa) = 0.02131426
#
# Stress axis : x y z
#
# Youngs Moduli (GPa) = 39.67392 62.73403 54.89476
#
# Poissons Ratio (x) = -0.01222 1.02291
# Poissons Ratio (y) = -0.00773 0.03211
# Poissons Ratio (z) = 0.73928 0.03670
#
# Static dielectric constant tensor:
#      x y z
#    x 1.702240 0.000000 0.000000 
#    y 0.000000 1.851670 0.000000 
#    z 0.000000 0.000000 1.705780 
# 
# From -- ./inp_files/33952.got.cif
#   From: 2010.05.17/outbox.cif.g08.bks.cpg/sg47_17_cif.got.tgz:33952.got - 2010.06.03 20:15:42.
