data_PCOD9388675
_publ_section_title
;
Structure prediction by ZEFSAII (Michael W. Deem and Ramdas Pophale) SiO2 
 PCOD9388675
Probable space group: P M M M
;
_chemical_formula_sum "Si O2"
_cell_formula_units_Z 30
_cell_length_a 13.616384
_cell_length_b 7.568194
_cell_length_c 12.705882
_cell_angle_alpha 90.000000
_cell_angle_beta 90.000000
_cell_angle_gamma 90.000000
_cell_volume 1309.359382
_symmetry_space_group_name_H-M "P M M M"
_symmetry_group_IT_number 47
_symmetry_cell_setting 'orthorhombic'
loop_
_space_group_symop_operation_xyz
x,y,z
-x,-y,z
x,-y,-z
-x,y,-z
-x,-y,-z
x,y,-z
-x,y,z
x,-y,z
loop_
_atom_site_type_symbol
_atom_site_label
_atom_site_fract_x
_atom_site_fract_y
_atom_site_fract_z
Si Si1 0.381897 0.792118 0.885033
Si Si2 0.887749 0.210265 0.000000
Si Si3 0.637991 0.000000 0.500000
Si Si4 0.889001 0.290122 0.765658
Si Si5 0.302629 0.297051 0.662271
O O1 0.500000 0.782627 0.885337
O O2 0.345596 0.701564 0.779902
O O3 0.354672 0.000000 0.879355
O O4 0.348226 0.725329 0.000000
O O5 0.849957 0.260879 0.884701
O O6 0.000000 0.281972 0.000000
O O7 0.890019 0.000000 0.000000
O O8 0.641975 0.843468 0.590904
O O9 0.895109 0.500000 0.751865
O O10 0.809776 0.229829 0.680145
O O11 0.000000 0.216539 0.757939
O O12 0.303175 0.500000 0.623500
#
# Coordination Sequence:
#
# PCOD9388675 Si02
#       5
#     8   4   2   8   8
#     4   9  19  39  68 101 135 167 199 246 315 387
#     4   9  17  27  47  81 118 153 192 239 297 372
#     4  12  26  48  64  88 126 168 216 282 314 358
#     4   9  19  36  56  83 122 163 204 253 309 372
#     4  11  24  42  67  93 123 168 217 261 317 374
#
# _framework density 22.911967000000001
#
# number of rings (size 3 to 8) (size 9 to 14) (size 15 to 20)
#    0.000    2.267    1.333    1.600    3.733    2.667 
#    0.000    4.000    0.000    4.800    0.000    0.000 
#    0.000    0.000    0.000    0.000    0.000    0.000 
#
# Total GULP energy -167002.711658 kJ/mol
# GULP energy per Si atom -5566.757055 kJ/mol
# Density = 2.285982 g / cm^3
# Si number density = 22.911967 Si / 1000 Ang^3
#
#
#
# Elastic Constant Matrix: (Units=GPa)
#
#
# Indices 1 2 3 4 5 6 
#
# 1 42.3010 10.9379 14.4012 0.0000 0.0000 0.0000
# 2 10.9379 107.4778 39.4176 0.0000 0.0000 0.0000
# 3 14.4012 39.4176 119.5753 0.0000 0.0000 0.0000
# 4 0.0000 0.0000 0.0000 246.2116 0.0000 0.0000
# 5 0.0000 0.0000 0.0000 0.0000 20.9287 0.0000
# 6 0.0000 0.0000 0.0000 0.0000 0.0000 11.2263
#
#
#
# Elastic Compliance Matrix: (Units=1/GPa)
#
#
# Indices 1 2 3 4 5 6 
#
# 1 0.024900 -0.001631 -0.002461 0.000000 0.000000 0.000000
# 2 -0.001631 0.010691 -0.003328 0.000000 0.000000 0.000000
# 3 -0.002461 -0.003328 0.009756 0.000000 0.000000 0.000000
# 4 0.000000 0.000000 0.000000 0.004062 0.000000 0.000000
# 5 0.000000 0.000000 0.000000 0.000000 0.047781 0.000000
# 6 0.000000 0.000000 0.000000 0.000000 0.000000 0.089077
#
#
# Mechanical properties :
#
#
# Convention : Reuss Voigt Hill
#
# Bulk Modulus (GPa) = 32.77991 44.31860 38.54925
# Shear Modulus (GPa) = 23.66581 69.31315 46.48948
#
# Velocity S-wave (km/s) = 3.21737 5.50614 4.50938
# Velocity P-wave (km/s) = 5.30470 7.73359 6.63130
#
# Compressibility (1/GPa) = 0.03050649
#
# Stress axis : x y z
#
# Youngs Moduli (GPa) = 40.16099 93.53929 102.49807
#
# Poissons Ratio (x) = 0.15260 0.25225
# Poissons Ratio (y) = 0.06552 0.34108
# Poissons Ratio (z) = 0.09884 0.31127
#
# Static dielectric constant tensor:
#      x y z
#    x 1.978970 0.000000 0.000000 
#    y 0.000000 1.820690 0.000000 
#    z 0.000000 0.000000 1.812450 
# 
# From -- ./inp_files/3261.got.cif
#   From: 2010.05.17/outbox.cif.g08.bks.cpg/sg47_2_cif.got.tgz:3261.got - 2010.06.03 20:15:42.
