data_PCOD9388811
_publ_section_title
;
Structure prediction by ZEFSAII (Michael W. Deem and Ramdas Pophale) SiO2 
 PCOD9388811
Probable space group: P M M M
;
_chemical_formula_sum "Si O2"
_cell_formula_units_Z 40
_cell_length_a 7.349767
_cell_length_b 7.372604
_cell_length_c 30.428054
_cell_angle_alpha 90.000000
_cell_angle_beta 90.000000
_cell_angle_gamma 90.000000
_cell_volume 1648.802576
_symmetry_space_group_name_H-M "P M M M"
_symmetry_group_IT_number 47
_symmetry_cell_setting 'orthorhombic'
loop_
_space_group_symop_operation_xyz
x,y,z
-x,-y,z
x,-y,-z
-x,y,-z
-x,-y,-z
x,y,-z
-x,y,z
x,-y,z
loop_
_atom_site_type_symbol
_atom_site_label
_atom_site_fract_x
_atom_site_fract_y
_atom_site_fract_z
Si Si1 0.500000 0.778201 0.449812
Si Si2 0.209704 0.783183 0.283911
Si Si3 0.778590 0.284676 0.905336
Si Si4 0.210636 0.779065 0.620554
Si Si5 0.791536 0.716390 0.811417
Si Si6 0.780922 0.281716 0.000000
O O1 0.500000 0.716922 0.500000
O O2 0.672078 0.719700 0.420739
O O3 0.500000 0.000000 0.450880
O O4 0.282416 0.720855 0.331194
O O5 0.294162 0.744725 0.236401
O O6 0.000000 0.716284 0.282224
O O7 0.205018 0.000000 0.286545
O O8 0.737732 0.500000 0.906691
O O9 0.714013 0.214721 0.857856
O O10 0.716104 0.211525 0.952623
O O11 0.000000 0.267891 0.904268
O O12 0.000000 0.726563 0.617165
O O13 0.216544 0.000000 0.620295
O O14 0.800807 0.500000 0.816536
O O15 0.000000 0.786513 0.808340
O O16 0.750248 0.500000 0.000000
O O17 0.000000 0.256526 0.000000
#
# Coordination Sequence:
#
# PCOD9388811 Si02
#       6
#     4   8   8   8   8   4
#     4   9  16  24  36  56  79 103 131 160 193 232
#     4   8  13  21  32  45  64  92 120 144 178 225
#     4   7   9  12  18  30  49  72  99 136 180 219
#     4   8  14  24  36  51  74 102 129 158 192 231
#     4   8  12  17  26  42  62  81 108 151 192 220
#     4   7   8  10  16  26  43  69  99 130 171 222
#
# _framework density 24.260031999999999
#
# number of rings (size 3 to 8) (size 9 to 14) (size 15 to 20)
#    0.000    4.200    0.000    3.600    0.000    0.400 
#    0.000    2.000    0.000    0.000    0.000    1.400 
#    0.000    7.200    0.000    7.800    0.000    9.000 
#
# Total GULP energy -222806.832463 kJ/mol
# GULP energy per Si atom -5570.170812 kJ/mol
# Density = 2.420482 g / cm^3
# Si number density = 24.260032 Si / 1000 Ang^3
#
#
#
# Elastic Constant Matrix: (Units=GPa)
#
#
# Indices 1 2 3 4 5 6 
#
# 1 99.0083 -0.4806 70.9167 0.0000 0.0000 0.0000
# 2 -0.4806 82.9273 12.3272 0.0000 0.0000 0.0000
# 3 70.9167 12.3272 369.1703 0.0000 0.0000 0.0000
# 4 0.0000 0.0000 0.0000 11.2447 0.0000 0.0000
# 5 0.0000 0.0000 0.0000 0.0000 142.6660 0.0000
# 6 0.0000 0.0000 0.0000 0.0000 0.0000 -12.2481
#
#
#
# Elastic Compliance Matrix: (Units=1/GPa)
#
#
# Indices 1 2 3 4 5 6 
#
# 1 0.011725 0.000405 -0.002266 0.000000 0.000000 0.000000
# 2 0.000405 0.012133 -0.000483 0.000000 0.000000 0.000000
# 3 -0.002266 -0.000483 0.003160 0.000000 0.000000 0.000000
# 4 0.000000 0.000000 0.000000 0.088931 0.000000 0.000000
# 5 0.000000 0.000000 0.000000 0.000000 0.007009 0.000000
# 6 0.000000 0.000000 0.000000 0.000000 0.000000 -0.081645
#
#
# Mechanical properties :
#
#
# Convention : Reuss Voigt Hill
#
# Bulk Modulus (GPa) = 44.78247 79.62583 62.20415
# Shear Modulus (GPa) = 93.55586 59.55538 76.55562
#
# Velocity S-wave (km/s) = 6.21671 4.96005 5.62359
# Velocity P-wave (km/s) = 8.36836 8.10530 8.23788
#
# Compressibility (1/GPa) = 0.02233017
#
# Stress axis : x y z
#
# Youngs Moduli (GPa) = 85.28707 82.42066 316.43857
#
# Poissons Ratio (x) = -0.03336 0.71701
# Poissons Ratio (y) = -0.03452 0.15281
# Poissons Ratio (z) = 0.19325 0.03980
#
# Static dielectric constant tensor:
#      x y z
#    x 1.743190 0.000000 0.000000 
#    y 0.000000 2.013880 0.000000 
#    z 0.000000 0.000000 1.980920 
# 
# From -- ./inp_files/33172.got.cif
#   From: 2010.05.17/outbox.cif.g08.bks.cpg/sg47_17_cif.got.tgz:33172.got - 2010.06.03 20:15:42.
