data_PCOD9388374
_publ_section_title
;
Structure prediction by ZEFSAII (Michael W. Deem and Ramdas Pophale) SiO2 
 PCOD9388374
Probable space group: P M M M
;
_chemical_formula_sum "Si O2"
_cell_formula_units_Z 48
_cell_length_a 17.154204
_cell_length_b 14.998355
_cell_length_c 10.055443
_cell_angle_alpha 90.000000
_cell_angle_beta 90.000000
_cell_angle_gamma 90.000000
_cell_volume 2587.113057
_symmetry_space_group_name_H-M "P M M M"
_symmetry_group_IT_number 47
_symmetry_cell_setting 'orthorhombic'
loop_
_space_group_symop_operation_xyz
x,y,z
-x,-y,z
x,-y,-z
-x,y,-z
-x,-y,-z
x,y,-z
-x,y,z
x,-y,z
loop_
_atom_site_type_symbol
_atom_site_label
_atom_site_fract_x
_atom_site_fract_y
_atom_site_fract_z
Si Si1 0.906215 0.603696 0.648962
Si Si2 0.353182 0.285860 0.757128
Si Si3 0.173321 0.741124 0.840230
Si Si4 0.633332 0.099015 0.654254
Si Si5 0.594500 0.606800 0.500000
Si Si6 0.591196 0.401579 0.000000
Si Si7 0.823214 0.898125 0.349626
O O1 0.879994 0.633154 0.500000
O O2 0.883714 0.500000 0.663717
O O3 0.873160 0.662453 0.767613
O O4 0.000000 0.607912 0.650204
O O5 0.263239 0.273081 0.797731
O O6 0.389251 0.187175 0.734800
O O7 0.367569 0.343346 0.625212
O O8 0.388752 0.343822 0.873099
O O9 0.148950 0.832401 0.765497
O O10 0.165704 0.743482 0.000000
O O11 0.608702 0.108472 0.500000
O O12 0.728283 0.099799 0.653585
O O13 0.608918 0.000000 0.701126
O O14 0.608895 0.500000 0.500000
O O15 0.500000 0.618866 0.500000
O O16 0.629350 0.500000 0.000000
O O17 0.500000 0.413955 0.000000
O O18 0.844787 0.868705 0.500000
O O19 0.849488 0.000000 0.331588
#
# Coordination Sequence:
#
# PCOD9388374 Si02
#       7
#     8   8   8   8   4   4   8
#     4   9  20  39  60  81 108 147 191 233 282 334
#     4  11  21  38  57  85 112 142 188 237 281 329
#     4  11  22  34  53  86 119 149 184 224 275 332
#     4   8  14  28  53  81 107 136 172 222 282 333
#     4  11  24  40  59  81 104 140 193 244 289 335
#     4  11  24  42  59  73 106 156 191 224 281 345
#     4   8  15  29  52  80 110 145 185 228 272 320
#
# _framework density 18.553498999999999
#
# number of rings (size 3 to 8) (size 9 to 14) (size 15 to 20)
#    0.000    2.333    1.667    3.000    2.333    3.667 
#    0.000    1.250    0.000    3.500    0.000    3.500 
#    0.000    0.000    0.000    0.000    0.000    0.000 
#
# Total GULP energy -267550.593811 kJ/mol
# GULP energy per Si atom -5573.970704 kJ/mol
# Density = 1.851127 g / cm^3
# Si number density = 18.553499 Si / 1000 Ang^3
#
#
#
# Elastic Constant Matrix: (Units=GPa)
#
#
# Indices 1 2 3 4 5 6 
#
# 1 14.4867 24.0386 26.7483 0.0000 0.0000 0.0000
# 2 24.0386 173.5169 107.0130 0.0000 0.0000 0.0000
# 3 26.7483 107.0130 191.0074 0.0000 0.0000 0.0000
# 4 0.0000 0.0000 0.0000 45.7139 0.0000 0.0000
# 5 0.0000 0.0000 0.0000 0.0000 26.3207 0.0000
# 6 0.0000 0.0000 0.0000 0.0000 0.0000 47.6106
#
#
#
# Elastic Compliance Matrix: (Units=1/GPa)
#
#
# Indices 1 2 3 4 5 6 
#
# 1 0.099808 -0.007956 -0.009519 0.000000 0.000000 0.000000
# 2 -0.007956 0.009440 -0.004175 0.000000 0.000000 0.000000
# 3 -0.009519 -0.004175 0.008907 0.000000 0.000000 0.000000
# 4 0.000000 0.000000 0.000000 0.021875 0.000000 0.000000
# 5 0.000000 0.000000 0.000000 0.000000 0.037993 0.000000
# 6 0.000000 0.000000 0.000000 0.000000 0.000000 0.021004
#
#
# Mechanical properties :
#
#
# Convention : Reuss Voigt Hill
#
# Bulk Modulus (GPa) = 13.35922 77.17897 45.26909
# Shear Modulus (GPa) = 18.70704 38.67644 28.69174
#
# Velocity S-wave (km/s) = 3.17878 4.57068 3.93674
# Velocity P-wave (km/s) = 4.54850 8.33926 6.71685
#
# Compressibility (1/GPa) = 0.07485469
#
# Stress axis : x y z
#
# Youngs Moduli (GPa) = 10.01925 105.93237 112.26707
#
# Poissons Ratio (x) = 0.84283 1.06871
# Poissons Ratio (y) = 0.07972 0.46867
# Poissons Ratio (z) = 0.09538 0.44223
#
# Static dielectric constant tensor:
#      x y z
#    x 1.649150 0.000000 0.000000 
#    y 0.000000 1.680100 0.000000 
#    z 0.000000 0.000000 1.502890 
# 
# From -- ./inp_files/9218.got.cif
#   From: 2010.05.17/outbox.cif.g08.bks.cpg/sg47_5_cif.got.tgz:9218.got - 2010.06.03 20:15:42.
