data_PCOD9388922
_publ_section_title
;
Structure prediction by ZEFSAII (Michael W. Deem and Ramdas Pophale) SiO2 
 PCOD9388922
Probable space group: P M M M
;
_chemical_formula_sum "Si O2"
_cell_formula_units_Z 44
_cell_length_a 7.414643
_cell_length_b 30.137039
_cell_length_c 9.437149
_cell_angle_alpha 90.000000
_cell_angle_beta 90.000000
_cell_angle_gamma 90.000000
_cell_volume 2108.781766
_symmetry_space_group_name_H-M "P M M M"
_symmetry_group_IT_number 47
_symmetry_cell_setting 'orthorhombic'
loop_
_space_group_symop_operation_xyz
x,y,z
-x,-y,z
x,-y,-z
-x,y,-z
-x,-y,-z
x,y,-z
-x,y,z
x,-y,z
loop_
_atom_site_type_symbol
_atom_site_label
_atom_site_fract_x
_atom_site_fract_y
_atom_site_fract_z
Si Si1 0.719725 0.192032 0.834195
Si Si2 0.211749 0.000000 0.839339
Si Si3 0.719699 0.549702 0.663737
Si Si4 0.285422 0.904593 0.837793
Si Si5 0.279502 0.278174 0.336971
Si Si6 0.720404 0.635181 0.837312
O O1 0.500000 0.193171 0.831207
O O2 0.778364 0.143051 0.781187
O O3 0.781044 0.233464 0.741819
O O4 0.770647 0.196340 0.000000
O O5 0.254443 0.047359 0.769185
O O6 0.000000 0.000000 0.854882
O O7 0.294754 0.000000 0.000000
O O8 0.772746 0.556977 0.500000
O O9 0.500000 0.549864 0.665657
O O10 0.776466 0.500000 0.706298
O O11 0.779781 0.589720 0.762706
O O12 0.500000 0.900523 0.846576
O O13 0.214722 0.907766 0.000000
O O14 0.222758 0.279585 0.500000
O O15 0.500000 0.278003 0.336153
O O16 0.222969 0.321872 0.251668
O O17 0.500000 0.635015 0.836532
O O18 0.777518 0.637958 0.000000
#
# Coordination Sequence:
#
# PCOD9388922 Si02
#       6
#     8   4   8   8   8   8
#     4   8  13  21  32  45  61  82 108 135 164 204
#     4   9  15  21  31  51  78 101 120 148 186 221
#     4   8  13  20  27  33  43  62  90 125 164 204
#     4   8  13  21  33  48  68  96 125 149 177 218
#     4   9  15  21  29  41  57  75  95 124 165 209
#     4   9  15  20  26  36  50  69  93 122 159 206
#
# _framework density 20.865127999999999
#
# number of rings (size 3 to 8) (size 9 to 14) (size 15 to 20)
#    0.000    3.545    0.000    3.000    0.000    5.818 
#    0.000    1.818    0.000    0.000    0.000    0.636 
#    0.000    5.818    0.000    0.000    0.000    0.000 
#
# Total GULP energy -245197.839437 kJ/mol
# GULP energy per Si atom -5572.678169 kJ/mol
# Density = 2.081764 g / cm^3
# Si number density = 20.865128 Si / 1000 Ang^3
#
#
#
# Elastic Constant Matrix: (Units=GPa)
#
#
# Indices 1 2 3 4 5 6 
#
# 1 66.9376 7.6542 3.2815 0.0000 0.0000 0.0000
# 2 7.6542 276.6406 125.4449 0.0000 0.0000 0.0000
# 3 3.2815 125.4449 112.0569 0.0000 0.0000 0.0000
# 4 0.0000 0.0000 0.0000 -13.4272 0.0000 0.0000
# 5 0.0000 0.0000 0.0000 0.0000 -9.9785 0.0000
# 6 0.0000 0.0000 0.0000 0.0000 0.0000 -34.9070
#
#
#
# Elastic Compliance Matrix: (Units=1/GPa)
#
#
# Indices 1 2 3 4 5 6 
#
# 1 0.014987 -0.000438 0.000051 0.000000 0.000000 0.000000
# 2 -0.000438 0.007355 -0.008220 0.000000 0.000000 0.000000
# 3 0.000051 -0.008220 0.018125 0.000000 0.000000 0.000000
# 4 0.000000 0.000000 0.000000 -0.074476 0.000000 0.000000
# 5 0.000000 0.000000 0.000000 0.000000 -0.100215 0.000000
# 6 0.000000 0.000000 0.000000 0.000000 0.000000 -0.028648
#
#
# Mechanical properties :
#
#
# Convention : Reuss Voigt Hill
#
# Bulk Modulus (GPa) = 43.00598 80.93292 61.96945
# Shear Modulus (GPa) = -36.25621 9.62108 -13.31757
#
# Velocity S-wave (km/s) = -4.17303 2.14967 -2.52914
# Velocity P-wave (km/s) = 1.60086 6.71076 4.60823
#
# Compressibility (1/GPa) = 0.02325258
#
# Stress axis : x y z
#
# Youngs Moduli (GPa) = 66.72512 135.97106 55.17232
#
# Poissons Ratio (x) = 0.05955 -0.00284
# Poissons Ratio (y) = 0.02923 0.45354
# Poissons Ratio (z) = -0.00343 1.11773
#
# Static dielectric constant tensor:
#      x y z
#    x 1.778370 0.000000 0.000000 
#    y 0.000000 1.780630 0.000000 
#    z 0.000000 0.000000 1.691010 
# 
# From -- ./inp_files/2287.got.cif
#   From: 2010.05.17/outbox.cif.g08.bks.cpg/sg47_2_cif.got.tgz:2287.got - 2010.06.03 20:15:42.
