data_PCOD9388198
_publ_section_title
;
Structure prediction by ZEFSAII (Michael W. Deem and Ramdas Pophale) SiO2 
 PCOD9388198
Probable space group: P M M M
;
_chemical_formula_sum "Si O2"
_cell_formula_units_Z 52
_cell_length_a 8.087842
_cell_length_b 15.236520
_cell_length_c 23.951444
_cell_angle_alpha 90.000000
_cell_angle_beta 90.000000
_cell_angle_gamma 90.000000
_cell_volume 2951.550010
_symmetry_space_group_name_H-M "P M M M"
_symmetry_group_IT_number 47
_symmetry_cell_setting 'orthorhombic'
loop_
_space_group_symop_operation_xyz
x,y,z
-x,-y,z
x,-y,-z
-x,y,-z
-x,-y,-z
x,y,-z
-x,y,z
x,-y,z
loop_
_atom_site_type_symbol
_atom_site_label
_atom_site_fract_x
_atom_site_fract_y
_atom_site_fract_z
Si Si1 0.701251 0.602099 0.335576
Si Si2 0.300511 0.600902 0.789229
Si Si3 0.305025 0.716658 0.563304
Si Si4 0.699120 0.098201 0.935535
Si Si5 0.803318 0.715500 0.893604
Si Si6 0.202471 0.602139 0.000000
Si Si7 0.806001 0.094282 0.432542
O O1 0.500000 0.610258 0.335610
O O2 0.739766 0.500000 0.342885
O O3 0.756656 0.627278 0.273146
O O4 0.766858 0.656114 0.388150
O O5 0.500000 0.598375 0.788175
O O6 0.244395 0.500000 0.800450
O O7 0.248115 0.668151 0.836683
O O8 0.235595 0.707238 0.500000
O O9 0.500000 0.697497 0.558980
O O10 0.284669 0.817032 0.582908
O O11 0.500000 0.096404 0.936229
O O12 0.749909 0.183499 0.900811
O O13 0.754773 0.000000 0.917438
O O14 0.755564 0.110640 0.000000
O O15 0.740656 0.655963 0.945485
O O16 0.000000 0.714303 0.896910
O O17 0.254741 0.500000 0.000000
O O18 0.000000 0.601538 0.000000
O O19 0.796165 0.091347 0.500000
O O20 0.000000 0.101317 0.418287
O O21 0.742727 0.000000 0.411672
#
# Coordination Sequence:
#
# PCOD9388198 Si02
#       7
#     8   8   8   8   8   4   8
#     4   8  15  29  47  66  91 123 157 192 230 275
#     4   9  18  33  51  68  89 124 167 202 232 276
#     4   9  16  25  42  70  96 116 145 189 237 280
#     4   9  18  33  52  73  99 130 162 196 232 276
#     4  11  20  31  49  73 100 128 156 194 242 284
#     4   9  18  30  42  63  98 130 149 175 226 283
#     4   8  14  25  40  58  84 119 151 176 213 270
#
# _framework density 17.617863
#
# number of rings (size 3 to 8) (size 9 to 14) (size 15 to 20)
#    0.000    3.000    0.769    2.769    0.000    1.846 
#    0.000    4.615    0.000    4.154    0.000    4.308 
#    0.000    0.000    0.000    0.000    0.000    0.000 
#
# Total GULP energy -289504.652181 kJ/mol
# GULP energy per Si atom -5567.397157 kJ/mol
# Density = 1.757776 g / cm^3
# Si number density = 17.617863 Si / 1000 Ang^3
#
#
#
# Elastic Constant Matrix: (Units=GPa)
#
#
# Indices 1 2 3 4 5 6 
#
# 1 9.8839 10.5569 11.5450 0.0000 0.0000 0.0000
# 2 10.5569 140.5558 102.7397 0.0000 0.0000 0.0000
# 3 11.5450 102.7397 126.6629 0.0000 0.0000 0.0000
# 4 0.0000 0.0000 0.0000 7.3516 0.0000 0.0000
# 5 0.0000 0.0000 0.0000 0.0000 5.6682 0.0000
# 6 0.0000 0.0000 0.0000 0.0000 0.0000 -117.8736
#
#
#
# Elastic Compliance Matrix: (Units=1/GPa)
#
#
# Indices 1 2 3 4 5 6 
#
# 1 0.113549 -0.002366 -0.008430 0.000000 0.000000 0.000000
# 2 -0.002366 0.017525 -0.014000 0.000000 0.000000 0.000000
# 3 -0.008430 -0.014000 0.020019 0.000000 0.000000 0.000000
# 4 0.000000 0.000000 0.000000 0.136024 0.000000 0.000000
# 5 0.000000 0.000000 0.000000 0.000000 0.176424 0.000000
# 6 0.000000 0.000000 0.000000 0.000000 0.000000 -0.008484
#
#
# Mechanical properties :
#
#
# Convention : Reuss Voigt Hill
#
# Bulk Modulus (GPa) = 9.85213 58.53175 34.19194
# Shear Modulus (GPa) = 9.28531 -10.82003 -0.76736
#
# Velocity S-wave (km/s) = 2.29822 -2.48090 -0.66068
# Velocity P-wave (km/s) = 3.55622 5.00885 4.34369
#
# Compressibility (1/GPa) = 0.10150094
#
# Stress axis : x y z
#
# Youngs Moduli (GPa) = 8.80675 57.05986 49.95282
#
# Poissons Ratio (x) = 0.13502 0.42112
# Poissons Ratio (y) = 0.02084 0.69932
# Poissons Ratio (z) = 0.07424 0.79882
#
# Static dielectric constant tensor:
#      x y z
#    x 1.627120 0.000000 0.000000 
#    y 0.000000 1.238650 0.000000 
#    z 0.000000 0.000000 1.607600 
# 
# From -- ./inp_files/31998.got.cif
#   From: 2010.05.17/outbox.cif.g08.bks.cpg/sg47_16_cif.got.tgz:31998.got - 2010.06.03 20:15:42.
