data_PCOD9388315
_publ_section_title
;
Structure prediction by ZEFSAII (Michael W. Deem and Ramdas Pophale) SiO2 
 PCOD9388315
Probable space group: P M M M
;
_chemical_formula_sum "Si O2"
_cell_formula_units_Z 40
_cell_length_a 13.054752
_cell_length_b 7.879382
_cell_length_c 19.906745
_cell_angle_alpha 90.000000
_cell_angle_beta 90.000000
_cell_angle_gamma 90.000000
_cell_volume 2047.675034
_symmetry_space_group_name_H-M "P M M M"
_symmetry_group_IT_number 47
_symmetry_cell_setting 'orthorhombic'
loop_
_space_group_symop_operation_xyz
x,y,z
-x,-y,z
x,-y,-z
-x,y,-z
-x,-y,-z
x,y,-z
-x,y,z
x,-y,z
loop_
_atom_site_type_symbol
_atom_site_label
_atom_site_fract_x
_atom_site_fract_y
_atom_site_fract_z
Si Si1 0.500000 0.702673 0.075887
Si Si2 0.224048 0.791769 0.577382
Si Si3 0.305470 0.799247 0.165123
Si Si4 0.000000 0.195711 0.581660
Si Si5 0.884379 0.296175 0.075645
Si Si6 0.618423 0.208046 0.309021
O O1 0.500000 0.500000 0.072253
O O2 0.399236 0.755483 0.116133
O O3 0.500000 0.771218 0.000000
O O4 0.241402 0.740715 0.500000
O O5 0.312716 0.738674 0.627963
O O6 0.110731 0.730832 0.600169
O O7 0.220318 0.000000 0.577438
O O8 0.199867 0.746741 0.130574
O O9 0.331370 0.730869 0.239249
O O10 0.302219 0.000000 0.172145
O O11 0.000000 0.192526 0.500000
O O12 0.000000 0.000000 0.605234
O O13 0.888409 0.500000 0.072444
O O14 0.000000 0.235013 0.090399
O O15 0.855910 0.235963 0.000000
O O16 0.500000 0.261369 0.312934
O O17 0.618132 0.000000 0.308695
#
# Coordination Sequence:
#
# PCOD9388315 Si02
#       6
#     4   8   8   4   8   8
#     4  11  23  37  55  77  98 129 178 222 253 297
#     4   8  13  22  38  59  84 121 166 203 239 291
#     4  11  21  34  51  75 109 140 165 206 263 314
#     4   7  10  18  32  52  78 108 150 201 240 274
#     4   9  19  37  58  77 100 132 170 213 256 300
#     4   9  17  29  41  58  94 135 164 199 250 300
#
# _framework density 19.53435
#
# number of rings (size 3 to 8) (size 9 to 14) (size 15 to 20)
#    0.000    2.800    1.000    3.300    0.000    4.400 
#    1.800    3.000    0.000    0.000    0.000    0.000 
#    0.000    4.000    0.000    2.200    0.000    1.600 
#
# Total GULP energy -223016.430070 kJ/mol
# GULP energy per Si atom -5575.410752 kJ/mol
# Density = 1.948989 g / cm^3
# Si number density = 19.534350 Si / 1000 Ang^3
#
#
#
# Elastic Constant Matrix: (Units=GPa)
#
#
# Indices 1 2 3 4 5 6 
#
# 1 195.7435 11.4353 124.5988 0.0000 0.0000 0.0000
# 2 11.4353 19.5397 6.2777 0.0000 0.0000 0.0000
# 3 124.5988 6.2777 157.1756 0.0000 0.0000 0.0000
# 4 0.0000 0.0000 0.0000 55.3249 0.0000 0.0000
# 5 0.0000 0.0000 0.0000 0.0000 -43.2749 0.0000
# 6 0.0000 0.0000 0.0000 0.0000 0.0000 19.3403
#
#
#
# Elastic Compliance Matrix: (Units=1/GPa)
#
#
# Indices 1 2 3 4 5 6 
#
# 1 0.010548 -0.003532 -0.008221 0.000000 0.000000 0.000000
# 2 -0.003532 0.053026 0.000682 0.000000 0.000000 0.000000
# 3 -0.008221 0.000682 0.012852 0.000000 0.000000 0.000000
# 4 0.000000 0.000000 0.000000 0.018075 0.000000 0.000000
# 5 0.000000 0.000000 0.000000 0.000000 -0.023108 0.000000
# 6 0.000000 0.000000 0.000000 0.000000 0.000000 0.051706
#
#
# Mechanical properties :
#
#
# Convention : Reuss Voigt Hill
#
# Bulk Modulus (GPa) = 18.42148 73.00915 45.71532
# Shear Modulus (GPa) = 30.61220 21.62118 26.11669
#
# Velocity S-wave (km/s) = 3.96295 3.33051 3.66042
# Velocity P-wave (km/s) = 5.51278 7.22812 6.42792
#
# Compressibility (1/GPa) = 0.05428445
#
# Stress axis : x y z
#
# Youngs Moduli (GPa) = 94.80686 18.85875 77.81019
#
# Poissons Ratio (x) = 0.06661 0.63964
# Poissons Ratio (y) = 0.33484 -0.05306
# Poissons Ratio (z) = 0.77936 -0.01286
#
# Static dielectric constant tensor:
#      x y z
#    x 1.673340 0.000000 0.000000 
#    y 0.000000 1.709620 0.000000 
#    z 0.000000 0.000000 1.676110 
# 
# From -- ./inp_files/29368.got.cif
#   From: 2010.05.17/outbox.cif.g08.bks.cpg/sg47_15_cif.got.tgz:29368.got - 2010.06.03 20:15:42.
