data_PCOD9388065
_publ_section_title
;
Structure prediction by ZEFSAII (Michael W. Deem and Ramdas Pophale) SiO2 
 PCOD9388065
Probable space group: P M M M
;
_chemical_formula_sum "Si O2"
_cell_formula_units_Z 32
_cell_length_a 24.878474
_cell_length_b 7.904623
_cell_length_c 8.489648
_cell_angle_alpha 90.000000
_cell_angle_beta 90.000000
_cell_angle_gamma 90.000000
_cell_volume 1669.531369
_symmetry_space_group_name_H-M "P M M M"
_symmetry_group_IT_number 47
_symmetry_cell_setting 'orthorhombic'
loop_
_space_group_symop_operation_xyz
x,y,z
-x,-y,z
x,-y,-z
-x,y,-z
-x,-y,-z
x,y,-z
-x,y,z
x,-y,z
loop_
_atom_site_type_symbol
_atom_site_label
_atom_site_fract_x
_atom_site_fract_y
_atom_site_fract_z
Si Si1 0.132638 0.694289 0.687129
Si Si2 0.938616 0.000000 0.811858
Si Si3 0.365660 0.813092 0.807711
Si Si4 0.751055 0.703095 0.183489
Si Si5 0.561780 0.500000 0.807136
O O1 0.126234 0.692575 0.500000
O O2 0.124454 0.500000 0.745760
O O3 0.194003 0.743751 0.728101
O O4 0.092658 0.832348 0.757012
O O5 0.000000 0.000000 0.752645
O O6 0.939468 0.000000 0.000000
O O7 0.304202 0.782802 0.755807
O O8 0.405258 0.665137 0.755547
O O9 0.383849 0.000000 0.762275
O O10 0.364062 0.805083 0.000000
O O11 0.743661 0.500000 0.189396
O O12 0.757959 0.751493 0.000000
O O13 0.500000 0.500000 0.756127
O O14 0.561673 0.500000 0.000000
#
# Coordination Sequence:
#
# PCOD9388065 Si02
#       5
#     8   4   8   8   4
#     4  10  22  39  59  86 119 152 186 231 286 341
#     4  11  25  43  63  87 115 151 196 237 274 327
#     4   9  16  25  39  62  91 127 172 219 269 324
#     4   9  16  29  50  74 103 138 178 224 273 330
#     4   9  16  26  38  56  91 135 176 221 272 325
#
# _framework density 19.167055000000001
#
# number of rings (size 3 to 8) (size 9 to 14) (size 15 to 20)
#    0.000    2.500    1.250    1.125    1.750    3.500 
#    0.000    5.000    0.000    0.000    0.000    0.000 
#    0.000    2.000    0.000    2.250    0.000    2.500 
#
# Total GULP energy -178558.398930 kJ/mol
# GULP energy per Si atom -5579.949967 kJ/mol
# Density = 1.912343 g / cm^3
# Si number density = 19.167055 Si / 1000 Ang^3
#
#
#
# Elastic Constant Matrix: (Units=GPa)
#
#
# Indices 1 2 3 4 5 6 
#
# 1 166.2382 113.9032 20.1009 0.0000 0.0000 0.0000
# 2 113.9032 153.5238 21.4865 0.0000 0.0000 0.0000
# 3 20.1009 21.4865 18.0569 0.0000 0.0000 0.0000
# 4 0.0000 0.0000 0.0000 13.1925 0.0000 0.0000
# 5 0.0000 0.0000 0.0000 0.0000 -27.1622 0.0000
# 6 0.0000 0.0000 0.0000 0.0000 0.0000 -27.1681
#
#
#
# Elastic Compliance Matrix: (Units=1/GPa)
#
#
# Indices 1 2 3 4 5 6 
#
# 1 0.012410 -0.008727 -0.003430 0.000000 0.000000 0.000000
# 2 -0.008727 0.013953 -0.006887 0.000000 0.000000 0.000000
# 3 -0.003430 -0.006887 0.067394 0.000000 0.000000 0.000000
# 4 0.000000 0.000000 0.000000 0.075801 0.000000 0.000000
# 5 0.000000 0.000000 0.000000 0.000000 -0.036816 0.000000
# 6 0.000000 0.000000 0.000000 0.000000 0.000000 -0.036808
#
#
# Mechanical properties :
#
#
# Convention : Reuss Voigt Hill
#
# Bulk Modulus (GPa) = 17.96381 72.08892 45.02636
# Shear Modulus (GPa) = 32.77003 3.92766 18.34885
#
# Velocity S-wave (km/s) = 4.13935 1.43305 3.09740
# Velocity P-wave (km/s) = 5.67786 6.35851 6.02780
#
# Compressibility (1/GPa) = 0.05566748
#
# Stress axis : x y z
#
# Youngs Moduli (GPa) = 80.58086 71.67173 14.83808
#
# Poissons Ratio (x) = 0.62549 0.05089
# Poissons Ratio (y) = 0.70324 0.10220
# Poissons Ratio (z) = 0.27639 0.49363
#
# Static dielectric constant tensor:
#      x y z
#    x 1.643800 0.000000 0.000000 
#    y 0.000000 1.677980 0.000000 
#    z 0.000000 0.000000 1.651990 
# 
# From -- ./inp_files/12011.got.cif
#   From: 2010.05.17/outbox.cif.g08.bks.cpg/sg47_7_cif.got.tgz:12011.got - 2010.06.03 20:15:42.
