data_PCOD9388039
_publ_section_title
;
Structure prediction by ZEFSAII (Michael W. Deem and Ramdas Pophale) SiO2 
 PCOD9388039
Probable space group: P M M M
;
_chemical_formula_sum "Si O2"
_cell_formula_units_Z 56
_cell_length_a 14.060771
_cell_length_b 22.752630
_cell_length_c 10.118699
_cell_angle_alpha 90.000000
_cell_angle_beta 90.000000
_cell_angle_gamma 90.000000
_cell_volume 3237.169328
_symmetry_space_group_name_H-M "P M M M"
_symmetry_group_IT_number 47
_symmetry_cell_setting 'orthorhombic'
loop_
_space_group_symop_operation_xyz
x,y,z
-x,-y,z
x,-y,-z
-x,y,-z
-x,-y,-z
x,y,-z
-x,y,z
x,-y,z
loop_
_atom_site_type_symbol
_atom_site_label
_atom_site_fract_x
_atom_site_fract_y
_atom_site_fract_z
Si Si1 0.109730 0.855425 0.346472
Si Si2 0.791514 0.371535 0.752869
Si Si3 0.389532 0.568353 0.658414
Si Si4 0.794193 0.238096 0.157663
Si Si5 0.109167 0.429942 0.000000
Si Si6 0.390735 0.161124 0.845556
Si Si7 0.114013 0.569078 0.500000
Si Si8 0.705426 0.068870 0.345203
O O1 0.119850 0.834796 0.500000
O O2 0.138962 0.805499 0.241785
O O3 0.186428 0.907476 0.329400
O O4 0.000000 0.873089 0.328264
O O5 0.681951 0.389250 0.732717
O O6 0.801850 0.302834 0.781923
O O7 0.845737 0.396490 0.625458
O O8 0.836598 0.406077 0.873991
O O9 0.378207 0.575582 0.500000
O O10 0.500000 0.578401 0.689846
O O11 0.367038 0.500000 0.688367
O O12 0.687016 0.212504 0.173468
O O13 0.815766 0.238592 0.000000
O O14 0.108518 0.500000 0.000000
O O15 0.000000 0.409053 0.000000
O O16 0.500000 0.178652 0.820609
O O17 0.359535 0.108408 0.749454
O O18 0.383533 0.143111 0.000000
O O19 0.144421 0.500000 0.500000
O O20 0.000000 0.569608 0.500000
O O21 0.680038 0.077488 0.500000
O O22 0.698761 0.000000 0.315066
#
# Coordination Sequence:
#
# PCOD9388039 Si02
#       8
#     8   8   8   8   4   8   4   8
#     4   9  19  35  56  80 108 145 188 232 272 315
#     4  12  22  38  60  83 111 148 185 231 286 340
#     4   9  18  34  57  83 108 136 173 219 275 337
#     4  10  22  39  54  78 109 143 184 228 277 332
#     4  11  24  40  57  81 115 149 183 228 286 346
#     4   9  19  37  59  78 106 148 188 228 270 314
#     4  11  24  40  59  83 109 143 189 232 276 340
#     4   9  18  33  54  83 119 150 180 222 272 326
#
# _framework density 17.299064999999999
#
# number of rings (size 3 to 8) (size 9 to 14) (size 15 to 20)
#    0.000    2.143    1.429    2.143    1.000    4.286 
#    0.000    3.214    0.000    1.286    0.000    4.000 
#    0.000    0.000    0.000    0.000    0.000    0.000 
#
# Total GULP energy -312386.135204 kJ/mol
# GULP energy per Si atom -5578.323843 kJ/mol
# Density = 1.725969 g / cm^3
# Si number density = 17.299065 Si / 1000 Ang^3
#
#
#
# Elastic Constant Matrix: (Units=GPa)
#
#
# Indices 1 2 3 4 5 6 
#
# 1 64.5606 9.5688 29.0695 0.0000 0.0000 0.0000
# 2 9.5688 81.1085 45.4816 0.0000 0.0000 0.0000
# 3 29.0695 45.4816 97.3340 0.0000 0.0000 0.0000
# 4 0.0000 0.0000 0.0000 29.4463 0.0000 0.0000
# 5 0.0000 0.0000 0.0000 0.0000 25.2383 0.0000
# 6 0.0000 0.0000 0.0000 0.0000 0.0000 -10.7829
#
#
#
# Elastic Compliance Matrix: (Units=1/GPa)
#
#
# Indices 1 2 3 4 5 6 
#
# 1 0.017983 0.001206 -0.005934 0.000000 0.000000 0.000000
# 2 0.001206 0.016788 -0.008205 0.000000 0.000000 0.000000
# 3 -0.005934 -0.008205 0.015880 0.000000 0.000000 0.000000
# 4 0.000000 0.000000 0.000000 0.033960 0.000000 0.000000
# 5 0.000000 0.000000 0.000000 0.000000 0.039622 0.000000
# 6 0.000000 0.000000 0.000000 0.000000 0.000000 -0.092740
#
#
# Mechanical properties :
#
#
# Convention : Reuss Voigt Hill
#
# Bulk Modulus (GPa) = 40.34745 45.69367 43.02056
# Shear Modulus (GPa) = 76.19641 19.37256 47.78449
#
# Velocity S-wave (km/s) = 6.64396 3.35006 5.26142
# Velocity P-wave (km/s) = 9.06809 6.43702 7.86338
#
# Compressibility (1/GPa) = 0.02478471
#
# Stress axis : x y z
#
# Youngs Moduli (GPa) = 55.60949 59.56769 62.97227
#
# Poissons Ratio (x) = -0.07184 0.37369
# Poissons Ratio (y) = -0.06707 0.51666
# Poissons Ratio (z) = 0.33000 0.48873
#
# Static dielectric constant tensor:
#      x y z
#    x 1.591130 0.000000 0.000000 
#    y 0.000000 1.557660 0.000000 
#    z 0.000000 0.000000 1.566280 
# 
# From -- ./inp_files/7461.got.cif
#   From: 2010.05.17/outbox.cif.g08.bks.cpg/sg47_4_cif.got.tgz:7461.got - 2010.06.03 20:15:42.
