data_PCOD9388305
_publ_section_title
;
Structure prediction by ZEFSAII (Michael W. Deem and Ramdas Pophale) SiO2 
 PCOD9388305
Probable space group: P M M M
;
_chemical_formula_sum "Si O2"
_cell_formula_units_Z 52
_cell_length_a 12.655269
_cell_length_b 25.276408
_cell_length_c 8.867163
_cell_angle_alpha 90.000000
_cell_angle_beta 90.000000
_cell_angle_gamma 90.000000
_cell_volume 2836.425818
_symmetry_space_group_name_H-M "P M M M"
_symmetry_group_IT_number 47
_symmetry_cell_setting 'orthorhombic'
loop_
_space_group_symop_operation_xyz
x,y,z
-x,-y,z
x,-y,-z
-x,y,-z
-x,-y,-z
x,y,-z
-x,y,z
x,-y,z
loop_
_atom_site_type_symbol
_atom_site_label
_atom_site_fract_x
_atom_site_fract_y
_atom_site_fract_z
Si Si1 0.824833 0.388709 0.176296
Si Si2 0.620926 0.647884 0.327158
Si Si3 0.217140 0.150309 0.820794
Si Si4 0.380532 0.061154 0.183510
Si Si5 0.380036 0.774952 0.325060
Si Si6 0.000000 0.686773 0.318789
Si Si7 0.873916 0.500000 0.329759
Si Si8 0.000000 0.811239 0.680901
O O1 0.704157 0.374702 0.211409
O O2 0.898776 0.345219 0.257600
O O3 0.844283 0.446582 0.244055
O O4 0.848918 0.388067 0.000000
O O5 0.649581 0.633062 0.500000
O O6 0.500000 0.631711 0.300188
O O7 0.624856 0.711584 0.319602
O O8 0.286626 0.099814 0.767100
O O9 0.293505 0.199208 0.780642
O O10 0.105222 0.160550 0.742589
O O11 0.201218 0.146128 0.000000
O O12 0.500000 0.076626 0.232559
O O13 0.363578 0.000000 0.227027
O O14 0.381385 0.063031 0.000000
O O15 0.360899 0.790478 0.500000
O O16 0.500000 0.790666 0.284179
O O17 0.000000 0.684642 0.500000
O O18 0.000000 0.748726 0.273519
O O19 0.829843 0.500000 0.500000
O O20 0.000000 0.500000 0.340298
O O21 0.000000 0.812560 0.500000
#
# Coordination Sequence:
#
# PCOD9388305 Si02
#       8
#     8   8   8   8   8   4   4   4
#     4  12  24  37  59  89 118 142 173 230 290 324
#     4   9  19  37  58  79 109 152 194 222 256 325
#     4  11  21  33  53  81 110 140 182 235 283 323
#     4   8  15  30  53  81 111 141 175 220 276 333
#     4   9  18  33  54  80 111 148 185 221 268 329
#     4  11  23  40  60  80 106 147 193 224 261 330
#     4  11  23  41  64  85 109 146 188 224 264 329
#     4  11  25  41  55  73 107 154 192 222 265 330
#
# _framework density 18.332930000000001
#
# number of rings (size 3 to 8) (size 9 to 14) (size 15 to 20)
#    0.000    1.923    0.769    5.308    0.000    7.077 
#    0.000    2.308    0.000    6.462    0.000    5.385 
#    0.000    0.000    0.000    0.000    0.000    0.000 
#
# Total GULP energy -290282.772251 kJ/mol
# GULP energy per Si atom -5582.361005 kJ/mol
# Density = 1.829120 g / cm^3
# Si number density = 18.332930 Si / 1000 Ang^3
#
#
#
# Elastic Constant Matrix: (Units=GPa)
#
#
# Indices 1 2 3 4 5 6 
#
# 1 117.3738 63.6403 46.1765 0.0000 0.0000 0.0000
# 2 63.6403 97.4599 37.6161 0.0000 0.0000 0.0000
# 3 46.1765 37.6161 66.6966 0.0000 0.0000 0.0000
# 4 0.0000 0.0000 0.0000 33.6704 0.0000 0.0000
# 5 0.0000 0.0000 0.0000 0.0000 18.3609 0.0000
# 6 0.0000 0.0000 0.0000 0.0000 0.0000 19.2295
#
#
#
# Elastic Compliance Matrix: (Units=1/GPa)
#
#
# Indices 1 2 3 4 5 6 
#
# 1 0.014956 -0.007375 -0.006195 0.000000 0.000000 0.000000
# 2 -0.007375 0.016752 -0.004342 0.000000 0.000000 0.000000
# 3 -0.006195 -0.004342 0.021731 0.000000 0.000000 0.000000
# 4 0.000000 0.000000 0.000000 0.029700 0.000000 0.000000
# 5 0.000000 0.000000 0.000000 0.000000 0.054464 0.000000
# 6 0.000000 0.000000 0.000000 0.000000 0.000000 0.052003
#
#
# Mechanical properties :
#
#
# Convention : Reuss Voigt Hill
#
# Bulk Modulus (GPa) = 56.76967 64.04403 60.40685
# Shear Modulus (GPa) = 21.61679 23.19198 22.40439
#
# Velocity S-wave (km/s) = 3.43756 3.56061 3.49962
# Velocity P-wave (km/s) = 6.84025 7.20511 7.02505
#
# Compressibility (1/GPa) = 0.01761504
#
# Stress axis : x y z
#
# Youngs Moduli (GPa) = 66.86439 59.69346 46.01660
#
# Poissons Ratio (x) = 0.44023 0.28507
# Poissons Ratio (y) = 0.49311 0.19981
# Poissons Ratio (z) = 0.41423 0.25920
#
# Static dielectric constant tensor:
#      x y z
#    x 1.629620 0.000000 0.000000 
#    y 0.000000 1.642260 0.000000 
#    z 0.000000 0.000000 1.632940 
# 
# From -- ./inp_files/4632.got.cif
#   From: 2010.05.17/outbox.cif.g08.bks.cpg/sg47_3_cif.got.tgz:4632.got - 2010.06.03 20:15:42.
