data_PCOD9388327
_publ_section_title
;
Structure prediction by ZEFSAII (Michael W. Deem and Ramdas Pophale) SiO2 
 PCOD9388327
Probable space group: P M M M
;
_chemical_formula_sum "Si O2"
_cell_formula_units_Z 36
_cell_length_a 21.513365
_cell_length_b 9.013711
_cell_length_c 11.795670
_cell_angle_alpha 90.000000
_cell_angle_beta 90.000000
_cell_angle_gamma 90.000000
_cell_volume 2287.360353
_symmetry_space_group_name_H-M "P M M M"
_symmetry_group_IT_number 47
_symmetry_cell_setting 'orthorhombic'
loop_
_space_group_symop_operation_xyz
x,y,z
-x,-y,z
x,-y,-z
-x,y,-z
-x,-y,-z
x,y,-z
-x,y,z
x,-y,z
loop_
_atom_site_type_symbol
_atom_site_label
_atom_site_fract_x
_atom_site_fract_y
_atom_site_fract_z
Si Si1 0.614194 0.179135 0.734874
Si Si2 0.874195 0.171269 0.137993
Si Si3 0.500000 0.326172 0.864374
Si Si4 0.737560 0.819337 0.869305
Si Si5 0.425381 0.322762 0.500000
Si Si6 0.000000 0.329259 0.861956
O O1 0.560148 0.244991 0.814117
O O2 0.680552 0.221320 0.789225
O O3 0.603269 0.248300 0.611570
O O4 0.609852 0.000000 0.730729
O O5 0.806060 0.231685 0.170043
O O6 0.935923 0.254484 0.176729
O O7 0.878830 0.000000 0.173033
O O8 0.873801 0.173468 0.000000
O O9 0.500000 0.500000 0.829678
O O10 0.500000 0.318732 0.000000
O O11 0.740477 0.000000 0.871659
O O12 0.726837 0.771696 0.000000
O O13 0.415663 0.500000 0.500000
O O14 0.500000 0.296787 0.500000
O O15 0.000000 0.500000 0.830607
O O16 0.000000 0.319001 0.000000
#
# Coordination Sequence:
#
# PCOD9388327 Si02
#       6
#     8   8   4   8   4   4
#     4  11  21  34  55  76  93 117 158 204 241 278
#     4   8  13  23  39  57  82 119 155 182 218 270
#     4  11  23  36  49  70 101 131 155 183 228 287
#     4   8  15  28  46  70  97 121 149 191 238 279
#     4  11  23  39  55  69  94 125 154 193 244 294
#     4   9  15  21  31  53  85 118 155 194 221 247
#
# _framework density 15.738666
#
# number of rings (size 3 to 8) (size 9 to 14) (size 15 to 20)
#    0.000    2.556    1.111    3.667    0.000    3.556 
#    0.000    2.222    0.000    5.333    0.000    0.000 
#    0.000    0.889    0.000   10.222    0.000    6.667 
#
# Total GULP energy -200582.752617 kJ/mol
# GULP energy per Si atom -5571.743128 kJ/mol
# Density = 1.570284 g / cm^3
# Si number density = 15.738666 Si / 1000 Ang^3
#
#
#
# Elastic Constant Matrix: (Units=GPa)
#
#
# Indices 1 2 3 4 5 6 
#
# 1 190.7420 69.7232 61.8197 0.0000 0.0000 0.0000
# 2 69.7232 70.0658 35.8966 0.0000 0.0000 0.0000
# 3 61.8197 35.8966 68.4195 0.0000 0.0000 0.0000
# 4 0.0000 0.0000 0.0000 12.6294 0.0000 0.0000
# 5 0.0000 0.0000 0.0000 0.0000 -0.3665 0.0000
# 6 0.0000 0.0000 0.0000 0.0000 0.0000 -3.8633
#
#
#
# Elastic Compliance Matrix: (Units=1/GPa)
#
#
# Indices 1 2 3 4 5 6 
#
# 1 0.009281 -0.006755 -0.004842 0.000000 0.000000 0.000000
# 2 -0.006755 0.024436 -0.006717 0.000000 0.000000 0.000000
# 3 -0.004842 -0.006717 0.022514 0.000000 0.000000 0.000000
# 4 0.000000 0.000000 0.000000 0.079180 0.000000 0.000000
# 5 0.000000 0.000000 0.000000 0.000000 -2.728490 0.000000
# 6 0.000000 0.000000 0.000000 0.000000 0.000000 -0.258847
#
#
# Mechanical properties :
#
#
# Convention : Reuss Voigt Hill
#
# Bulk Modulus (GPa) = 51.01026 73.78959 62.39992
# Shear Modulus (GPa) = -1.78014 12.46578 5.34282
#
# Velocity S-wave (km/s) = -1.06467 2.81739 1.84447
# Velocity P-wave (km/s) = 5.56505 7.58746 6.65355
#
# Compressibility (1/GPa) = 0.01960390
#
# Stress axis : x y z
#
# Youngs Moduli (GPa) = 107.74479 40.92384 44.41619
#
# Poissons Ratio (x) = 0.27645 0.21505
# Poissons Ratio (y) = 0.72784 0.29833
# Poissons Ratio (z) = 0.52167 0.27487
#
# Static dielectric constant tensor:
#      x y z
#    x 1.543740 0.000000 0.000000 
#    y 0.000000 1.525900 0.000000 
#    z 0.000000 0.000000 1.498710 
# 
# From -- ./inp_files/18875.got.cif
#   From: 2010.05.17/outbox.cif.g08.bks.cpg/sg47_10_cif.got.tgz:18875.got - 2010.06.03 20:15:42.
