data_PCOD9388639
_publ_section_title
;
Structure prediction by ZEFSAII (Michael W. Deem and Ramdas Pophale) SiO2 
 PCOD9388639
Probable space group: P M M M
;
_chemical_formula_sum "Si O2"
_cell_formula_units_Z 48
_cell_length_a 14.503545
_cell_length_b 12.900860
_cell_length_c 16.160699
_cell_angle_alpha 90.000000
_cell_angle_beta 90.000000
_cell_angle_gamma 90.000000
_cell_volume 3023.799358
_symmetry_space_group_name_H-M "P M M M"
_symmetry_group_IT_number 47
_symmetry_cell_setting 'orthorhombic'
loop_
_space_group_symop_operation_xyz
x,y,z
-x,-y,z
x,-y,-z
-x,y,-z
-x,-y,-z
x,y,-z
-x,y,z
x,-y,z
loop_
_atom_site_type_symbol
_atom_site_label
_atom_site_fract_x
_atom_site_fract_y
_atom_site_fract_z
Si Si1 0.389161 0.120591 0.597021
Si Si2 0.603176 0.374482 0.000000
Si Si3 0.718009 0.307245 0.323525
Si Si4 0.111763 0.000000 0.593596
Si Si5 0.894346 0.227827 0.599969
Si Si6 0.105242 0.625886 0.000000
Si Si7 0.609966 0.500000 0.598956
Si Si8 0.748554 0.374455 0.138099
O O1 0.367688 0.142274 0.500000
O O2 0.500000 0.131526 0.606351
O O3 0.335261 0.201728 0.653073
O O4 0.365658 0.000000 0.612980
O O5 0.661233 0.346578 0.919103
O O6 0.599795 0.500000 0.000000
O O7 0.500000 0.333708 0.000000
O O8 0.817352 0.304953 0.368092
O O9 0.656285 0.399955 0.359647
O O10 0.737581 0.323320 0.226909
O O11 0.133287 0.888181 0.630830
O O12 0.150071 0.000000 0.500000
O O13 0.000000 0.000000 0.587199
O O14 0.893394 0.224088 0.500000
O O15 0.000000 0.250116 0.624940
O O16 0.162777 0.655300 0.917784
O O17 0.104673 0.500000 0.000000
O O18 0.000000 0.662351 0.000000
O O19 0.500000 0.500000 0.612693
O O20 0.625668 0.500000 0.500000
O O21 0.750528 0.500000 0.148315
#
# Coordination Sequence:
#
# PCOD9388639 Si02
#       8
#     8   4   8   4   8   4   4   8
#     4   9  19  35  52  71  97 133 182 234 273 302
#     4   8  15  29  50  69  91 121 151 194 252 301
#     4  12  21  32  51  75 104 138 172 215 261 303
#     4   7  12  26  46  66  89 118 159 212 257 292
#     4   9  18  31  47  69  97 131 172 213 254 297
#     4   8  15  31  56  73  95 134 166 200 250 300
#     4  11  24  38  49  66  99 146 189 214 244 305
#     4   9  18  32  45  73 105 125 163 204 240 305
#
# _framework density 15.87407
#
# number of rings (size 3 to 8) (size 9 to 14) (size 15 to 20)
#    0.000    2.667    0.833    4.500    1.167    3.333 
#    0.000    0.417    0.000    1.500    0.000    2.333 
#    0.000    6.667    0.000    0.000    0.000    0.000 
#
# Total GULP energy -267434.871641 kJ/mol
# GULP energy per Si atom -5571.559826 kJ/mol
# Density = 1.583794 g / cm^3
# Si number density = 15.874070 Si / 1000 Ang^3
#
#
#
# Elastic Constant Matrix: (Units=GPa)
#
#
# Indices 1 2 3 4 5 6 
#
# 1 125.1550 47.6056 66.3434 0.0000 0.0000 0.0000
# 2 47.6056 60.5561 46.8504 0.0000 0.0000 0.0000
# 3 66.3434 46.8504 108.0782 0.0000 0.0000 0.0000
# 4 0.0000 0.0000 0.0000 8.0291 0.0000 0.0000
# 5 0.0000 0.0000 0.0000 0.0000 90.9017 0.0000
# 6 0.0000 0.0000 0.0000 0.0000 0.0000 21.6758
#
#
#
# Elastic Compliance Matrix: (Units=1/GPa)
#
#
# Indices 1 2 3 4 5 6 
#
# 1 0.013227 -0.006194 -0.005434 0.000000 0.000000 0.000000
# 2 -0.006194 0.027747 -0.008226 0.000000 0.000000 0.000000
# 3 -0.005434 -0.008226 0.016154 0.000000 0.000000 0.000000
# 4 0.000000 0.000000 0.000000 0.124547 0.000000 0.000000
# 5 0.000000 0.000000 0.000000 0.000000 0.011001 0.000000
# 6 0.000000 0.000000 0.000000 0.000000 0.000000 0.046134
#
#
# Mechanical properties :
#
#
# Convention : Reuss Voigt Hill
#
# Bulk Modulus (GPa) = 57.40531 68.37643 62.89087
# Shear Modulus (GPa) = 17.58557 32.98730 25.28644
#
# Velocity S-wave (km/s) = 3.33200 4.56352 3.99549
# Velocity P-wave (km/s) = 7.14454 8.42232 7.80961
#
# Compressibility (1/GPa) = 0.01741999
#
# Stress axis : x y z
#
# Youngs Moduli (GPa) = 75.60497 36.04012 61.90349
#
# Poissons Ratio (x) = 0.22322 0.33640
# Poissons Ratio (y) = 0.46827 0.50921
# Poissons Ratio (z) = 0.41086 0.29646
#
# Static dielectric constant tensor:
#      x y z
#    x 1.562580 0.000000 0.000000 
#    y 0.000000 1.535560 0.000000 
#    z 0.000000 0.000000 1.497880 
# 
# From -- ./inp_files/23626.got.cif
#   From: 2010.05.17/outbox.cif.g08.bks.cpg/sg47_12_cif.got.tgz:23626.got - 2010.06.03 20:15:42.
