data_PCOD9388785
_publ_section_title
;
Structure prediction by ZEFSAII (Michael W. Deem and Ramdas Pophale) SiO2 
 PCOD9388785
Probable space group: P M M M
;
_chemical_formula_sum "Si O2"
_cell_formula_units_Z 52
_cell_length_a 9.776257
_cell_length_b 35.210708
_cell_length_c 7.476629
_cell_angle_alpha 90.000000
_cell_angle_beta 90.000000
_cell_angle_gamma 90.000000
_cell_volume 2573.672005
_symmetry_space_group_name_H-M "P M M M"
_symmetry_group_IT_number 47
_symmetry_cell_setting 'orthorhombic'
loop_
_space_group_symop_operation_xyz
x,y,z
-x,-y,z
x,-y,-z
-x,y,-z
-x,-y,-z
x,y,-z
-x,y,z
x,-y,z
loop_
_atom_site_type_symbol
_atom_site_label
_atom_site_fract_x
_atom_site_fract_y
_atom_site_fract_z
Si Si1 0.656453 0.043100 0.782084
Si Si2 0.842827 0.887169 0.780907
Si Si3 0.655994 0.817836 0.213857
Si Si4 0.157994 0.418451 0.215184
Si Si5 0.844428 0.664606 0.712917
Si Si6 0.166021 0.500000 0.213402
Si Si7 0.655422 0.732122 0.714464
O O1 0.500000 0.051918 0.728376
O O2 0.762258 0.075036 0.723599
O O3 0.688856 0.000000 0.725754
O O4 0.657307 0.043189 0.000000
O O5 0.757640 0.850337 0.720739
O O6 0.000000 0.886547 0.723393
O O7 0.843205 0.887078 0.000000
O O8 0.500000 0.821637 0.283436
O O9 0.704129 0.774935 0.249321
O O10 0.648289 0.822298 0.000000
O O11 0.218227 0.377426 0.259875
O O12 0.215975 0.458931 0.281394
O O13 0.000000 0.416783 0.279260
O O14 0.154763 0.420663 0.000000
O O15 0.854665 0.669754 0.500000
O O16 0.752656 0.698859 0.784097
O O17 0.000000 0.665144 0.785659
O O18 0.000000 0.500000 0.235615
O O19 0.191355 0.500000 0.000000
O O20 0.649013 0.728059 0.500000
O O21 0.500000 0.729051 0.783711
#
# Coordination Sequence:
#
# PCOD9388785 Si02
#       7
#     8   8   8   8   8   4   8
#     4   8  13  21  33  49  72 106 144 174 201 239
#     4   9  16  24  35  54  80 107 134 167 207 246
#     4   9  17  29  44  60  79 104 133 166 203 241
#     4   8  13  22  37  57  81 109 138 165 196 237
#     4   9  17  28  41  59  83 106 128 161 205 244
#     4   7  10  18  33  53  78 107 136 164 194 231
#     4   9  18  32  47  61  79 106 138 168 200 242
#
# _framework density 20.204597
#
# number of rings (size 3 to 8) (size 9 to 14) (size 15 to 20)
#    0.000    3.462    0.000    1.846    0.000    3.385 
#    0.000    1.923    0.000    2.308    0.000    0.538 
#    0.000    4.923    0.000    7.077    0.000    9.077 
#
# Total GULP energy -289701.444913 kJ/mol
# GULP energy per Si atom -5571.181633 kJ/mol
# Density = 2.015861 g / cm^3
# Si number density = 20.204597 Si / 1000 Ang^3
#
#
#
# Elastic Constant Matrix: (Units=GPa)
#
#
# Indices 1 2 3 4 5 6 
#
# 1 86.8769 117.2058 4.7783 0.0000 0.0000 0.0000
# 2 117.2058 236.5151 1.3155 0.0000 0.0000 0.0000
# 3 4.7783 1.3155 56.7641 0.0000 0.0000 0.0000
# 4 0.0000 0.0000 0.0000 29.8477 0.0000 0.0000
# 5 0.0000 0.0000 0.0000 0.0000 -3.3567 0.0000
# 6 0.0000 0.0000 0.0000 0.0000 0.0000 67.0669
#
#
#
# Elastic Compliance Matrix: (Units=1/GPa)
#
#
# Indices 1 2 3 4 5 6 
#
# 1 0.035094 -0.017377 -0.002551 0.000000 0.000000 0.000000
# 2 -0.017377 0.012833 0.001165 0.000000 0.000000 0.000000
# 3 -0.002551 0.001165 0.017805 0.000000 0.000000 0.000000
# 4 0.000000 0.000000 0.000000 0.033503 0.000000 0.000000
# 5 0.000000 0.000000 0.000000 0.000000 -0.297909 0.000000
# 6 0.000000 0.000000 0.000000 0.000000 0.000000 0.014910
#
#
# Mechanical properties :
#
#
# Convention : Reuss Voigt Hill
#
# Bulk Modulus (GPa) = 35.45412 69.63949 52.54680
# Shear Modulus (GPa) = -36.53990 35.83534 -0.35228
#
# Velocity S-wave (km/s) = -4.25725 4.21601 -0.41801
# Velocity P-wave (km/s) = 2.56514 7.63162 5.08240
#
# Compressibility (1/GPa) = 0.02820547
#
# Stress axis : x y z
#
# Youngs Moduli (GPa) = 28.49519 77.92655 56.16550
#
# Poissons Ratio (x) = 1.35410 0.14330
# Poissons Ratio (y) = 0.49515 -0.06545
# Poissons Ratio (z) = 0.07270 -0.09081
#
# Static dielectric constant tensor:
#      x y z
#    x 1.691260 0.000000 0.000000 
#    y 0.000000 1.738950 0.000000 
#    z 0.000000 0.000000 1.767940 
# 
# From -- ./inp_files/15636.got.cif
#   From: 2010.05.17/outbox.cif.g08.bks.cpg/sg47_8_cif.got.tgz:15636.got - 2010.06.03 20:15:42.
