data_PCOD9388517
_publ_section_title
;
Structure prediction by ZEFSAII (Michael W. Deem and Ramdas Pophale) SiO2 
 PCOD9388517
Probable space group: P M M M
;
_chemical_formula_sum "Si O2"
_cell_formula_units_Z 44
_cell_length_a 15.478672
_cell_length_b 18.059762
_cell_length_c 8.175171
_cell_angle_alpha 90.000000
_cell_angle_beta 90.000000
_cell_angle_gamma 90.000000
_cell_volume 2285.296559
_symmetry_space_group_name_H-M "P M M M"
_symmetry_group_IT_number 47
_symmetry_cell_setting 'orthorhombic'
loop_
_space_group_symop_operation_xyz
x,y,z
-x,-y,z
x,-y,-z
-x,y,-z
-x,-y,-z
x,y,-z
-x,y,z
x,-y,z
loop_
_atom_site_type_symbol
_atom_site_label
_atom_site_fract_x
_atom_site_fract_y
_atom_site_fract_z
Si Si1 0.401167 0.162161 0.803981
Si Si2 0.894643 0.000000 0.311378
Si Si3 0.500000 0.589842 0.685991
Si Si4 0.395224 0.000000 0.312143
Si Si5 0.313063 0.583902 0.697384
Si Si6 0.751694 0.732890 0.194952
Si Si7 0.900775 0.160028 0.698187
O O1 0.500000 0.171974 0.740904
O O2 0.370166 0.078405 0.765801
O O3 0.332136 0.221649 0.740165
O O4 0.405195 0.169137 0.000000
O O5 0.870206 0.079101 0.238109
O O6 0.864516 0.000000 0.500000
O O7 0.000000 0.000000 0.315333
O O8 0.500000 0.500000 0.675029
O O9 0.500000 0.619513 0.500000
O O10 0.408114 0.607682 0.764278
O O11 0.500000 0.000000 0.304538
O O12 0.367570 0.000000 0.500000
O O13 0.320335 0.580944 0.500000
O O14 0.293375 0.500000 0.752554
O O15 0.249176 0.648814 0.744117
O O16 0.836276 0.776973 0.247391
O O17 0.746406 0.732285 0.000000
O O18 0.901132 0.156032 0.500000
O O19 0.000000 0.172125 0.750127
#
# Coordination Sequence:
#
# PCOD9388517 Si02
#       7
#     8   4   4   4   8   8   8
#     4   9  19  35  50  66  99 145 181 208 248 307
#     4   7  12  27  53  80 101 127 166 211 260 311
#     4   7  12  26  49  75  99 126 163 208 257 305
#     4   9  17  30  49  72  95 127 178 230 265 291
#     4   9  18  34  55  77 103 136 174 216 265 319
#     4  11  23  34  50  78 108 140 176 215 260 309
#     4   9  18  35  58  81 107 139 174 215 266 319
#
# _framework density 19.253519000000001
#
# number of rings (size 3 to 8) (size 9 to 14) (size 15 to 20)
#    0.000    3.000    0.000    3.000    1.273    4.000 
#    0.000    2.273    0.000    3.818    0.000    3.818 
#    0.000    0.000    0.000    0.000    0.000    0.000 
#
# Total GULP energy -245223.554545 kJ/mol
# GULP energy per Si atom -5573.262603 kJ/mol
# Density = 1.920970 g / cm^3
# Si number density = 19.253519 Si / 1000 Ang^3
#
#
#
# Elastic Constant Matrix: (Units=GPa)
#
#
# Indices 1 2 3 4 5 6 
#
# 1 77.8369 77.6132 12.5535 0.0000 0.0000 0.0000
# 2 77.6132 162.0155 14.5831 0.0000 0.0000 0.0000
# 3 12.5535 14.5831 14.2339 0.0000 0.0000 0.0000
# 4 0.0000 0.0000 0.0000 8.2740 0.0000 0.0000
# 5 0.0000 0.0000 0.0000 0.0000 11.1958 0.0000
# 6 0.0000 0.0000 0.0000 0.0000 0.0000 32.1489
#
#
#
# Elastic Compliance Matrix: (Units=1/GPa)
#
#
# Indices 1 2 3 4 5 6 
#
# 1 0.026139 -0.011508 -0.011263 0.000000 0.000000 0.000000
# 2 -0.011508 0.011866 -0.002008 0.000000 0.000000 0.000000
# 3 -0.011263 -0.002008 0.082245 0.000000 0.000000 0.000000
# 4 0.000000 0.000000 0.000000 0.120861 0.000000 0.000000
# 5 0.000000 0.000000 0.000000 0.000000 0.089319 0.000000
# 6 0.000000 0.000000 0.000000 0.000000 0.000000 0.031105
#
#
# Mechanical properties :
#
#
# Convention : Reuss Voigt Hill
#
# Bulk Modulus (GPa) = 14.14566 51.50954 32.82760
# Shear Modulus (GPa) = 11.50337 20.27950 15.89143
#
# Velocity S-wave (km/s) = 2.44697 3.24896 2.87606
# Velocity P-wave (km/s) = 3.91747 6.39419 5.30246
#
# Compressibility (1/GPa) = 0.07069305
#
# Stress axis : x y z
#
# Youngs Moduli (GPa) = 38.25751 84.27588 12.15881
#
# Poissons Ratio (x) = 0.96984 0.13694
# Poissons Ratio (y) = 0.44026 0.02441
# Poissons Ratio (z) = 0.43088 0.16919
#
# Static dielectric constant tensor:
#      x y z
#    x 1.691570 0.000000 0.000000 
#    y 0.000000 1.685020 0.000000 
#    z 0.000000 0.000000 1.673390 
# 
# From -- ./inp_files/6291.got.cif
#   From: 2010.05.17/outbox.cif.g08.bks.cpg/sg47_4_cif.got.tgz:6291.got - 2010.06.03 20:15:42.
