data_PCOD9388252
_publ_section_title
;
Structure prediction by ZEFSAII (Michael W. Deem and Ramdas Pophale) SiO2 
 PCOD9388252
Probable space group: P M M M
;
_chemical_formula_sum "Si O2"
_cell_formula_units_Z 40
_cell_length_a 20.413238
_cell_length_b 8.830820
_cell_length_c 15.989686
_cell_angle_alpha 90.000000
_cell_angle_beta 90.000000
_cell_angle_gamma 90.000000
_cell_volume 2882.390827
_symmetry_space_group_name_H-M "P M M M"
_symmetry_group_IT_number 47
_symmetry_cell_setting 'orthorhombic'
loop_
_space_group_symop_operation_xyz
x,y,z
-x,-y,z
x,-y,-z
-x,y,-z
-x,-y,-z
x,y,-z
-x,y,z
x,-y,z
loop_
_atom_site_type_symbol
_atom_site_label
_atom_site_fract_x
_atom_site_fract_y
_atom_site_fract_z
Si Si1 0.714274 0.682855 0.099598
Si Si2 0.076155 0.182247 0.325306
Si Si3 0.847627 0.181882 0.158608
Si Si4 0.079475 0.324809 0.500000
Si Si5 0.077821 0.680092 0.000000
Si Si6 0.429586 0.681645 0.100534
O O1 0.717483 0.500000 0.107239
O O2 0.774076 0.758040 0.147572
O O3 0.641906 0.735941 0.128983
O O4 0.720909 0.716354 0.000000
O O5 0.119310 0.229114 0.246053
O O6 0.100381 0.246887 0.413717
O O7 0.000000 0.229142 0.312731
O O8 0.076815 0.000000 0.329989
O O9 0.889482 0.248251 0.081901
O O10 0.848548 0.000000 0.153955
O O11 0.098026 0.500000 0.500000
O O12 0.000000 0.314487 0.500000
O O13 0.090126 0.500000 0.000000
O O14 0.000000 0.706441 0.000000
O O15 0.500000 0.741809 0.132118
O O16 0.429963 0.500000 0.114139
O O17 0.429451 0.702553 0.000000
#
# Coordination Sequence:
#
# PCOD9388252 Si02
#       6
#     8   8   8   4   4   8
#     4   9  16  26  40  57  80 109 140 174 210 244
#     4   9  18  32  47  61  79 105 136 168 204 248
#     4  11  21  31  44  61  82 111 143 173 205 246
#     4   9  17  29  47  69  85  97 120 161 212 257
#     4  11  23  35  45  57  76 105 142 183 219 244
#     4   7  10  18  34  55  75  98 133 172 204 238
#
# _framework density 13.877369
#
# number of rings (size 3 to 8) (size 9 to 14) (size 15 to 20)
#    0.000    2.800    1.000    3.600    0.000    4.400 
#    0.000    2.000    0.000    0.600    0.000    2.800 
#    0.000    0.000    0.000    0.900    0.000   18.200 
#
# Total GULP energy -222683.426722 kJ/mol
# GULP energy per Si atom -5567.085668 kJ/mol
# Density = 1.384578 g / cm^3
# Si number density = 13.877369 Si / 1000 Ang^3
#
#
#
# Elastic Constant Matrix: (Units=GPa)
#
#
# Indices 1 2 3 4 5 6 
#
# 1 121.5869 34.4298 63.3400 0.0000 0.0000 0.0000
# 2 34.4298 18.9021 29.1487 0.0000 0.0000 0.0000
# 3 63.3400 29.1487 100.5054 0.0000 0.0000 0.0000
# 4 0.0000 0.0000 0.0000 -8.8512 0.0000 0.0000
# 5 0.0000 0.0000 0.0000 0.0000 4.2130 0.0000
# 6 0.0000 0.0000 0.0000 0.0000 0.0000 8.6632
#
#
#
# Elastic Compliance Matrix: (Units=1/GPa)
#
#
# Indices 1 2 3 4 5 6 
#
# 1 0.017549 -0.026974 -0.003237 0.000000 0.000000 0.000000
# 2 -0.026974 0.137170 -0.022783 0.000000 0.000000 0.000000
# 3 -0.003237 -0.022783 0.018597 0.000000 0.000000 0.000000
# 4 0.000000 0.000000 0.000000 -0.112980 0.000000 0.000000
# 5 0.000000 0.000000 0.000000 0.000000 0.237360 0.000000
# 6 0.000000 0.000000 0.000000 0.000000 0.000000 0.115430
#
#
# Mechanical properties :
#
#
# Convention : Reuss Voigt Hill
#
# Bulk Modulus (GPa) = 14.85243 54.98127 34.91685
# Shear Modulus (GPa) = 9.23266 8.41008 8.82137
#
# Velocity S-wave (km/s) = 2.58215 2.46444 2.52398
# Velocity P-wave (km/s) = 4.42898 6.91399 5.80599
#
# Compressibility (1/GPa) = 0.06732905
#
# Stress axis : x y z
#
# Youngs Moduli (GPa) = 56.98407 7.29024 53.77223
#
# Poissons Ratio (x) = 0.19664 0.17404
# Poissons Ratio (y) = 1.53707 1.22509
# Poissons Ratio (z) = 0.18443 0.16609
#
# Static dielectric constant tensor:
#      x y z
#    x 1.488090 0.000000 0.000000 
#    y 0.000000 1.466180 0.000000 
#    z 0.000000 0.000000 1.428160 
# 
# From -- ./inp_files/10819.got.cif
#   From: 2010.05.17/outbox.cif.g08.bks.cpg/sg47_6_cif.got.tgz:10819.got - 2010.06.03 20:15:42.
