data_PCOD9388367
_publ_section_title
;
Structure prediction by ZEFSAII (Michael W. Deem and Ramdas Pophale) SiO2 
 PCOD9388367
Probable space group: P M M M
;
_chemical_formula_sum "Si O2"
_cell_formula_units_Z 52
_cell_length_a 14.178168
_cell_length_b 8.743026
_cell_length_c 22.092471
_cell_angle_alpha 90.000000
_cell_angle_beta 90.000000
_cell_angle_gamma 90.000000
_cell_volume 2738.584726
_symmetry_space_group_name_H-M "P M M M"
_symmetry_group_IT_number 47
_symmetry_cell_setting 'orthorhombic'
loop_
_space_group_symop_operation_xyz
x,y,z
-x,-y,z
x,-y,-z
-x,y,-z
-x,-y,-z
x,y,-z
-x,y,z
x,-y,z
loop_
_atom_site_type_symbol
_atom_site_label
_atom_site_fract_x
_atom_site_fract_y
_atom_site_fract_z
Si Si1 0.609062 0.816847 0.742296
Si Si2 0.889590 0.816134 0.068131
Si Si3 0.391729 0.168879 0.927877
Si Si4 0.698220 0.316320 0.378716
Si Si5 0.106080 0.314032 0.570140
Si Si6 0.740099 0.325662 0.845236
Si Si7 0.387175 0.822091 0.500000
O O1 0.500000 0.765618 0.753695
O O2 0.644470 0.758598 0.677273
O O3 0.685491 0.756790 0.790617
O O4 0.608588 0.000000 0.743731
O O5 0.832208 0.748397 0.124260
O O6 0.000000 0.775962 0.071974
O O7 0.882152 0.000000 0.069737
O O8 0.855831 0.768759 0.000000
O O9 0.500000 0.174230 0.908148
O O10 0.334451 0.305055 0.899572
O O11 0.353535 0.000000 0.909253
O O12 0.389526 0.172900 0.000000
O O13 0.694557 0.500000 0.373040
O O14 0.808134 0.267749 0.386640
O O15 0.649933 0.263145 0.440722
O O16 0.124003 0.267355 0.500000
O O17 0.105773 0.500000 0.569809
O O18 0.000000 0.263921 0.586810
O O19 0.757983 0.500000 0.828766
O O20 0.500000 0.820094 0.500000
O O21 0.356260 0.000000 0.500000
#
# Coordination Sequence:
#
# PCOD9388367 Si02
#       7
#     8   8   8   8   8   8   4
#     4  11  25  44  62  79 108 155 203 244 293 356
#     4   9  19  38  64  91 119 155 198 241 288 346
#     4   9  18  33  53  77 107 145 187 229 276 335
#     4  11  21  36  60  89 115 145 189 244 300 348
#     4   8  14  28  53  85 118 148 177 213 267 336
#     4  12  24  36  55  84 115 149 189 238 293 345
#     4  11  23  37  54  79 114 154 191 231 288 359
#
# _framework density 18.987909999999999
#
# number of rings (size 3 to 8) (size 9 to 14) (size 15 to 20)
#    0.000    1.923    0.769    5.308    0.000    8.615 
#    0.000    2.308    0.000    5.077    0.000    0.000 
#    0.000    0.000    0.000    0.000    0.000    0.000 
#
# Total GULP energy -290108.452752 kJ/mol
# GULP energy per Si atom -5579.008707 kJ/mol
# Density = 1.894469 g / cm^3
# Si number density = 18.987910 Si / 1000 Ang^3
#
#
#
# Elastic Constant Matrix: (Units=GPa)
#
#
# Indices 1 2 3 4 5 6 
#
# 1 112.8140 31.5739 59.0021 0.0000 0.0000 0.0000
# 2 31.5739 55.2434 34.9080 0.0000 0.0000 0.0000
# 3 59.0021 34.9080 113.4411 0.0000 0.0000 0.0000
# 4 0.0000 0.0000 0.0000 47.8006 0.0000 0.0000
# 5 0.0000 0.0000 0.0000 0.0000 40.2606 0.0000
# 6 0.0000 0.0000 0.0000 0.0000 0.0000 116.2773
#
#
#
# Elastic Compliance Matrix: (Units=1/GPa)
#
#
# Indices 1 2 3 4 5 6 
#
# 1 0.012807 -0.003862 -0.005473 0.000000 0.000000 0.000000
# 2 -0.003862 0.023635 -0.005265 0.000000 0.000000 0.000000
# 3 -0.005473 -0.005265 0.013282 0.000000 0.000000 0.000000
# 4 0.000000 0.000000 0.000000 0.020920 0.000000 0.000000
# 5 0.000000 0.000000 0.000000 0.000000 0.024838 0.000000
# 6 0.000000 0.000000 0.000000 0.000000 0.000000 0.008600
#
#
# Mechanical properties :
#
#
# Convention : Reuss Voigt Hill
#
# Bulk Modulus (GPa) = 48.71833 59.16295 53.94064
# Shear Modulus (GPa) = 35.68286 51.26866 43.47576
#
# Velocity S-wave (km/s) = 4.33972 5.20186 4.79022
# Velocity P-wave (km/s) = 7.12911 8.20396 7.68535
#
# Compressibility (1/GPa) = 0.02052616
#
# Stress axis : x y z
#
# Youngs Moduli (GPa) = 78.08059 42.30935 75.29146
#
# Poissons Ratio (x) = 0.16338 0.41207
# Poissons Ratio (y) = 0.30151 0.39638
# Poissons Ratio (z) = 0.42733 0.22274
#
# Static dielectric constant tensor:
#      x y z
#    x 1.690900 0.000000 0.000000 
#    y 0.000000 1.665780 0.000000 
#    z 0.000000 0.000000 1.655240 
# 
# From -- ./inp_files/30842.got.cif
#   From: 2010.05.17/outbox.cif.g08.bks.cpg/sg47_16_cif.got.tgz:30842.got - 2010.06.03 20:15:42.
