data_PCOD9388286
_publ_section_title
;
Structure prediction by ZEFSAII (Michael W. Deem and Ramdas Pophale) SiO2 
 PCOD9388286
Probable space group: P M M M
;
_chemical_formula_sum "Si O2"
_cell_formula_units_Z 40
_cell_length_a 9.287966
_cell_length_b 22.599155
_cell_length_c 12.827654
_cell_angle_alpha 90.000000
_cell_angle_beta 90.000000
_cell_angle_gamma 90.000000
_cell_volume 2692.526926
_symmetry_space_group_name_H-M "P M M M"
_symmetry_group_IT_number 47
_symmetry_cell_setting 'orthorhombic'
loop_
_space_group_symop_operation_xyz
x,y,z
-x,-y,z
x,-y,-z
-x,y,-z
-x,-y,-z
x,y,-z
-x,y,z
x,-y,z
loop_
_atom_site_type_symbol
_atom_site_label
_atom_site_fract_x
_atom_site_fract_y
_atom_site_fract_z
Si Si1 0.169398 0.570094 0.122503
Si Si2 0.665924 0.000000 0.372881
Si Si3 0.670014 0.235649 0.623916
Si Si4 0.829168 0.570910 0.500000
Si Si5 0.834191 0.882370 0.373023
Si Si6 0.327795 0.633126 0.693733
O O1 0.193370 0.500000 0.140764
O O2 0.268773 0.607722 0.198197
O O3 0.000000 0.581587 0.144039
O O4 0.194746 0.581446 0.000000
O O5 0.747175 0.059540 0.339133
O O6 0.500000 0.000000 0.340222
O O7 0.667485 0.000000 0.500000
O O8 0.696410 0.244977 0.500000
O O9 0.500000 0.222928 0.635402
O O10 0.760143 0.178938 0.659367
O O11 0.703363 0.297097 0.680511
O O12 0.812783 0.500000 0.500000
O O13 0.753115 0.598566 0.398834
O O14 0.000000 0.584276 0.500000
O O15 0.831072 0.882476 0.500000
O O16 0.000000 0.885484 0.340698
O O17 0.500000 0.625289 0.683656
#
# Coordination Sequence:
#
# PCOD9388286 Si02
#       6
#     8   4   8   4   8   8
#     4   9  19  36  54  70  90 117 149 186 231 283
#     4   9  15  23  35  51  73 107 144 179 222 261
#     4   9  17  30  42  56  84 118 147 177 220 271
#     4  11  23  35  47  65  91 122 153 184 225 277
#     4   9  16  24  36  55  77 104 144 188 219 250
#     4  11  21  33  49  70  93 118 150 191 232 273
#
# _framework density 14.855931999999999
#
# number of rings (size 3 to 8) (size 9 to 14) (size 15 to 20)
#    0.000    2.400    1.000    3.000    0.000    9.200 
#    0.000    1.000    0.000    0.000    0.000    0.000 
#    0.000    0.000    0.000    0.900    0.000   16.900 
#
# Total GULP energy -223037.586072 kJ/mol
# GULP energy per Si atom -5575.939652 kJ/mol
# Density = 1.482212 g / cm^3
# Si number density = 14.855932 Si / 1000 Ang^3
#
#
#
# Elastic Constant Matrix: (Units=GPa)
#
#
# Indices 1 2 3 4 5 6 
#
# 1 113.2572 98.6486 42.1634 0.0000 0.0000 0.0000
# 2 98.6486 134.6647 45.7344 0.0000 0.0000 0.0000
# 3 42.1634 45.7344 37.8255 0.0000 0.0000 0.0000
# 4 0.0000 0.0000 0.0000 5.6745 0.0000 0.0000
# 5 0.0000 0.0000 0.0000 0.0000 19.7034 0.0000
# 6 0.0000 0.0000 0.0000 0.0000 0.0000 92.6052
#
#
#
# Elastic Compliance Matrix: (Units=1/GPa)
#
#
# Indices 1 2 3 4 5 6 
#
# 1 0.026576 -0.015962 -0.010324 0.000000 0.000000 0.000000
# 2 -0.015962 0.022187 -0.009033 0.000000 0.000000 0.000000
# 3 -0.010324 -0.009033 0.048867 0.000000 0.000000 0.000000
# 4 0.000000 0.000000 0.000000 0.176226 0.000000 0.000000
# 5 0.000000 0.000000 0.000000 0.000000 0.050753 0.000000
# 6 0.000000 0.000000 0.000000 0.000000 0.000000 0.010799
#
#
# Mechanical properties :
#
#
# Convention : Reuss Voigt Hill
#
# Bulk Modulus (GPa) = 37.04917 73.20445 55.12681
# Shear Modulus (GPa) = 12.04692 30.21002 21.12847
#
# Velocity S-wave (km/s) = 2.85075 4.51436 3.77533
# Velocity P-wave (km/s) = 5.98572 8.74962 7.49615
#
# Compressibility (1/GPa) = 0.02699116
#
# Stress axis : x y z
#
# Youngs Moduli (GPa) = 37.62762 45.07229 20.46357
#
# Poissons Ratio (x) = 0.71945 0.21128
# Poissons Ratio (y) = 0.60061 0.18485
# Poissons Ratio (z) = 0.38849 0.40714
#
# Static dielectric constant tensor:
#      x y z
#    x 1.496700 0.000000 0.000000 
#    y 0.000000 1.485630 0.000000 
#    z 0.000000 0.000000 1.462190 
# 
# From -- ./inp_files/4025.got.cif
#   From: 2010.05.17/outbox.cif.g08.bks.cpg/sg47_3_cif.got.tgz:4025.got - 2010.06.03 20:15:42.
