data_PCOD9388720
_publ_section_title
;
Structure prediction by ZEFSAII (Michael W. Deem and Ramdas Pophale) SiO2 
 PCOD9388720
Probable space group: P M M M
;
_chemical_formula_sum "Si O2"
_cell_formula_units_Z 52
_cell_length_a 7.398009
_cell_length_b 34.538176
_cell_length_c 10.267884
_cell_angle_alpha 90.000000
_cell_angle_beta 90.000000
_cell_angle_gamma 90.000000
_cell_volume 2623.585411
_symmetry_space_group_name_H-M "P M M M"
_symmetry_group_IT_number 47
_symmetry_cell_setting 'orthorhombic'
loop_
_space_group_symop_operation_xyz
x,y,z
-x,-y,z
x,-y,-z
-x,y,-z
-x,-y,-z
x,y,-z
-x,y,z
x,-y,z
loop_
_atom_site_type_symbol
_atom_site_label
_atom_site_fract_x
_atom_site_fract_y
_atom_site_fract_z
Si Si1 0.291287 0.000000 0.341792
Si Si2 0.284587 0.609830 0.354061
Si Si3 0.720426 0.303346 0.350071
Si Si4 0.216154 0.456740 0.146560
Si Si5 0.278491 0.915164 0.650628
Si Si6 0.720194 0.150485 0.149096
Si Si7 0.279633 0.761545 0.851037
O O1 0.215383 0.041970 0.305617
O O2 0.500000 0.000000 0.297829
O O3 0.291523 0.000000 0.500000
O O4 0.216236 0.600625 0.500000
O O5 0.500000 0.613314 0.364019
O O6 0.219885 0.652902 0.316114
O O7 0.252793 0.576382 0.250471
O O8 0.772375 0.295814 0.500000
O O9 0.500000 0.302783 0.346636
O O10 0.782894 0.270670 0.250351
O O11 0.281785 0.500000 0.182946
O O12 0.000000 0.459079 0.138852
O O13 0.282559 0.447787 0.000000
O O14 0.225509 0.908680 0.500000
O O15 0.500000 0.916128 0.651078
O O16 0.219897 0.881380 0.747374
O O17 0.500000 0.150150 0.150350
O O18 0.775677 0.194476 0.181387
O O19 0.774974 0.142134 0.000000
O O20 0.500000 0.761299 0.849394
O O21 0.225356 0.753262 0.000000
#
# Coordination Sequence:
#
# PCOD9388720 Si02
#       7
#     4   8   8   8   8   8   8
#     4   7  10  16  23  29  37  49  69 103 145 187
#     4   9  18  31  46  67  93 116 140 173 211 250
#     4   8  14  24  36  51  73  97 119 147 182 219
#     4   9  19  35  51  67  89 116 146 179 211 244
#     4   8  12  17  24  31  38  52  77 108 144 190
#     4   8  13  19  24  32  48  66  85 115 153 192
#     4   8  13  20  29  41  58  81 107 133 164 206
#
# _framework density 19.820204
#
# number of rings (size 3 to 8) (size 9 to 14) (size 15 to 20)
#    0.000    3.769    0.000    3.231    0.000    2.462 
#    0.000    7.308    0.000    2.308    0.000    0.000 
#    0.000    0.000    0.000    0.000    0.000    0.000 
#
# Total GULP energy -289721.055602 kJ/mol
# GULP energy per Si atom -5571.558762 kJ/mol
# Density = 1.977509 g / cm^3
# Si number density = 19.820204 Si / 1000 Ang^3
#
#
#
# Elastic Constant Matrix: (Units=GPa)
#
#
# Indices 1 2 3 4 5 6 
#
# 1 64.3896 7.6830 4.8161 0.0000 0.0000 0.0000
# 2 7.6830 230.9807 161.7404 0.0000 0.0000 0.0000
# 3 4.8161 161.7404 143.1460 0.0000 0.0000 0.0000
# 4 0.0000 0.0000 0.0000 111.3474 0.0000 0.0000
# 5 0.0000 0.0000 0.0000 0.0000 1.5235 0.0000
# 6 0.0000 0.0000 0.0000 0.0000 0.0000 35.4258
#
#
#
# Elastic Compliance Matrix: (Units=1/GPa)
#
#
# Indices 1 2 3 4 5 6 
#
# 1 0.015595 -0.000725 0.000294 0.000000 0.000000 0.000000
# 2 -0.000725 0.020767 -0.023441 0.000000 0.000000 0.000000
# 3 0.000294 -0.023441 0.033462 0.000000 0.000000 0.000000
# 4 0.000000 0.000000 0.000000 0.008981 0.000000 0.000000
# 5 0.000000 0.000000 0.000000 0.000000 0.656381 0.000000
# 6 0.000000 0.000000 0.000000 0.000000 0.000000 0.028228
#
#
# Mechanical properties :
#
#
# Convention : Reuss Voigt Hill
#
# Bulk Modulus (GPa) = 45.28694 87.44394 66.36544
# Shear Modulus (GPa) = 6.10861 47.27780 26.69320
#
# Velocity S-wave (km/s) = 1.75747 4.88929 3.67381
# Velocity P-wave (km/s) = 5.19776 8.72284 7.17999
#
# Compressibility (1/GPa) = 0.02208142
#
# Stress axis : x y z
#
# Youngs Moduli (GPa) = 64.12344 48.15225 29.88499
#
# Poissons Ratio (x) = 0.03490 -0.00879
# Poissons Ratio (y) = 0.04647 0.70053
# Poissons Ratio (z) = -0.01886 1.12872
#
# Static dielectric constant tensor:
#      x y z
#    x 1.789410 0.000000 0.000000 
#    y 0.000000 1.696570 0.000000 
#    z 0.000000 0.000000 1.666540 
# 
# From -- ./inp_files/15452.got.cif
#   From: 2010.05.17/outbox.cif.g08.bks.cpg/sg47_8_cif.got.tgz:15452.got - 2010.06.03 20:15:42.
