data_PCOD9388091
_publ_section_title
;
Structure prediction by ZEFSAII (Michael W. Deem and Ramdas Pophale) SiO2 
 PCOD9388091
Probable space group: P M M M
;
_chemical_formula_sum "Si O2"
_cell_formula_units_Z 37
_cell_length_a 7.775708
_cell_length_b 23.282348
_cell_length_c 10.467958
_cell_angle_alpha 90.000000
_cell_angle_beta 90.000000
_cell_angle_gamma 90.000000
_cell_volume 1895.084987
_symmetry_space_group_name_H-M "P M M M"
_symmetry_group_IT_number 47
_symmetry_cell_setting 'orthorhombic'
loop_
_space_group_symop_operation_xyz
x,y,z
-x,-y,z
x,-y,-z
-x,y,-z
-x,-y,-z
x,y,-z
-x,y,z
x,-y,z
loop_
_atom_site_type_symbol
_atom_site_label
_atom_site_fract_x
_atom_site_fract_y
_atom_site_fract_z
Si Si1 0.294794 0.120632 0.358122
Si Si2 0.000000 0.000000 0.000000
Si Si3 0.709798 0.000000 0.225622
Si Si4 0.706589 0.564749 0.643748
Si Si5 0.793518 0.787287 0.143137
Si Si6 0.206602 0.342692 0.143130
O O1 0.222262 0.131416 0.500000
O O2 0.500000 0.122759 0.367911
O O3 0.247879 0.167610 0.252336
O O4 0.253789 0.057236 0.307202
O O5 0.845234 0.000000 0.889902
O O6 0.500000 0.000000 0.193670
O O7 0.768195 0.579324 0.500000
O O8 0.500000 0.562256 0.638186
O O9 0.768287 0.500000 0.674892
O O10 0.749894 0.611470 0.749401
O O11 0.731447 0.722329 0.170757
O O12 0.000000 0.784879 0.136231
O O13 0.731915 0.803971 0.000000
O O14 0.000000 0.340089 0.137997
O O15 0.267758 0.358565 0.000000
#
# Coordination Sequence:
#
# PCOD9388091 Si02
#       6
#     8   1   4   8   8   8
#     4  10  22  40  60  83 117 156 189 233 293 343
#     4  12  26  40  66  98 120 160 204 240 298 362
#     4  10  24  43  63  91 126 157 198 250 294 350
#     4   9  19  35  53  75 105 140 179 225 274 328
#     4   9  20  37  57  80 111 145 185 234 278 333
#     4   9  19  36  54  77 109 144 179 225 281 331
#
# _framework density 19.524190999999998
#
# number of rings (size 3 to 8) (size 9 to 14) (size 15 to 20)
#    0.000    2.595    0.000    2.432    3.027    5.622 
#    0.000   10.270    0.000    0.000    0.000    0.000 
#    0.000    0.000    0.000    0.000    0.000    0.000 
#
# Total GULP energy -206020.032611 kJ/mol
# GULP energy per Si atom -5568.108989 kJ/mol
# Density = 1.947975 g / cm^3
# Si number density = 19.524191 Si / 1000 Ang^3
#
#
#
# Elastic Constant Matrix: (Units=GPa)
#
#
# Indices 1 2 3 4 5 6 
#
# 1 37.9901 18.2144 31.6113 0.0000 0.0000 0.0000
# 2 18.2144 170.2245 154.3297 0.0000 0.0000 0.0000
# 3 31.6113 154.3297 216.5931 0.0000 0.0000 0.0000
# 4 0.0000 0.0000 0.0000 -39.0632 0.0000 0.0000
# 5 0.0000 0.0000 0.0000 0.0000 31.3879 0.0000
# 6 0.0000 0.0000 0.0000 0.0000 0.0000 27.5842
#
#
#
# Elastic Compliance Matrix: (Units=1/GPa)
#
#
# Indices 1 2 3 4 5 6 
#
# 1 0.030241 0.002163 -0.005955 0.000000 0.000000 0.000000
# 2 0.002163 0.016750 -0.012250 0.000000 0.000000 0.000000
# 3 -0.005955 -0.012250 0.014215 0.000000 0.000000 0.000000
# 4 0.000000 0.000000 0.000000 -0.025600 0.000000 0.000000
# 5 0.000000 0.000000 0.000000 0.000000 0.031859 0.000000
# 6 0.000000 0.000000 0.000000 0.000000 0.000000 0.036253
#
#
# Mechanical properties :
#
#
# Convention : Reuss Voigt Hill
#
# Bulk Modulus (GPa) = 34.33991 92.56874 63.45433
# Shear Modulus (GPa) = 34.36228 18.69193 26.52711
#
# Velocity S-wave (km/s) = 4.19977 3.09750 3.69003
# Velocity P-wave (km/s) = 6.41436 7.76582 7.12222
#
# Compressibility (1/GPa) = 0.02912063
#
# Stress axis : x y z
#
# Youngs Moduli (GPa) = 33.06823 59.70299 70.34948
#
# Poissons Ratio (x) = -0.12912 0.41890
# Poissons Ratio (y) = -0.07152 0.86180
# Poissons Ratio (z) = 0.19691 0.73138
#
# Static dielectric constant tensor:
#      x y z
#    x 1.722380 0.000000 0.000000 
#    y 0.000000 1.675460 0.000000 
#    z 0.000000 0.000000 1.801290 
# 
# From -- ./inp_files/1470.got.cif
#   From: 2010.05.17/outbox.cif.g08.bks.cpg/sg47_1_cif.got.tgz:1470.got - 2010.06.03 20:15:42.
