data_PCOD9388312
_publ_section_title
;
Structure prediction by ZEFSAII (Michael W. Deem and Ramdas Pophale) SiO2 
 PCOD9388312
Probable space group: P M M M
;
_chemical_formula_sum "Si O2"
_cell_formula_units_Z 52
_cell_length_a 14.121688
_cell_length_b 8.708699
_cell_length_c 22.271281
_cell_angle_alpha 90.000000
_cell_angle_beta 90.000000
_cell_angle_gamma 90.000000
_cell_volume 2738.956216
_symmetry_space_group_name_H-M "P M M M"
_symmetry_group_IT_number 47
_symmetry_cell_setting 'orthorhombic'
loop_
_space_group_symop_operation_xyz
x,y,z
-x,-y,z
x,-y,-z
-x,y,-z
-x,-y,-z
x,y,-z
-x,y,z
x,-y,z
loop_
_atom_site_type_symbol
_atom_site_label
_atom_site_fract_x
_atom_site_fract_y
_atom_site_fract_z
Si Si1 0.609506 0.816303 0.738607
Si Si2 0.889454 0.686879 0.066843
Si Si3 0.390596 0.170372 0.928500
Si Si4 0.703494 0.317425 0.380764
Si Si5 0.108924 0.184898 0.570400
Si Si6 0.737029 0.323926 0.842595
Si Si7 0.613307 0.821893 0.500000
O O1 0.500000 0.764154 0.749091
O O2 0.649084 0.754060 0.675690
O O3 0.683470 0.761956 0.789234
O O4 0.608026 0.000000 0.737381
O O5 0.882279 0.500000 0.066868
O O6 0.831474 0.740400 0.125142
O O7 0.000000 0.726111 0.071153
O O8 0.855385 0.738363 0.000000
O O9 0.500000 0.175337 0.910207
O O10 0.335291 0.306759 0.897978
O O11 0.353727 0.000000 0.910393
O O12 0.386475 0.178747 0.000000
O O13 0.701018 0.500000 0.376633
O O14 0.811821 0.260644 0.388183
O O15 0.652180 0.259794 0.440984
O O16 0.126114 0.225568 0.500000
O O17 0.000000 0.227185 0.584463
O O18 0.116303 0.000000 0.574615
O O19 0.752354 0.500000 0.824637
O O20 0.500000 0.818892 0.500000
O O21 0.645110 0.000000 0.500000
#
# Coordination Sequence:
#
# PCOD9388312 Si02
#       7
#     8   8   8   8   8   8   4
#     4  11  25  44  62  78 106 155 204 240 286 356
#     4   8  15  30  53  82 116 151 185 225 280 345
#     4   9  18  32  49  71 103 143 182 219 267 333
#     4  12  24  38  60  91 121 150 189 246 305 351
#     4   9  18  35  61  90 121 158 194 228 273 337
#     4  11  21  33  54  83 110 140 183 238 292 337
#     4  11  23  39  60  85 116 155 195 236 290 361
#
# _framework density 18.985334999999999
#
# number of rings (size 3 to 8) (size 9 to 14) (size 15 to 20)
#    0.000    1.923    0.769    5.308    0.000    7.077 
#    0.000    2.308    0.000    4.615    0.000    5.385 
#    0.000    0.000    0.000    0.000    0.000    0.000 
#
# Total GULP energy -290122.624849 kJ/mol
# GULP energy per Si atom -5579.281247 kJ/mol
# Density = 1.894212 g / cm^3
# Si number density = 18.985335 Si / 1000 Ang^3
#
#
#
# Elastic Constant Matrix: (Units=GPa)
#
#
# Indices 1 2 3 4 5 6 
#
# 1 111.1164 30.8803 64.6861 0.0000 0.0000 0.0000
# 2 30.8803 49.6866 29.6794 0.0000 0.0000 0.0000
# 3 64.6861 29.6794 111.8137 0.0000 0.0000 0.0000
# 4 0.0000 0.0000 0.0000 29.2349 0.0000 0.0000
# 5 0.0000 0.0000 0.0000 0.0000 39.6086 0.0000
# 6 0.0000 0.0000 0.0000 0.0000 0.0000 15.6725
#
#
#
# Elastic Compliance Matrix: (Units=1/GPa)
#
#
# Indices 1 2 3 4 5 6 
#
# 1 0.014451 -0.004739 -0.007102 0.000000 0.000000 0.000000
# 2 -0.004739 0.025473 -0.004020 0.000000 0.000000 0.000000
# 3 -0.007102 -0.004020 0.014119 0.000000 0.000000 0.000000
# 4 0.000000 0.000000 0.000000 0.034206 0.000000 0.000000
# 5 0.000000 0.000000 0.000000 0.000000 0.025247 0.000000
# 6 0.000000 0.000000 0.000000 0.000000 0.000000 0.063806
#
#
# Mechanical properties :
#
#
# Convention : Reuss Voigt Hill
#
# Bulk Modulus (GPa) = 44.80120 58.12314 51.46217
# Shear Modulus (GPa) = 23.09849 26.72792 24.91321
#
# Velocity S-wave (km/s) = 3.49183 3.75616 3.62641
# Velocity P-wave (km/s) = 6.31714 7.03512 6.68577
#
# Compressibility (1/GPa) = 0.02232083
#
# Stress axis : x y z
#
# Youngs Moduli (GPa) = 69.19850 39.25792 70.82520
#
# Poissons Ratio (x) = 0.18604 0.50303
# Poissons Ratio (y) = 0.32793 0.28470
# Poissons Ratio (z) = 0.49147 0.15781
#
# Static dielectric constant tensor:
#      x y z
#    x 1.686920 0.000000 0.000000 
#    y 0.000000 1.668180 0.000000 
#    z 0.000000 0.000000 1.633380 
# 
# From -- ./inp_files/30844.got.cif
#   From: 2010.05.17/outbox.cif.g08.bks.cpg/sg47_16_cif.got.tgz:30844.got - 2010.06.03 20:15:42.
