data_PCOD9388526
_publ_section_title
;
Structure prediction by ZEFSAII (Michael W. Deem and Ramdas Pophale) SiO2 
 PCOD9388526
Probable space group: P M M M
;
_chemical_formula_sum "Si O2"
_cell_formula_units_Z 64
_cell_length_a 24.086005
_cell_length_b 15.113956
_cell_length_c 9.047003
_cell_angle_alpha 90.000000
_cell_angle_beta 90.000000
_cell_angle_gamma 90.000000
_cell_volume 3293.424107
_symmetry_space_group_name_H-M "P M M M"
_symmetry_group_IT_number 47
_symmetry_cell_setting 'orthorhombic'
loop_
_space_group_symop_operation_xyz
x,y,z
-x,-y,z
x,-y,-z
-x,y,-z
-x,-y,-z
x,y,-z
-x,y,z
x,-y,z
loop_
_atom_site_type_symbol
_atom_site_label
_atom_site_fract_x
_atom_site_fract_y
_atom_site_fract_z
Si Si1 0.848151 0.231007 0.824873
Si Si2 0.231649 0.899819 0.667318
Si Si3 0.792184 0.399229 0.323685
Si Si4 0.563572 0.106789 0.665934
Si Si5 0.332310 0.148235 0.836292
Si Si6 0.677348 0.644784 0.168505
Si Si7 0.438286 0.393335 0.329509
Si Si8 0.066324 0.898644 0.675269
O O1 0.799421 0.162662 0.781231
O O2 0.830532 0.324210 0.751347
O O3 0.901361 0.179320 0.758458
O O4 0.852736 0.241517 0.000000
O O5 0.224511 0.866673 0.500000
O O6 0.295698 0.899565 0.713515
O O7 0.210582 0.000000 0.673835
O O8 0.791030 0.384799 0.500000
O O9 0.811533 0.500000 0.295131
O O10 0.729216 0.391768 0.261291
O O11 0.580886 0.134007 0.500000
O O12 0.500000 0.133782 0.686970
O O13 0.604151 0.143279 0.788532
O O14 0.565443 0.000000 0.671087
O O15 0.314703 0.249969 0.836367
O O16 0.323624 0.110960 0.000000
O O17 0.616597 0.630174 0.238400
O O18 0.678884 0.610930 0.000000
O O19 0.432087 0.363061 0.500000
O O20 0.500000 0.363736 0.276652
O O21 0.439862 0.500000 0.331688
O O22 0.079703 0.893569 0.500000
O O23 0.000000 0.888948 0.690950
O O24 0.080041 0.000000 0.724159
#
# Coordination Sequence:
#
# PCOD9388526 Si02
#       8
#     8   8   8   8   8   8   8   8
#     4  12  24  38  60  93 130 166 204 251 307 359
#     4  11  23  38  58  83 114 156 201 244 291 347
#     4  11  24  42  65  89 115 156 209 260 309 365
#     4   9  19  36  55  73  95 130 180 233 285 347
#     4  11  23  36  51  76 109 142 179 231 294 355
#     4  11  23  37  54  80 113 146 183 237 305 369
#     4   9  19  36  56  77 101 133 178 231 289 359
#     4   9  19  38  65  97 135 180 224 260 296 344
#
# _framework density 19.432663000000002
#
# number of rings (size 3 to 8) (size 9 to 14) (size 15 to 20)
#    0.000    1.625    1.250    4.875    0.000   10.000 
#    0.000    4.375    0.000    0.375    0.000    2.625 
#    0.000    0.000    0.000    0.000    0.000    0.000 
#
# Total GULP energy -357408.711836 kJ/mol
# GULP energy per Si atom -5584.511122 kJ/mol
# Density = 1.938843 g / cm^3
# Si number density = 19.432663 Si / 1000 Ang^3
#
#
#
# Elastic Constant Matrix: (Units=GPa)
#
#
# Indices 1 2 3 4 5 6 
#
# 1 97.1610 40.0382 57.0458 0.0000 0.0000 0.0000
# 2 40.0382 110.4695 55.2427 0.0000 0.0000 0.0000
# 3 57.0458 55.2427 109.2032 0.0000 0.0000 0.0000
# 4 0.0000 0.0000 0.0000 28.8323 0.0000 0.0000
# 5 0.0000 0.0000 0.0000 0.0000 191.0312 0.0000
# 6 0.0000 0.0000 0.0000 0.0000 0.0000 34.8104
#
#
#
# Elastic Compliance Matrix: (Units=1/GPa)
#
#
# Indices 1 2 3 4 5 6 
#
# 1 0.015187 -0.002058 -0.006892 0.000000 0.000000 0.000000
# 2 -0.002058 0.012396 -0.005196 0.000000 0.000000 0.000000
# 3 -0.006892 -0.005196 0.015386 0.000000 0.000000 0.000000
# 4 0.000000 0.000000 0.000000 0.034683 0.000000 0.000000
# 5 0.000000 0.000000 0.000000 0.000000 0.005235 0.000000
# 6 0.000000 0.000000 0.000000 0.000000 0.000000 0.028727
#
#
# Mechanical properties :
#
#
# Convention : Reuss Voigt Hill
#
# Bulk Modulus (GPa) = 68.13272 69.05412 68.59342
# Shear Modulus (GPa) = 34.53049 61.90192 48.21621
#
# Velocity S-wave (km/s) = 4.21994 5.65011 4.98656
# Velocity P-wave (km/s) = 7.67339 8.84179 8.27823
#
# Compressibility (1/GPa) = 0.01467724
#
# Stress axis : x y z
#
# Youngs Moduli (GPa) = 65.84648 80.66821 64.99265
#
# Poissons Ratio (x) = 0.16598 0.44796
# Poissons Ratio (y) = 0.13548 0.33771
# Poissons Ratio (z) = 0.45385 0.41917
#
# Static dielectric constant tensor:
#      x y z
#    x 1.700670 0.000000 0.000000 
#    y 0.000000 1.702420 0.000000 
#    z 0.000000 0.000000 1.674840 
# 
# From -- ./inp_files/12652.got.cif
#   From: 2010.05.17/outbox.cif.g08.bks.cpg/sg47_7_cif.got.tgz:12652.got - 2010.06.03 20:15:42.
