data_PCOD9388313
_publ_section_title
;
Structure prediction by ZEFSAII (Michael W. Deem and Ramdas Pophale) SiO2 
 PCOD9388313
Probable space group: P M M M
;
_chemical_formula_sum "Si O2"
_cell_formula_units_Z 48
_cell_length_a 17.880461
_cell_length_b 8.615437
_cell_length_c 15.819937
_cell_angle_alpha 90.000000
_cell_angle_beta 90.000000
_cell_angle_gamma 90.000000
_cell_volume 2437.029422
_symmetry_space_group_name_H-M "P M M M"
_symmetry_group_IT_number 47
_symmetry_cell_setting 'orthorhombic'
loop_
_space_group_symop_operation_xyz
x,y,z
-x,-y,z
x,-y,-z
-x,y,-z
-x,-y,-z
x,y,-z
-x,y,z
x,-y,z
loop_
_atom_site_type_symbol
_atom_site_label
_atom_site_fract_x
_atom_site_fract_y
_atom_site_fract_z
Si Si1 0.290091 0.817720 0.906870
Si Si2 0.000000 0.329305 0.211026
Si Si3 0.712429 0.815355 0.718758
Si Si4 0.110989 0.175281 0.096282
Si Si5 0.835828 0.685579 0.593579
Si Si6 0.000000 0.821898 0.380409
Si Si7 0.586972 0.685535 0.401283
O O1 0.307564 0.752886 0.813272
O O2 0.199964 0.812946 0.905273
O O3 0.312745 0.000000 0.907639
O O4 0.313570 0.752986 0.000000
O O5 0.072033 0.301725 0.153562
O O6 0.000000 0.500000 0.250216
O O7 0.000000 0.197165 0.280158
O O8 0.786420 0.750966 0.670959
O O9 0.643851 0.775203 0.657771
O O10 0.723184 0.000000 0.727098
O O11 0.092174 0.000000 0.124871
O O12 0.085212 0.191219 0.000000
O O13 0.804438 0.729099 0.500000
O O14 0.834774 0.500000 0.599722
O O15 0.921738 0.742629 0.594391
O O16 0.000000 0.000000 0.406335
O O17 0.598943 0.723007 0.500000
O O18 0.500000 0.717177 0.381518
O O19 0.599308 0.500000 0.391928
#
# Coordination Sequence:
#
# PCOD9388313 Si02
#       7
#     8   4   8   8   8   4   8
#     4   8  16  32  52  74 102 137 176 218 266 320
#     4  12  23  32  45  67  97 131 169 217 278 347
#     4  11  21  33  57  90 117 145 186 233 276 323
#     4   9  17  31  50  68  90 127 175 225 277 330
#     4  11  24  41  59  80 111 149 185 224 277 341
#     4  12  25  40  57  75 101 139 186 239 284 321
#     4   9  19  37  59  82 113 154 191 224 275 340
#
# _framework density 19.696110000000001
#
# number of rings (size 3 to 8) (size 9 to 14) (size 15 to 20)
#    0.000    2.000    0.000    6.000    0.000    7.667 
#    0.000    1.667    0.000    4.500    0.000    3.500 
#    0.000    0.000    0.000    0.000    0.000    0.000 
#
# Total GULP energy -267679.672945 kJ/mol
# GULP energy per Si atom -5576.659853 kJ/mol
# Density = 1.965128 g / cm^3
# Si number density = 19.696110 Si / 1000 Ang^3
#
#
#
# Elastic Constant Matrix: (Units=GPa)
#
#
# Indices 1 2 3 4 5 6 
#
# 1 52.4709 16.6146 39.3074 0.0000 0.0000 0.0000
# 2 16.6146 42.8625 34.6434 0.0000 0.0000 0.0000
# 3 39.3074 34.6434 134.0083 0.0000 0.0000 0.0000
# 4 0.0000 0.0000 0.0000 56.1216 0.0000 0.0000
# 5 0.0000 0.0000 0.0000 0.0000 94.8148 0.0000
# 6 0.0000 0.0000 0.0000 0.0000 0.0000 28.2321
#
#
#
# Elastic Compliance Matrix: (Units=1/GPa)
#
#
# Indices 1 2 3 4 5 6 
#
# 1 0.025181 -0.004792 -0.006147 0.000000 0.000000 0.000000
# 2 -0.004792 0.030405 -0.006454 0.000000 0.000000 0.000000
# 3 -0.006147 -0.006454 0.010934 0.000000 0.000000 0.000000
# 4 0.000000 0.000000 0.000000 0.017818 0.000000 0.000000
# 5 0.000000 0.000000 0.000000 0.000000 0.010547 0.000000
# 6 0.000000 0.000000 0.000000 0.000000 0.000000 0.035421
#
#
# Mechanical properties :
#
#
# Convention : Reuss Voigt Hill
#
# Bulk Modulus (GPa) = 31.51437 45.60807 38.56122
# Shear Modulus (GPa) = 28.46241 45.08544 36.77392
#
# Velocity S-wave (km/s) = 3.80554 4.78960 4.32564
# Velocity P-wave (km/s) = 5.94513 7.33438 6.67599
#
# Compressibility (1/GPa) = 0.03173156
#
# Stress axis : x y z
#
# Youngs Moduli (GPa) = 39.71311 32.88952 91.45872
#
# Poissons Ratio (x) = 0.15762 0.56221
# Poissons Ratio (y) = 0.19032 0.59032
# Poissons Ratio (z) = 0.24412 0.21228
#
# Static dielectric constant tensor:
#      x y z
#    x 1.668690 0.000000 0.000000 
#    y 0.000000 1.677340 0.000000 
#    z 0.000000 0.000000 1.762450 
# 
# From -- ./inp_files/24514.got.cif
#   From: 2010.05.17/outbox.cif.g08.bks.cpg/sg47_13_cif.got.tgz:24514.got - 2010.06.03 20:15:42.
