data_PCOD9388402
_publ_section_title
;
Structure prediction by ZEFSAII (Michael W. Deem and Ramdas Pophale) SiO2 
 PCOD9388402
Probable space group: P M M M
;
_chemical_formula_sum "Si O2"
_cell_formula_units_Z 40
_cell_length_a 15.669173
_cell_length_b 15.468318
_cell_length_c 7.648365
_cell_angle_alpha 90.000000
_cell_angle_beta 90.000000
_cell_angle_gamma 90.000000
_cell_volume 1853.778209
_symmetry_space_group_name_H-M "P M M M"
_symmetry_group_IT_number 47
_symmetry_cell_setting 'orthorhombic'
loop_
_space_group_symop_operation_xyz
x,y,z
-x,-y,z
x,-y,-z
-x,y,-z
-x,-y,-z
x,y,-z
-x,y,z
x,-y,z
loop_
_atom_site_type_symbol
_atom_site_label
_atom_site_fract_x
_atom_site_fract_y
_atom_site_fract_z
Si Si1 0.667073 0.315821 0.298532
Si Si2 0.853817 0.728036 0.200784
Si Si3 0.592793 0.140863 0.204090
Si Si4 0.000000 0.600089 0.214805
Si Si5 0.782765 0.904670 0.214421
Si Si6 0.398475 0.500000 0.201235
O O1 0.678943 0.291672 0.500000
O O2 0.758256 0.309072 0.206278
O O3 0.604183 0.244588 0.217591
O O4 0.633458 0.412222 0.286102
O O5 0.840303 0.824422 0.277036
O O6 0.918631 0.657071 0.273945
O O7 0.881235 0.740549 0.000000
O O8 0.500000 0.116260 0.279828
O O9 0.683671 0.106268 0.273311
O O10 0.590890 0.116040 0.000000
O O11 0.000000 0.500000 0.273469
O O12 0.000000 0.595860 0.000000
O O13 0.813072 0.000000 0.262443
O O14 0.780639 0.899097 0.000000
O O15 0.500000 0.500000 0.205801
O O16 0.369514 0.500000 0.000000
#
# Coordination Sequence:
#
# PCOD9388402 Si02
#       6
#     8   8   8   4   8   4
#     4  11  22  34  50  73 103 136 170 212 263 310
#     4   9  18  34  54  76 102 134 172 212 257 316
#     4   9  17  30  48  70  98 135 178 218 257 304
#     4   9  18  32  54  82 104 129 170 216 259 311
#     4   8  14  26  46  73 104 136 170 213 263 311
#     4  11  23  37  53  72  97 134 179 219 254 301
#
# _framework density 21.577555
#
# number of rings (size 3 to 8) (size 9 to 14) (size 15 to 20)
#    0.000    2.600    0.000    3.900    1.400    4.000 
#    0.000    3.000    0.000   13.200    0.000    5.600 
#    0.000    6.400    0.000    0.000    0.000    0.000 
#
# Total GULP energy -223050.599844 kJ/mol
# GULP energy per Si atom -5576.264996 kJ/mol
# Density = 2.152844 g / cm^3
# Si number density = 21.577555 Si / 1000 Ang^3
#
#
#
# Elastic Constant Matrix: (Units=GPa)
#
#
# Indices 1 2 3 4 5 6 
#
# 1 88.5928 55.5472 4.0251 0.0000 0.0000 0.0000
# 2 55.5472 177.6442 5.2859 0.0000 0.0000 0.0000
# 3 4.0251 5.2859 51.4421 0.0000 0.0000 0.0000
# 4 0.0000 0.0000 0.0000 -12.4219 0.0000 0.0000
# 5 0.0000 0.0000 0.0000 0.0000 -29.2837 0.0000
# 6 0.0000 0.0000 0.0000 0.0000 0.0000 -303.7233
#
#
#
# Elastic Compliance Matrix: (Units=1/GPa)
#
#
# Indices 1 2 3 4 5 6 
#
# 1 0.014062 -0.004378 -0.000650 0.000000 0.000000 0.000000
# 2 -0.004378 0.007009 -0.000378 0.000000 0.000000 0.000000
# 3 -0.000650 -0.000378 0.019529 0.000000 0.000000 0.000000
# 4 0.000000 0.000000 0.000000 -0.080503 0.000000 0.000000
# 5 0.000000 0.000000 0.000000 0.000000 -0.034149 0.000000
# 6 0.000000 0.000000 0.000000 0.000000 0.000000 -0.003292
#
#
# Mechanical properties :
#
#
# Convention : Reuss Voigt Hill
#
# Bulk Modulus (GPa) = 33.56985 49.71062 41.64023
# Shear Modulus (GPa) = -88.33467 -52.23105 -70.28286
#
# Velocity S-wave (km/s) = -6.40524 -4.92532 -5.71340
# Velocity P-wave (km/s) = 6.25390 3.04251 4.91773
#
# Compressibility (1/GPa) = 0.02978863
#
# Stress axis : x y z
#
# Youngs Moduli (GPa) = 71.11418 142.66758 51.20580
#
# Poissons Ratio (x) = 0.62455 0.03331
# Poissons Ratio (y) = 0.31131 0.01934
# Poissons Ratio (z) = 0.04626 0.05389
#
# Static dielectric constant tensor:
#      x y z
#    x 1.761470 0.000000 0.000000 
#    y 0.000000 1.792870 0.000000 
#    z 0.000000 0.000000 1.809530 
# 
# From -- ./inp_files/5709.got.cif
#   From: 2010.05.17/outbox.cif.g08.bks.cpg/sg47_3_cif.got.tgz:5709.got - 2010.06.03 20:15:42.
