data_PCOD9388953
_publ_section_title
;
Structure prediction by ZEFSAII (Michael W. Deem and Ramdas Pophale) SiO2 
 PCOD9388953
Probable space group: P M M M
;
_chemical_formula_sum "Si O2"
_cell_formula_units_Z 56
_cell_length_a 19.850622
_cell_length_b 19.441592
_cell_length_c 7.462825
_cell_angle_alpha 90.000000
_cell_angle_beta 90.000000
_cell_angle_gamma 90.000000
_cell_volume 2880.110842
_symmetry_space_group_name_H-M "P M M M"
_symmetry_group_IT_number 47
_symmetry_cell_setting 'orthorhombic'
loop_
_space_group_symop_operation_xyz
x,y,z
-x,-y,z
x,-y,-z
-x,y,-z
-x,-y,-z
x,y,-z
-x,y,z
x,-y,z
loop_
_atom_site_type_symbol
_atom_site_label
_atom_site_fract_x
_atom_site_fract_y
_atom_site_fract_z
Si Si1 0.576855 0.075660 0.214993
Si Si2 0.217259 0.718438 0.719986
Si Si3 0.075270 0.726307 0.702565
Si Si4 0.644030 0.219193 0.712454
Si Si5 0.284277 0.576838 0.718121
Si Si6 0.425157 0.356822 0.718570
Si Si7 0.081049 0.572945 0.206923
O O1 0.500000 0.085565 0.279854
O O2 0.620289 0.142057 0.258641
O O3 0.600342 0.000000 0.277611
O O4 0.574148 0.072821 0.000000
O O5 0.214334 0.719161 0.500000
O O6 0.146055 0.748756 0.786329
O O7 0.281406 0.762896 0.779249
O O8 0.235836 0.639740 0.773616
O O9 0.071286 0.753145 0.500000
O O10 0.090430 0.644290 0.694418
O O11 0.000000 0.735144 0.783104
O O12 0.646964 0.229980 0.500000
O O13 0.592827 0.278659 0.776743
O O14 0.282744 0.576580 0.500000
O O15 0.267367 0.500000 0.780000
O O16 0.360812 0.597272 0.771226
O O17 0.426433 0.358756 0.500000
O O18 0.500000 0.376906 0.779262
O O19 0.107133 0.500000 0.280838
O O20 0.000000 0.567410 0.203663
O O21 0.102643 0.579434 0.000000
#
# Coordination Sequence:
#
# PCOD9388953 Si02
#       7
#     8   8   8   8   8   8   8
#     4   9  18  31  45  64  92 119 137 158 190 223
#     4   8  15  26  37  53  78 104 131 168 211 246
#     4   9  16  25  38  55  73  95 127 166 205 248
#     4   9  16  27  43  60  81 110 140 167 196 235
#     4   8  13  20  29  42  65  99 130 156 198 249
#     4   8  13  20  31  49  70  92 124 165 200 228
#     4   8  14  24  35  47  67  94 121 155 205 257
#
# _framework density 19.443695000000002
#
# number of rings (size 3 to 8) (size 9 to 14) (size 15 to 20)
#    0.000    3.571    0.000    3.000    0.000    2.286 
#    0.000    5.714    0.000    0.000    0.000    0.000 
#    0.000    5.714    0.000   38.571    0.000   27.429 
#
# Total GULP energy -311781.353578 kJ/mol
# GULP energy per Si atom -5567.524171 kJ/mol
# Density = 1.939944 g / cm^3
# Si number density = 19.443695 Si / 1000 Ang^3
#
#
#
# Elastic Constant Matrix: (Units=GPa)
#
#
# Indices 1 2 3 4 5 6 
#
# 1 155.8588 37.7026 2.0281 0.0000 0.0000 0.0000
# 2 37.7026 81.2351 -4.6679 0.0000 0.0000 0.0000
# 3 2.0281 -4.6679 53.9822 0.0000 0.0000 0.0000
# 4 0.0000 0.0000 0.0000 29.5772 0.0000 0.0000
# 5 0.0000 0.0000 0.0000 0.0000 17.8833 0.0000
# 6 0.0000 0.0000 0.0000 0.0000 0.0000 9.1777
#
#
#
# Elastic Compliance Matrix: (Units=1/GPa)
#
#
# Indices 1 2 3 4 5 6 
#
# 1 0.007245 -0.003395 -0.000566 0.000000 0.000000 0.000000
# 2 -0.003395 0.013962 0.001335 0.000000 0.000000 0.000000
# 3 -0.000566 0.001335 0.018661 0.000000 0.000000 0.000000
# 4 0.000000 0.000000 0.000000 0.033810 0.000000 0.000000
# 5 0.000000 0.000000 0.000000 0.000000 0.055918 0.000000
# 6 0.000000 0.000000 0.000000 0.000000 0.000000 0.108960
#
#
# Mechanical properties :
#
#
# Convention : Reuss Voigt Hill
#
# Bulk Modulus (GPa) = 28.88773 40.13353 34.51063
# Shear Modulus (GPa) = 19.58124 28.39519 23.98822
#
# Velocity S-wave (km/s) = 3.17689 3.82564 3.51626
# Velocity P-wave (km/s) = 5.32411 6.34032 5.85431
#
# Compressibility (1/GPa) = 0.03461678
#
# Stress axis : x y z
#
# Youngs Moduli (GPa) = 138.03286 71.62158 53.58679
#
# Poissons Ratio (x) = 0.24315 0.03032
# Poissons Ratio (y) = 0.46860 -0.07153
# Poissons Ratio (z) = 0.07809 -0.09561
#
# Static dielectric constant tensor:
#      x y z
#    x 1.742580 0.000000 0.000000 
#    y 0.000000 1.683900 0.000000 
#    z 0.000000 0.000000 1.732680 
# 
# From -- ./inp_files/9859.got.cif
#   From: 2010.05.17/outbox.cif.g08.bks.cpg/sg47_5_cif.got.tgz:9859.got - 2010.06.03 20:15:42.
