data_PCOD9388446
_publ_section_title
;
Structure prediction by ZEFSAII (Michael W. Deem and Ramdas Pophale) SiO2 
 PCOD9388446
Probable space group: P M M M
;
_chemical_formula_sum "Si O2"
_cell_formula_units_Z 48
_cell_length_a 19.478633
_cell_length_b 8.038028
_cell_length_c 14.426747
_cell_angle_alpha 90.000000
_cell_angle_beta 90.000000
_cell_angle_gamma 90.000000
_cell_volume 2258.792856
_symmetry_space_group_name_H-M "P M M M"
_symmetry_group_IT_number 47
_symmetry_cell_setting 'orthorhombic'
loop_
_space_group_symop_operation_xyz
x,y,z
-x,-y,z
x,-y,-z
-x,y,-z
-x,-y,-z
x,y,-z
-x,y,z
x,-y,z
loop_
_atom_site_type_symbol
_atom_site_label
_atom_site_fract_x
_atom_site_fract_y
_atom_site_fract_z
Si Si1 0.574322 0.802456 0.887183
Si Si2 0.175328 0.199873 0.603893
Si Si3 0.000000 0.703587 0.892613
Si Si4 0.335743 0.814024 0.611580
Si Si5 0.578824 0.500000 0.613634
Si Si6 0.137741 0.694566 0.203313
Si Si7 0.723585 0.199435 0.105786
O O1 0.500000 0.731965 0.856375
O O2 0.649464 0.736231 0.858150
O O3 0.572647 0.000000 0.865420
O O4 0.575625 0.790087 0.000000
O O5 0.159233 0.258541 0.500000
O O6 0.256019 0.231931 0.622891
O O7 0.133366 0.277383 0.686991
O O8 0.167694 0.000000 0.605610
O O9 0.069966 0.764940 0.845458
O O10 0.000000 0.500000 0.885464
O O11 0.000000 0.747058 0.000000
O O12 0.345782 0.825205 0.500000
O O13 0.384001 0.667713 0.645875
O O14 0.347944 0.000000 0.649943
O O15 0.500000 0.500000 0.639453
O O16 0.582868 0.500000 0.500000
O O17 0.140489 0.500000 0.182688
O O18 0.209460 0.765502 0.165920
O O19 0.716603 0.000000 0.101403
O O20 0.734504 0.260422 0.000000
#
# Coordination Sequence:
#
# PCOD9388446 Si02
#       7
#     8   8   4   8   4   8   8
#     4   7  10  19  39  68 100 135 175 218 267 322
#     4   9  19  37  59  82 109 141 181 235 292 344
#     4   9  20  40  60  81 118 160 191 223 270 335
#     4   8  15  28  46  69 100 139 181 231 293 352
#     4   9  16  24  40  70 104 139 183 236 292 353
#     4  11  22  35  57  85 110 146 192 235 283 341
#     4   9  17  30  50  78 112 146 184 233 280 329
#
# _framework density 21.250288999999999
#
# number of rings (size 3 to 8) (size 9 to 14) (size 15 to 20)
#    0.000    3.167    0.000    3.500    1.167    1.667 
#    0.000    3.750    0.000    7.000    0.000    4.667 
#    0.000    0.000    0.000    0.000    0.000    0.000 
#
# Total GULP energy -267760.863123 kJ/mol
# GULP energy per Si atom -5578.351315 kJ/mol
# Density = 2.120192 g / cm^3
# Si number density = 21.250289 Si / 1000 Ang^3
#
#
#
# Elastic Constant Matrix: (Units=GPa)
#
#
# Indices 1 2 3 4 5 6 
#
# 1 152.2069 23.6091 67.7268 0.0000 0.0000 0.0000
# 2 23.6091 24.1935 12.2055 0.0000 0.0000 0.0000
# 3 67.7268 12.2055 93.6692 0.0000 0.0000 0.0000
# 4 0.0000 0.0000 0.0000 16.2424 0.0000 0.0000
# 5 0.0000 0.0000 0.0000 0.0000 3.2644 0.0000
# 6 0.0000 0.0000 0.0000 0.0000 0.0000 20.4806
#
#
#
# Elastic Compliance Matrix: (Units=1/GPa)
#
#
# Indices 1 2 3 4 5 6 
#
# 1 0.010687 -0.006990 -0.006817 0.000000 0.000000 0.000000
# 2 -0.006990 0.048814 -0.001306 0.000000 0.000000 0.000000
# 3 -0.006817 -0.001306 0.015775 0.000000 0.000000 0.000000
# 4 0.000000 0.000000 0.000000 0.061567 0.000000 0.000000
# 5 0.000000 0.000000 0.000000 0.000000 0.306339 0.000000
# 6 0.000000 0.000000 0.000000 0.000000 0.000000 0.048827
#
#
# Mechanical properties :
#
#
# Convention : Reuss Voigt Hill
#
# Bulk Modulus (GPa) = 22.19778 53.01692 37.60735
# Shear Modulus (GPa) = 9.30662 19.09936 14.20299
#
# Velocity S-wave (km/s) = 2.09500 3.00122 2.58808
# Velocity P-wave (km/s) = 4.03988 6.08381 5.16398
#
# Compressibility (1/GPa) = 0.04504955
#
# Stress axis : x y z
#
# Youngs Moduli (GPa) = 93.56779 20.48597 63.39229
#
# Poissons Ratio (x) = 0.14320 0.43212
# Poissons Ratio (y) = 0.65407 0.08281
# Poissons Ratio (z) = 0.63781 0.02676
#
# Static dielectric constant tensor:
#      x y z
#    x 1.783390 0.000000 0.000000 
#    y 0.000000 1.777910 0.000000 
#    z 0.000000 0.000000 1.780530 
# 
# From -- ./inp_files/24452.got.cif
#   From: 2010.05.17/outbox.cif.g08.bks.cpg/sg47_13_cif.got.tgz:24452.got - 2010.06.03 20:15:42.
