data_PCOD9388858
_publ_section_title
;
Structure prediction by ZEFSAII (Michael W. Deem and Ramdas Pophale) SiO2 
 PCOD9388858
Probable space group: P M M M
;
_chemical_formula_sum "Si O2"
_cell_formula_units_Z 40
_cell_length_a 27.630602
_cell_length_b 7.384970
_cell_length_c 9.523800
_cell_angle_alpha 90.000000
_cell_angle_beta 90.000000
_cell_angle_gamma 90.000000
_cell_volume 1943.342503
_symmetry_space_group_name_H-M "P M M M"
_symmetry_group_IT_number 47
_symmetry_cell_setting 'orthorhombic'
loop_
_space_group_symop_operation_xyz
x,y,z
-x,-y,z
x,-y,-z
-x,y,-z
-x,-y,-z
x,y,-z
-x,y,z
x,-y,z
loop_
_atom_site_type_symbol
_atom_site_label
_atom_site_fract_x
_atom_site_fract_y
_atom_site_fract_z
Si Si1 0.554245 0.779557 0.338020
Si Si2 0.843975 0.717357 0.337926
Si Si3 0.353354 0.778274 0.161083
Si Si4 0.947861 0.718042 0.668845
Si Si5 0.262188 0.785257 0.340008
O O1 0.562389 0.725735 0.500000
O O2 0.500000 0.722612 0.296186
O O3 0.597758 0.719915 0.239407
O O4 0.554376 0.000000 0.336497
O O5 0.841787 0.783030 0.500000
O O6 0.847020 0.500000 0.342248
O O7 0.895481 0.782329 0.276619
O O8 0.791511 0.760178 0.276408
O O9 0.306024 0.716318 0.245956
O O10 0.353233 0.000000 0.161965
O O11 0.352218 0.721195 0.000000
O O12 0.947057 0.749696 0.500000
O O13 0.948819 0.500000 0.687058
O O14 0.000000 0.786916 0.721649
O O15 0.263019 0.711527 0.500000
O O16 0.269356 0.000000 0.351410
#
# Coordination Sequence:
#
# PCOD9388858 Si02
#       5
#     8   8   8   8   8
#     4   8  13  21  33  49  70  96 124 154 189 226
#     4   8  13  21  34  52  72  95 125 157 185 218
#     4   9  16  24  34  49  70  97 128 158 186 220
#     4   7   9  14  26  45  68  92 117 146 181 220
#     4   9  16  25  37  52  72  99 127 154 186 223
#
# _framework density 20.583093000000002
#
# number of rings (size 3 to 8) (size 9 to 14) (size 15 to 20)
#    0.000    3.800    0.000    3.000    0.000    2.800 
#    0.000    2.000    0.000    1.200    0.000    4.200 
#    0.000    1.600    0.000   19.200    0.000   21.000 
#
# Total GULP energy -222686.889450 kJ/mol
# GULP energy per Si atom -5567.172236 kJ/mol
# Density = 2.053624 g / cm^3
# Si number density = 20.583093 Si / 1000 Ang^3
#
#
#
# Elastic Constant Matrix: (Units=GPa)
#
#
# Indices 1 2 3 4 5 6 
#
# 1 276.5579 5.2074 99.5944 0.0000 0.0000 0.0000
# 2 5.2074 69.6270 4.4633 0.0000 0.0000 0.0000
# 3 99.5944 4.4633 63.3156 0.0000 0.0000 0.0000
# 4 0.0000 0.0000 0.0000 -44.0252 0.0000 0.0000
# 5 0.0000 0.0000 0.0000 0.0000 -4.4855 0.0000
# 6 0.0000 0.0000 0.0000 0.0000 0.0000 11.3951
#
#
#
# Elastic Compliance Matrix: (Units=1/GPa)
#
#
# Indices 1 2 3 4 5 6 
#
# 1 0.008344 0.000218 -0.013140 0.000000 0.000000 0.000000
# 2 0.000218 0.014433 -0.001361 0.000000 0.000000 0.000000
# 3 -0.013140 -0.001361 0.036559 0.000000 0.000000 0.000000
# 4 0.000000 0.000000 0.000000 -0.022714 0.000000 0.000000
# 5 0.000000 0.000000 0.000000 0.000000 -0.222942 0.000000
# 6 0.000000 0.000000 0.000000 0.000000 0.000000 0.087757
#
#
# Mechanical properties :
#
#
# Convention : Reuss Voigt Hill
#
# Bulk Modulus (GPa) = 32.49843 69.78121 51.13982
# Shear Modulus (GPa) = -83.69376 12.59257 -35.55059
#
# Velocity S-wave (km/s) = -6.38355 2.47613 -4.16044
# Velocity P-wave (km/s) = 6.20562 6.49236 1.34926
#
# Compressibility (1/GPa) = 0.03077072
#
# Stress axis : x y z
#
# Youngs Moduli (GPa) = 119.85003 69.28494 27.35318
#
# Poissons Ratio (x) = -0.01512 0.35942
# Poissons Ratio (y) = -0.02616 0.03722
# Poissons Ratio (z) = 1.57483 0.09428
#
# Static dielectric constant tensor:
#      x y z
#    x 1.791950 0.000000 0.000000 
#    y 0.000000 1.831000 0.000000 
#    z 0.000000 0.000000 1.669500 
# 
# From -- ./inp_files/1678.got.cif
#   From: 2010.05.17/outbox.cif.g08.bks.cpg/sg47_1_cif.got.tgz:1678.got - 2010.06.03 20:15:42.
