data_PCOD9388244
_publ_section_title
;
Structure prediction by ZEFSAII (Michael W. Deem and Ramdas Pophale) SiO2 
 PCOD9388244
Probable space group: P M M M
;
_chemical_formula_sum "Si O2"
_cell_formula_units_Z 52
_cell_length_a 8.906167
_cell_length_b 27.251586
_cell_length_c 14.113262
_cell_angle_alpha 90.000000
_cell_angle_beta 90.000000
_cell_angle_gamma 90.000000
_cell_volume 3425.389963
_symmetry_space_group_name_H-M "P M M M"
_symmetry_group_IT_number 47
_symmetry_cell_setting 'orthorhombic'
loop_
_space_group_symop_operation_xyz
x,y,z
-x,-y,z
x,-y,-z
-x,y,-z
-x,-y,-z
x,y,-z
-x,y,z
x,-y,z
loop_
_atom_site_type_symbol
_atom_site_label
_atom_site_fract_x
_atom_site_fract_y
_atom_site_fract_z
Si Si1 0.681794 0.607334 0.889631
Si Si2 0.678641 0.852471 0.713825
Si Si3 0.179664 0.299947 0.210086
Si Si4 0.180606 0.802019 0.890844
Si Si5 0.819846 0.943166 0.610715
Si Si6 0.673760 0.500000 0.115092
Si Si7 0.180746 0.239737 0.608588
O O1 0.500000 0.606335 0.887505
O O2 0.741517 0.651333 0.826265
O O3 0.738171 0.553127 0.858199
O O4 0.725762 0.615034 0.000000
O O5 0.500000 0.851006 0.713574
O O6 0.741374 0.838487 0.817347
O O7 0.738084 0.904370 0.676674
O O8 0.743168 0.810189 0.644462
O O9 0.217405 0.253400 0.142984
O O10 0.220488 0.282059 0.315972
O O11 0.000000 0.306758 0.206077
O O12 0.000000 0.807119 0.881920
O O13 0.222482 0.809388 0.000000
O O14 0.782778 0.933840 0.500000
O O15 0.000000 0.937587 0.620064
O O16 0.782917 0.000000 0.631296
O O17 0.500000 0.500000 0.146699
O O18 0.671736 0.500000 0.000000
O O19 0.219505 0.250546 0.500000
O O20 0.000000 0.232958 0.614847
#
# Coordination Sequence:
#
# PCOD9388244 Si02
#       7
#     8   8   8   8   8   4   8
#     4   9  16  26  41  60  84 115 146 174 208 255
#     4  11  21  30  45  71  99 121 142 178 227 268
#     4   9  17  28  43  65  88 109 139 181 224 258
#     4   9  18  33  50  65  86 121 159 186 211 254
#     4   9  18  33  52  71  91 119 154 186 216 258
#     4   7  12  24  39  55  78 111 148 176 201 247
#     4   9  18  33  49  62  83 119 156 183 211 257
#
# _framework density 15.180754
#
# number of rings (size 3 to 8) (size 9 to 14) (size 15 to 20)
#    0.000    2.846    0.000    4.615    0.000    6.462 
#    0.000    1.154    0.000    1.846    0.000    3.769 
#    0.000    4.308    0.000    0.000    0.000    0.000 
#
# Total GULP energy -289728.797884 kJ/mol
# GULP energy per Si atom -5571.707652 kJ/mol
# Density = 1.514620 g / cm^3
# Si number density = 15.180754 Si / 1000 Ang^3
#
#
#
# Elastic Constant Matrix: (Units=GPa)
#
#
# Indices 1 2 3 4 5 6 
#
# 1 26.4929 45.6636 41.5969 0.0000 0.0000 0.0000
# 2 45.6636 132.0654 82.1502 0.0000 0.0000 0.0000
# 3 41.5969 82.1502 123.9263 0.0000 0.0000 0.0000
# 4 0.0000 0.0000 0.0000 22.1513 0.0000 0.0000
# 5 0.0000 0.0000 0.0000 0.0000 9.1754 0.0000
# 6 0.0000 0.0000 0.0000 0.0000 0.0000 26.0369
#
#
#
# Elastic Compliance Matrix: (Units=1/GPa)
#
#
# Indices 1 2 3 4 5 6 
#
# 1 0.120275 -0.028034 -0.021788 0.000000 0.000000 0.000000
# 2 -0.028034 0.019419 -0.003463 0.000000 0.000000 0.000000
# 3 -0.021788 -0.003463 0.017678 0.000000 0.000000 0.000000
# 4 0.000000 0.000000 0.000000 0.045144 0.000000 0.000000
# 5 0.000000 0.000000 0.000000 0.000000 0.108987 0.000000
# 6 0.000000 0.000000 0.000000 0.000000 0.000000 0.038407
#
#
# Mechanical properties :
#
#
# Convention : Reuss Voigt Hill
#
# Bulk Modulus (GPa) = 19.68387 69.03402 44.35895
# Shear Modulus (GPa) = 10.56154 19.01096 14.78625
#
# Velocity S-wave (km/s) = 2.64051 3.54263 3.12430
# Velocity P-wave (km/s) = 4.72132 7.89348 6.50377
#
# Compressibility (1/GPa) = 0.05080301
#
# Stress axis : x y z
#
# Youngs Moduli (GPa) = 8.31425 51.49465 56.56654
#
# Poissons Ratio (x) = 1.44361 1.23246
# Poissons Ratio (y) = 0.23308 0.19590
# Poissons Ratio (z) = 0.18115 0.17834
#
# Static dielectric constant tensor:
#      x y z
#    x 1.509580 0.000000 0.000000 
#    y 0.000000 1.499920 0.000000 
#    z 0.000000 0.000000 1.495610 
# 
# From -- ./inp_files/21790.got.cif
#   From: 2010.05.17/outbox.cif.g08.bks.cpg/sg47_11_cif.got.tgz:21790.got - 2010.06.03 20:15:42.
