data_PCOD9388427
_publ_section_title
;
Structure prediction by ZEFSAII (Michael W. Deem and Ramdas Pophale) SiO2 
 PCOD9388427
Probable space group: P M M M
;
_chemical_formula_sum "Si O2"
_cell_formula_units_Z 52
_cell_length_a 25.084136
_cell_length_b 14.824666
_cell_length_c 8.791199
_cell_angle_alpha 90.000000
_cell_angle_beta 90.000000
_cell_angle_gamma 90.000000
_cell_volume 3269.129881
_symmetry_space_group_name_H-M "P M M M"
_symmetry_group_IT_number 47
_symmetry_cell_setting 'orthorhombic'
loop_
_space_group_symop_operation_xyz
x,y,z
-x,-y,z
x,-y,-z
-x,y,-z
-x,-y,-z
x,y,-z
-x,y,z
x,-y,z
loop_
_atom_site_type_symbol
_atom_site_label
_atom_site_fract_x
_atom_site_fract_y
_atom_site_fract_z
Si Si1 0.776719 0.604680 0.816924
Si Si2 0.384928 0.103840 0.681268
Si Si3 0.500000 0.847776 0.175306
Si Si4 0.388689 0.399044 0.675360
Si Si5 0.000000 0.389979 0.824072
Si Si6 0.500000 0.631083 0.177475
Si Si7 0.314659 0.740098 0.821874
Si Si8 0.889928 0.390852 0.673001
O O1 0.765727 0.500000 0.764642
O O2 0.736988 0.684165 0.762245
O O3 0.836777 0.628411 0.767831
O O4 0.772604 0.602608 0.000000
O O5 0.388228 0.115343 0.500000
O O6 0.444302 0.122560 0.747795
O O7 0.339503 0.171285 0.744019
O O8 0.371428 0.000000 0.716110
O O9 0.500000 0.739495 0.178077
O O10 0.500000 0.878542 0.000000
O O11 0.384225 0.367075 0.500000
O O12 0.366307 0.500000 0.682468
O O13 0.449057 0.400790 0.729822
O O14 0.360048 0.334094 0.792776
O O15 0.945542 0.358927 0.744520
O O16 0.000000 0.500000 0.818296
O O17 0.000000 0.364138 0.000000
O O18 0.500000 0.602922 0.000000
O O19 0.307163 0.758784 0.000000
O O20 0.884157 0.359153 0.500000
O O21 0.893411 0.500000 0.669714
#
# Coordination Sequence:
#
# PCOD9388427 Si02
#       8
#     8   8   4   8   4   4   8   8
#     4   9  18  32  48  67  94 128 164 199 235 277
#     4  11  24  40  58  78  98 121 148 185 238 295
#     4  11  22  37  58  81  98 117 146 185 235 289
#     4  11  23  36  51  71  95 124 155 188 229 276
#     4   9  15  23  37  57  85 123 164 205 246 281
#     4  11  22  35  52  73  94 119 150 187 231 275
#     4  11  22  36  54  74  95 123 158 196 236 279
#     4   9  16  25  39  61  89 122 163 206 242 276
#
# _framework density 15.906373
#
# number of rings (size 3 to 8) (size 9 to 14) (size 15 to 20)
#    0.000    1.769    1.538    3.462    0.000    9.538 
#    0.000    1.538    0.000    0.000    0.000    0.000 
#    0.000    0.000    0.000    0.692    0.000   13.000 
#
# Total GULP energy -289855.021211 kJ/mol
# GULP energy per Si atom -5574.135023 kJ/mol
# Density = 1.587017 g / cm^3
# Si number density = 15.906373 Si / 1000 Ang^3
#
#
#
# Elastic Constant Matrix: (Units=GPa)
#
#
# Indices 1 2 3 4 5 6 
#
# 1 114.7075 41.9131 19.5634 0.0000 0.0000 0.0000
# 2 41.9131 86.1665 27.0672 0.0000 0.0000 0.0000
# 3 19.5634 27.0672 39.1820 0.0000 0.0000 0.0000
# 4 0.0000 0.0000 0.0000 21.9053 0.0000 0.0000
# 5 0.0000 0.0000 0.0000 0.0000 352.4068 0.0000
# 6 0.0000 0.0000 0.0000 0.0000 0.0000 5.4254
#
#
#
# Elastic Compliance Matrix: (Units=1/GPa)
#
#
# Indices 1 2 3 4 5 6 
#
# 1 0.010754 -0.004527 -0.002243 0.000000 0.000000 0.000000
# 2 -0.004527 0.016727 -0.009295 0.000000 0.000000 0.000000
# 3 -0.002243 -0.009295 0.033063 0.000000 0.000000 0.000000
# 4 0.000000 0.000000 0.000000 0.045651 0.000000 0.000000
# 5 0.000000 0.000000 0.000000 0.000000 0.002838 0.000000
# 6 0.000000 0.000000 0.000000 0.000000 0.000000 0.184317
#
#
# Mechanical properties :
#
#
# Convention : Reuss Voigt Hill
#
# Bulk Modulus (GPa) = 35.19190 46.34926 40.77058
# Shear Modulus (GPa) = 14.92760 86.04833 50.48797
#
# Velocity S-wave (km/s) = 3.06676 7.36303 5.64000
# Velocity P-wave (km/s) = 5.89173 10.07411 8.25228
#
# Compressibility (1/GPa) = 0.02841563
#
# Stress axis : x y z
#
# Youngs Moduli (GPa) = 92.98612 59.78304 30.24552
#
# Poissons Ratio (x) = 0.27062 0.06783
# Poissons Ratio (y) = 0.42092 0.28114
# Poissons Ratio (z) = 0.20852 0.55569
#
# Static dielectric constant tensor:
#      x y z
#    x 1.558440 0.000000 0.000000 
#    y 0.000000 1.537320 0.000000 
#    z 0.000000 0.000000 1.549680 
# 
# From -- ./inp_files/12608.got.cif
#   From: 2010.05.17/outbox.cif.g08.bks.cpg/sg47_7_cif.got.tgz:12608.got - 2010.06.03 20:15:42.
