data_PCOD9388876
_publ_section_title
;
Structure prediction by ZEFSAII (Michael W. Deem and Ramdas Pophale) SiO2 
 PCOD9388876
Probable space group: P M M M
;
_chemical_formula_sum "Si O2"
_cell_formula_units_Z 48
_cell_length_a 7.361493
_cell_length_b 14.241688
_cell_length_c 25.260684
_cell_angle_alpha 90.000000
_cell_angle_beta 90.000000
_cell_angle_gamma 90.000000
_cell_volume 2648.332296
_symmetry_space_group_name_H-M "P M M M"
_symmetry_group_IT_number 47
_symmetry_cell_setting 'orthorhombic'
loop_
_space_group_symop_operation_xyz
x,y,z
-x,-y,z
x,-y,-z
-x,y,-z
-x,-y,-z
x,y,-z
-x,y,z
x,-y,z
loop_
_atom_site_type_symbol
_atom_site_label
_atom_site_fract_x
_atom_site_fract_y
_atom_site_fract_z
Si Si1 0.221326 0.793865 0.558916
Si Si2 0.221521 0.894789 0.665606
Si Si3 0.779019 0.605225 0.384970
Si Si4 0.214767 0.392919 0.826811
Si Si5 0.221421 0.292039 0.722275
Si Si6 0.282141 0.391153 0.943115
O O1 0.282031 0.818504 0.500000
O O2 0.276847 0.862021 0.606635
O O3 0.276730 0.688237 0.575457
O O4 0.000000 0.794904 0.558723
O O5 0.279492 0.812472 0.705538
O O6 0.000000 0.894946 0.665980
O O7 0.281908 0.000000 0.677676
O O8 0.716639 0.500000 0.396686
O O9 0.727158 0.638768 0.325919
O O10 0.000000 0.603883 0.386047
O O11 0.288961 0.500000 0.826267
O O12 0.285897 0.330904 0.778483
O O13 0.235311 0.350988 0.885755
O O14 0.000000 0.401118 0.817896
O O15 0.000000 0.290405 0.722846
O O16 0.500000 0.392736 0.944690
O O17 0.218804 0.500000 0.941784
O O18 0.220045 0.350935 0.000000
#
# Coordination Sequence:
#
# PCOD9388876 Si02
#       6
#     8   8   8   8   8   8
#     4   8  13  18  22  31  46  65  97 138 169 195
#     4   8  13  20  28  36  49  73 101 130 169 211
#     4   8  12  17  24  32  46  71  98 126 164 204
#     4   9  15  21  32  50  69  90 116 144 170 194
#     4   8  13  20  28  40  58  76 100 136 171 202
#     4   8  14  24  35  47  68  98 124 141 160 190
#
# _framework density 18.124614000000001
#
# number of rings (size 3 to 8) (size 9 to 14) (size 15 to 20)
#    0.000    3.833    0.000    3.000    0.000    3.000 
#    0.000    5.000    0.000    0.000    0.000    0.000 
#    0.000    1.333    0.000    8.333    0.000   15.000 
#
# Total GULP energy -267288.031788 kJ/mol
# GULP energy per Si atom -5568.500662 kJ/mol
# Density = 1.808336 g / cm^3
# Si number density = 18.124614 Si / 1000 Ang^3
#
#
#
# Elastic Constant Matrix: (Units=GPa)
#
#
# Indices 1 2 3 4 5 6 
#
# 1 64.0149 3.4524 2.9108 0.0000 0.0000 0.0000
# 2 3.4524 80.9540 36.2980 0.0000 0.0000 0.0000
# 3 2.9108 36.2980 143.5304 0.0000 0.0000 0.0000
# 4 0.0000 0.0000 0.0000 13.3506 0.0000 0.0000
# 5 0.0000 0.0000 0.0000 0.0000 41.2645 0.0000
# 6 0.0000 0.0000 0.0000 0.0000 0.0000 -9.9351
#
#
#
# Elastic Compliance Matrix: (Units=1/GPa)
#
#
# Indices 1 2 3 4 5 6 
#
# 1 0.015661 -0.000593 -0.000168 0.000000 0.000000 0.000000
# 2 -0.000593 0.013955 -0.003517 0.000000 0.000000 0.000000
# 3 -0.000168 -0.003517 0.007860 0.000000 0.000000 0.000000
# 4 0.000000 0.000000 0.000000 0.074903 0.000000 0.000000
# 5 0.000000 0.000000 0.000000 0.000000 0.024234 0.000000
# 6 0.000000 0.000000 0.000000 0.000000 0.000000 -0.100653
#
#
# Mechanical properties :
#
#
# Convention : Reuss Voigt Hill
#
# Bulk Modulus (GPa) = 34.57703 41.53573 38.05638
# Shear Modulus (GPa) = 92.32725 25.32521 58.82623
#
# Velocity S-wave (km/s) = 7.14499 3.74208 5.70324
# Velocity P-wave (km/s) = 9.33738 6.45270 8.02571
#
# Compressibility (1/GPa) = 0.02892094
#
# Stress axis : x y z
#
# Youngs Moduli (GPa) = 63.85306 71.65915 127.22618
#
# Poissons Ratio (x) = 0.04247 0.02134
# Poissons Ratio (y) = 0.03784 0.44747
# Poissons Ratio (z) = 0.01071 0.25203
#
# Static dielectric constant tensor:
#      x y z
#    x 1.705870 0.000000 0.000000 
#    y 0.000000 1.595960 0.000000 
#    z 0.000000 0.000000 1.644920 
# 
# From -- ./inp_files/7516.got.cif
#   From: 2010.05.17/outbox.cif.g08.bks.cpg/sg47_4_cif.got.tgz:7516.got - 2010.06.03 20:15:42.
