data_PCOD9388628
_publ_section_title
;
Structure prediction by ZEFSAII (Michael W. Deem and Ramdas Pophale) SiO2 
 PCOD9388628
Probable space group: P M M M
;
_chemical_formula_sum "Si O2"
_cell_formula_units_Z 36
_cell_length_a 8.137688
_cell_length_b 23.596247
_cell_length_c 9.823933
_cell_angle_alpha 90.000000
_cell_angle_beta 90.000000
_cell_angle_gamma 90.000000
_cell_volume 1886.380770
_symmetry_space_group_name_H-M "P M M M"
_symmetry_group_IT_number 47
_symmetry_cell_setting 'orthorhombic'
loop_
_space_group_symop_operation_xyz
x,y,z
-x,-y,z
x,-y,-z
-x,y,-z
-x,-y,-z
x,y,-z
-x,y,z
x,-y,z
loop_
_atom_site_type_symbol
_atom_site_label
_atom_site_fract_x
_atom_site_fract_y
_atom_site_fract_z
Si Si1 0.701400 0.000000 0.156469
Si Si2 0.301719 0.435577 0.345397
Si Si3 0.195601 0.666119 0.846141
Si Si4 0.698267 0.768010 0.654823
Si Si5 0.700423 0.896680 0.344226
O O1 0.755362 0.055805 0.238661
O O2 0.500000 0.000000 0.156932
O O3 0.754330 0.000000 0.000000
O O4 0.247150 0.421460 0.500000
O O5 0.500000 0.435718 0.347064
O O6 0.247400 0.500000 0.314628
O O7 0.246945 0.389373 0.237627
O O8 0.247748 0.721326 0.761674
O O9 0.000000 0.666282 0.854073
O O10 0.263399 0.666200 0.000000
O O11 0.753222 0.754492 0.500000
O O12 0.500000 0.768304 0.652716
O O13 0.752558 0.832290 0.687449
O O14 0.749220 0.909928 0.500000
O O15 0.500000 0.896932 0.342701
#
# Coordination Sequence:
#
# PCOD9388628 Si02
#       5
#     4   8   8   8   8
#     4   9  15  21  33  59  94 127 158 193 236 290
#     4   9  19  37  60  83 104 128 163 206 248 292
#     4  11  24  37  49  72 106 139 169 203 246 296
#     4   9  18  33  53  75  97 126 169 215 254 296
#     4   8  14  25  41  62  90 123 157 197 246 294
#
# _framework density 19.084163
#
# number of rings (size 3 to 8) (size 9 to 14) (size 15 to 20)
#    0.000    2.778    0.000    3.667    0.000    8.444 
#    0.000    5.556    0.000    0.000    0.000    0.778 
#    0.000    6.222    0.000    0.000    0.000    0.000 
#
# Total GULP energy -200830.055524 kJ/mol
# GULP energy per Si atom -5578.612653 kJ/mol
# Density = 1.904073 g / cm^3
# Si number density = 19.084163 Si / 1000 Ang^3
#
#
#
# Elastic Constant Matrix: (Units=GPa)
#
#
# Indices 1 2 3 4 5 6 
#
# 1 11.9553 17.1262 17.6827 0.0000 0.0000 0.0000
# 2 17.1262 177.6361 156.3643 0.0000 0.0000 0.0000
# 3 17.6827 156.3643 196.4455 0.0000 0.0000 0.0000
# 4 0.0000 0.0000 0.0000 -10.2587 0.0000 0.0000
# 5 0.0000 0.0000 0.0000 0.0000 24.9170 0.0000
# 6 0.0000 0.0000 0.0000 0.0000 0.0000 -48.0987
#
#
#
# Elastic Compliance Matrix: (Units=1/GPa)
#
#
# Indices 1 2 3 4 5 6 
#
# 1 0.098150 -0.005632 -0.004352 0.000000 0.000000 0.000000
# 2 -0.005632 0.019129 -0.014719 0.000000 0.000000 0.000000
# 3 -0.004352 -0.014719 0.017198 0.000000 0.000000 0.000000
# 4 0.000000 0.000000 0.000000 -0.097479 0.000000 0.000000
# 5 0.000000 0.000000 0.000000 0.000000 0.040133 0.000000
# 6 0.000000 0.000000 0.000000 0.000000 0.000000 -0.020791
#
#
# Mechanical properties :
#
#
# Convention : Reuss Voigt Hill
#
# Bulk Modulus (GPa) = 11.75491 85.37591 48.56541
# Shear Modulus (GPa) = 37.28461 6.30285 21.79373
#
# Velocity S-wave (km/s) = 4.42486 1.81929 3.38299
# Velocity P-wave (km/s) = 5.68143 7.01760 6.38457
#
# Compressibility (1/GPa) = 0.08507086
#
# Stress axis : x y z
#
# Youngs Moduli (GPa) = 10.18851 52.27683 58.14596
#
# Poissons Ratio (x) = 0.29442 0.25305
# Poissons Ratio (y) = 0.05738 0.85585
# Poissons Ratio (z) = 0.04434 0.76947
#
# Static dielectric constant tensor:
#      x y z
#    x 1.672330 0.000000 0.000000 
#    y 0.000000 1.652040 0.000000 
#    z 0.000000 0.000000 1.654360 
# 
# From -- ./inp_files/1443.got.cif
#   From: 2010.05.17/outbox.cif.g08.bks.cpg/sg47_1_cif.got.tgz:1443.got - 2010.06.03 20:15:42.
