data_PCOD9388457
_publ_section_title
;
Structure prediction by ZEFSAII (Michael W. Deem and Ramdas Pophale) SiO2 
 PCOD9388457
Probable space group: P M M M
;
_chemical_formula_sum "Si O2"
_cell_formula_units_Z 52
_cell_length_a 9.136468
_cell_length_b 14.030465
_cell_length_c 21.829680
_cell_angle_alpha 90.000000
_cell_angle_beta 90.000000
_cell_angle_gamma 90.000000
_cell_volume 2798.322546
_symmetry_space_group_name_H-M "P M M M"
_symmetry_group_IT_number 47
_symmetry_cell_setting 'orthorhombic'
loop_
_space_group_symop_operation_xyz
x,y,z
-x,-y,z
x,-y,-z
-x,y,-z
-x,-y,-z
x,y,-z
-x,y,z
x,-y,z
loop_
_atom_site_type_symbol
_atom_site_label
_atom_site_fract_x
_atom_site_fract_y
_atom_site_fract_z
Si Si1 0.676348 0.608257 0.693436
Si Si2 0.329030 0.390091 0.073737
Si Si3 0.173817 0.206364 0.114436
Si Si4 0.675698 0.709310 0.568168
Si Si5 0.824656 0.210043 0.749447
Si Si6 0.333500 0.113499 0.000000
Si Si7 0.176064 0.108560 0.623770
O O1 0.500000 0.612955 0.699270
O O2 0.722184 0.500000 0.706725
O O3 0.714827 0.637971 0.623419
O O4 0.747908 0.689485 0.735057
O O5 0.500000 0.371205 0.088206
O O6 0.298158 0.500000 0.089182
O O7 0.225250 0.315445 0.106538
O O8 0.312720 0.379814 0.000000
O O9 0.214850 0.174247 0.182948
O O10 0.253358 0.150185 0.060541
O O11 0.000000 0.198259 0.106914
O O12 0.716439 0.676346 0.500000
O O13 0.500000 0.720378 0.570174
O O14 0.748885 0.811041 0.582550
O O15 0.788851 0.138423 0.693986
O O16 0.000000 0.224214 0.748609
O O17 0.500000 0.150228 0.000000
O O18 0.334929 0.000000 0.000000
O O19 0.000000 0.114149 0.616690
O O20 0.221332 0.000000 0.611068
#
# Coordination Sequence:
#
# PCOD9388457 Si02
#       7
#     8   8   8   8   8   4   8
#     4   9  18  33  53  77 105 140 181 218 252 297
#     4   9  18  33  53  76 104 139 172 203 248 307
#     4  11  22  36  57  83 108 136 172 218 268 314
#     4   9  18  32  50  75 107 139 171 212 261 307
#     4   9  20  36  53  76 105 136 171 213 261 310
#     4  11  25  43  60  79 106 139 173 212 262 321
#     4   9  18  34  54  73  97 133 174 214 257 307
#
# _framework density 18.582561999999999
#
# number of rings (size 3 to 8) (size 9 to 14) (size 15 to 20)
#    0.000    2.538    0.769    1.154    0.000    4.923 
#    0.000    8.462    0.000    0.000    0.000    4.308 
#    0.000    0.000    0.000    0.000    0.000    0.000 
#
# Total GULP energy -290109.028146 kJ/mol
# GULP energy per Si atom -5579.019772 kJ/mol
# Density = 1.854027 g / cm^3
# Si number density = 18.582562 Si / 1000 Ang^3
#
#
#
# Elastic Constant Matrix: (Units=GPa)
#
#
# Indices 1 2 3 4 5 6 
#
# 1 21.0764 2.7837 21.0370 0.0000 0.0000 0.0000
# 2 2.7837 40.1730 -10.6971 0.0000 0.0000 0.0000
# 3 21.0370 -10.6971 78.5621 0.0000 0.0000 0.0000
# 4 0.0000 0.0000 0.0000 3.4889 0.0000 0.0000
# 5 0.0000 0.0000 0.0000 0.0000 22.5885 0.0000
# 6 0.0000 0.0000 0.0000 0.0000 0.0000 -2.6006
#
#
#
# Elastic Compliance Matrix: (Units=1/GPa)
#
#
# Indices 1 2 3 4 5 6 
#
# 1 0.068403 -0.009979 -0.019675 0.000000 0.000000 0.000000
# 2 -0.009979 0.027285 0.006387 0.000000 0.000000 0.000000
# 3 -0.019675 0.006387 0.018867 0.000000 0.000000 0.000000
# 4 0.000000 0.000000 0.000000 0.286626 0.000000 0.000000
# 5 0.000000 0.000000 0.000000 0.000000 0.044270 0.000000
# 6 0.000000 0.000000 0.000000 0.000000 0.000000 -0.384526
#
#
# Mechanical properties :
#
#
# Convention : Reuss Voigt Hill
#
# Bulk Modulus (GPa) = 14.70147 18.45097 16.57622
# Shear Modulus (GPa) = 38.42221 13.14121 25.78171
#
# Velocity S-wave (km/s) = 4.55207 2.66217 3.72884
# Velocity P-wave (km/s) = 5.96298 4.40457 5.24201
#
# Compressibility (1/GPa) = 0.06802043
#
# Stress axis : x y z
#
# Youngs Moduli (GPa) = 14.61924 36.65078 53.00246
#
# Poissons Ratio (x) = 0.36574 1.04284
# Poissons Ratio (y) = 0.14588 -0.33854
# Poissons Ratio (z) = 0.28764 -0.23410
#
# Static dielectric constant tensor:
#      x y z
#    x 1.618960 0.000000 0.000000 
#    y 0.000000 1.619680 0.000000 
#    z 0.000000 0.000000 1.664700 
# 
# From -- ./inp_files/11046.got.cif
#   From: 2010.05.17/outbox.cif.g08.bks.cpg/sg47_6_cif.got.tgz:11046.got - 2010.06.03 20:15:42.
