data_PCOD9388835
_publ_section_title
;
Structure prediction by ZEFSAII (Michael W. Deem and Ramdas Pophale) SiO2 
 PCOD9388835
Probable space group: P M M M
;
_chemical_formula_sum "Si O2"
_cell_formula_units_Z 52
_cell_length_a 7.417317
_cell_length_b 14.181080
_cell_length_c 27.795104
_cell_angle_alpha 90.000000
_cell_angle_beta 90.000000
_cell_angle_gamma 90.000000
_cell_volume 2923.643740
_symmetry_space_group_name_H-M "P M M M"
_symmetry_group_IT_number 47
_symmetry_cell_setting 'orthorhombic'
loop_
_space_group_symop_operation_xyz
x,y,z
-x,-y,z
x,-y,-z
-x,y,-z
-x,-y,-z
x,y,-z
-x,y,z
x,-y,z
loop_
_atom_site_type_symbol
_atom_site_label
_atom_site_fract_x
_atom_site_fract_y
_atom_site_fract_z
Si Si1 0.783511 0.205138 0.098406
Si Si2 0.220717 0.890599 0.000000
Si Si3 0.285068 0.895494 0.802163
Si Si4 0.214661 0.604940 0.146697
Si Si5 0.279690 0.609988 0.343321
Si Si6 0.282967 0.293758 0.753924
Si Si7 0.282470 0.612554 0.551762
O O1 0.744001 0.135313 0.142650
O O2 0.714601 0.308542 0.114264
O O3 0.000000 0.212100 0.095027
O O4 0.718895 0.163040 0.048139
O O5 0.000000 0.890477 0.000000
O O6 0.275946 0.000000 0.000000
O O7 0.500000 0.898834 0.794588
O O8 0.214578 0.809229 0.769850
O O9 0.212514 0.000000 0.793091
O O10 0.287148 0.500000 0.137928
O O11 0.241858 0.635774 0.202078
O O12 0.000000 0.601296 0.138722
O O13 0.500000 0.611270 0.343448
O O14 0.228024 0.500000 0.338420
O O15 0.217548 0.668029 0.297136
O O16 0.219932 0.646797 0.395911
O O17 0.500000 0.288626 0.751119
O O18 0.215992 0.649814 0.500000
O O19 0.500000 0.622885 0.551335
O O20 0.246840 0.500000 0.552012
#
# Coordination Sequence:
#
# PCOD9388835 Si02
#       7
#     8   4   8   8   8   8   8
#     4   9  17  29  44  60  76  96 122 147 174 213
#     4   9  16  26  42  62  78  91 115 153 186 209
#     4   9  17  28  40  55  76  98 119 147 183 218
#     4   9  17  28  40  55  77 101 122 146 176 209
#     4   8  12  17  27  45  67  89 115 146 175 205
#     4   9  16  25  38  55  73  95 124 153 179 212
#     4   7   9  13  21  35  59  89 113 135 171 212
#
# _framework density 17.786024999999999
#
# number of rings (size 3 to 8) (size 9 to 14) (size 15 to 20)
#    0.000    3.462    0.000    2.308    0.000    1.846 
#    0.000    0.769    0.000    3.692    0.000    0.000 
#    0.000    6.154    0.000   14.308    0.000    4.923 
#
# Total GULP energy -289643.905236 kJ/mol
# GULP energy per Si atom -5570.075101 kJ/mol
# Density = 1.774554 g / cm^3
# Si number density = 17.786025 Si / 1000 Ang^3
#
#
#
# Elastic Constant Matrix: (Units=GPa)
#
#
# Indices 1 2 3 4 5 6 
#
# 1 58.2688 5.6998 1.0693 0.0000 0.0000 0.0000
# 2 5.6998 121.0267 75.0791 0.0000 0.0000 0.0000
# 3 1.0693 75.0791 163.9419 0.0000 0.0000 0.0000
# 4 0.0000 0.0000 0.0000 16.1203 0.0000 0.0000
# 5 0.0000 0.0000 0.0000 0.0000 11.9815 0.0000
# 6 0.0000 0.0000 0.0000 0.0000 0.0000 0.8723
#
#
#
# Elastic Compliance Matrix: (Units=1/GPa)
#
#
# Indices 1 2 3 4 5 6 
#
# 1 0.017257 -0.001038 0.000363 0.000000 0.000000 0.000000
# 2 -0.001038 0.011604 -0.005307 0.000000 0.000000 0.000000
# 3 0.000363 -0.005307 0.008528 0.000000 0.000000 0.000000
# 4 0.000000 0.000000 0.000000 0.062034 0.000000 0.000000
# 5 0.000000 0.000000 0.000000 0.000000 0.083462 0.000000
# 6 0.000000 0.000000 0.000000 0.000000 0.000000 1.146419
#
#
# Mechanical properties :
#
#
# Convention : Reuss Voigt Hill
#
# Bulk Modulus (GPa) = 39.33329 56.32597 47.82963
# Shear Modulus (GPa) = 3.70441 23.22076 13.46259
#
# Velocity S-wave (km/s) = 1.44474 3.61718 2.75420
# Velocity P-wave (km/s) = 4.99457 7.01304 6.08804
#
# Compressibility (1/GPa) = 0.02542376
#
# Stress axis : x y z
#
# Youngs Moduli (GPa) = 57.94848 86.17747 117.26158
#
# Poissons Ratio (x) = 0.08943 -0.04253
# Poissons Ratio (y) = 0.06013 0.62235
# Poissons Ratio (z) = -0.02102 0.45738
#
# Static dielectric constant tensor:
#      x y z
#    x 1.694610 0.000000 0.000000 
#    y 0.000000 1.602880 0.000000 
#    z 0.000000 0.000000 1.620550 
# 
# From -- ./inp_files/22000.got.cif
#   From: 2010.05.17/outbox.cif.g08.bks.cpg/sg47_11_cif.got.tgz:22000.got - 2010.06.03 20:15:42.
