data_PCOD9388522
_publ_section_title
;
Structure prediction by ZEFSAII (Michael W. Deem and Ramdas Pophale) SiO2 
 PCOD9388522
Probable space group: P M M M
;
_chemical_formula_sum "Si O2"
_cell_formula_units_Z 28
_cell_length_a 9.648183
_cell_length_b 9.129116
_cell_length_c 19.661979
_cell_angle_alpha 90.000000
_cell_angle_beta 90.000000
_cell_angle_gamma 90.000000
_cell_volume 1731.814955
_symmetry_space_group_name_H-M "P M M M"
_symmetry_group_IT_number 47
_symmetry_cell_setting 'orthorhombic'
loop_
_space_group_symop_operation_xyz
x,y,z
-x,-y,z
x,-y,-z
-x,y,-z
-x,-y,-z
x,y,-z
-x,y,z
x,-y,z
loop_
_atom_site_type_symbol
_atom_site_label
_atom_site_fract_x
_atom_site_fract_y
_atom_site_fract_z
Si Si1 0.000000 0.825135 0.920165
Si Si2 0.663294 0.825491 0.695949
Si Si3 0.844271 0.671292 0.808489
Si Si4 0.837731 0.325667 0.579657
O O1 0.129762 0.752771 0.880235
O O2 0.000000 0.000000 0.910389
O O3 0.000000 0.793142 0.000000
O O4 0.500000 0.793032 0.693515
O O5 0.735119 0.749157 0.760534
O O6 0.739993 0.763370 0.629571
O O7 0.681748 0.000000 0.700236
O O8 0.813367 0.500000 0.817841
O O9 0.000000 0.680635 0.775998
O O10 0.808002 0.298548 0.500000
O O11 0.820861 0.500000 0.591956
O O12 0.000000 0.290588 0.591233
#
# Coordination Sequence:
#
# PCOD9388522 Si02
#       4
#     4   8   8   8
#     4   9  17  31  55  85 112 137 166 205 253 303
#     4  11  23  35  49  73 106 141 176 217 264 313
#     4   9  19  33  53  79 104 135 173 214 254 300
#     4   9  19  36  56  76  99 130 172 221 269 317
#
# _framework density 16.168009000000001
#
# number of rings (size 3 to 8) (size 9 to 14) (size 15 to 20)
#    0.857    1.571    0.000    3.429    0.000    8.571 
#    0.000    4.286    0.000    0.857    0.000    6.000 
#    0.000    0.000    0.000    0.000    0.000    0.000 
#
# Total GULP energy -156001.276850 kJ/mol
# GULP energy per Si atom -5571.474173 kJ/mol
# Density = 1.613121 g / cm^3
# Si number density = 16.168009 Si / 1000 Ang^3
#
#
#
# Elastic Constant Matrix: (Units=GPa)
#
#
# Indices 1 2 3 4 5 6 
#
# 1 98.0706 84.1844 83.7778 0.0000 0.0000 0.0000
# 2 84.1844 108.6894 91.3523 0.0000 0.0000 0.0000
# 3 83.7778 91.3523 130.2088 0.0000 0.0000 0.0000
# 4 0.0000 0.0000 0.0000 33.2520 0.0000 0.0000
# 5 0.0000 0.0000 0.0000 0.0000 -5.8770 0.0000
# 6 0.0000 0.0000 0.0000 0.0000 0.0000 25.2957
#
#
#
# Elastic Compliance Matrix: (Units=1/GPa)
#
#
# Indices 1 2 3 4 5 6 
#
# 1 0.033678 -0.019186 -0.008208 0.000000 0.000000 0.000000
# 2 -0.019186 0.033353 -0.011055 0.000000 0.000000 0.000000
# 3 -0.008208 -0.011055 0.020717 0.000000 0.000000 0.000000
# 4 0.000000 0.000000 0.000000 0.030073 0.000000 0.000000
# 5 0.000000 0.000000 0.000000 0.000000 -0.170156 0.000000
# 6 0.000000 0.000000 0.000000 0.000000 0.000000 0.039532
#
#
# Mechanical properties :
#
#
# Convention : Reuss Voigt Hill
#
# Bulk Modulus (GPa) = 92.17271 95.06642 93.61957
# Shear Modulus (GPa) = 73.84006 15.71109 44.77557
#
# Velocity S-wave (km/s) = 6.76532 3.12066 5.26821
# Velocity P-wave (km/s) = 10.87011 8.48006 9.74861
#
# Compressibility (1/GPa) = 0.01084920
#
# Stress axis : x y z
#
# Youngs Moduli (GPa) = 29.69259 29.98243 48.26895
#
# Poissons Ratio (x) = 0.57526 0.39620
# Poissons Ratio (y) = 0.56969 0.53362
# Poissons Ratio (z) = 0.24372 0.33146
#
# Static dielectric constant tensor:
#      x y z
#    x 1.524510 0.000000 0.000000 
#    y 0.000000 1.534600 0.000000 
#    z 0.000000 0.000000 1.532250 
# 
# From -- ./inp_files/28996.got.cif
#   From: 2010.05.17/outbox.cif.g08.bks.cpg/sg47_15_cif.got.tgz:28996.got - 2010.06.03 20:15:42.
