data_PCOD9388513
_publ_section_title
;
Structure prediction by ZEFSAII (Michael W. Deem and Ramdas Pophale) SiO2 
 PCOD9388513
Probable space group: P M M M
;
_chemical_formula_sum "Si O2"
_cell_formula_units_Z 64
_cell_length_a 24.537731
_cell_length_b 20.003429
_cell_length_c 7.487467
_cell_angle_alpha 90.000000
_cell_angle_beta 90.000000
_cell_angle_gamma 90.000000
_cell_volume 3675.139017
_symmetry_space_group_name_H-M "P M M M"
_symmetry_group_IT_number 47
_symmetry_cell_setting 'orthorhombic'
loop_
_space_group_symop_operation_xyz
x,y,z
-x,-y,z
x,-y,-z
-x,y,-z
-x,-y,-z
x,y,-z
-x,y,z
x,-y,z
loop_
_atom_site_type_symbol
_atom_site_label
_atom_site_fract_x
_atom_site_fract_y
_atom_site_fract_z
Si Si1 0.772698 0.784599 0.218305
Si Si2 0.723806 0.424465 0.217909
Si Si3 0.938612 0.422875 0.782172
Si Si4 0.666816 0.294876 0.210229
Si Si5 0.742166 0.926172 0.217814
Si Si6 0.615324 0.926017 0.784704
Si Si7 0.167031 0.345231 0.782462
Si Si8 0.439852 0.786356 0.708586
O O1 0.714117 0.754791 0.278010
O O2 0.775488 0.861317 0.277334
O O3 0.817156 0.729842 0.274362
O O4 0.773324 0.785642 0.000000
O O5 0.716379 0.500000 0.281980
O O6 0.679262 0.369550 0.278149
O O7 0.782605 0.393520 0.267804
O O8 0.722985 0.427366 0.000000
O O9 0.928222 0.500000 0.730189
O O10 0.890228 0.374937 0.720701
O O11 0.000000 0.404765 0.725809
O O12 0.938284 0.421930 0.000000
O O13 0.607811 0.262773 0.228540
O O14 0.677550 0.298825 0.000000
O O15 0.678566 0.917629 0.270199
O O16 0.760142 0.000000 0.276396
O O17 0.742536 0.926513 0.000000
O O18 0.579871 0.862811 0.730389
O O19 0.596869 0.000000 0.724816
O O20 0.615278 0.926327 0.000000
O O21 0.166098 0.344984 0.000000
O O22 0.443874 0.773403 0.500000
O O23 0.500000 0.777333 0.789169
#
# Coordination Sequence:
#
# PCOD9388513 Si02
#       8
#     8   8   8   8   8   8   8   8
#     4   8  12  19  33  52  70  87 112 150 192 226
#     4   8  13  21  37  61  81  93 111 152 207 247
#     4   8  12  16  21  31  55  96 137 160 175 210
#     4   9  16  28  45  61  77  97 124 157 194 238
#     4   8  12  19  34  54  73  90 109 140 182 224
#     4   9  17  30  48  65  79  99 128 159 189 225
#     4   8  12  16  25  44  70  95 119 153 193 229
#     4  11  23  34  43  57  79 105 130 158 190 227
#
# _framework density 17.414306
#
# number of rings (size 3 to 8) (size 9 to 14) (size 15 to 20)
#    0.000    3.375    1.250    3.375    0.000    3.000 
#    0.000    1.250    0.000    0.750    0.000    2.625 
#    0.000    0.500    0.000    7.000    0.000   10.000 
#
# Total GULP energy -356468.321227 kJ/mol
# GULP energy per Si atom -5569.817519 kJ/mol
# Density = 1.737467 g / cm^3
# Si number density = 17.414306 Si / 1000 Ang^3
#
#
#
# Elastic Constant Matrix: (Units=GPa)
#
#
# Indices 1 2 3 4 5 6 
#
# 1 113.4456 88.8630 -2.8206 0.0000 0.0000 0.0000
# 2 88.8630 176.8877 1.4095 0.0000 0.0000 0.0000
# 3 -2.8206 1.4095 41.7228 0.0000 0.0000 0.0000
# 4 0.0000 0.0000 0.0000 -31.0244 0.0000 0.0000
# 5 0.0000 0.0000 0.0000 0.0000 21.7595 0.0000
# 6 0.0000 0.0000 0.0000 0.0000 0.0000 143.3771
#
#
#
# Elastic Compliance Matrix: (Units=1/GPa)
#
#
# Indices 1 2 3 4 5 6 
#
# 1 0.014597 -0.007343 0.001235 0.000000 0.000000 0.000000
# 2 -0.007343 0.009349 -0.000812 0.000000 0.000000 0.000000
# 3 0.001235 -0.000812 0.024079 0.000000 0.000000 0.000000
# 4 0.000000 0.000000 0.000000 -0.032233 0.000000 0.000000
# 5 0.000000 0.000000 0.000000 0.000000 0.045957 0.000000
# 6 0.000000 0.000000 0.000000 0.000000 0.000000 0.006975
#
#
# Mechanical properties :
#
#
# Convention : Reuss Voigt Hill
#
# Bulk Modulus (GPa) = 29.25355 56.32889 42.79122
# Shear Modulus (GPa) = 53.21448 43.12940 48.17194
#
# Velocity S-wave (km/s) = 5.53392 4.98201 5.26520
# Velocity P-wave (km/s) = 7.59390 8.09385 7.84786
#
# Compressibility (1/GPa) = 0.03418389
#
# Stress axis : x y z
#
# Youngs Moduli (GPa) = 68.50499 106.96601 41.53055
#
# Poissons Ratio (x) = 0.78547 -0.05129
# Poissons Ratio (y) = 0.50304 0.03373
# Poissons Ratio (z) = -0.08460 0.08688
#
# Static dielectric constant tensor:
#      x y z
#    x 1.597980 0.000000 0.000000 
#    y 0.000000 1.616130 0.000000 
#    z 0.000000 0.000000 1.664850 
# 
# From -- ./inp_files/12920.got.cif
#   From: 2010.05.17/outbox.cif.g08.bks.cpg/sg47_7_cif.got.tgz:12920.got - 2010.06.03 20:15:42.
