data_PCOD9388989
_publ_section_title
;
Structure prediction by ZEFSAII (Michael W. Deem and Ramdas Pophale) SiO2 
 PCOD9388989
Probable space group: P M M M
;
_chemical_formula_sum "Si O2"
_cell_formula_units_Z 44
_cell_length_a 8.293288
_cell_length_b 31.871598
_cell_length_c 7.396906
_cell_angle_alpha 90.000000
_cell_angle_beta 90.000000
_cell_angle_gamma 90.000000
_cell_volume 1955.152718
_symmetry_space_group_name_H-M "P M M M"
_symmetry_group_IT_number 47
_symmetry_cell_setting 'orthorhombic'
loop_
_space_group_symop_operation_xyz
x,y,z
-x,-y,z
x,-y,-z
-x,y,-z
-x,-y,-z
x,y,-z
-x,y,z
x,-y,z
loop_
_atom_site_type_symbol
_atom_site_label
_atom_site_fract_x
_atom_site_fract_y
_atom_site_fract_z
Si Si1 0.184522 0.221982 0.217001
Si Si2 0.308803 0.133552 0.791226
Si Si3 0.193192 0.954721 0.215007
Si Si4 0.184861 0.686316 0.714444
Si Si5 0.000000 0.451578 0.720403
Si Si6 0.320283 0.401391 0.720852
O O1 0.256236 0.178349 0.286732
O O2 0.258134 0.267415 0.258667
O O3 0.000000 0.224016 0.280484
O O4 0.186702 0.219525 0.000000
O O5 0.500000 0.133198 0.795590
O O6 0.253469 0.089426 0.708917
O O7 0.246559 0.133025 0.000000
O O8 0.000000 0.954538 0.230567
O O9 0.251611 0.000000 0.286446
O O10 0.233611 0.954795 0.000000
O O11 0.171448 0.680676 0.500000
O O12 0.285399 0.646549 0.779548
O O13 0.000000 0.685529 0.787344
O O14 0.164949 0.428494 0.778078
O O15 0.000000 0.500000 0.775192
O O16 0.000000 0.450161 0.500000
O O17 0.321372 0.402584 0.500000
O O18 0.500000 0.414810 0.778620
#
# Coordination Sequence:
#
# PCOD9388989 Si02
#       6
#     8   8   8   8   4   8
#     4   9  17  28  42  60  83 112 144 177 214 257
#     4   9  16  24  34  50  75 105 133 166 210 253
#     4   8  13  21  33  48  67  95 131 166 200 245
#     4   9  16  28  45  62  84 115 148 181 217 257
#     4   9  16  26  40  60  89 121 151 185 222 263
#     4   9  16  26  41  61  86 117 150 183 222 266
#
# _framework density 22.504635
#
# number of rings (size 3 to 8) (size 9 to 14) (size 15 to 20)
#    0.000    3.182    0.909    1.091    0.000    3.636 
#    0.000    3.636    0.000    0.000    0.000    0.000 
#    0.000    2.182    0.000   10.000    0.000   12.545 
#
# Total GULP energy -245271.359177 kJ/mol
# GULP energy per Si atom -5574.349072 kJ/mol
# Density = 2.245341 g / cm^3
# Si number density = 22.504635 Si / 1000 Ang^3
#
#
#
# Elastic Constant Matrix: (Units=GPa)
#
#
# Indices 1 2 3 4 5 6 
#
# 1 94.9595 91.8486 7.4302 0.0000 0.0000 0.0000
# 2 91.8486 234.4795 6.4506 0.0000 0.0000 0.0000
# 3 7.4302 6.4506 73.0185 0.0000 0.0000 0.0000
# 4 0.0000 0.0000 0.0000 7.6975 0.0000 0.0000
# 5 0.0000 0.0000 0.0000 0.0000 -11.5984 0.0000
# 6 0.0000 0.0000 0.0000 0.0000 0.0000 -18.6745
#
#
#
# Elastic Compliance Matrix: (Units=1/GPa)
#
#
# Indices 1 2 3 4 5 6 
#
# 1 0.017050 -0.006647 -0.001148 0.000000 0.000000 0.000000
# 2 -0.006647 0.006867 0.000070 0.000000 0.000000 0.000000
# 3 -0.001148 0.000070 0.013806 0.000000 0.000000 0.000000
# 4 0.000000 0.000000 0.000000 0.129912 0.000000 0.000000
# 5 0.000000 0.000000 0.000000 0.000000 -0.086219 0.000000
# 6 0.000000 0.000000 0.000000 0.000000 0.000000 -0.053549
#
#
# Mechanical properties :
#
#
# Convention : Reuss Voigt Hill
#
# Bulk Modulus (GPa) = 44.89901 68.21294 56.55597
# Shear Modulus (GPa) = 98.54120 15.26680 56.90400
#
# Velocity S-wave (km/s) = 6.62436 2.60741 5.03392
# Velocity P-wave (km/s) = 8.86024 6.28022 7.67936
#
# Compressibility (1/GPa) = 0.02227221
#
# Stress axis : x y z
#
# Youngs Moduli (GPa) = 58.65113 145.63235 72.43338
#
# Poissons Ratio (x) = 0.96804 0.08314
# Poissons Ratio (y) = 0.38986 -0.00505
# Poissons Ratio (z) = 0.06732 -0.01016
#
# Static dielectric constant tensor:
#      x y z
#    x 1.793090 0.000000 0.000000 
#    y 0.000000 1.863450 0.000000 
#    z 0.000000 0.000000 2.002720 
# 
# From -- ./inp_files/2143.got.cif
#   From: 2010.05.17/outbox.cif.g08.bks.cpg/sg47_2_cif.got.tgz:2143.got - 2010.06.03 20:15:42.
