data_PCOD9388700
_publ_section_title
;
Structure prediction by ZEFSAII (Michael W. Deem and Ramdas Pophale) SiO2 
 PCOD9388700
Probable space group: P M M M
;
_chemical_formula_sum "Si O2"
_cell_formula_units_Z 44
_cell_length_a 7.717244
_cell_length_b 30.900450
_cell_length_c 9.796990
_cell_angle_alpha 90.000000
_cell_angle_beta 90.000000
_cell_angle_gamma 90.000000
_cell_volume 2336.252078
_symmetry_space_group_name_H-M "P M M M"
_symmetry_group_IT_number 47
_symmetry_cell_setting 'orthorhombic'
loop_
_space_group_symop_operation_xyz
x,y,z
-x,-y,z
x,-y,-z
-x,y,-z
-x,-y,-z
x,y,-z
-x,y,z
x,-y,z
loop_
_atom_site_type_symbol
_atom_site_label
_atom_site_fract_x
_atom_site_fract_y
_atom_site_fract_z
Si Si1 0.500000 0.051909 0.160959
Si Si2 0.792965 0.197117 0.651712
Si Si3 0.708245 0.723431 0.155489
Si Si4 0.792190 0.098493 0.336209
Si Si5 0.707936 0.371841 0.844772
Si Si6 0.791993 0.547745 0.655171
O O1 0.668853 0.069459 0.242337
O O2 0.500000 0.000000 0.165220
O O3 0.500000 0.065061 0.000000
O O4 0.723114 0.206377 0.500000
O O5 0.753719 0.235985 0.752511
O O6 0.739501 0.148587 0.692041
O O7 0.000000 0.194298 0.642064
O O8 0.500000 0.721881 0.151236
O O9 0.769032 0.675766 0.203928
O O10 0.770673 0.729143 0.000000
O O11 0.766416 0.091201 0.500000
O O12 0.000000 0.093081 0.310527
O O13 0.500000 0.369681 0.851102
O O14 0.749615 0.412169 0.750385
O O15 0.771910 0.378148 0.000000
O O16 0.728438 0.554336 0.500000
O O17 0.730675 0.500000 0.702288
O O18 0.000000 0.545747 0.649359
#
# Coordination Sequence:
#
# PCOD9388700 Si02
#       6
#     4   8   8   8   8   8
#     4  11  25  41  59  89 125 159 197 243 298 355
#     4   9  19  35  54  79 109 139 176 222 269 317
#     4   9  19  34  50  72 104 139 173 210 255 310
#     4   9  20  40  63  87 118 156 199 247 294 345
#     4   9  19  35  51  70 100 134 168 208 253 305
#     4   9  19  35  52  71  96 125 160 206 259 312
#
# _framework density 18.833584999999999
#
# number of rings (size 3 to 8) (size 9 to 14) (size 15 to 20)
#    0.000    2.818    0.000    3.000    1.273    5.818 
#    0.000   11.818    0.000    0.000    0.000    0.000 
#    0.000    0.000    0.000    0.000    0.000    0.000 
#
# Total GULP energy -245191.140875 kJ/mol
# GULP energy per Si atom -5572.525929 kJ/mol
# Density = 1.879072 g / cm^3
# Si number density = 18.833585 Si / 1000 Ang^3
#
#
#
# Elastic Constant Matrix: (Units=GPa)
#
#
# Indices 1 2 3 4 5 6 
#
# 1 55.9451 39.5012 35.1982 0.0000 0.0000 0.0000
# 2 39.5012 163.7764 102.4921 0.0000 0.0000 0.0000
# 3 35.1982 102.4921 96.9958 0.0000 0.0000 0.0000
# 4 0.0000 0.0000 0.0000 40.0681 0.0000 0.0000
# 5 0.0000 0.0000 0.0000 0.0000 26.9161 0.0000
# 6 0.0000 0.0000 0.0000 0.0000 0.0000 35.9607
#
#
#
# Elastic Compliance Matrix: (Units=1/GPa)
#
#
# Indices 1 2 3 4 5 6 
#
# 1 0.023215 -0.000966 -0.007403 0.000000 0.000000 0.000000
# 2 -0.000966 0.018066 -0.018739 0.000000 0.000000 0.000000
# 3 -0.007403 -0.018739 0.032797 0.000000 0.000000 0.000000
# 4 0.000000 0.000000 0.000000 0.024957 0.000000 0.000000
# 5 0.000000 0.000000 0.000000 0.000000 0.037152 0.000000
# 6 0.000000 0.000000 0.000000 0.000000 0.000000 0.027808
#
#
# Mechanical properties :
#
#
# Convention : Reuss Voigt Hill
#
# Bulk Modulus (GPa) = 50.35067 74.56669 62.45868
# Shear Modulus (GPa) = 22.23874 29.89071 26.06472
#
# Velocity S-wave (km/s) = 3.44001 3.98816 3.72418
# Velocity P-wave (km/s) = 6.52463 7.80292 7.19223
#
# Compressibility (1/GPa) = 0.01986071
#
# Stress axis : x y z
#
# Youngs Moduli (GPa) = 43.07619 55.35316 30.49046
#
# Poissons Ratio (x) = 0.05347 0.22574
# Poissons Ratio (y) = 0.04161 0.57136
# Poissons Ratio (z) = 0.31891 1.03726
#
# Static dielectric constant tensor:
#      x y z
#    x 1.688810 0.000000 0.000000 
#    y 0.000000 1.665800 0.000000 
#    z 0.000000 0.000000 1.653440 
# 
# From -- ./inp_files/2229.got.cif
#   From: 2010.05.17/outbox.cif.g08.bks.cpg/sg47_2_cif.got.tgz:2229.got - 2010.06.03 20:15:42.
