data_PCOD9388528
_publ_section_title
;
Structure prediction by ZEFSAII (Michael W. Deem and Ramdas Pophale) SiO2 
 PCOD9388528
Probable space group: P M M M
;
_chemical_formula_sum "Si O2"
_cell_formula_units_Z 56
_cell_length_a 15.707349
_cell_length_b 20.767154
_cell_length_c 8.934916
_cell_angle_alpha 90.000000
_cell_angle_beta 90.000000
_cell_angle_gamma 90.000000
_cell_volume 2914.542219
_symmetry_space_group_name_H-M "P M M M"
_symmetry_group_IT_number 47
_symmetry_cell_setting 'orthorhombic'
loop_
_space_group_symop_operation_xyz
x,y,z
-x,-y,z
x,-y,-z
-x,y,-z
-x,-y,-z
x,y,-z
-x,y,z
x,-y,z
loop_
_atom_site_type_symbol
_atom_site_label
_atom_site_fract_x
_atom_site_fract_y
_atom_site_fract_z
Si Si1 0.404605 0.668192 0.178255
Si Si2 0.267090 0.573625 0.677300
Si Si3 0.135718 0.752135 0.327138
Si Si4 0.719373 0.929866 0.682791
Si Si5 0.665899 0.790821 0.675277
Si Si6 0.091236 0.101620 0.680362
Si Si7 0.095107 0.619996 0.177889
O O1 0.500000 0.647218 0.220743
O O2 0.333156 0.623105 0.250491
O O3 0.390203 0.741178 0.232990
O O4 0.396279 0.665449 0.000000
O O5 0.264765 0.584940 0.500000
O O6 0.293259 0.500000 0.706114
O O7 0.172883 0.584751 0.742000
O O8 0.116150 0.734990 0.500000
O O9 0.237099 0.764048 0.316614
O O10 0.095641 0.821590 0.295237
O O11 0.105818 0.695085 0.221681
O O12 0.721120 0.926853 0.500000
O O13 0.670854 0.864920 0.729255
O O14 0.818270 0.925315 0.733722
O O15 0.684772 0.000000 0.725667
O O16 0.641117 0.790087 0.500000
O O17 0.091330 0.091466 0.500000
O O18 0.000000 0.077295 0.737653
O O19 0.000000 0.598890 0.223183
O O20 0.102958 0.612111 0.000000
#
# Coordination Sequence:
#
# PCOD9388528 Si02
#       7
#     8   8   8   8   8   8   8
#     4  11  24  41  64  93 120 147 182 229 289 353
#     4  11  25  44  65  89 118 153 192 234 281 335
#     4   9  16  28  48  73 103 143 191 240 287 333
#     4   8  14  24  40  67 104 145 189 236 285 336
#     4   9  17  31  54  82 111 147 190 235 285 338
#     4   8  13  20  33  59  96 138 184 233 283 331
#     4  11  23  36  54  83 118 157 199 240 284 333
#
# _framework density 19.213996999999999
#
# number of rings (size 3 to 8) (size 9 to 14) (size 15 to 20)
#    0.000    2.429    1.429    3.429    0.000    4.857 
#    0.000    4.286    0.000    0.857    0.000    3.000 
#    0.000    0.000    0.000   15.143    0.000   11.429 
#
# Total GULP energy -312389.367732 kJ/mol
# GULP energy per Si atom -5578.381567 kJ/mol
# Density = 1.917026 g / cm^3
# Si number density = 19.213997 Si / 1000 Ang^3
#
#
#
# Elastic Constant Matrix: (Units=GPa)
#
#
# Indices 1 2 3 4 5 6 
#
# 1 77.3465 50.5388 30.0900 0.0000 0.0000 0.0000
# 2 50.5388 102.1412 37.9846 0.0000 0.0000 0.0000
# 3 30.0900 37.9846 25.0151 0.0000 0.0000 0.0000
# 4 0.0000 0.0000 0.0000 -30.6219 0.0000 0.0000
# 5 0.0000 0.0000 0.0000 0.0000 5.3267 0.0000
# 6 0.0000 0.0000 0.0000 0.0000 0.0000 16.4677
#
#
#
# Elastic Compliance Matrix: (Units=1/GPa)
#
#
# Indices 1 2 3 4 5 6 
#
# 1 0.024616 -0.002684 -0.025535 0.000000 0.000000 0.000000
# 2 -0.002684 0.022783 -0.031367 0.000000 0.000000 0.000000
# 3 -0.025535 -0.031367 0.118321 0.000000 0.000000 0.000000
# 4 0.000000 0.000000 0.000000 -0.032656 0.000000 0.000000
# 5 0.000000 0.000000 0.000000 0.000000 0.187735 0.000000
# 6 0.000000 0.000000 0.000000 0.000000 0.000000 0.060725
#
#
# Mechanical properties :
#
#
# Convention : Reuss Voigt Hill
#
# Bulk Modulus (GPa) = 21.48287 49.08106 35.28196
# Shear Modulus (GPa) = 9.68595 3.96045 6.82320
#
# Velocity S-wave (km/s) = 2.24767 1.43726 1.88650
# Velocity P-wave (km/s) = 4.23570 5.32486 4.81120
#
# Compressibility (1/GPa) = 0.04654872
#
# Stress axis : x y z
#
# Youngs Moduli (GPa) = 40.62339 43.89174 8.45161
#
# Poissons Ratio (x) = 0.11781 0.21581
# Poissons Ratio (y) = 0.10904 0.26510
# Poissons Ratio (z) = 1.03730 1.37676
#
# Static dielectric constant tensor:
#      x y z
#    x 1.682440 0.000000 0.000000 
#    y 0.000000 1.686430 0.000000 
#    z 0.000000 0.000000 1.639130 
# 
# From -- ./inp_files/7280.got.cif
#   From: 2010.05.17/outbox.cif.g08.bks.cpg/sg47_4_cif.got.tgz:7280.got - 2010.06.03 20:15:42.
