data_PCOD9388501
_publ_section_title
;
Structure prediction by ZEFSAII (Michael W. Deem and Ramdas Pophale) SiO2 
 PCOD9388501
Probable space group: P M M M
;
_chemical_formula_sum "Si O2"
_cell_formula_units_Z 48
_cell_length_a 9.930733
_cell_length_b 8.352639
_cell_length_c 30.735927
_cell_angle_alpha 90.000000
_cell_angle_beta 90.000000
_cell_angle_gamma 90.000000
_cell_volume 2549.478379
_symmetry_space_group_name_H-M "P M M M"
_symmetry_group_IT_number 47
_symmetry_cell_setting 'orthorhombic'
loop_
_space_group_symop_operation_xyz
x,y,z
-x,-y,z
x,-y,-z
-x,y,-z
-x,-y,-z
x,y,-z
-x,y,z
x,-y,z
loop_
_atom_site_type_symbol
_atom_site_label
_atom_site_fract_x
_atom_site_fract_y
_atom_site_fract_z
Si Si1 0.157058 0.691244 0.700168
Si Si2 0.500000 0.308208 0.550626
Si Si3 0.000000 0.805053 0.548883
Si Si4 0.656463 0.191628 0.779217
Si Si5 0.249340 0.192088 0.393376
Si Si6 0.156878 0.694236 0.142372
Si Si7 0.836907 0.311296 0.953287
O O1 0.152515 0.500000 0.704047
O O2 0.252908 0.756268 0.738165
O O3 0.223917 0.737870 0.654270
O O4 0.000000 0.749241 0.702239
O O5 0.500000 0.500000 0.549223
O O6 0.500000 0.250765 0.500000
O O7 0.623841 0.247543 0.579170
O O8 0.126992 0.754899 0.576336
O O9 0.000000 0.744395 0.500000
O O10 0.000000 0.000000 0.547108
O O11 0.500000 0.249396 0.777376
O O12 0.738714 0.251027 0.821323
O O13 0.651991 0.000000 0.780063
O O14 0.250569 0.000000 0.389274
O O15 0.155228 0.500000 0.141365
O O16 0.200723 0.753593 0.094153
O O17 0.000000 0.743387 0.150845
O O18 0.800441 0.500000 0.953640
O O19 0.000000 0.305152 0.953282
O O20 0.791249 0.241822 0.000000
#
# Coordination Sequence:
#
# PCOD9388501 Si02
#       7
#     8   4   4   8   8   8   8
#     4  11  24  42  64  89 117 146 182 230 289 350
#     4  11  25  43  61  87 125 165 201 237 280 329
#     4   9  18  34  59  91 121 149 187 231 274 323
#     4  11  25  41  57  79 109 147 192 236 281 337
#     4  11  22  39  64  91 121 155 193 236 281 333
#     4   9  17  31  54  84 114 144 183 231 284 338
#     4   7  10  19  40  73 110 143 176 220 274 330
#
# _framework density 18.827379000000001
#
# number of rings (size 3 to 8) (size 9 to 14) (size 15 to 20)
#    0.000    2.167    0.833    4.250    1.167    6.000 
#    0.000    0.000    0.000    3.000    0.000    5.833 
#    0.000    0.000    0.000    0.000    0.000    0.000 
#
# Total GULP energy -267567.730935 kJ/mol
# GULP energy per Si atom -5574.327728 kJ/mol
# Density = 1.878453 g / cm^3
# Si number density = 18.827379 Si / 1000 Ang^3
#
#
#
# Elastic Constant Matrix: (Units=GPa)
#
#
# Indices 1 2 3 4 5 6 
#
# 1 153.7366 21.9857 100.8845 0.0000 0.0000 0.0000
# 2 21.9857 28.3590 21.2879 0.0000 0.0000 0.0000
# 3 100.8845 21.2879 222.1059 0.0000 0.0000 0.0000
# 4 0.0000 0.0000 0.0000 -26.8549 0.0000 0.0000
# 5 0.0000 0.0000 0.0000 0.0000 21.4691 0.0000
# 6 0.0000 0.0000 0.0000 0.0000 0.0000 3.4340
#
#
#
# Elastic Compliance Matrix: (Units=1/GPa)
#
#
# Indices 1 2 3 4 5 6 
#
# 1 0.009790 -0.004581 -0.004008 0.000000 0.000000 0.000000
# 2 -0.004581 0.040140 -0.001766 0.000000 0.000000 0.000000
# 3 -0.004008 -0.001766 0.006492 0.000000 0.000000 0.000000
# 4 0.000000 0.000000 0.000000 -0.037237 0.000000 0.000000
# 5 0.000000 0.000000 0.000000 0.000000 0.046578 0.000000
# 6 0.000000 0.000000 0.000000 0.000000 0.000000 0.291202
#
#
# Mechanical properties :
#
#
# Convention : Reuss Voigt Hill
#
# Bulk Modulus (GPa) = 28.00248 76.94643 52.47446
# Shear Modulus (GPa) = 12.83439 16.94587 14.89013
#
# Velocity S-wave (km/s) = 2.61375 3.00336 2.81530
# Velocity P-wave (km/s) = 4.90046 7.27908 6.20482
#
# Compressibility (1/GPa) = 0.03571112
#
# Stress axis : x y z
#
# Youngs Moduli (GPa) = 102.14929 24.91292 154.03715
#
# Poissons Ratio (x) = 0.11413 0.61731
# Poissons Ratio (y) = 0.46797 0.27208
# Poissons Ratio (z) = 0.40937 0.04400
#
# Static dielectric constant tensor:
#      x y z
#    x 1.693880 0.000000 0.000000 
#    y 0.000000 1.660130 0.000000 
#    z 0.000000 0.000000 1.682940 
# 
# From -- ./inp_files/34039.got.cif
#   From: 2010.05.17/outbox.cif.g08.bks.cpg/sg47_18_cif.got.tgz:34039.got - 2010.06.03 20:15:42.
