data_PCOD9388685
_publ_section_title
;
Structure prediction by ZEFSAII (Michael W. Deem and Ramdas Pophale) SiO2 
 PCOD9388685
Probable space group: P M M M
;
_chemical_formula_sum "Si O2"
_cell_formula_units_Z 36
_cell_length_a 7.516562
_cell_length_b 7.977739
_cell_length_c 26.863108
_cell_angle_alpha 90.000000
_cell_angle_beta 90.000000
_cell_angle_gamma 90.000000
_cell_volume 1610.850833
_symmetry_space_group_name_H-M "P M M M"
_symmetry_group_IT_number 47
_symmetry_cell_setting 'orthorhombic'
loop_
_space_group_symop_operation_xyz
x,y,z
-x,-y,z
x,-y,-z
-x,y,-z
-x,-y,-z
x,y,-z
-x,y,z
x,-y,z
loop_
_atom_site_type_symbol
_atom_site_label
_atom_site_fract_x
_atom_site_fract_y
_atom_site_fract_z
Si Si1 0.703669 0.698615 0.659603
Si Si2 0.296472 0.799030 0.764879
Si Si3 0.712903 0.809046 0.127362
Si Si4 0.789114 0.500000 0.055921
Si Si5 0.709191 0.798625 0.446420
O O1 0.500000 0.770996 0.659020
O O2 0.692636 0.500000 0.661058
O O3 0.787202 0.754115 0.711869
O O4 0.786893 0.744907 0.606503
O O5 0.500000 0.730651 0.762933
O O6 0.217007 0.750079 0.818320
O O7 0.304758 0.000000 0.767231
O O8 0.500000 0.821775 0.133560
O O9 0.742832 0.668326 0.086187
O O10 0.776421 0.000000 0.116071
O O11 0.000000 0.500000 0.051997
O O12 0.713133 0.500000 0.000000
O O13 0.782685 0.739867 0.500000
O O14 0.500000 0.746758 0.445896
O O15 0.714547 0.000000 0.447030
#
# Coordination Sequence:
#
# PCOD9388685 Si02
#       5
#     8   8   8   4   8
#     4   9  15  19  27  47  72 100 136 183 239 291
#     4   8  14  25  41  62  87 114 148 195 249 299
#     4   9  19  36  59  85 110 140 180 226 271 313
#     4  11  25  41  57  81 113 149 182 213 258 316
#     4   8  13  20  27  34  52  91 141 187 228 274
#
# _framework density 22.348438000000002
#
# number of rings (size 3 to 8) (size 9 to 14) (size 15 to 20)
#    0.000    3.222    0.000    3.000    1.556    4.889 
#    0.000    4.444    0.000    0.000    0.000    0.000 
#    0.000    0.000    0.000    0.000    0.000    2.222 
#
# Total GULP energy -200550.305900 kJ/mol
# GULP energy per Si atom -5570.841831 kJ/mol
# Density = 2.229757 g / cm^3
# Si number density = 22.348438 Si / 1000 Ang^3
#
#
#
# Elastic Constant Matrix: (Units=GPa)
#
#
# Indices 1 2 3 4 5 6 
#
# 1 60.7927 3.8630 14.6240 0.0000 0.0000 0.0000
# 2 3.8630 73.1795 88.3046 0.0000 0.0000 0.0000
# 3 14.6240 88.3046 284.1809 0.0000 0.0000 0.0000
# 4 0.0000 0.0000 0.0000 58.6055 0.0000 0.0000
# 5 0.0000 0.0000 0.0000 0.0000 85.3350 0.0000
# 6 0.0000 0.0000 0.0000 0.0000 0.0000 836.7918
#
#
#
# Elastic Compliance Matrix: (Units=1/GPa)
#
#
# Indices 1 2 3 4 5 6 
#
# 1 0.016658 0.000248 -0.000934 0.000000 0.000000 0.000000
# 2 0.000248 0.021866 -0.006807 0.000000 0.000000 0.000000
# 3 -0.000934 -0.006807 0.005682 0.000000 0.000000 0.000000
# 4 0.000000 0.000000 0.000000 0.017063 0.000000 0.000000
# 5 0.000000 0.000000 0.000000 0.000000 0.011719 0.000000
# 6 0.000000 0.000000 0.000000 0.000000 0.000000 0.001195
#
#
# Mechanical properties :
#
#
# Convention : Reuss Voigt Hill
#
# Bulk Modulus (GPa) = 34.22358 70.19293 52.20826
# Shear Modulus (GPa) = 50.55065 216.90389 133.72727
#
# Velocity S-wave (km/s) = 4.76114 9.86236 7.74386
# Velocity P-wave (km/s) = 6.75066 12.69507 10.16701
#
# Compressibility (1/GPa) = 0.02921962
#
# Stress axis : x y z
#
# Youngs Moduli (GPa) = 60.03004 45.73258 175.98700
#
# Poissons Ratio (x) = -0.01135 0.16443
# Poissons Ratio (y) = -0.01489 1.19800
# Poissons Ratio (z) = 0.05609 0.31132
#
# Static dielectric constant tensor:
#      x y z
#    x 1.905990 0.000000 0.000000 
#    y 0.000000 1.778790 0.000000 
#    z 0.000000 0.000000 1.911030 
# 
# From -- ./inp_files/31653.got.cif
#   From: 2010.05.17/outbox.cif.g08.bks.cpg/sg47_16_cif.got.tgz:31653.got - 2010.06.03 20:15:42.
