data_PCOD9388476
_publ_section_title
;
Structure prediction by ZEFSAII (Michael W. Deem and Ramdas Pophale) SiO2 
 PCOD9388476
Probable space group: P M M M
;
_chemical_formula_sum "Si O2"
_cell_formula_units_Z 48
_cell_length_a 29.939561
_cell_length_b 10.319434
_cell_length_c 8.393651
_cell_angle_alpha 90.000000
_cell_angle_beta 90.000000
_cell_angle_gamma 90.000000
_cell_volume 2593.296737
_symmetry_space_group_name_H-M "P M M M"
_symmetry_group_IT_number 47
_symmetry_cell_setting 'orthorhombic'
loop_
_space_group_symop_operation_xyz
x,y,z
-x,-y,z
x,-y,-z
-x,y,-z
-x,-y,-z
x,y,-z
-x,y,z
x,-y,z
loop_
_atom_site_type_symbol
_atom_site_label
_atom_site_fract_x
_atom_site_fract_y
_atom_site_fract_z
Si Si1 0.051244 0.500000 0.689516
Si Si2 0.896695 0.750124 0.810843
Si Si3 0.800052 0.849227 0.194922
Si Si4 0.724720 0.352068 0.805746
Si Si5 0.449310 0.852155 0.692094
Si Si6 0.622484 0.353183 0.807910
Si Si7 0.946973 0.000000 0.688050
O O1 0.047921 0.500000 0.500000
O O2 0.079088 0.374590 0.740649
O O3 0.000000 0.500000 0.753645
O O4 0.846551 0.783067 0.753724
O O5 0.926115 0.874295 0.768105
O O6 0.894266 0.733008 0.000000
O O7 0.759130 0.758161 0.247293
O O8 0.797523 0.000000 0.245754
O O9 0.800049 0.851143 0.000000
O O10 0.736564 0.500000 0.757365
O O11 0.673568 0.325936 0.756374
O O12 0.725371 0.351655 0.000000
O O13 0.449292 0.851904 0.500000
O O14 0.500000 0.819655 0.744379
O O15 0.412876 0.751037 0.749986
O O16 0.439636 0.000000 0.744305
O O17 0.611222 0.500000 0.755777
O O18 0.622531 0.352442 0.000000
O O19 0.936399 0.000000 0.500000
O O20 0.000000 0.000000 0.705719
#
# Coordination Sequence:
#
# PCOD9388476 Si02
#       7
#     4   8   8   8   8   8   4
#     4  11  25  43  59  79 111 149 185 221 272 337
#     4  11  22  37  59  88 114 139 181 234 276 315
#     4   9  17  30  49  79 112 136 167 215 265 310
#     4   8  15  28  48  74 106 141 172 209 260 316
#     4   9  19  35  52  71  99 138 182 224 267 317
#     4   9  18  32  50  78 110 137 172 218 265 313
#     4  11  23  39  59  81 111 153 187 215 268 335
#
# _framework density 18.509257000000002
#
# number of rings (size 3 to 8) (size 9 to 14) (size 15 to 20)
#    0.000    2.500    0.833    3.000    1.167    5.333 
#    0.000    4.167    0.000    2.000    0.000    0.000 
#    0.000    0.000    0.000    0.000    0.000    0.000 
#
# Total GULP energy -267754.141898 kJ/mol
# GULP energy per Si atom -5578.211290 kJ/mol
# Density = 1.846713 g / cm^3
# Si number density = 18.509257 Si / 1000 Ang^3
#
#
#
# Elastic Constant Matrix: (Units=GPa)
#
#
# Indices 1 2 3 4 5 6 
#
# 1 153.6795 129.4316 26.6965 0.0000 0.0000 0.0000
# 2 129.4316 190.2501 22.6573 0.0000 0.0000 0.0000
# 3 26.6965 22.6573 11.3101 0.0000 0.0000 0.0000
# 4 0.0000 0.0000 0.0000 19.1108 0.0000 0.0000
# 5 0.0000 0.0000 0.0000 0.0000 152.6159 0.0000
# 6 0.0000 0.0000 0.0000 0.0000 0.0000 39.8025
#
#
#
# Elastic Compliance Matrix: (Units=1/GPa)
#
#
# Indices 1 2 3 4 5 6 
#
# 1 0.019668 -0.010312 -0.025767 0.000000 0.000000 0.000000
# 2 -0.010312 0.012310 -0.000319 0.000000 0.000000 0.000000
# 3 -0.025767 -0.000319 0.149877 0.000000 0.000000 0.000000
# 4 0.000000 0.000000 0.000000 0.052326 0.000000 0.000000
# 5 0.000000 0.000000 0.000000 0.000000 0.006552 0.000000
# 6 0.000000 0.000000 0.000000 0.000000 0.000000 0.025124
#
#
# Mechanical properties :
#
#
# Convention : Reuss Voigt Hill
#
# Bulk Modulus (GPa) = 9.16939 79.20118 44.18528
# Shear Modulus (GPa) = 13.33305 54.06946 33.70125
#
# Velocity S-wave (km/s) = 2.68684 5.41069 4.27169
# Velocity P-wave (km/s) = 3.81971 9.05080 6.94648
#
# Compressibility (1/GPa) = 0.10905847
#
# Stress axis : x y z
#
# Youngs Moduli (GPa) = 50.84338 81.23594 6.67212
#
# Poissons Ratio (x) = 0.83771 0.17192
# Poissons Ratio (y) = 0.52430 0.00213
# Poissons Ratio (z) = 1.31009 0.02593
#
# Static dielectric constant tensor:
#      x y z
#    x 1.631600 0.000000 0.000000 
#    y 0.000000 1.602500 0.000000 
#    z 0.000000 0.000000 1.644340 
# 
# From -- ./inp_files/13846.got.cif
#   From: 2010.05.17/outbox.cif.g08.bks.cpg/sg47_7_cif.got.tgz:13846.got - 2010.06.03 20:15:42.
