data_PCOD9388950
_publ_section_title
;
Structure prediction by ZEFSAII (Michael W. Deem and Ramdas Pophale) SiO2 
 PCOD9388950
Probable space group: P M M M
;
_chemical_formula_sum "Si O2"
_cell_formula_units_Z 64
_cell_length_a 14.604272
_cell_length_b 7.379467
_cell_length_c 29.723963
_cell_angle_alpha 90.000000
_cell_angle_beta 90.000000
_cell_angle_gamma 90.000000
_cell_volume 3203.403310
_symmetry_space_group_name_H-M "P M M M"
_symmetry_group_IT_number 47
_symmetry_cell_setting 'orthorhombic'
loop_
_space_group_symop_operation_xyz
x,y,z
-x,-y,z
x,-y,-z
-x,y,-z
-x,-y,-z
x,y,-z
-x,y,z
x,-y,z
loop_
_atom_site_type_symbol
_atom_site_label
_atom_site_fract_x
_atom_site_fract_y
_atom_site_fract_z
Si Si1 0.604047 0.719229 0.783293
Si Si2 0.104639 0.216185 0.806348
Si Si3 0.104826 0.779596 0.450948
Si Si4 0.247435 0.221846 0.622393
Si Si5 0.725321 0.717096 0.867142
Si Si6 0.396023 0.279110 0.051672
Si Si7 0.227229 0.788955 0.276747
Si Si8 0.605811 0.779449 0.449694
O O1 0.500000 0.782126 0.779862
O O2 0.602715 0.500000 0.784077
O O3 0.654948 0.780987 0.828605
O O4 0.670937 0.776657 0.743465
O O5 0.172646 0.243693 0.848892
O O6 0.158636 0.286932 0.761766
O O7 0.000000 0.284019 0.810825
O O8 0.098727 0.000000 0.801222
O O9 0.140201 0.722835 0.500000
O O10 0.163705 0.721768 0.409068
O O11 0.000000 0.723501 0.447276
O O12 0.106611 0.000000 0.450950
O O13 0.232181 0.287500 0.673051
O O14 0.335288 0.279858 0.593116
O O15 0.251103 0.000000 0.624410
O O16 0.719963 0.500000 0.868447
O O17 0.683530 0.782140 0.914396
O O18 0.500000 0.226598 0.065740
O O19 0.395601 0.500000 0.051759
O O20 0.382455 0.222095 0.000000
O O21 0.201666 0.000000 0.281242
O O22 0.637228 0.722833 0.500000
O O23 0.500000 0.727417 0.445162
O O24 0.609974 0.000000 0.450050
#
# Coordination Sequence:
#
# PCOD9388950 Si02
#       8
#     8   8   8   8   8   8   8   8
#     4   9  17  29  44  61  84 114 142 168 202 245
#     4   9  18  32  46  59  81 114 148 182 221 261
#     4   8  13  20  30  46  69  97 126 153 187 238
#     4   9  15  22  33  49  71  98 125 157 199 241
#     4   9  16  27  46  70  90 110 144 183 210 242
#     4   8  13  22  40  69 101 125 142 167 210 259
#     4   9  18  29  41  61  84 106 137 176 215 252
#     4   8  13  20  29  42  63  93 124 149 180 229
#
# _framework density 19.978750999999999
#
# number of rings (size 3 to 8) (size 9 to 14) (size 15 to 20)
#    0.000    3.375    0.000    1.875    0.000    4.500 
#    0.000    3.750    0.000    1.875    0.000    3.500 
#    0.000    2.000    0.000    8.250    0.000    6.500 
#
# Total GULP energy -356650.405629 kJ/mol
# GULP energy per Si atom -5572.662588 kJ/mol
# Density = 1.993328 g / cm^3
# Si number density = 19.978751 Si / 1000 Ang^3
#
#
#
# Elastic Constant Matrix: (Units=GPa)
#
#
# Indices 1 2 3 4 5 6 
#
# 1 164.0884 0.2422 100.8898 0.0000 0.0000 0.0000
# 2 0.2422 69.0119 5.8362 0.0000 0.0000 0.0000
# 3 100.8898 5.8362 162.2045 0.0000 0.0000 0.0000
# 4 0.0000 0.0000 0.0000 3.8385 0.0000 0.0000
# 5 0.0000 0.0000 0.0000 0.0000 28.1927 0.0000
# 6 0.0000 0.0000 0.0000 0.0000 0.0000 5.8385
#
#
#
# Elastic Compliance Matrix: (Units=1/GPa)
#
#
# Indices 1 2 3 4 5 6 
#
# 1 0.009884 0.000487 -0.006166 0.000000 0.000000 0.000000
# 2 0.000487 0.014558 -0.000827 0.000000 0.000000 0.000000
# 3 -0.006166 -0.000827 0.010030 0.000000 0.000000 0.000000
# 4 0.000000 0.000000 0.000000 0.260521 0.000000 0.000000
# 5 0.000000 0.000000 0.000000 0.000000 0.035470 0.000000
# 6 0.000000 0.000000 0.000000 0.000000 0.000000 0.171276
#
#
# Mechanical properties :
#
#
# Convention : Reuss Voigt Hill
#
# Bulk Modulus (GPa) = 46.59433 67.69348 57.14390
# Shear Modulus (GPa) = 9.58030 26.79638 18.18834
#
# Velocity S-wave (km/s) = 2.19218 3.66627 3.02053
# Velocity P-wave (km/s) = 5.45712 7.20266 6.38978
#
# Compressibility (1/GPa) = 0.02146184
#
# Stress axis : x y z
#
# Youngs Moduli (GPa) = 101.16897 68.68861 99.70366
#
# Poissons Ratio (x) = -0.03343 0.61473
# Poissons Ratio (y) = -0.04924 0.08241
# Poissons Ratio (z) = 0.62376 0.05677
#
# Static dielectric constant tensor:
#      x y z
#    x 1.694860 0.000000 0.000000 
#    y 0.000000 1.811080 0.000000 
#    z 0.000000 0.000000 1.698600 
# 
# From -- ./inp_files/34671.got.cif
#   From: 2010.05.17/outbox.cif.g08.bks.cpg/sg47_18_cif.got.tgz:34671.got - 2010.06.03 20:15:42.
