data_PCOD9388063
_publ_section_title
;
Structure prediction by ZEFSAII (Michael W. Deem and Ramdas Pophale) SiO2 
 PCOD9388063
Probable space group: P M M M
;
_chemical_formula_sum "Si O2"
_cell_formula_units_Z 48
_cell_length_a 30.222343
_cell_length_b 8.714825
_cell_length_c 9.912600
_cell_angle_alpha 90.000000
_cell_angle_beta 90.000000
_cell_angle_gamma 90.000000
_cell_volume 2610.804679
_symmetry_space_group_name_H-M "P M M M"
_symmetry_group_IT_number 47
_symmetry_cell_setting 'orthorhombic'
loop_
_space_group_symop_operation_xyz
x,y,z
-x,-y,z
x,-y,-z
-x,y,-z
-x,-y,-z
x,y,-z
-x,y,z
x,-y,z
loop_
_atom_site_type_symbol
_atom_site_label
_atom_site_fract_x
_atom_site_fract_y
_atom_site_fract_z
Si Si1 0.052576 0.322872 0.500000
Si Si2 0.102936 0.817776 0.746005
Si Si3 0.197435 0.684448 0.341793
Si Si4 0.641599 0.815669 0.343744
Si Si5 0.548221 0.680281 0.663270
Si Si6 0.276295 0.186107 0.158248
Si Si7 0.051721 0.684204 0.000000
O O1 0.069032 0.500000 0.500000
O O2 0.071002 0.232125 0.373965
O O3 0.000000 0.327602 0.500000
O O4 0.150752 0.747699 0.711740
O O5 0.079195 0.746154 0.874470
O O6 0.106900 0.000000 0.758850
O O7 0.203572 0.730170 0.500000
O O8 0.197311 0.500000 0.336980
O O9 0.235470 0.748875 0.244329
O O10 0.648849 0.761474 0.500000
O O11 0.593092 0.763423 0.295531
O O12 0.679623 0.765363 0.240246
O O13 0.642405 0.000000 0.348198
O O14 0.547475 0.691838 0.500000
O O15 0.500000 0.738219 0.711320
O O16 0.551165 0.500000 0.696518
O O17 0.274265 0.000000 0.160738
O O18 0.276108 0.232541 0.000000
O O19 0.051513 0.500000 0.000000
O O20 0.000000 0.734397 0.000000
#
# Coordination Sequence:
#
# PCOD9388063 Si02
#       7
#     4   8   8   8   8   8   4
#     4  11  23  41  65  93 127 163 199 241 292 347
#     4  12  25  41  65  94 124 159 200 246 293 346
#     4  11  24  42  64  88 117 152 193 240 293 352
#     4   9  17  30  50  77 108 143 183 232 286 340
#     4   8  14  25  43  70 104 140 179 227 281 335
#     4  10  22  39  59  83 114 150 190 237 291 350
#     4  11  25  45  67  91 125 167 203 241 292 347
#
# _framework density 18.385135999999999
#
# number of rings (size 3 to 8) (size 9 to 14) (size 15 to 20)
#    0.000    1.833    0.833    4.000    1.167    6.333 
#    0.000    3.333    0.000    0.500    0.000    3.500 
#    0.000    0.000    0.000    0.000    0.000    0.000 
#
# Total GULP energy -267839.547857 kJ/mol
# GULP energy per Si atom -5579.990580 kJ/mol
# Density = 1.834329 g / cm^3
# Si number density = 18.385136 Si / 1000 Ang^3
#
#
#
# Elastic Constant Matrix: (Units=GPa)
#
#
# Indices 1 2 3 4 5 6 
#
# 1 175.9985 41.4145 94.4177 0.0000 0.0000 0.0000
# 2 41.4145 42.6001 38.6765 0.0000 0.0000 0.0000
# 3 94.4177 38.6765 156.9641 0.0000 0.0000 0.0000
# 4 0.0000 0.0000 0.0000 79.9893 0.0000 0.0000
# 5 0.0000 0.0000 0.0000 0.0000 21.5559 0.0000
# 6 0.0000 0.0000 0.0000 0.0000 0.0000 36.3778
#
#
#
# Elastic Compliance Matrix: (Units=1/GPa)
#
#
# Indices 1 2 3 4 5 6 
#
# 1 0.009154 -0.005024 -0.004268 0.000000 0.000000 0.000000
# 2 -0.005024 0.032996 -0.005108 0.000000 0.000000 0.000000
# 3 -0.004268 -0.005108 0.010197 0.000000 0.000000 0.000000
# 4 0.000000 0.000000 0.000000 0.012502 0.000000 0.000000
# 5 0.000000 0.000000 0.000000 0.000000 0.046391 0.000000
# 6 0.000000 0.000000 0.000000 0.000000 0.000000 0.027489
#
#
# Mechanical properties :
#
#
# Convention : Reuss Voigt Hill
#
# Bulk Modulus (GPa) = 42.47034 80.50888 61.48961
# Shear Modulus (GPa) = 28.50970 40.98821 34.74896
#
# Velocity S-wave (km/s) = 3.94216 4.72680 4.35219
# Velocity P-wave (km/s) = 6.62354 8.58344 7.66638
#
# Compressibility (1/GPa) = 0.02354584
#
# Stress axis : x y z
#
# Youngs Moduli (GPa) = 109.24305 30.30667 98.06668
#
# Poissons Ratio (x) = 0.15226 0.41859
# Poissons Ratio (y) = 0.54882 0.50096
# Poissons Ratio (z) = 0.46629 0.15482
#
# Static dielectric constant tensor:
#      x y z
#    x 1.636970 0.000000 0.000000 
#    y 0.000000 1.622680 0.000000 
#    z 0.000000 0.000000 1.535050 
# 
# From -- ./inp_files/2804.got.cif
#   From: 2010.05.17/outbox.cif.g08.bks.cpg/sg47_2_cif.got.tgz:2804.got - 2010.06.03 20:15:42.
