data_PCOD9388972
_publ_section_title
;
Structure prediction by ZEFSAII (Michael W. Deem and Ramdas Pophale) SiO2 
 PCOD9388972
Probable space group: P M M M
;
_chemical_formula_sum "Si O2"
_cell_formula_units_Z 52
_cell_length_a 7.547603
_cell_length_b 21.101826
_cell_length_c 14.825379
_cell_angle_alpha 90.000000
_cell_angle_beta 90.000000
_cell_angle_gamma 90.000000
_cell_volume 2361.211505
_symmetry_space_group_name_H-M "P M M M"
_symmetry_group_IT_number 47
_symmetry_cell_setting 'orthorhombic'
loop_
_space_group_symop_operation_xyz
x,y,z
-x,-y,z
x,-y,-z
-x,y,-z
-x,-y,-z
x,y,-z
-x,y,z
x,-y,z
loop_
_atom_site_type_symbol
_atom_site_label
_atom_site_fract_x
_atom_site_fract_y
_atom_site_fract_z
Si Si1 0.299477 0.742363 0.853687
Si Si2 0.701879 0.298631 0.356292
Si Si3 0.205481 0.161133 0.596318
Si Si4 0.717178 0.392509 0.903128
Si Si5 0.782120 0.000000 0.896131
Si Si6 0.283051 0.569556 0.297557
Si Si7 0.207739 0.876647 0.791621
O O1 0.500000 0.749865 0.886464
O O2 0.303645 0.719082 0.749800
O O3 0.221323 0.680896 0.901562
O O4 0.220009 0.812103 0.849731
O O5 0.500000 0.300398 0.390142
O O6 0.791895 0.237790 0.399258
O O7 0.777558 0.369696 0.355357
O O8 0.285896 0.141649 0.500000
O O9 0.284181 0.136621 0.691201
O O10 0.000000 0.141634 0.595082
O O11 0.500000 0.392247 0.900580
O O12 0.771417 0.422842 0.807890
O O13 0.768314 0.420985 0.000000
O O14 0.720569 0.937130 0.843973
O O15 0.000000 0.000000 0.896684
O O16 0.726557 0.000000 0.000000
O O17 0.500000 0.572775 0.298116
O O18 0.230647 0.500000 0.329834
O O19 0.000000 0.888611 0.778415
#
# Coordination Sequence:
#
# PCOD9388972 Si02
#       7
#     8   8   8   8   4   8   8
#     4   8  14  25  40  58  82 110 138 173 214 248
#     4   8  14  25  41  61  84 110 140 171 206 252
#     4   9  17  29  46  68  90 109 134 173 216 252
#     4   8  13  20  31  51  79 108 138 174 217 260
#     4   9  18  32  48  66  90 119 147 173 202 240
#     4   8  13  21  34  53  78 109 143 177 212 250
#     4   9  17  30  47  65  86 113 143 172 205 248
#
# _framework density 22.022593000000001
#
# number of rings (size 3 to 8) (size 9 to 14) (size 15 to 20)
#    0.000    3.615    0.000    1.846    0.000    1.231 
#    0.000    2.308    0.000    3.692    0.000    3.231 
#    0.000    4.923    0.000   12.000    0.000   12.308 
#
# Total GULP energy -289499.431922 kJ/mol
# GULP energy per Si atom -5567.296768 kJ/mol
# Density = 2.197247 g / cm^3
# Si number density = 22.022593 Si / 1000 Ang^3
#
#
#
# Elastic Constant Matrix: (Units=GPa)
#
#
# Indices 1 2 3 4 5 6 
#
# 1 48.2814 1.7120 5.2056 0.0000 0.0000 0.0000
# 2 1.7120 148.0358 38.5794 0.0000 0.0000 0.0000
# 3 5.2056 38.5794 84.6652 0.0000 0.0000 0.0000
# 4 0.0000 0.0000 0.0000 2.5866 0.0000 0.0000
# 5 0.0000 0.0000 0.0000 0.0000 -1.3403 0.0000
# 6 0.0000 0.0000 0.0000 0.0000 0.0000 12.1972
#
#
#
# Elastic Compliance Matrix: (Units=1/GPa)
#
#
# Indices 1 2 3 4 5 6 
#
# 1 0.020852 0.000105 -0.001330 0.000000 0.000000 0.000000
# 2 0.000105 0.007666 -0.003500 0.000000 0.000000 0.000000
# 3 -0.001330 -0.003500 0.013488 0.000000 0.000000 0.000000
# 4 0.000000 0.000000 0.000000 0.386613 0.000000 0.000000
# 5 0.000000 0.000000 0.000000 0.000000 -0.746088 0.000000
# 6 0.000000 0.000000 0.000000 0.000000 0.000000 0.081986
#
#
# Mechanical properties :
#
#
# Convention : Reuss Voigt Hill
#
# Bulk Modulus (GPa) = 30.71563 41.33070 36.02316
# Shear Modulus (GPa) = -23.23596 18.38772 -2.42412
#
# Velocity S-wave (km/s) = -3.25175 2.89268 -1.05030
# Velocity P-wave (km/s) = 0.34769 5.47403 3.86290
#
# Compressibility (1/GPa) = 0.03255672
#
# Stress axis : x y z
#
# Youngs Moduli (GPa) = 47.95797 130.44725 74.14177
#
# Poissons Ratio (x) = -0.01376 0.09862
# Poissons Ratio (y) = -0.00506 0.25947
# Poissons Ratio (z) = 0.06379 0.45652
#
# Static dielectric constant tensor:
#      x y z
#    x 1.867300 0.000000 0.000000 
#    y 0.000000 1.808760 0.000000 
#    z 0.000000 0.000000 1.842790 
# 
# From -- ./inp_files/21428.got.cif
#   From: 2010.05.17/outbox.cif.g08.bks.cpg/sg47_11_cif.got.tgz:21428.got - 2010.06.03 20:15:42.
