data_PCOD9388068
_publ_section_title
;
Structure prediction by ZEFSAII (Michael W. Deem and Ramdas Pophale) SiO2 
 PCOD9388068
Probable space group: P M M M
;
_chemical_formula_sum "Si O2"
_cell_formula_units_Z 29
_cell_length_a 18.034643
_cell_length_b 7.187631
_cell_length_c 10.075604
_cell_angle_alpha 90.000000
_cell_angle_beta 90.000000
_cell_angle_gamma 90.000000
_cell_volume 1306.063862
_symmetry_space_group_name_H-M "P M M M"
_symmetry_group_IT_number 47
_symmetry_cell_setting 'orthorhombic'
loop_
_space_group_symop_operation_xyz
x,y,z
-x,-y,z
x,-y,-z
-x,y,-z
-x,-y,-z
x,y,-z
-x,y,z
x,-y,z
loop_
_atom_site_type_symbol
_atom_site_label
_atom_site_fract_x
_atom_site_fract_y
_atom_site_fract_z
Si Si1 0.084998 0.225906 0.849601
Si Si2 0.339344 0.224959 0.145923
Si Si3 0.500000 0.224247 0.750530
Si Si4 0.214108 0.226664 0.652515
Si Si5 0.500000 0.500000 0.500000
O O1 0.142724 0.285143 0.738005
O O2 0.000000 0.282348 0.824738
O O3 0.085805 0.000000 0.849470
O O4 0.105604 0.282091 0.000000
O O5 0.424743 0.271117 0.171561
O O6 0.286490 0.286448 0.265268
O O7 0.334687 0.000000 0.145166
O O8 0.314748 0.287517 0.000000
O O9 0.500000 0.338022 0.615660
O O10 0.500000 0.000000 0.728363
O O11 0.213749 0.287388 0.500000
O O12 0.213993 0.000000 0.650295
#
# Coordination Sequence:
#
# PCOD9388068 Si02
#       5
#     8   8   4   8   1
#     4   8  13  21  32  47  75 121 173 221 271 327
#     4   9  17  31  52  75 101 137 183 232 279 330
#     4  10  22  39  61  85 114 151 190 230 278 338
#     4   9  16  23  35  60  91 125 171 224 276 333
#     4  12  26  40  58  90 120 152 182 232 288 334
#
# _framework density 22.204122000000002
#
# number of rings (size 3 to 8) (size 9 to 14) (size 15 to 20)
#    0.000    3.034    0.000    2.276    1.931    5.517 
#    0.000    4.138    0.000    0.000    0.000    0.000 
#    0.000    0.000    0.000    2.483    0.000   16.138 
#
# Total GULP energy -161765.379172 kJ/mol
# GULP energy per Si atom -5578.116523 kJ/mol
# Density = 2.215358 g / cm^3
# Si number density = 22.204122 Si / 1000 Ang^3
#
#
#
# Elastic Constant Matrix: (Units=GPa)
#
#
# Indices 1 2 3 4 5 6 
#
# 1 170.6568 4.2000 132.7427 0.0000 0.0000 0.0000
# 2 4.2000 115.5726 11.8991 0.0000 0.0000 0.0000
# 3 132.7427 11.8991 241.6037 0.0000 0.0000 0.0000
# 4 0.0000 0.0000 0.0000 -66.8230 0.0000 0.0000
# 5 0.0000 0.0000 0.0000 0.0000 -74.0335 0.0000
# 6 0.0000 0.0000 0.0000 0.0000 0.0000 -29.5340
#
#
#
# Elastic Compliance Matrix: (Units=1/GPa)
#
#
# Indices 1 2 3 4 5 6 
#
# 1 0.010238 0.000208 -0.005635 0.000000 0.000000 0.000000
# 2 0.000208 0.008701 -0.000543 0.000000 0.000000 0.000000
# 3 -0.005635 -0.000543 0.007262 0.000000 0.000000 0.000000
# 4 0.000000 0.000000 0.000000 -0.014965 0.000000 0.000000
# 5 0.000000 0.000000 0.000000 0.000000 -0.013507 0.000000
# 6 0.000000 0.000000 0.000000 0.000000 0.000000 -0.033859
#
#
# Mechanical properties :
#
#
# Convention : Reuss Voigt Hill
#
# Bulk Modulus (GPa) = 70.12251 91.72407 80.92329
# Shear Modulus (GPa) = -257.23181 -8.81203 -133.02192
#
# Velocity S-wave (km/s) = -10.77498 -1.99431 -7.74847
# Velocity P-wave (km/s) = 11.09733 6.00801 6.59752
#
# Compressibility (1/GPa) = 0.01426075
#
# Stress axis : x y z
#
# Youngs Moduli (GPa) = 97.67740 114.93066 137.70661
#
# Poissons Ratio (x) = -0.02392 0.77599
# Poissons Ratio (y) = -0.02033 0.07476
# Poissons Ratio (z) = 0.55042 0.06239
#
# Static dielectric constant tensor:
#      x y z
#    x 1.779560 0.000000 0.000000 
#    y 0.000000 1.833010 0.000000 
#    z 0.000000 0.000000 1.749730 
# 
# From -- ./inp_files/10288.got.cif
#   From: 2010.05.17/outbox.cif.g08.bks.cpg/sg47_6_cif.got.tgz:10288.got - 2010.06.03 20:15:42.
