data_PCOD9388054
_publ_section_title
;
Structure prediction by ZEFSAII (Michael W. Deem and Ramdas Pophale) SiO2 
 PCOD9388054
Probable space group: P M M M
;
_chemical_formula_sum "Si O2"
_cell_formula_units_Z 56
_cell_length_a 7.893574
_cell_length_b 21.055060
_cell_length_c 15.926539
_cell_angle_alpha 90.000000
_cell_angle_beta 90.000000
_cell_angle_gamma 90.000000
_cell_volume 2646.985593
_symmetry_space_group_name_H-M "P M M M"
_symmetry_group_IT_number 47
_symmetry_cell_setting 'orthorhombic'
loop_
_space_group_symop_operation_xyz
x,y,z
-x,-y,z
x,-y,-z
-x,y,-z
-x,-y,-z
x,y,-z
-x,y,z
x,-y,z
loop_
_atom_site_type_symbol
_atom_site_label
_atom_site_fract_x
_atom_site_fract_y
_atom_site_fract_z
Si Si1 0.701181 0.431771 0.141614
Si Si2 0.700312 0.842101 0.595714
Si Si3 0.801285 0.844147 0.904032
Si Si4 0.206393 0.568206 0.335940
Si Si5 0.194402 0.297180 0.399483
Si Si6 0.308642 0.705229 0.899910
Si Si7 0.702541 0.928181 0.747154
O O1 0.500000 0.430227 0.120542
O O2 0.767370 0.500000 0.108418
O O3 0.728376 0.433797 0.241082
O O4 0.773980 0.363319 0.116599
O O5 0.770577 0.848601 0.500000
O O6 0.500000 0.854237 0.589291
O O7 0.720756 0.768984 0.624803
O O8 0.771269 0.888566 0.667202
O O9 0.775771 0.771149 0.874311
O O10 0.730299 0.891036 0.834085
O O11 0.000000 0.856020 0.909232
O O12 0.731312 0.850900 0.000000
O O13 0.255353 0.500000 0.376013
O O14 0.268000 0.635020 0.372437
O O15 0.000000 0.569778 0.337168
O O16 0.193423 0.298025 0.500000
O O17 0.000000 0.294091 0.369180
O O18 0.500000 0.704749 0.864034
O O19 0.319804 0.708907 0.000000
O O20 0.500000 0.931790 0.736029
O O21 0.769726 0.000000 0.750325
#
# Coordination Sequence:
#
# PCOD9388054 Si02
#       7
#     8   8   8   8   8   8   8
#     4   9  18  31  47  70 100 134 172 216 265 314
#     4   9  19  36  57  82 112 144 178 219 266 318
#     4  10  22  39  58  82 113 147 183 225 271 320
#     4   9  18  31  46  67  97 134 175 218 263 310
#     4   9  18  32  50  73 100 133 175 220 265 312
#     4   9  18  33  53  76 102 135 176 220 266 316
#     4  10  22  39  60  87 114 143 180 218 264 323
#
# _framework density 21.156140000000001
#
# number of rings (size 3 to 8) (size 9 to 14) (size 15 to 20)
#    0.000    2.714    0.000    0.429    2.000    4.000 
#    0.000    5.714    0.000    0.000    0.000   11.000 
#    0.000    0.000    0.000    0.000    0.000    0.000 
#
# Total GULP energy -311928.182284 kJ/mol
# GULP energy per Si atom -5570.146112 kJ/mol
# Density = 2.110799 g / cm^3
# Si number density = 21.156140 Si / 1000 Ang^3
#
#
#
# Elastic Constant Matrix: (Units=GPa)
#
#
# Indices 1 2 3 4 5 6 
#
# 1 20.7022 10.5008 5.2447 0.0000 0.0000 0.0000
# 2 10.5008 215.0181 87.8143 0.0000 0.0000 0.0000
# 3 5.2447 87.8143 74.5155 0.0000 0.0000 0.0000
# 4 0.0000 0.0000 0.0000 66.6607 0.0000 0.0000
# 5 0.0000 0.0000 0.0000 0.0000 11.2418 0.0000
# 6 0.0000 0.0000 0.0000 0.0000 0.0000 21.1361
#
#
#
# Elastic Compliance Matrix: (Units=1/GPa)
#
#
# Indices 1 2 3 4 5 6 
#
# 1 0.049589 -0.001921 -0.001227 0.000000 0.000000 0.000000
# 2 -0.001921 0.009040 -0.010519 0.000000 0.000000 0.000000
# 3 -0.001227 -0.010519 0.025902 0.000000 0.000000 0.000000
# 4 0.000000 0.000000 0.000000 0.015001 0.000000 0.000000
# 5 0.000000 0.000000 0.000000 0.000000 0.088954 0.000000
# 6 0.000000 0.000000 0.000000 0.000000 0.000000 0.047312
#
#
# Mechanical properties :
#
#
# Convention : Reuss Voigt Hill
#
# Bulk Modulus (GPa) = 17.48267 57.48394 37.48330
# Shear Modulus (GPa) = 17.71804 33.58613 25.65209
#
# Velocity S-wave (km/s) = 2.89708 3.98871 3.48589
# Velocity P-wave (km/s) = 4.41275 6.96013 5.82734
#
# Compressibility (1/GPa) = 0.05719951
#
# Stress axis : x y z
#
# Youngs Moduli (GPa) = 20.16575 110.61361 38.60644
#
# Poissons Ratio (x) = 0.21247 0.04736
# Poissons Ratio (y) = 0.03873 0.40609
# Poissons Ratio (z) = 0.02474 1.16352
#
# Static dielectric constant tensor:
#      x y z
#    x 1.834370 0.000000 0.000000 
#    y 0.000000 1.806900 0.000000 
#    z 0.000000 0.000000 1.760940 
# 
# From -- ./inp_files/7201.got.cif
#   From: 2010.05.17/outbox.cif.g08.bks.cpg/sg47_4_cif.got.tgz:7201.got - 2010.06.03 20:15:42.
