data_PCOD9388483
_publ_section_title
;
Structure prediction by ZEFSAII (Michael W. Deem and Ramdas Pophale) SiO2 
 PCOD9388483
Probable space group: P M M M
;
_chemical_formula_sum "Si O2"
_cell_formula_units_Z 40
_cell_length_a 10.433889
_cell_length_b 25.882794
_cell_length_c 8.783273
_cell_angle_alpha 90.000000
_cell_angle_beta 90.000000
_cell_angle_gamma 90.000000
_cell_volume 2371.994893
_symmetry_space_group_name_H-M "P M M M"
_symmetry_group_IT_number 47
_symmetry_cell_setting 'orthorhombic'
loop_
_space_group_symop_operation_xyz
x,y,z
-x,-y,z
x,-y,-z
-x,y,-z
-x,-y,-z
x,y,-z
-x,y,z
x,-y,z
loop_
_atom_site_type_symbol
_atom_site_label
_atom_site_fract_x
_atom_site_fract_y
_atom_site_fract_z
Si Si1 0.152240 0.944309 0.684908
Si Si2 0.155618 0.832476 0.678912
Si Si3 0.250288 0.384878 0.816828
Si Si4 0.851225 0.724765 0.182833
Si Si5 0.000000 0.561752 0.679771
Si Si6 0.500000 0.560523 0.682782
O O1 0.161592 0.943419 0.500000
O O2 0.202769 0.888495 0.738268
O O3 0.000000 0.945063 0.719422
O O4 0.205727 0.000000 0.737071
O O5 0.185524 0.828832 0.500000
O O6 0.197649 0.780027 0.759416
O O7 0.000000 0.833773 0.692318
O O8 0.230445 0.324981 0.770044
O O9 0.125197 0.414853 0.758469
O O10 0.374947 0.411148 0.746876
O O11 0.256060 0.387097 0.000000
O O12 0.000000 0.717892 0.234555
O O13 0.853766 0.725753 0.000000
O O14 0.000000 0.500000 0.694844
O O15 0.000000 0.574379 0.500000
O O16 0.500000 0.500000 0.727516
O O17 0.500000 0.562797 0.500000
#
# Coordination Sequence:
#
# PCOD9388483 Si02
#       6
#     8   8   8   8   4   4
#     4   7   9  14  25  43  70 104 144 190 232 271
#     4   8  13  20  33  55  79 109 152 194 235 283
#     4  11  22  38  58  79 102 134 173 206 242 298
#     4   9  17  30  45  65  94 123 155 198 243 283
#     4  11  23  37  55  81 109 133 160 203 254 293
#     4  11  25  43  59  79 107 133 160 201 256 307
#
# _framework density 16.863441999999999
#
# number of rings (size 3 to 8) (size 9 to 14) (size 15 to 20)
#    0.000    2.800    1.000    3.600    0.000    5.600 
#    0.000    0.000    0.000    0.600    0.000    4.200 
#    0.000    0.000    0.000    0.900    0.000   18.600 
#
# Total GULP energy -222680.030682 kJ/mol
# GULP energy per Si atom -5567.000767 kJ/mol
# Density = 1.682506 g / cm^3
# Si number density = 16.863442 Si / 1000 Ang^3
#
#
#
# Elastic Constant Matrix: (Units=GPa)
#
#
# Indices 1 2 3 4 5 6 
#
# 1 75.1999 60.5853 21.5577 0.0000 0.0000 0.0000
# 2 60.5853 203.0395 48.1030 0.0000 0.0000 0.0000
# 3 21.5577 48.1030 26.5471 0.0000 0.0000 0.0000
# 4 0.0000 0.0000 0.0000 52.3921 0.0000 0.0000
# 5 0.0000 0.0000 0.0000 0.0000 17.2548 0.0000
# 6 0.0000 0.0000 0.0000 0.0000 0.0000 7.1464
#
#
#
# Elastic Compliance Matrix: (Units=1/GPa)
#
#
# Indices 1 2 3 4 5 6 
#
# 1 0.018623 -0.003459 -0.008855 0.000000 0.000000 0.000000
# 2 -0.003459 0.009272 -0.013992 0.000000 0.000000 0.000000
# 3 -0.008855 -0.013992 0.070214 0.000000 0.000000 0.000000
# 4 0.000000 0.000000 0.000000 0.019087 0.000000 0.000000
# 5 0.000000 0.000000 0.000000 0.000000 0.057955 0.000000
# 6 0.000000 0.000000 0.000000 0.000000 0.000000 0.139931
#
#
# Mechanical properties :
#
#
# Convention : Reuss Voigt Hill
#
# Bulk Modulus (GPa) = 21.97990 62.80871 42.39431
# Shear Modulus (GPa) = 13.05955 26.99468 20.02712
#
# Velocity S-wave (km/s) = 2.78588 4.00532 3.44990
# Velocity P-wave (km/s) = 4.83844 7.66266 6.40808
#
# Compressibility (1/GPa) = 0.04549610
#
# Stress axis : x y z
#
# Youngs Moduli (GPa) = 53.69621 107.84791 14.24216
#
# Poissons Ratio (x) = 0.37305 0.12612
# Poissons Ratio (y) = 0.18574 0.19928
# Poissons Ratio (z) = 0.47550 1.50905
#
# Static dielectric constant tensor:
#      x y z
#    x 1.532500 0.000000 0.000000 
#    y 0.000000 1.629740 0.000000 
#    z 0.000000 0.000000 1.568840 
# 
# From -- ./inp_files/1728.got.cif
#   From: 2010.05.17/outbox.cif.g08.bks.cpg/sg47_1_cif.got.tgz:1728.got - 2010.06.03 20:15:42.
