data_PCOD9388495
_publ_section_title
;
Structure prediction by ZEFSAII (Michael W. Deem and Ramdas Pophale) SiO2 
 PCOD9388495
Probable space group: P M M M
;
_chemical_formula_sum "Si O2"
_cell_formula_units_Z 56
_cell_length_a 16.180927
_cell_length_b 7.834733
_cell_length_c 20.534759
_cell_angle_alpha 90.000000
_cell_angle_beta 90.000000
_cell_angle_gamma 90.000000
_cell_volume 2603.257987
_symmetry_space_group_name_H-M "P M M M"
_symmetry_group_IT_number 47
_symmetry_cell_setting 'orthorhombic'
loop_
_space_group_symop_operation_xyz
x,y,z
-x,-y,z
x,-y,-z
-x,y,-z
-x,-y,-z
x,y,-z
-x,y,z
x,-y,z
loop_
_atom_site_type_symbol
_atom_site_label
_atom_site_fract_x
_atom_site_fract_y
_atom_site_fract_z
Si Si1 0.592207 0.697188 0.903958
Si Si2 0.904394 0.708387 0.185215
Si Si3 0.595253 0.196125 0.241390
Si Si4 0.000000 0.794104 0.575590
Si Si5 0.592115 0.299306 0.500000
Si Si6 0.776979 0.291787 0.927895
Si Si7 0.851333 0.299111 0.331242
Si Si8 0.324413 0.806499 0.366904
O O1 0.500000 0.771181 0.920096
O O2 0.589884 0.500000 0.925185
O O3 0.599354 0.705228 0.825944
O O4 0.681149 0.770015 0.925410
O O5 0.904655 0.500000 0.184331
O O6 0.837552 0.764787 0.130677
O O7 0.877396 0.759472 0.258539
O O8 0.000000 0.761738 0.173177
O O9 0.500000 0.188537 0.261250
O O10 0.642969 0.279757 0.300982
O O11 0.623424 0.000000 0.227827
O O12 0.923083 0.727038 0.616758
O O13 0.000000 0.740229 0.500000
O O14 0.000000 0.000000 0.576956
O O15 0.582475 0.500000 0.500000
O O16 0.500000 0.220197 0.500000
O O17 0.641842 0.256789 0.434955
O O18 0.772891 0.500000 0.922995
O O19 0.810145 0.249954 0.000000
O O20 0.831701 0.500000 0.326390
O O21 0.772978 0.203021 0.359999
O O22 0.354864 0.000000 0.361756
#
# Coordination Sequence:
#
# PCOD9388495 Si02
#       8
#     8   8   8   4   4   8   8   8
#     4   9  17  29  47  73 105 140 179 227 284 341
#     4   9  17  31  51  77 109 145 187 234 287 344
#     4   9  18  33  53  77 105 140 183 229 278 333
#     4  11  25  43  63  87 118 149 184 234 290 348
#     4  11  25  43  61  84 115 154 199 241 285 341
#     4   9  17  28  45  73 109 146 184 230 284 342
#     4  11  22  39  62  87 117 152 191 236 288 346
#     4  11  23  38  58  83 113 148 189 235 287 343
#
# _framework density 21.511507000000002
#
# number of rings (size 3 to 8) (size 9 to 14) (size 15 to 20)
#    0.000    2.143    0.714    2.571    1.000    4.571 
#    0.000    4.286    0.000    0.429    0.000    2.000 
#    0.000    0.571    0.000    0.000    0.000    0.000 
#
# Total GULP energy -312401.150582 kJ/mol
# GULP energy per Si atom -5578.591975 kJ/mol
# Density = 2.146255 g / cm^3
# Si number density = 21.511507 Si / 1000 Ang^3
#
#
#
# Elastic Constant Matrix: (Units=GPa)
#
#
# Indices 1 2 3 4 5 6 
#
# 1 137.3117 -0.4299 95.0859 0.0000 0.0000 0.0000
# 2 -0.4299 37.1053 11.3147 0.0000 0.0000 0.0000
# 3 95.0859 11.3147 182.3312 0.0000 0.0000 0.0000
# 4 0.0000 0.0000 0.0000 -6.7085 0.0000 0.0000
# 5 0.0000 0.0000 0.0000 0.0000 58.2165 0.0000
# 6 0.0000 0.0000 0.0000 0.0000 0.0000 -2.0134
#
#
#
# Elastic Compliance Matrix: (Units=1/GPa)
#
#
# Indices 1 2 3 4 5 6 
#
# 1 0.011544 0.002008 -0.006145 0.000000 0.000000 0.000000
# 2 0.002008 0.027819 -0.002773 0.000000 0.000000 0.000000
# 3 -0.006145 -0.002773 0.008861 0.000000 0.000000 0.000000
# 4 0.000000 0.000000 0.000000 -0.149064 0.000000 0.000000
# 5 0.000000 0.000000 0.000000 0.000000 0.017177 0.000000
# 6 0.000000 0.000000 0.000000 0.000000 0.000000 -0.496681
#
#
# Mechanical properties :
#
#
# Convention : Reuss Voigt Hill
#
# Bulk Modulus (GPa) = 29.06690 63.18771 46.12730
# Shear Modulus (GPa) = -9.00812 26.61744 8.80466
#
# Velocity S-wave (km/s) = -2.04858 3.52143 2.02531
# Velocity P-wave (km/s) = 2.81887 6.78024 5.19219
#
# Compressibility (1/GPa) = 0.03440339
#
# Stress axis : x y z
#
# Youngs Moduli (GPa) = 86.62346 35.94635 112.85164
#
# Poissons Ratio (x) = -0.07216 0.69346
# Poissons Ratio (y) = -0.17390 0.31297
# Poissons Ratio (z) = 0.53229 0.09969
#
# Static dielectric constant tensor:
#      x y z
#    x 1.820440 0.000000 0.000000 
#    y 0.000000 1.804380 0.000000 
#    z 0.000000 0.000000 1.844650 
# 
# From -- ./inp_files/30998.got.cif
#   From: 2010.05.17/outbox.cif.g08.bks.cpg/sg47_16_cif.got.tgz:30998.got - 2010.06.03 20:15:42.
