data_PCOD9388503
_publ_section_title
;
Structure prediction by ZEFSAII (Michael W. Deem and Ramdas Pophale) SiO2 
 PCOD9388503
Probable space group: P M M M
;
_chemical_formula_sum "Si O2"
_cell_formula_units_Z 29
_cell_length_a 13.251393
_cell_length_b 7.763078
_cell_length_c 14.215474
_cell_angle_alpha 90.000000
_cell_angle_beta 90.000000
_cell_angle_gamma 90.000000
_cell_volume 1462.368519
_symmetry_space_group_name_H-M "P M M M"
_symmetry_group_IT_number 47
_symmetry_cell_setting 'orthorhombic'
loop_
_space_group_symop_operation_xyz
x,y,z
-x,-y,z
x,-y,-z
-x,y,-z
-x,-y,-z
x,y,-z
-x,y,z
x,-y,z
loop_
_atom_site_type_symbol
_atom_site_label
_atom_site_fract_x
_atom_site_fract_y
_atom_site_fract_z
Si Si1 0.378090 0.695461 0.500000
Si Si2 0.184940 0.795458 0.206367
Si Si3 0.386338 0.798307 0.706303
Si Si4 0.000000 0.304808 0.339105
Si Si5 0.000000 0.000000 0.500000
Si Si6 0.115782 0.293206 0.000000
O O1 0.340561 0.500000 0.500000
O O2 0.500000 0.693100 0.500000
O O3 0.351208 0.783597 0.597629
O O4 0.295565 0.724364 0.232869
O O5 0.097524 0.715730 0.270988
O O6 0.164721 0.768514 0.096610
O O7 0.183643 0.000000 0.226357
O O8 0.500000 0.723357 0.714928
O O9 0.395079 0.000000 0.729023
O O10 0.000000 0.500000 0.378035
O O11 0.000000 0.153962 0.417026
O O12 0.116894 0.500000 0.000000
O O13 0.000000 0.233489 0.000000
#
# Coordination Sequence:
#
# PCOD9388503 Si02
#       6
#     4   8   8   4   1   4
#     4   9  17  30  51  80 113 155 205 249 294 355
#     4  11  22  40  65  94 127 165 213 265 325 384
#     4   9  19  36  59  86 121 164 209 257 310 375
#     4  12  25  44  68  95 131 174 217 267 320 385
#     4  12  26  48  64  96 138 176 218 256 332 402
#     4  11  23  39  64  93 119 157 216 271 321 386
#
# _framework density 19.830842000000001
#
# number of rings (size 3 to 8) (size 9 to 14) (size 15 to 20)
#    0.000    1.655    2.759    1.862    0.000    5.517 
#    0.000    0.690    0.000    4.138    0.000    0.000 
#    0.000    0.000    0.000    0.000    0.000    0.000 
#
# Total GULP energy -161559.332423 kJ/mol
# GULP energy per Si atom -5571.011463 kJ/mol
# Density = 1.978571 g / cm^3
# Si number density = 19.830842 Si / 1000 Ang^3
#
#
#
# Elastic Constant Matrix: (Units=GPa)
#
#
# Indices 1 2 3 4 5 6 
#
# 1 144.8124 19.3727 84.1821 0.0000 0.0000 0.0000
# 2 19.3727 92.5902 16.6539 0.0000 0.0000 0.0000
# 3 84.1821 16.6539 142.5104 0.0000 0.0000 0.0000
# 4 0.0000 0.0000 0.0000 40.2059 0.0000 0.0000
# 5 0.0000 0.0000 0.0000 0.0000 -29.9262 0.0000
# 6 0.0000 0.0000 0.0000 0.0000 0.0000 -3.7919
#
#
#
# Elastic Compliance Matrix: (Units=1/GPa)
#
#
# Indices 1 2 3 4 5 6 
#
# 1 0.010629 -0.001118 -0.006148 0.000000 0.000000 0.000000
# 2 -0.001118 0.011150 -0.000643 0.000000 0.000000 0.000000
# 3 -0.006148 -0.000643 0.010724 0.000000 0.000000 0.000000
# 4 0.000000 0.000000 0.000000 0.024872 0.000000 0.000000
# 5 0.000000 0.000000 0.000000 0.000000 -0.033415 0.000000
# 6 0.000000 0.000000 0.000000 0.000000 0.000000 -0.263721
#
#
# Mechanical properties :
#
#
# Convention : Reuss Voigt Hill
#
# Bulk Modulus (GPa) = 59.93262 68.92561 64.42912
# Shear Modulus (GPa) = -22.89560 18.61117 -2.14221
#
# Velocity S-wave (km/s) = -3.40155 3.06681 -1.04047
# Velocity P-wave (km/s) = 3.85489 6.88278 5.57821
#
# Compressibility (1/GPa) = 0.01668540
#
# Stress axis : x y z
#
# Youngs Moduli (GPa) = 94.08227 89.68779 93.25072
#
# Poissons Ratio (x) = 0.10028 0.57330
# Poissons Ratio (y) = 0.10519 0.05991
# Poissons Ratio (z) = 0.57842 0.05763
#
# Static dielectric constant tensor:
#      x y z
#    x 1.740640 0.000000 0.000000 
#    y 0.000000 1.721930 0.000000 
#    z 0.000000 0.000000 1.621980 
# 
# From -- ./inp_files/22319.got.cif
#   From: 2010.05.17/outbox.cif.g08.bks.cpg/sg47_12_cif.got.tgz:22319.got - 2010.06.03 20:15:42.
