data_PCOD9388957
_publ_section_title
;
Structure prediction by ZEFSAII (Michael W. Deem and Ramdas Pophale) SiO2 
 PCOD9388957
Probable space group: P M M M
;
_chemical_formula_sum "Si O2"
_cell_formula_units_Z 44
_cell_length_a 7.399073
_cell_length_b 30.400158
_cell_length_c 9.256432
_cell_angle_alpha 90.000000
_cell_angle_beta 90.000000
_cell_angle_gamma 90.000000
_cell_volume 2082.076910
_symmetry_space_group_name_H-M "P M M M"
_symmetry_group_IT_number 47
_symmetry_cell_setting 'orthorhombic'
loop_
_space_group_symop_operation_xyz
x,y,z
-x,-y,z
x,-y,-z
-x,y,-z
-x,-y,-z
x,y,-z
-x,y,z
x,-y,z
loop_
_atom_site_type_symbol
_atom_site_label
_atom_site_fract_x
_atom_site_fract_y
_atom_site_fract_z
Si Si1 0.215215 0.357804 0.834509
Si Si2 0.220669 0.912377 0.166209
Si Si3 0.779955 0.262227 0.830810
Si Si4 0.220700 0.000000 0.333696
Si Si5 0.220919 0.175189 0.333851
Si Si6 0.715955 0.547215 0.832905
O O1 0.278666 0.310648 0.775534
O O2 0.246318 0.405340 0.763498
O O3 0.000000 0.354031 0.843864
O O4 0.286296 0.360484 0.000000
O O5 0.278209 0.955933 0.251364
O O6 0.278086 0.867759 0.245290
O O7 0.000000 0.912409 0.166752
O O8 0.277994 0.913370 0.000000
O O9 0.717978 0.220371 0.740696
O O10 0.000000 0.261171 0.826659
O O11 0.729848 0.258523 0.000000
O O12 0.277937 0.000000 0.500000
O O13 0.000000 0.000000 0.333185
O O14 0.276810 0.172573 0.500000
O O15 0.000000 0.175378 0.332018
O O16 0.500000 0.545089 0.839308
O O17 0.778962 0.500000 0.771197
O O18 0.783331 0.548852 0.000000
#
# Coordination Sequence:
#
# PCOD9388957 Si02
#       6
#     8   8   8   4   8   8
#     4   8  13  20  30  44  62  87 118 147 176 215
#     4   9  15  21  28  37  50  71 100 133 171 215
#     4   8  13  21  31  42  58  80 105 134 169 209
#     4   9  15  21  27  35  49  69  97 137 180 215
#     4   9  15  21  29  41  56  74  98 130 170 214
#     4   8  13  20  29  43  66  94 119 144 178 218
#
# _framework density 21.132745
#
# number of rings (size 3 to 8) (size 9 to 14) (size 15 to 20)
#    0.000    3.545    0.000    3.000    0.000    5.818 
#    0.000    1.818    0.000    0.000    0.000    0.000 
#    0.000    1.455    0.000    9.091    0.000   10.545 
#
# Total GULP energy -245138.340413 kJ/mol
# GULP energy per Si atom -5571.325918 kJ/mol
# Density = 2.108465 g / cm^3
# Si number density = 21.132745 Si / 1000 Ang^3
#
#
#
# Elastic Constant Matrix: (Units=GPa)
#
#
# Indices 1 2 3 4 5 6 
#
# 1 68.7955 8.1124 2.6101 0.0000 0.0000 0.0000
# 2 8.1124 296.2553 110.1116 0.0000 0.0000 0.0000
# 3 2.6101 110.1116 109.8953 0.0000 0.0000 0.0000
# 4 0.0000 0.0000 0.0000 -7.2311 0.0000 0.0000
# 5 0.0000 0.0000 0.0000 0.0000 -9.1486 0.0000
# 6 0.0000 0.0000 0.0000 0.0000 0.0000 65.8961
#
#
#
# Elastic Compliance Matrix: (Units=1/GPa)
#
#
# Indices 1 2 3 4 5 6 
#
# 1 0.014583 -0.000431 0.000086 0.000000 0.000000 0.000000
# 2 -0.000431 0.005391 -0.005392 0.000000 0.000000 0.000000
# 3 0.000086 -0.005392 0.014500 0.000000 0.000000 0.000000
# 4 0.000000 0.000000 0.000000 -0.138291 0.000000 0.000000
# 5 0.000000 0.000000 0.000000 0.000000 -0.109306 0.000000
# 6 0.000000 0.000000 0.000000 0.000000 0.000000 0.015175
#
#
# Mechanical properties :
#
#
# Convention : Reuss Voigt Hill
#
# Bulk Modulus (GPa) = 43.47795 79.62381 61.55088
# Shear Modulus (GPa) = -27.96313 33.51075 2.77381
#
# Velocity S-wave (km/s) = -3.64155 3.98644 1.14692
# Velocity P-wave (km/s) = 1.71384 7.67780 5.56264
#
# Compressibility (1/GPa) = 0.02300016
#
# Stress axis : x y z
#
# Youngs Moduli (GPa) = 68.57099 185.48738 68.96689
#
# Poissons Ratio (x) = 0.07998 -0.00591
# Poissons Ratio (y) = 0.02957 0.37184
# Poissons Ratio (z) = -0.00587 1.00007
#
# Static dielectric constant tensor:
#      x y z
#    x 1.814570 0.000000 0.000000 
#    y 0.000000 1.804080 0.000000 
#    z 0.000000 0.000000 1.693090 
# 
# From -- ./inp_files/2084.got.cif
#   From: 2010.05.17/outbox.cif.g08.bks.cpg/sg47_2_cif.got.tgz:2084.got - 2010.06.03 20:15:42.
