data_PCOD9388768
_publ_section_title
;
Structure prediction by ZEFSAII (Michael W. Deem and Ramdas Pophale) SiO2 
 PCOD9388768
Probable space group: P M M M
;
_chemical_formula_sum "Si O2"
_cell_formula_units_Z 52
_cell_length_a 7.540381
_cell_length_b 7.345553
_cell_length_c 38.922187
_cell_angle_alpha 90.000000
_cell_angle_beta 90.000000
_cell_angle_gamma 90.000000
_cell_volume 2155.832535
_symmetry_space_group_name_H-M "P M M M"
_symmetry_group_IT_number 47
_symmetry_cell_setting 'orthorhombic'
loop_
_space_group_symop_operation_xyz
x,y,z
-x,-y,z
x,-y,-z
-x,y,-z
-x,-y,-z
x,y,-z
-x,y,z
x,-y,z
loop_
_atom_site_type_symbol
_atom_site_label
_atom_site_fract_x
_atom_site_fract_y
_atom_site_fract_z
Si Si1 0.710533 0.278395 0.036984
Si Si2 0.711630 0.291698 0.889771
Si Si3 0.795802 0.777370 0.407667
Si Si4 0.797285 0.282183 0.814837
Si Si5 0.796780 0.217030 0.740605
Si Si6 0.500000 0.777854 0.460734
Si Si7 0.216957 0.787467 0.332624
O O1 0.500000 0.235494 0.035940
O O2 0.724175 0.500000 0.037854
O O3 0.779844 0.212732 0.074038
O O4 0.785295 0.219428 0.000000
O O5 0.500000 0.300623 0.893766
O O6 0.780435 0.500000 0.888286
O O7 0.738518 0.210173 0.851984
O O8 0.670367 0.721165 0.438605
O O9 0.732142 0.713383 0.369903
O O10 0.000000 0.723227 0.412383
O O11 0.793685 0.000000 0.406562
O O12 0.788783 0.500000 0.817368
O O13 0.710258 0.243535 0.777911
O O14 0.000000 0.220565 0.811662
O O15 0.721399 0.286935 0.704323
O O16 0.000000 0.288600 0.742863
O O17 0.807516 0.000000 0.736477
O O18 0.500000 0.716492 0.500000
O O19 0.500000 0.000000 0.461358
O O20 0.000000 0.779918 0.331879
O O21 0.268695 0.000000 0.333367
#
# Coordination Sequence:
#
# PCOD9388768 Si02
#       7
#     8   8   8   8   8   4   8
#     4   7   9  14  26  44  62  80 109 146 172 194
#     4   8  13  21  33  47  65  93 121 140 168 215
#     4   8  13  21  32  44  59  82 114 151 186 220
#     4   9  16  24  35  53  75  96 119 148 180 216
#     4   8  13  22  37  54  70  92 124 156 182 214
#     4   9  16  22  28  42  64  90 119 149 183 225
#     4   7  10  18  33  49  60  76 109 148 178 204
#
# _framework density 24.120609999999999
#
# number of rings (size 3 to 8) (size 9 to 14) (size 15 to 20)
#    0.000    4.077    0.000    3.231    0.000    0.308 
#    0.000    1.538    1.692    0.923    0.000    3.231 
#    0.000    0.615    0.000    7.692    0.000    8.615 
#
# Total GULP energy -289510.837546 kJ/mol
# GULP energy per Si atom -5567.516107 kJ/mol
# Density = 2.406571 g / cm^3
# Si number density = 24.120610 Si / 1000 Ang^3
#
#
#
# Elastic Constant Matrix: (Units=GPa)
#
#
# Indices 1 2 3 4 5 6 
#
# 1 70.7901 -0.2751 65.8406 0.0000 0.0000 0.0000
# 2 -0.2751 88.4674 13.7397 0.0000 0.0000 0.0000
# 3 65.8406 13.7397 362.0956 0.0000 0.0000 0.0000
# 4 0.0000 0.0000 0.0000 -0.9491 0.0000 0.0000
# 5 0.0000 0.0000 0.0000 0.0000 15.8421 0.0000
# 6 0.0000 0.0000 0.0000 0.0000 0.0000 -0.2367
#
#
#
# Elastic Compliance Matrix: (Units=1/GPa)
#
#
# Indices 1 2 3 4 5 6 
#
# 1 0.017027 0.000537 -0.003116 0.000000 0.000000 0.000000
# 2 0.000537 0.011388 -0.000530 0.000000 0.000000 0.000000
# 3 -0.003116 -0.000530 0.003348 0.000000 0.000000 0.000000
# 4 0.000000 0.000000 0.000000 -1.053598 0.000000 0.000000
# 5 0.000000 0.000000 0.000000 0.000000 0.063123 0.000000
# 6 0.000000 0.000000 0.000000 0.000000 0.000000 -4.223994
#
#
# Mechanical properties :
#
#
# Convention : Reuss Voigt Hill
#
# Bulk Modulus (GPa) = 39.14737 75.55151 57.34944
# Shear Modulus (GPa) = -0.96750 32.40110 15.71680
#
# Velocity S-wave (km/s) = -0.63402 3.66908 2.55540
# Velocity P-wave (km/s) = 3.96599 7.02423 5.70390
#
# Compressibility (1/GPa) = 0.02554450
#
# Stress axis : x y z
#
# Youngs Moduli (GPa) = 58.73066 87.81531 298.64416
#
# Poissons Ratio (x) = -0.04715 0.93070
# Poissons Ratio (y) = -0.03154 0.15820
# Poissons Ratio (z) = 0.18303 0.04652
#
# Static dielectric constant tensor:
#      x y z
#    x 1.924390 0.000000 0.000000 
#    y 0.000000 1.218990 0.000000 
#    z 0.000000 0.000000 2.001040 
# 
# From -- ./inp_files/34274.got.cif
#   From: 2010.05.17/outbox.cif.g08.bks.cpg/sg47_18_cif.got.tgz:34274.got - 2010.06.03 20:15:42.
