data_PCOD9388000
_publ_section_title
;
Structure prediction by ZEFSAII (Michael W. Deem and Ramdas Pophale) SiO2 
 PCOD9388000
Probable space group: P M M M
;
_chemical_formula_sum "Si O2"
_cell_formula_units_Z 32
_cell_length_a 7.795510
_cell_length_b 10.713277
_cell_length_c 18.304489
_cell_angle_alpha 90.000000
_cell_angle_beta 90.000000
_cell_angle_gamma 90.000000
_cell_volume 1528.707782
_symmetry_space_group_name_H-M "P M M M"
_symmetry_group_IT_number 47
_symmetry_cell_setting 'orthorhombic'
loop_
_space_group_symop_operation_xyz
x,y,z
-x,-y,z
x,-y,-z
-x,y,-z
-x,-y,-z
x,y,-z
-x,y,z
x,-y,z
loop_
_atom_site_type_symbol
_atom_site_label
_atom_site_fract_x
_atom_site_fract_y
_atom_site_fract_z
Si Si1 0.700947 0.224240 0.918028
Si Si2 0.206400 0.358454 0.340822
Si Si3 0.292746 0.864862 0.233570
Si Si4 0.807301 0.500000 0.087999
Si Si5 0.803892 0.348741 0.500000
O O1 0.500000 0.193257 0.923673
O O2 0.773890 0.150226 0.849501
O O3 0.716727 0.370035 0.895509
O O4 0.775214 0.207883 0.000000
O O5 0.266849 0.500000 0.323127
O O6 0.244342 0.253911 0.281564
O O7 0.274743 0.318348 0.421173
O O8 0.000000 0.366402 0.347667
O O9 0.500000 0.864952 0.230016
O O10 0.237087 0.000000 0.263147
O O11 0.000000 0.500000 0.119080
O O12 0.818947 0.500000 0.000000
O O13 0.812325 0.500000 0.500000
O O14 0.000000 0.300109 0.500000
#
# Coordination Sequence:
#
# PCOD9388000 Si02
#       5
#     8   8   8   4   4
#     4   9  18  33  52  71  95 133 178 218 257 303
#     4   9  18  34  58  84 106 133 171 213 258 309
#     4  10  22  37  51  73 107 142 176 217 263 308
#     4   9  17  29  47  73 101 124 155 208 265 311
#     4   7  12  28  54  81 106 130 164 211 254 299
#
# _framework density 20.932711000000001
#
# number of rings (size 3 to 8) (size 9 to 14) (size 15 to 20)
#    0.000    3.000    0.000    1.875    1.750    4.000 
#    0.000    3.750    0.000    6.000    0.000    5.250 
#    0.000    0.000    0.000    0.000    0.000    0.000 
#
# Total GULP energy -178250.793686 kJ/mol
# GULP energy per Si atom -5570.337303 kJ/mol
# Density = 2.088507 g / cm^3
# Si number density = 20.932711 Si / 1000 Ang^3
#
#
#
# Elastic Constant Matrix: (Units=GPa)
#
#
# Indices 1 2 3 4 5 6 
#
# 1 29.4931 2.3490 9.5618 0.0000 0.0000 0.0000
# 2 2.3490 121.6100 83.5793 0.0000 0.0000 0.0000
# 3 9.5618 83.5793 146.4704 0.0000 0.0000 0.0000
# 4 0.0000 0.0000 0.0000 17.8354 0.0000 0.0000
# 5 0.0000 0.0000 0.0000 0.0000 17.1286 0.0000
# 6 0.0000 0.0000 0.0000 0.0000 0.0000 16.7609
#
#
#
# Elastic Compliance Matrix: (Units=1/GPa)
#
#
# Indices 1 2 3 4 5 6 
#
# 1 0.034797 0.001463 -0.003106 0.000000 0.000000 0.000000
# 2 0.001463 0.013590 -0.007850 0.000000 0.000000 0.000000
# 3 -0.003106 -0.007850 0.011510 0.000000 0.000000 0.000000
# 4 0.000000 0.000000 0.000000 0.056068 0.000000 0.000000
# 5 0.000000 0.000000 0.000000 0.000000 0.058382 0.000000
# 6 0.000000 0.000000 0.000000 0.000000 0.000000 0.059663
#
#
# Mechanical properties :
#
#
# Convention : Reuss Voigt Hill
#
# Bulk Modulus (GPa) = 24.44457 54.28375 39.36416
# Shear Modulus (GPa) = 18.75237 23.81722 21.28480
#
# Velocity S-wave (km/s) = 2.99631 3.37679 3.19222
# Velocity P-wave (km/s) = 4.86554 6.41813 5.69499
#
# Compressibility (1/GPa) = 0.04090889
#
# Stress axis : x y z
#
# Youngs Moduli (GPa) = 28.73827 73.58336 86.88374
#
# Poissons Ratio (x) = -0.10763 0.26988
# Poissons Ratio (y) = -0.04204 0.68206
# Poissons Ratio (z) = 0.08927 0.57765
#
# Static dielectric constant tensor:
#      x y z
#    x 1.797760 0.000000 0.000000 
#    y 0.000000 1.732300 0.000000 
#    z 0.000000 0.000000 1.809210 
# 
# From -- ./inp_files/26082.got.cif
#   From: 2010.05.17/outbox.cif.g08.bks.cpg/sg47_14_cif.got.tgz:26082.got - 2010.06.03 20:15:42.
