data_PCOD9388796
_publ_section_title
;
Structure prediction by ZEFSAII (Michael W. Deem and Ramdas Pophale) SiO2 
 PCOD9388796
Probable space group: P M M M
;
_chemical_formula_sum "Si O2"
_cell_formula_units_Z 52
_cell_length_a 35.048838
_cell_length_b 9.954736
_cell_length_c 7.526612
_cell_angle_alpha 90.000000
_cell_angle_beta 90.000000
_cell_angle_gamma 90.000000
_cell_volume 2626.049449
_symmetry_space_group_name_H-M "P M M M"
_symmetry_group_IT_number 47
_symmetry_cell_setting 'orthorhombic'
loop_
_space_group_symop_operation_xyz
x,y,z
-x,-y,z
x,-y,-z
-x,y,-z
-x,-y,-z
x,y,-z
-x,y,z
x,-y,z
loop_
_atom_site_type_symbol
_atom_site_label
_atom_site_fract_x
_atom_site_fract_y
_atom_site_fract_z
Si Si1 0.567811 0.653114 0.211979
Si Si2 0.500000 0.154930 0.217856
Si Si3 0.278372 0.844916 0.716897
Si Si4 0.958931 0.337335 0.788817
Si Si5 0.806736 0.152181 0.286923
Si Si6 0.123545 0.347464 0.787309
Si Si7 0.345436 0.652532 0.286363
O O1 0.562756 0.500000 0.281860
O O2 0.536973 0.760188 0.276874
O O3 0.611391 0.695563 0.245140
O O4 0.562579 0.644958 0.000000
O O5 0.500000 0.000000 0.275736
O O6 0.500000 0.152497 0.000000
O O7 0.278876 0.841581 0.500000
O O8 0.235590 0.804402 0.774182
O O9 0.312287 0.749903 0.780307
O O10 0.284166 0.000000 0.768452
O O11 0.958269 0.500000 0.772336
O O12 0.917526 0.293674 0.718618
O O13 0.000000 0.291083 0.714868
O O14 0.959851 0.307411 0.000000
O O15 0.804568 0.145084 0.500000
O O16 0.840808 0.252340 0.245401
O O17 0.813861 0.000000 0.221583
O O18 0.129882 0.500000 0.720857
O O19 0.119291 0.356811 0.000000
O O20 0.342335 0.648556 0.500000
O O21 0.340879 0.500000 0.219670
#
# Coordination Sequence:
#
# PCOD9388796 Si02
#       7
#     8   4   8   8   8   8   8
#     4   9  17  30  47  65  87 116 145 171 206 253
#     4   9  17  29  46  67  88 112 146 183 210 238
#     4   8  15  29  47  64  83 111 147 182 214 253
#     4   7  10  19  37  60  85 112 141 175 217 264
#     4   9  18  32  48  65  87 119 157 189 219 264
#     4   9  17  28  44  69  95 115 142 184 230 271
#     4   9  17  29  46  68  90 111 139 176 216 256
#
# _framework density 19.801606
#
# number of rings (size 3 to 8) (size 9 to 14) (size 15 to 20)
#    0.000    3.462    0.000    2.538    0.000    2.769 
#    0.000    2.692    0.000    6.000    0.000    5.385 
#    0.000    0.000    0.000    0.000    0.000    0.000 
#
# Total GULP energy -289659.224327 kJ/mol
# GULP energy per Si atom -5570.369699 kJ/mol
# Density = 1.975654 g / cm^3
# Si number density = 19.801606 Si / 1000 Ang^3
#
#
#
# Elastic Constant Matrix: (Units=GPa)
#
#
# Indices 1 2 3 4 5 6 
#
# 1 248.3903 131.6617 4.4981 0.0000 0.0000 0.0000
# 2 131.6617 96.5148 4.8795 0.0000 0.0000 0.0000
# 3 4.4981 4.8795 47.9649 0.0000 0.0000 0.0000
# 4 0.0000 0.0000 0.0000 9.6870 0.0000 0.0000
# 5 0.0000 0.0000 0.0000 0.0000 20.9677 0.0000
# 6 0.0000 0.0000 0.0000 0.0000 0.0000 -969.6503
#
#
#
# Elastic Compliance Matrix: (Units=1/GPa)
#
#
# Indices 1 2 3 4 5 6 
#
# 1 0.014559 -0.019894 0.000659 0.000000 0.000000 0.000000
# 2 -0.019894 0.037599 -0.001959 0.000000 0.000000 0.000000
# 3 0.000659 -0.001959 0.020986 0.000000 0.000000 0.000000
# 4 0.000000 0.000000 0.000000 0.103231 0.000000 0.000000
# 5 0.000000 0.000000 0.000000 0.000000 0.047692 0.000000
# 6 0.000000 0.000000 0.000000 0.000000 0.000000 -0.001031
#
#
# Mechanical properties :
#
#
# Convention : Reuss Voigt Hill
#
# Bulk Modulus (GPa) = 32.51579 74.99430 53.75504
# Shear Modulus (GPa) = 18.13708 -171.01039 -76.43666
#
# Velocity S-wave (km/s) = 3.02973 -9.30319 -6.21973
# Velocity P-wave (km/s) = 5.35682 8.80023 4.93703
#
# Compressibility (1/GPa) = 0.03075429
#
# Stress axis : x y z
#
# Youngs Moduli (GPa) = 68.68492 26.59617 47.65051
#
# Poissons Ratio (x) = 0.52912 -0.03138
# Poissons Ratio (y) = 1.36645 0.09336
# Poissons Ratio (z) = -0.04523 0.05211
#
# Static dielectric constant tensor:
#      x y z
#    x 1.718750 0.000000 0.000000 
#    y 0.000000 1.671580 0.000000 
#    z 0.000000 0.000000 1.770720 
# 
# From -- ./inp_files/20028.got.cif
#   From: 2010.05.17/outbox.cif.g08.bks.cpg/sg47_11_cif.got.tgz:20028.got - 2010.06.03 20:15:42.
