data_PCOD9388929
_publ_section_title
;
Structure prediction by ZEFSAII (Michael W. Deem and Ramdas Pophale) SiO2 
 PCOD9388929
Probable space group: P M M M
;
_chemical_formula_sum "Si O2"
_cell_formula_units_Z 52
_cell_length_a 13.455090
_cell_length_b 7.299569
_cell_length_c 24.034449
_cell_angle_alpha 90.000000
_cell_angle_beta 90.000000
_cell_angle_gamma 90.000000
_cell_volume 2360.576044
_symmetry_space_group_name_H-M "P M M M"
_symmetry_group_IT_number 47
_symmetry_cell_setting 'orthorhombic'
loop_
_space_group_symop_operation_xyz
x,y,z
-x,-y,z
x,-y,-z
-x,y,-z
-x,-y,-z
x,y,-z
-x,y,z
x,-y,z
loop_
_atom_site_type_symbol
_atom_site_label
_atom_site_fract_x
_atom_site_fract_y
_atom_site_fract_z
Si Si1 0.780008 0.713148 0.062790
Si Si2 0.692551 0.723550 0.436097
Si Si3 0.889713 0.277237 0.372867
Si Si4 0.500000 0.276594 0.761938
Si Si5 0.109987 0.277426 0.756602
Si Si6 0.500000 0.276593 0.366292
Si Si7 0.301644 0.724382 0.825583
Si Si8 0.000000 0.218094 0.064251
O O1 0.755857 0.500000 0.057138
O O2 0.709293 0.787808 0.110722
O O3 0.893274 0.721648 0.086227
O O4 0.778187 0.792254 0.000000
O O5 0.682230 0.780576 0.500000
O O6 0.692775 0.500000 0.435716
O O7 0.796805 0.783439 0.409386
O O8 0.598971 0.780853 0.398899
O O9 0.889047 0.500000 0.373813
O O10 0.878224 0.224747 0.308127
O O11 0.000000 0.219781 0.391702
O O12 0.500000 0.500000 0.761426
O O13 0.500000 0.218086 0.697783
O O14 0.598959 0.218825 0.794229
O O15 0.109964 0.500000 0.757919
O O16 0.203574 0.216318 0.792189
O O17 0.000000 0.218267 0.775977
O O18 0.500000 0.500000 0.366147
O O19 0.301123 0.500000 0.825983
O O20 0.000000 0.000000 0.064723
O O21 0.000000 0.283985 0.000000
#
# Coordination Sequence:
#
# PCOD9388929 Si02
#       8
#     8   8   8   4   8   4   8   4
#     4   9  17  28  42  62  88 115 141 172 213 257
#     4   9  15  20  26  36  49  69 102 146 197 245
#     4   8  13  20  27  35  50  72 100 138 187 240
#     4   9  16  25  35  49  68  96 129 163 204 253
#     4   8  13  20  30  44  61  84 115 151 195 248
#     4   9  15  22  31  39  54  78 109 151 200 243
#     4   9  16  24  36  53  75 100 131 165 205 254
#     4   9  17  29  45  65  89 117 145 171 204 249
#
# _framework density 22.028521000000001
#
# number of rings (size 3 to 8) (size 9 to 14) (size 15 to 20)
#    0.000    3.308    0.000    2.308    1.077    5.846 
#    0.000    1.923    0.000    2.308    0.000    0.538 
#    0.000    2.462    0.000    0.000    0.000    0.000 
#
# Total GULP energy -290305.280068 kJ/mol
# GULP energy per Si atom -5582.793847 kJ/mol
# Density = 2.197838 g / cm^3
# Si number density = 22.028521 Si / 1000 Ang^3
#
#
#
# Elastic Constant Matrix: (Units=GPa)
#
#
# Indices 1 2 3 4 5 6 
#
# 1 209.6420 4.8976 140.7557 0.0000 0.0000 0.0000
# 2 4.8976 92.3910 6.6443 0.0000 0.0000 0.0000
# 3 140.7557 6.6443 177.1789 0.0000 0.0000 0.0000
# 4 0.0000 0.0000 0.0000 -21.2719 0.0000 0.0000
# 5 0.0000 0.0000 0.0000 0.0000 33.6206 0.0000
# 6 0.0000 0.0000 0.0000 0.0000 0.0000 -60.8543
#
#
#
# Elastic Compliance Matrix: (Units=1/GPa)
#
#
# Indices 1 2 3 4 5 6 
#
# 1 0.010223 0.000042 -0.008123 0.000000 0.000000 0.000000
# 2 0.000042 0.010853 -0.000441 0.000000 0.000000 0.000000
# 3 -0.008123 -0.000441 0.012114 0.000000 0.000000 0.000000
# 4 0.000000 0.000000 0.000000 -0.047010 0.000000 0.000000
# 5 0.000000 0.000000 0.000000 0.000000 0.029744 0.000000
# 6 0.000000 0.000000 0.000000 0.000000 0.000000 -0.016433
#
#
# Mechanical properties :
#
#
# Convention : Reuss Voigt Hill
#
# Bulk Modulus (GPa) = 61.93087 87.08968 74.51028
# Shear Modulus (GPa) = 228.15697 12.09316 120.12507
#
# Velocity S-wave (km/s) = 10.18814 2.34557 7.39256
# Velocity P-wave (km/s) = 12.90630 6.85247 10.33269
#
# Compressibility (1/GPa) = 0.01614704
#
# Stress axis : x y z
#
# Youngs Moduli (GPa) = 97.82022 92.14033 82.55203
#
# Poissons Ratio (x) = -0.00389 0.67056
# Poissons Ratio (y) = -0.00413 0.03637
# Poissons Ratio (z) = 0.79458 0.04059
#
# Static dielectric constant tensor:
#      x y z
#    x 1.763740 0.000000 0.000000 
#    y 0.000000 1.819010 0.000000 
#    z 0.000000 0.000000 1.784630 
# 
# From -- ./inp_files/33659.got.cif
#   From: 2010.05.17/outbox.cif.g08.bks.cpg/sg47_17_cif.got.tgz:33659.got - 2010.06.03 20:15:42.
