data_PCOD9388454
_publ_section_title
;
Structure prediction by ZEFSAII (Michael W. Deem and Ramdas Pophale) SiO2 
 PCOD9388454
Probable space group: P M M M
;
_chemical_formula_sum "Si O2"
_cell_formula_units_Z 48
_cell_length_a 19.370242
_cell_length_b 7.793453
_cell_length_c 15.901436
_cell_angle_alpha 90.000000
_cell_angle_beta 90.000000
_cell_angle_gamma 90.000000
_cell_volume 2400.497803
_symmetry_space_group_name_H-M "P M M M"
_symmetry_group_IT_number 47
_symmetry_cell_setting 'orthorhombic'
loop_
_space_group_symop_operation_xyz
x,y,z
-x,-y,z
x,-y,-z
-x,y,-z
-x,-y,-z
x,y,-z
-x,y,z
x,-y,z
loop_
_atom_site_type_symbol
_atom_site_label
_atom_site_fract_x
_atom_site_fract_y
_atom_site_fract_z
Si Si1 0.827330 0.789777 0.154975
Si Si2 0.079116 0.210146 0.000000
Si Si3 0.833584 0.799827 0.342331
Si Si4 0.322163 0.699453 0.652645
Si Si5 0.421448 0.204702 0.500000
Si Si6 0.579129 0.210374 0.000000
Si Si7 0.330493 0.792813 0.842730
Si Si8 0.080055 0.788913 0.500000
O O1 0.879366 0.734388 0.082784
O O2 0.844827 0.727427 0.248869
O O3 0.748172 0.738677 0.137812
O O4 0.827791 0.000000 0.155949
O O5 0.000000 0.266130 0.000000
O O6 0.079265 0.000000 0.000000
O O7 0.751629 0.790750 0.360750
O O8 0.879065 0.727013 0.417540
O O9 0.852275 0.000000 0.336639
O O10 0.306416 0.500000 0.646446
O O11 0.378310 0.743754 0.582499
O O12 0.346985 0.738496 0.747475
O O13 0.500000 0.273265 0.500000
O O14 0.425313 0.000000 0.500000
O O15 0.618634 0.267114 0.915801
O O16 0.500000 0.264677 0.000000
O O17 0.580393 0.000000 0.000000
O O18 0.331380 0.000000 0.843146
O O19 0.000000 0.740258 0.500000
O O20 0.082750 0.000000 0.500000
#
# Coordination Sequence:
#
# PCOD9388454 Si02
#       8
#     8   4   8   8   4   4   8   4
#     4   8  14  24  39  60  87 123 161 197 243 297
#     4   9  15  21  33  60  96 126 156 205 266 311
#     4   9  17  31  51  72  98 133 172 212 255 306
#     4  11  22  36  56  81 108 137 175 221 264 309
#     4  11  24  41  60  80 104 137 174 211 258 318
#     4   9  17  29  50  79 104 130 170 215 252 297
#     4   9  17  32  53  75 102 136 174 214 258 308
#     4   9  17  28  46  74 102 127 160 207 260 308
#
# _framework density 19.995851999999999
#
# number of rings (size 3 to 8) (size 9 to 14) (size 15 to 20)
#    0.000    2.667    0.000    3.750    0.000    4.667 
#    0.000    5.417    0.000    1.500    0.000    0.000 
#    0.000   10.667    0.000    0.000    0.000    0.000 
#
# Total GULP energy -267853.836997 kJ/mol
# GULP energy per Si atom -5580.288271 kJ/mol
# Density = 1.995034 g / cm^3
# Si number density = 19.995852 Si / 1000 Ang^3
#
#
#
# Elastic Constant Matrix: (Units=GPa)
#
#
# Indices 1 2 3 4 5 6 
#
# 1 149.5259 -5.6072 148.9702 0.0000 0.0000 0.0000
# 2 -5.6072 26.5607 0.5098 0.0000 0.0000 0.0000
# 3 148.9702 0.5098 198.9565 0.0000 0.0000 0.0000
# 4 0.0000 0.0000 0.0000 95.6105 0.0000 0.0000
# 5 0.0000 0.0000 0.0000 0.0000 -7.4911 0.0000
# 6 0.0000 0.0000 0.0000 0.0000 0.0000 -13.9157
#
#
#
# Elastic Compliance Matrix: (Units=1/GPa)
#
#
# Indices 1 2 3 4 5 6 
#
# 1 0.027298 0.006155 -0.020455 0.000000 0.000000 0.000000
# 2 0.006155 0.039039 -0.004709 0.000000 0.000000 0.000000
# 3 -0.020455 -0.004709 0.020354 0.000000 0.000000 0.000000
# 4 0.000000 0.000000 0.000000 0.010459 0.000000 0.000000
# 5 0.000000 0.000000 0.000000 0.000000 -0.133492 0.000000
# 6 0.000000 0.000000 0.000000 0.000000 0.000000 -0.071861
#
#
# Mechanical properties :
#
#
# Convention : Reuss Voigt Hill
#
# Bulk Modulus (GPa) = 20.54485 73.64318 47.09402
# Shear Modulus (GPa) = -92.66002 30.25211 -31.20395
#
# Velocity S-wave (km/s) = -6.81471 3.89385 -3.95463
# Velocity P-wave (km/s) = 7.18494 7.55812 1.65858
#
# Compressibility (1/GPa) = 0.04867401
#
# Stress axis : x y z
#
# Youngs Moduli (GPa) = 36.63285 25.61516 49.12955
#
# Poissons Ratio (x) = -0.15767 1.00496
# Poissons Ratio (y) = -0.22549 0.23135
# Poissons Ratio (z) = 0.74934 0.12062
#
# Static dielectric constant tensor:
#      x y z
#    x 1.671710 0.000000 0.000000 
#    y 0.000000 1.709490 0.000000 
#    z 0.000000 0.000000 1.691790 
# 
# From -- ./inp_files/24527.got.cif
#   From: 2010.05.17/outbox.cif.g08.bks.cpg/sg47_13_cif.got.tgz:24527.got - 2010.06.03 20:15:42.
