data_PCOD9388934
_publ_section_title
;
Structure prediction by ZEFSAII (Michael W. Deem and Ramdas Pophale) SiO2 
 PCOD9388934
Probable space group: P M M M
;
_chemical_formula_sum "Si O2"
_cell_formula_units_Z 52
_cell_length_a 7.335308
_cell_length_b 35.288812
_cell_length_c 9.475864
_cell_angle_alpha 90.000000
_cell_angle_beta 90.000000
_cell_angle_gamma 90.000000
_cell_volume 2452.868190
_symmetry_space_group_name_H-M "P M M M"
_symmetry_group_IT_number 47
_symmetry_cell_setting 'orthorhombic'
loop_
_space_group_symop_operation_xyz
x,y,z
-x,-y,z
x,-y,-z
-x,y,-z
-x,-y,-z
x,y,-z
-x,y,z
x,-y,z
loop_
_atom_site_type_symbol
_atom_site_label
_atom_site_fract_x
_atom_site_fract_y
_atom_site_fract_z
Si Si1 0.221873 0.957674 0.163150
Si Si2 0.222833 0.115172 0.337893
Si Si3 0.781526 0.270964 0.837003
Si Si4 0.715006 0.354252 0.838843
Si Si5 0.722858 0.425979 0.662459
Si Si6 0.722146 0.500000 0.162765
Si Si7 0.222050 0.188416 0.835342
O O1 0.282428 0.923076 0.259503
O O2 0.000000 0.957530 0.165063
O O3 0.278941 0.000000 0.207489
O O4 0.275590 0.951996 0.000000
O O5 0.279106 0.115840 0.500000
O O6 0.282988 0.152673 0.254865
O O7 0.000000 0.115184 0.335386
O O8 0.734597 0.311940 0.776064
O O9 0.720286 0.230076 0.780273
O O10 0.000000 0.269597 0.839134
O O11 0.717220 0.272159 0.000000
O O12 0.500000 0.361009 0.851722
O O13 0.785454 0.387697 0.740278
O O14 0.789755 0.354902 0.000000
O O15 0.781237 0.428113 0.500000
O O16 0.500000 0.425861 0.660720
O O17 0.778580 0.462470 0.753121
O O18 0.500000 0.500000 0.161018
O O19 0.781372 0.500000 0.000000
O O20 0.000000 0.187899 0.833588
O O21 0.274736 0.184894 0.000000
#
# Coordination Sequence:
#
# PCOD9388934 Si02
#       7
#     8   8   8   8   8   4   8
#     4   8  13  20  28  37  51  75 108 142 174 213
#     4   9  15  20  27  41  60  80 104 140 185 224
#     4   8  14  25  41  59  77 100 132 166 197 231
#     4   9  16  26  41  61  83 105 131 164 198 230
#     4   9  16  25  37  55  81 110 135 159 192 235
#     4   9  15  23  37  57  80 105 134 167 198 226
#     4   8  13  22  35  47  60  83 116 150 181 216
#
# _framework density 21.199670999999999
#
# number of rings (size 3 to 8) (size 9 to 14) (size 15 to 20)
#    0.000    3.462    0.000    2.538    0.000    4.923 
#    0.000    2.308    0.000    1.385    0.000    0.538 
#    0.000    4.308    0.000    0.000    0.000    0.769 
#
# Total GULP energy -290008.956222 kJ/mol
# GULP energy per Si atom -5577.095312 kJ/mol
# Density = 2.115142 g / cm^3
# Si number density = 21.199671 Si / 1000 Ang^3
#
#
#
# Elastic Constant Matrix: (Units=GPa)
#
#
# Indices 1 2 3 4 5 6 
#
# 1 80.0475 4.0434 4.9579 0.0000 0.0000 0.0000
# 2 4.0434 271.1855 137.0090 0.0000 0.0000 0.0000
# 3 4.9579 137.0090 136.2015 0.0000 0.0000 0.0000
# 4 0.0000 0.0000 0.0000 -7.4534 0.0000 0.0000
# 5 0.0000 0.0000 0.0000 0.0000 -12.2108 0.0000
# 6 0.0000 0.0000 0.0000 0.0000 0.0000 5.0539
#
#
#
# Elastic Compliance Matrix: (Units=1/GPa)
#
#
# Indices 1 2 3 4 5 6 
#
# 1 0.012522 0.000089 -0.000545 0.000000 0.000000 0.000000
# 2 0.000089 0.007499 -0.007547 0.000000 0.000000 0.000000
# 3 -0.000545 -0.007547 0.014953 0.000000 0.000000 0.000000
# 4 0.000000 0.000000 0.000000 -0.134166 0.000000 0.000000
# 5 0.000000 0.000000 0.000000 0.000000 -0.081895 0.000000
# 6 0.000000 0.000000 0.000000 0.000000 0.000000 0.197868
#
#
# Mechanical properties :
#
#
# Convention : Reuss Voigt Hill
#
# Bulk Modulus (GPa) = 52.71998 86.60612 69.66305
# Shear Modulus (GPa) = 127.84815 19.83955 73.84385
#
# Velocity S-wave (km/s) = 7.77416 3.06247 5.90831
# Velocity P-wave (km/s) = 10.27160 7.31069 8.91493
#
# Compressibility (1/GPa) = 0.01896814
#
# Stress axis : x y z
#
# Youngs Moduli (GPa) = 79.86037 133.35311 66.87530
#
# Poissons Ratio (x) = -0.01182 0.03644
# Poissons Ratio (y) = -0.00708 0.50468
# Poissons Ratio (z) = 0.04352 1.00636
#
# Static dielectric constant tensor:
#      x y z
#    x 1.905760 0.000000 0.000000 
#    y 0.000000 1.763560 0.000000 
#    z 0.000000 0.000000 1.702950 
# 
# From -- ./inp_files/4829.got.cif
#   From: 2010.05.17/outbox.cif.g08.bks.cpg/sg47_3_cif.got.tgz:4829.got - 2010.06.03 20:15:42.
