data_PCOD9388275
_publ_section_title
;
Structure prediction by ZEFSAII (Michael W. Deem and Ramdas Pophale) SiO2 
 PCOD9388275
Probable space group: P M M M
;
_chemical_formula_sum "Si O2"
_cell_formula_units_Z 52
_cell_length_a 8.914898
_cell_length_b 18.324137
_cell_length_c 18.852649
_cell_angle_alpha 90.000000
_cell_angle_beta 90.000000
_cell_angle_gamma 90.000000
_cell_volume 3079.727497
_symmetry_space_group_name_H-M "P M M M"
_symmetry_group_IT_number 47
_symmetry_cell_setting 'orthorhombic'
loop_
_space_group_symop_operation_xyz
x,y,z
-x,-y,z
x,-y,-z
-x,y,-z
-x,-y,-z
x,y,-z
-x,y,z
x,-y,z
loop_
_atom_site_type_symbol
_atom_site_label
_atom_site_fract_x
_atom_site_fract_y
_atom_site_fract_z
Si Si1 0.318744 0.208775 0.081561
Si Si2 0.820037 0.920847 0.356149
Si Si3 0.671357 0.865779 0.780614
Si Si4 0.323298 0.500000 0.915105
Si Si5 0.328147 0.701830 0.284833
Si Si6 0.181141 0.234005 0.418866
Si Si7 0.178894 0.354446 0.147986
O O1 0.500000 0.217506 0.088058
O O2 0.275621 0.146641 0.138758
O O3 0.243297 0.284650 0.105082
O O4 0.283656 0.191961 0.000000
O O5 0.769631 0.910566 0.274664
O O6 0.770062 0.849053 0.399025
O O7 0.000000 0.920760 0.359509
O O8 0.766219 0.000000 0.382410
O O9 0.500000 0.893096 0.780332
O O10 0.670336 0.783376 0.749036
O O11 0.500000 0.500000 0.897590
O O12 0.246366 0.572159 0.884409
O O13 0.308635 0.500000 0.000000
O O14 0.500000 0.676752 0.289004
O O15 0.254578 0.712505 0.361552
O O16 0.234206 0.654777 0.229062
O O17 0.220492 0.250023 0.500000
O O18 0.000000 0.236880 0.411779
O O19 0.000000 0.354261 0.144450
#
# Coordination Sequence:
#
# PCOD9388275 Si02
#       7
#     8   8   8   4   8   8   8
#     4   9  17  30  47  66  89 117 150 190 237 284
#     4   9  17  28  42  61  87 121 156 187 226 280
#     4   8  15  27  43  62  82 109 148 192 232 272
#     4  11  23  37  51  69 100 139 170 195 229 273
#     4   9  17  31  49  67  90 122 159 194 230 275
#     4   9  17  29  46  70  98 123 150 191 239 280
#     4  11  21  32  48  71  98 126 159 196 232 273
#
# _framework density 16.884611
#
# number of rings (size 3 to 8) (size 9 to 14) (size 15 to 20)
#    0.000    2.692    0.000    3.462    0.000    7.385 
#    0.000    1.538    0.000    0.462    0.000    8.077 
#    0.000    4.308    0.000    0.000    0.000    0.000 
#
# Total GULP energy -289749.789418 kJ/mol
# GULP energy per Si atom -5572.111335 kJ/mol
# Density = 1.684618 g / cm^3
# Si number density = 16.884611 Si / 1000 Ang^3
#
#
#
# Elastic Constant Matrix: (Units=GPa)
#
#
# Indices 1 2 3 4 5 6 
#
# 1 46.8671 9.6960 27.2429 0.0000 0.0000 0.0000
# 2 9.6960 17.7093 0.9270 0.0000 0.0000 0.0000
# 3 27.2429 0.9270 114.2936 0.0000 0.0000 0.0000
# 4 0.0000 0.0000 0.0000 15.2798 0.0000 0.0000
# 5 0.0000 0.0000 0.0000 0.0000 25.4162 0.0000
# 6 0.0000 0.0000 0.0000 0.0000 0.0000 14.8892
#
#
#
# Elastic Compliance Matrix: (Units=1/GPa)
#
#
# Indices 1 2 3 4 5 6 
#
# 1 0.028327 -0.015162 -0.006629 0.000000 0.000000 0.000000
# 2 -0.015162 0.064607 0.003090 0.000000 0.000000 0.000000
# 3 -0.006629 0.003090 0.010304 0.000000 0.000000 0.000000
# 4 0.000000 0.000000 0.000000 0.065446 0.000000 0.000000
# 5 0.000000 0.000000 0.000000 0.000000 0.039345 0.000000
# 6 0.000000 0.000000 0.000000 0.000000 0.000000 0.067163
#
#
# Mechanical properties :
#
#
# Convention : Reuss Voigt Hill
#
# Bulk Modulus (GPa) = 15.18919 28.28907 21.73913
# Shear Modulus (GPa) = 14.94588 20.51731 17.73160
#
# Velocity S-wave (km/s) = 2.97842 3.48968 3.24414
# Velocity P-wave (km/s) = 4.56546 5.74699 5.18996
#
# Compressibility (1/GPa) = 0.06583627
#
# Stress axis : x y z
#
# Youngs Moduli (GPa) = 35.30195 15.47812 97.04571
#
# Poissons Ratio (x) = 0.23468 0.64332
# Poissons Ratio (y) = 0.53526 -0.29988
# Poissons Ratio (z) = 0.23402 -0.04783
#
# Static dielectric constant tensor:
#      x y z
#    x 1.570870 0.000000 0.000000 
#    y 0.000000 1.563600 0.000000 
#    z 0.000000 0.000000 1.585890 
# 
# From -- ./inp_files/26748.got.cif
#   From: 2010.05.17/outbox.cif.g08.bks.cpg/sg47_14_cif.got.tgz:26748.got - 2010.06.03 20:15:42.
