data_PCOD9388482
_publ_section_title
;
Structure prediction by ZEFSAII (Michael W. Deem and Ramdas Pophale) SiO2 
 PCOD9388482
Probable space group: P M M M
;
_chemical_formula_sum "Si O2"
_cell_formula_units_Z 33
_cell_length_a 12.325425
_cell_length_b 17.837416
_cell_length_c 7.716232
_cell_angle_alpha 90.000000
_cell_angle_beta 90.000000
_cell_angle_gamma 90.000000
_cell_volume 1696.442411
_symmetry_space_group_name_H-M "P M M M"
_symmetry_group_IT_number 47
_symmetry_cell_setting 'orthorhombic'
loop_
_space_group_symop_operation_xyz
x,y,z
-x,-y,z
x,-y,-z
-x,y,-z
-x,-y,-z
x,y,-z
-x,y,z
x,-y,z
loop_
_atom_site_type_symbol
_atom_site_label
_atom_site_fract_x
_atom_site_fract_y
_atom_site_fract_z
Si Si1 0.624371 0.586742 0.708847
Si Si2 0.623985 0.166225 0.796114
Si Si3 0.211823 0.288632 0.197755
Si Si4 0.000000 0.628374 0.692683
Si Si5 0.000000 0.500000 0.000000
Si Si6 0.369055 0.000000 0.698758
O O1 0.635552 0.593848 0.500000
O O2 0.500000 0.605211 0.752944
O O3 0.644017 0.500000 0.752945
O O4 0.706954 0.640919 0.800278
O O5 0.500000 0.174302 0.724519
O O6 0.715137 0.221771 0.722979
O O7 0.660442 0.079823 0.779453
O O8 0.616216 0.184237 0.000000
O O9 0.104881 0.318267 0.289796
O O10 0.182262 0.268692 0.000000
O O11 0.000000 0.566500 0.845848
O O12 0.000000 0.593929 0.500000
O O13 0.500000 0.000000 0.705707
O O14 0.334032 0.000000 0.500000
#
# Coordination Sequence:
#
# PCOD9388482 Si02
#       6
#     8   8   8   4   1   4
#     4   9  19  34  51  75 108 146 188 233 286 350
#     4   9  18  33  56  84 119 161 198 237 292 356
#     4  11  22  38  57  83 116 151 198 248 295 356
#     4  12  27  45  67  91 118 156 200 258 312 354
#     4  12  26  52  68  90 114 150 210 260 304 368
#     4   9  17  29  49  82 119 152 193 243 291 348
#
# _framework density 19.452473000000001
#
# number of rings (size 3 to 8) (size 9 to 14) (size 15 to 20)
#    0.000    2.061    1.212    2.727    1.697    5.333 
#    0.000    3.636    0.000    0.727    0.000    5.091 
#    0.000    0.000    0.000    0.000    0.000    0.000 
#
# Total GULP energy -183838.931072 kJ/mol
# GULP energy per Si atom -5570.876699 kJ/mol
# Density = 1.940820 g / cm^3
# Si number density = 19.452473 Si / 1000 Ang^3
#
#
#
# Elastic Constant Matrix: (Units=GPa)
#
#
# Indices 1 2 3 4 5 6 
#
# 1 74.3500 102.9208 23.4473 0.0000 0.0000 0.0000
# 2 102.9208 76.2119 25.6075 0.0000 0.0000 0.0000
# 3 23.4473 25.6075 76.1548 0.0000 0.0000 0.0000
# 4 0.0000 0.0000 0.0000 70.5545 0.0000 0.0000
# 5 0.0000 0.0000 0.0000 0.0000 19.5007 0.0000
# 6 0.0000 0.0000 0.0000 0.0000 0.0000 35.8918
#
#
#
# Elastic Compliance Matrix: (Units=1/GPa)
#
#
# Indices 1 2 3 4 5 6 
#
# 1 -0.015043 0.021148 -0.002480 0.000000 0.000000 0.000000
# 2 0.021148 -0.014939 -0.001488 0.000000 0.000000 0.000000
# 3 -0.002480 -0.001488 0.014395 0.000000 0.000000 0.000000
# 4 0.000000 0.000000 0.000000 0.014173 0.000000 0.000000
# 5 0.000000 0.000000 0.000000 0.000000 0.051280 0.000000
# 6 0.000000 0.000000 0.000000 0.000000 0.000000 0.027862
#
#
# Mechanical properties :
#
#
# Convention : Reuss Voigt Hill
#
# Bulk Modulus (GPa) = 53.26415 58.96310 56.11363
# Shear Modulus (GPa) = 100.75442 30.17213 65.46328
#
# Velocity S-wave (km/s) = 7.20469 3.94263 5.80741
# Velocity P-wave (km/s) = 9.83114 7.14864 8.59518
#
# Compressibility (1/GPa) = 0.01877435
#
# Stress axis : x y z
#
# Youngs Moduli (GPa) = -66.47525 -66.94112 69.46860
#
# Poissons Ratio (x) = 1.41569 0.17225
# Poissons Ratio (y) = 1.40584 0.10338
# Poissons Ratio (z) = -0.16483 -0.09962
#
# Static dielectric constant tensor:
#      x y z
#    x 1.478960 0.000000 0.000000 
#    y 0.000000 1.683990 0.000000 
#    z 0.000000 0.000000 1.724700 
# 
# From -- ./inp_files/3684.got.cif
#   From: 2010.05.17/outbox.cif.g08.bks.cpg/sg47_2_cif.got.tgz:3684.got - 2010.06.03 20:15:42.
