data_PCOD9388870
_publ_section_title
;
Structure prediction by ZEFSAII (Michael W. Deem and Ramdas Pophale) SiO2 
 PCOD9388870
Probable space group: P M M M
;
_chemical_formula_sum "Si O2"
_cell_formula_units_Z 64
_cell_length_a 24.523793
_cell_length_b 20.036698
_cell_length_c 7.330936
_cell_angle_alpha 90.000000
_cell_angle_beta 90.000000
_cell_angle_gamma 90.000000
_cell_volume 3602.244792
_symmetry_space_group_name_H-M "P M M M"
_symmetry_group_IT_number 47
_symmetry_cell_setting 'orthorhombic'
loop_
_space_group_symop_operation_xyz
x,y,z
-x,-y,z
x,-y,-z
-x,y,-z
-x,-y,-z
x,y,-z
-x,y,z
x,-y,z
loop_
_atom_site_type_symbol
_atom_site_label
_atom_site_fract_x
_atom_site_fract_y
_atom_site_fract_z
Si Si1 0.614446 0.073933 0.721690
Si Si2 0.061172 0.575177 0.781744
Si Si3 0.335767 0.704536 0.278603
Si Si4 0.258171 0.926334 0.722025
Si Si5 0.226904 0.215130 0.721871
Si Si6 0.168325 0.656443 0.284007
Si Si7 0.273639 0.424383 0.277332
Si Si8 0.438548 0.788189 0.277133
O O1 0.613243 0.074135 0.500000
O O2 0.678061 0.081718 0.772884
O O3 0.580030 0.137647 0.780924
O O4 0.595977 0.000000 0.780099
O O5 0.075045 0.500000 0.716003
O O6 0.108522 0.627343 0.742085
O O7 0.000000 0.591916 0.716399
O O8 0.058375 0.571551 0.000000
O O9 0.336756 0.704275 0.500000
O O10 0.285480 0.752908 0.228298
O O11 0.318713 0.630129 0.221338
O O12 0.392717 0.735492 0.217371
O O13 0.257198 0.926625 0.500000
O O14 0.225458 0.861252 0.784279
O O15 0.239970 0.000000 0.781781
O O16 0.225294 0.212798 0.500000
O O17 0.182227 0.269153 0.784292
O O18 0.177113 0.659716 0.500000
O O19 0.215057 0.605360 0.217171
O O20 0.273592 0.425562 0.500000
O O21 0.281804 0.500000 0.215938
O O22 0.437991 0.788181 0.500000
O O23 0.500000 0.773423 0.219396
#
# Coordination Sequence:
#
# PCOD9388870 Si02
#       8
#     8   8   8   8   8   8   8   8
#     4   8  12  16  21  29  43  67 101 139 174 208
#     4   9  18  31  43  55  77 109 134 147 168 209
#     4   8  12  18  25  33  49  72  99 134 179 222
#     4   8  11  15  25  39  58  86 113 136 173 227
#     4   8  12  19  30  45  66  88 111 145 187 220
#     4   9  16  24  38  59  78  95 122 160 188 208
#     4   8  13  20  31  46  61  77 100 137 182 218
#     4   9  14  17  21  28  41  66 103 144 178 210
#
# _framework density 17.766698999999999
#
# number of rings (size 3 to 8) (size 9 to 14) (size 15 to 20)
#    0.000    3.625    1.250    3.000    0.000    1.250 
#    0.000    1.875    0.000    0.375    0.000    2.625 
#    0.000    1.000    0.000    6.250    0.000   11.000 
#
# Total GULP energy -356579.154830 kJ/mol
# GULP energy per Si atom -5571.549294 kJ/mol
# Density = 1.772626 g / cm^3
# Si number density = 17.766699 Si / 1000 Ang^3
#
#
#
# Elastic Constant Matrix: (Units=GPa)
#
#
# Indices 1 2 3 4 5 6 
#
# 1 116.2276 93.7937 0.2412 0.0000 0.0000 0.0000
# 2 93.7937 186.1472 5.3599 0.0000 0.0000 0.0000
# 3 0.2412 5.3599 65.9107 0.0000 0.0000 0.0000
# 4 0.0000 0.0000 0.0000 3.3233 0.0000 0.0000
# 5 0.0000 0.0000 0.0000 0.0000 29.6958 0.0000
# 6 0.0000 0.0000 0.0000 0.0000 0.0000 28.7463
#
#
#
# Elastic Compliance Matrix: (Units=1/GPa)
#
#
# Indices 1 2 3 4 5 6 
#
# 1 0.014519 -0.007331 0.000543 0.000000 0.000000 0.000000
# 2 -0.007331 0.009087 -0.000712 0.000000 0.000000 0.000000
# 3 0.000543 -0.000712 0.015228 0.000000 0.000000 0.000000
# 4 0.000000 0.000000 0.000000 0.300907 0.000000 0.000000
# 5 0.000000 0.000000 0.000000 0.000000 0.033675 0.000000
# 6 0.000000 0.000000 0.000000 0.000000 0.000000 0.034787
#
#
# Mechanical properties :
#
#
# Convention : Reuss Voigt Hill
#
# Bulk Modulus (GPa) = 41.95892 63.00835 52.48363
# Shear Modulus (GPa) = 11.59697 30.27913 20.93805
#
# Velocity S-wave (km/s) = 2.55764 4.13275 3.43665
# Velocity P-wave (km/s) = 5.69121 7.63637 6.73439
#
# Compressibility (1/GPa) = 0.02383284
#
# Stress axis : x y z
#
# Youngs Moduli (GPa) = 68.87594 110.05246 65.66865
#
# Poissons Ratio (x) = 0.80682 -0.03566
# Poissons Ratio (y) = 0.50495 0.04676
# Poissons Ratio (z) = -0.03740 0.07837
#
# Static dielectric constant tensor:
#      x y z
#    x 1.581280 0.000000 0.000000 
#    y 0.000000 1.629160 0.000000 
#    z 0.000000 0.000000 1.712830 
# 
# From -- ./inp_files/12951.got.cif
#   From: 2010.05.17/outbox.cif.g08.bks.cpg/sg47_7_cif.got.tgz:12951.got - 2010.06.03 20:15:42.
