data_PCOD9388797
_publ_section_title
;
Structure prediction by ZEFSAII (Michael W. Deem and Ramdas Pophale) SiO2 
 PCOD9388797
Probable space group: P M M M
;
_chemical_formula_sum "Si O2"
_cell_formula_units_Z 40
_cell_length_a 27.082949
_cell_length_b 10.098635
_cell_length_c 7.457973
_cell_angle_alpha 90.000000
_cell_angle_beta 90.000000
_cell_angle_gamma 90.000000
_cell_volume 2039.761706
_symmetry_space_group_name_H-M "P M M M"
_symmetry_group_IT_number 47
_symmetry_cell_setting 'orthorhombic'
loop_
_space_group_symop_operation_xyz
x,y,z
-x,-y,z
x,-y,-z
-x,y,-z
-x,-y,-z
x,y,-z
-x,y,z
x,-y,z
loop_
_atom_site_type_symbol
_atom_site_label
_atom_site_fract_x
_atom_site_fract_y
_atom_site_fract_z
Si Si1 0.055183 0.649842 0.715159
Si Si2 0.357855 0.846884 0.780147
Si Si3 0.555756 0.347884 0.218555
Si Si4 0.143198 0.850338 0.785901
Si Si5 0.750204 0.838805 0.207261
O O1 0.052930 0.644037 0.500000
O O2 0.065634 0.500000 0.779383
O O3 0.097937 0.752687 0.757612
O O4 0.000000 0.687925 0.778646
O O5 0.401901 0.752021 0.721361
O O6 0.303300 0.802025 0.716872
O O7 0.365627 0.000000 0.728015
O O8 0.356641 0.845692 0.000000
O O9 0.500000 0.311340 0.273999
O O10 0.564975 0.500000 0.272503
O O11 0.556102 0.346086 0.000000
O O12 0.196506 0.800877 0.714223
O O13 0.133441 0.000000 0.718907
O O14 0.149770 0.860599 0.000000
O O15 0.750655 0.000000 0.207590
O O16 0.749520 0.793946 0.000000
#
# Coordination Sequence:
#
# PCOD9388797 Si02
#       5
#     8   8   8   8   8
#     4   9  19  35  50  63  84 115 146 174 207 248
#     4   8  12  18  29  42  56  80 115 150 183 224
#     4   8  13  19  24  32  51  79 110 148 193 231
#     4   9  17  29  46  68  91 112 137 173 214 254
#     4   7  11  21  35  51  73  98 121 151 196 242
#
# _framework density 19.610133000000001
#
# number of rings (size 3 to 8) (size 9 to 14) (size 15 to 20)
#    0.000    3.800    0.000    3.600    0.000    2.000 
#    0.000    6.000    0.000    3.600    0.000    0.000 
#    0.000    0.000    0.000    0.000    0.000    1.000 
#
# Total GULP energy -222692.156301 kJ/mol
# GULP energy per Si atom -5567.303908 kJ/mol
# Density = 1.956550 g / cm^3
# Si number density = 19.610133 Si / 1000 Ang^3
#
#
#
# Elastic Constant Matrix: (Units=GPa)
#
#
# Indices 1 2 3 4 5 6 
#
# 1 252.1353 129.2877 8.1730 0.0000 0.0000 0.0000
# 2 129.2877 94.2402 4.0075 0.0000 0.0000 0.0000
# 3 8.1730 4.0075 56.2725 0.0000 0.0000 0.0000
# 4 0.0000 0.0000 0.0000 7.0941 0.0000 0.0000
# 5 0.0000 0.0000 0.0000 0.0000 99.9033 0.0000
# 6 0.0000 0.0000 0.0000 0.0000 0.0000 -34.5823
#
#
#
# Elastic Compliance Matrix: (Units=1/GPa)
#
#
# Indices 1 2 3 4 5 6 
#
# 1 0.013398 -0.018353 -0.000639 0.000000 0.000000 0.000000
# 2 -0.018353 0.035785 0.000117 0.000000 0.000000 0.000000
# 3 -0.000639 0.000117 0.017855 0.000000 0.000000 0.000000
# 4 0.000000 0.000000 0.000000 0.140962 0.000000 0.000000
# 5 0.000000 0.000000 0.000000 0.000000 0.010010 0.000000
# 6 0.000000 0.000000 0.000000 0.000000 0.000000 -0.028917
#
#
# Mechanical properties :
#
#
# Convention : Reuss Voigt Hill
#
# Bulk Modulus (GPa) = 34.14366 76.17605 55.15985
# Shear Modulus (GPa) = 21.13220 31.89502 26.51361
#
# Velocity S-wave (km/s) = 3.28627 4.03731 3.68099
# Velocity P-wave (km/s) = 5.64344 7.78863 6.80115
#
# Compressibility (1/GPa) = 0.02928802
#
# Stress axis : x y z
#
# Youngs Moduli (GPa) = 74.63853 27.94461 56.00638
#
# Poissons Ratio (x) = 0.51288 0.03578
# Poissons Ratio (y) = 1.36987 -0.00656
# Poissons Ratio (z) = 0.04768 -0.00327
#
# Static dielectric constant tensor:
#      x y z
#    x 1.722840 0.000000 0.000000 
#    y 0.000000 1.645210 0.000000 
#    z 0.000000 0.000000 1.771360 
# 
# From -- ./inp_files/1658.got.cif
#   From: 2010.05.17/outbox.cif.g08.bks.cpg/sg47_1_cif.got.tgz:1658.got - 2010.06.03 20:15:42.
