data_PCOD9388736
_publ_section_title
;
Structure prediction by ZEFSAII (Michael W. Deem and Ramdas Pophale) SiO2 
 PCOD9388736
Probable space group: P M M M
;
_chemical_formula_sum "Si O2"
_cell_formula_units_Z 52
_cell_length_a 13.712955
_cell_length_b 7.347782
_cell_length_c 25.030266
_cell_angle_alpha 90.000000
_cell_angle_beta 90.000000
_cell_angle_gamma 90.000000
_cell_volume 2522.044694
_symmetry_space_group_name_H-M "P M M M"
_symmetry_group_IT_number 47
_symmetry_cell_setting 'orthorhombic'
loop_
_space_group_symop_operation_xyz
x,y,z
-x,-y,z
x,-y,-z
-x,y,-z
-x,-y,-z
x,y,-z
-x,y,z
x,-y,z
loop_
_atom_site_type_symbol
_atom_site_label
_atom_site_fract_x
_atom_site_fract_y
_atom_site_fract_z
Si Si1 0.608506 0.778832 0.780912
Si Si2 0.285526 0.276326 0.938571
Si Si3 0.107961 0.720135 0.272725
Si Si4 0.385584 0.221166 0.558783
Si Si5 0.808944 0.294001 0.163061
Si Si6 0.692149 0.787609 0.669916
Si Si7 0.500000 0.291104 0.935053
O O1 0.500000 0.727403 0.798398
O O2 0.697975 0.703337 0.814685
O O3 0.628597 0.717571 0.719793
O O4 0.615204 0.000000 0.782602
O O5 0.288265 0.500000 0.937311
O O6 0.205339 0.214487 0.895837
O O7 0.394350 0.211583 0.921575
O O8 0.268208 0.224670 0.000000
O O9 0.110360 0.500000 0.270464
O O10 0.131534 0.787640 0.212496
O O11 0.195963 0.773614 0.311395
O O12 0.000000 0.777140 0.289319
O O13 0.352183 0.283783 0.500000
O O14 0.500000 0.266225 0.564333
O O15 0.329851 0.287887 0.611383
O O16 0.379291 0.000000 0.557673
O O17 0.845606 0.500000 0.156302
O O18 0.666286 0.000000 0.666874
O O19 0.500000 0.500000 0.916533
O O20 0.500000 0.294752 0.000000
#
# Coordination Sequence:
#
# PCOD9388736 Si02
#       7
#     8   8   8   8   8   8   4
#     4   9  17  27  38  56  86 117 136 159 202 247
#     4   8  13  21  34  54  79 102 127 163 203 241
#     4   9  18  32  46  60  82 110 138 174 223 266
#     4   8  13  22  40  68  98 123 144 168 202 243
#     4   9  17  27  42  62  78 100 138 176 206 243
#     4   9  16  27  45  67  87 109 143 178 203 239
#     4   7  10  16  26  44  71  99 121 145 182 223
#
# _framework density 20.618190999999999
#
# number of rings (size 3 to 8) (size 9 to 14) (size 15 to 20)
#    0.000    3.462    0.000    1.846    1.077    2.462 
#    0.000    0.000    0.000    3.231    0.000    8.615 
#    0.000    0.000    0.000    7.692    0.000    8.000 
#
# Total GULP energy -289823.810749 kJ/mol
# GULP energy per Si atom -5573.534822 kJ/mol
# Density = 2.057126 g / cm^3
# Si number density = 20.618191 Si / 1000 Ang^3
#
#
#
# Elastic Constant Matrix: (Units=GPa)
#
#
# Indices 1 2 3 4 5 6 
#
# 1 35.1644 -12.1439 11.9542 0.0000 0.0000 0.0000
# 2 -12.1439 78.1360 -1.5155 0.0000 0.0000 0.0000
# 3 11.9542 -1.5155 132.6465 0.0000 0.0000 0.0000
# 4 0.0000 0.0000 0.0000 -1.3894 0.0000 0.0000
# 5 0.0000 0.0000 0.0000 0.0000 19.0643 0.0000
# 6 0.0000 0.0000 0.0000 0.0000 0.0000 10.0649
#
#
#
# Elastic Compliance Matrix: (Units=1/GPa)
#
#
# Indices 1 2 3 4 5 6 
#
# 1 0.031016 0.004767 -0.002741 0.000000 0.000000 0.000000
# 2 0.004767 0.013534 -0.000275 0.000000 0.000000 0.000000
# 3 -0.002741 -0.000275 0.007783 0.000000 0.000000 0.000000
# 4 0.000000 0.000000 0.000000 -0.719716 0.000000 0.000000
# 5 0.000000 0.000000 0.000000 0.000000 0.052454 0.000000
# 6 0.000000 0.000000 0.000000 0.000000 0.000000 0.099356
#
#
# Mechanical properties :
#
#
# Convention : Reuss Voigt Hill
#
# Bulk Modulus (GPa) = 17.90969 26.94848 22.42908
# Shear Modulus (GPa) = -9.99069 22.05809 6.03370
#
# Velocity S-wave (km/s) = -2.20365 3.27438 1.71253
# Velocity P-wave (km/s) = 1.49346 5.23393 3.84867
#
# Compressibility (1/GPa) = 0.05583571
#
# Stress axis : x y z
#
# Youngs Moduli (GPa) = 32.24149 73.88899 128.49030
#
# Poissons Ratio (x) = -0.35225 0.35215
# Poissons Ratio (y) = -0.15371 0.03534
# Poissons Ratio (z) = 0.08836 0.02032
#
# Static dielectric constant tensor:
#      x y z
#    x 1.700280 0.000000 0.000000 
#    y 0.000000 1.827970 0.000000 
#    z 0.000000 0.000000 1.779510 
# 
# From -- ./inp_files/32673.got.cif
#   From: 2010.05.17/outbox.cif.g08.bks.cpg/sg47_17_cif.got.tgz:32673.got - 2010.06.03 20:15:42.
