data_PCOD9388577
_publ_section_title
;
Structure prediction by ZEFSAII (Michael W. Deem and Ramdas Pophale) SiO2 
 PCOD9388577
Probable space group: P M M M
;
_chemical_formula_sum "Si O2"
_cell_formula_units_Z 48
_cell_length_a 29.767513
_cell_length_b 10.281065
_cell_length_c 8.549482
_cell_angle_alpha 90.000000
_cell_angle_beta 90.000000
_cell_angle_gamma 90.000000
_cell_volume 2616.498314
_symmetry_space_group_name_H-M "P M M M"
_symmetry_group_IT_number 47
_symmetry_cell_setting 'orthorhombic'
loop_
_space_group_symop_operation_xyz
x,y,z
-x,-y,z
x,-y,-z
-x,y,-z
-x,-y,-z
x,y,-z
-x,y,z
x,-y,z
loop_
_atom_site_type_symbol
_atom_site_label
_atom_site_fract_x
_atom_site_fract_y
_atom_site_fract_z
Si Si1 0.228623 0.149711 0.689084
Si Si2 0.949082 0.350720 0.309150
Si Si3 0.697694 0.348515 0.812635
Si Si4 0.397384 0.747726 0.685301
Si Si5 0.552107 0.000000 0.187350
Si Si6 0.125210 0.147402 0.309305
Si Si7 0.553527 0.500000 0.819222
O O1 0.230762 0.154305 0.500000
O O2 0.261465 0.258342 0.756152
O O3 0.176776 0.174009 0.736280
O O4 0.240189 0.000000 0.734981
O O5 0.948523 0.348741 0.500000
O O6 0.940443 0.500000 0.262110
O O7 0.911028 0.251820 0.253741
O O8 0.000000 0.315453 0.261817
O O9 0.700617 0.500000 0.759117
O O10 0.651903 0.283672 0.751194
O O11 0.696685 0.349748 0.000000
O O12 0.394526 0.760855 0.500000
O O13 0.427821 0.625949 0.733780
O O14 0.420906 0.874489 0.755271
O O15 0.500000 0.000000 0.242905
O O16 0.551017 0.000000 0.000000
O O17 0.124684 0.149423 0.500000
O O18 0.113805 0.000000 0.261499
O O19 0.500000 0.500000 0.819470
O O20 0.569473 0.500000 0.000000
#
# Coordination Sequence:
#
# PCOD9388577 Si02
#       7
#     8   8   8   8   4   8   4
#     4   9  19  35  55  79 108 140 180 230 282 337
#     4   8  13  20  31  52  86 128 173 217 262 317
#     4  11  24  41  60  82 112 147 186 230 281 342
#     4  12  25  41  64  92 121 153 194 241 284 333
#     4  11  25  45  67  91 123 161 195 231 282 339
#     4   8  14  25  40  61  91 128 169 216 269 323
#     4  11  23  41  65  91 123 161 195 231 282 339
#
# _framework density 18.345130000000001
#
# number of rings (size 3 to 8) (size 9 to 14) (size 15 to 20)
#    0.000    2.167    0.833    4.500    1.167    5.667 
#    0.000    3.333    0.000    0.000    0.000    0.000 
#    0.000    0.667    0.000    7.333    0.000   12.000 
#
# Total GULP energy -267905.593794 kJ/mol
# GULP energy per Si atom -5581.366537 kJ/mol
# Density = 1.830338 g / cm^3
# Si number density = 18.345130 Si / 1000 Ang^3
#
#
#
# Elastic Constant Matrix: (Units=GPa)
#
#
# Indices 1 2 3 4 5 6 
#
# 1 159.9127 127.4053 34.1347 0.0000 0.0000 0.0000
# 2 127.4053 185.5937 38.1869 0.0000 0.0000 0.0000
# 3 34.1347 38.1869 41.7178 0.0000 0.0000 0.0000
# 4 0.0000 0.0000 0.0000 16.8538 0.0000 0.0000
# 5 0.0000 0.0000 0.0000 0.0000 61.3103 0.0000
# 6 0.0000 0.0000 0.0000 0.0000 0.0000 38.8028
#
#
#
# Elastic Compliance Matrix: (Units=1/GPa)
#
#
# Indices 1 2 3 4 5 6 
#
# 1 0.014164 -0.009042 -0.003313 0.000000 0.000000 0.000000
# 2 -0.009042 0.012410 -0.003962 0.000000 0.000000 0.000000
# 3 -0.003313 -0.003962 0.030308 0.000000 0.000000 0.000000
# 4 0.000000 0.000000 0.000000 0.059334 0.000000 0.000000
# 5 0.000000 0.000000 0.000000 0.000000 0.016310 0.000000
# 6 0.000000 0.000000 0.000000 0.000000 0.000000 0.025771
#
#
# Mechanical properties :
#
#
# Convention : Reuss Voigt Hill
#
# Bulk Modulus (GPa) = 41.23834 87.40868 64.32351
# Shear Modulus (GPa) = 25.12385 35.89321 30.50853
#
# Velocity S-wave (km/s) = 3.70470 4.42809 4.08245
# Velocity P-wave (km/s) = 6.38966 8.59618 7.57370
#
# Compressibility (1/GPa) = 0.02424928
#
# Stress axis : x y z
#
# Youngs Moduli (GPa) = 70.59963 80.57904 32.99478
#
# Poissons Ratio (x) = 0.72858 0.10932
# Poissons Ratio (y) = 0.63835 0.13071
# Poissons Ratio (z) = 0.23391 0.31922
#
# Static dielectric constant tensor:
#      x y z
#    x 1.619580 0.000000 0.000000 
#    y 0.000000 1.609920 0.000000 
#    z 0.000000 0.000000 1.625140 
# 
# From -- ./inp_files/13853.got.cif
#   From: 2010.05.17/outbox.cif.g08.bks.cpg/sg47_7_cif.got.tgz:13853.got - 2010.06.03 20:15:42.
