data_PCOD9388893
_publ_section_title
;
Structure prediction by ZEFSAII (Michael W. Deem and Ramdas Pophale) SiO2 
 PCOD9388893
Probable space group: P M M M
;
_chemical_formula_sum "Si O2"
_cell_formula_units_Z 64
_cell_length_a 20.653442
_cell_length_b 7.340789
_cell_length_c 21.271032
_cell_angle_alpha 90.000000
_cell_angle_beta 90.000000
_cell_angle_gamma 90.000000
_cell_volume 3224.955612
_symmetry_space_group_name_H-M "P M M M"
_symmetry_group_IT_number 47
_symmetry_cell_setting 'orthorhombic'
loop_
_space_group_symop_operation_xyz
x,y,z
-x,-y,z
x,-y,-z
-x,y,-z
-x,-y,-z
x,y,-z
-x,y,z
x,-y,z
loop_
_atom_site_type_symbol
_atom_site_label
_atom_site_fract_x
_atom_site_fract_y
_atom_site_fract_z
Si Si1 0.149123 0.778135 0.931715
Si Si2 0.709080 0.223315 0.891949
Si Si3 0.429825 0.790773 0.093943
Si Si4 0.073877 0.778118 0.428292
Si Si5 0.289434 0.785788 0.747119
Si Si6 0.840474 0.222336 0.687187
Si Si7 0.569468 0.282807 0.241695
Si Si8 0.925777 0.777905 0.192680
O O1 0.224192 0.724238 0.924330
O O2 0.108272 0.717607 0.871701
O O3 0.148334 0.000000 0.930283
O O4 0.124185 0.721245 0.000000
O O5 0.640938 0.286446 0.921629
O O6 0.713563 0.284738 0.818941
O O7 0.706155 0.000000 0.892486
O O8 0.500000 0.709625 0.076287
O O9 0.428262 0.791603 0.170403
O O10 0.430846 0.000000 0.072634
O O11 0.087190 0.721308 0.500000
O O12 0.125437 0.716070 0.376801
O O13 0.000000 0.724473 0.411937
O O14 0.074318 0.000000 0.428029
O O15 0.232544 0.715922 0.702546
O O16 0.363415 0.765037 0.725140
O O17 0.276865 0.000000 0.753750
O O18 0.884205 0.275971 0.746830
O O19 0.840539 0.000000 0.684631
O O20 0.500000 0.225032 0.269339
O O21 0.568824 0.500000 0.235819
O O22 0.000000 0.719560 0.196816
O O23 0.925520 0.000000 0.192177
#
# Coordination Sequence:
#
# PCOD9388893 Si02
#       8
#     8   8   8   8   8   8   8   8
#     4   9  15  21  28  39  59  90 125 158 193 229
#     4   8  12  20  31  43  61  86 118 152 184 221
#     4   8  13  21  35  52  68  92 125 155 184 225
#     4   8  13  20  30  47  74 106 133 157 191 232
#     4   9  15  23  37  53  72 101 133 160 186 225
#     4   9  14  21  33  49  70  98 131 160 186 224
#     4   9  16  24  34  52  79 104 124 153 195 234
#     4   9  15  21  29  42  62  91 126 159 190 227
#
# _framework density 19.845234000000001
#
# number of rings (size 3 to 8) (size 9 to 14) (size 15 to 20)
#    0.000    3.375    1.250    1.875    0.000    2.500 
#    0.000    1.250    0.000    0.375    0.000    2.625 
#    0.000   11.000    0.000   39.125    0.000   37.375 
#
# Total GULP energy -356795.271590 kJ/mol
# GULP energy per Si atom -5574.926119 kJ/mol
# Density = 1.980007 g / cm^3
# Si number density = 19.845234 Si / 1000 Ang^3
#
#
#
# Elastic Constant Matrix: (Units=GPa)
#
#
# Indices 1 2 3 4 5 6 
#
# 1 178.5345 -2.4921 80.6113 0.0000 0.0000 0.0000
# 2 -2.4921 73.4390 3.0869 0.0000 0.0000 0.0000
# 3 80.6113 3.0869 104.5430 0.0000 0.0000 0.0000
# 4 0.0000 0.0000 0.0000 43.9334 0.0000 0.0000
# 5 0.0000 0.0000 0.0000 0.0000 15.8109 0.0000
# 6 0.0000 0.0000 0.0000 0.0000 0.0000 -124.3768
#
#
#
# Elastic Compliance Matrix: (Units=1/GPa)
#
#
# Indices 1 2 3 4 5 6 
#
# 1 0.008617 0.000572 -0.006661 0.000000 0.000000 0.000000
# 2 0.000572 0.013672 -0.000845 0.000000 0.000000 0.000000
# 3 -0.006661 -0.000845 0.014727 0.000000 0.000000 0.000000
# 4 0.000000 0.000000 0.000000 0.022762 0.000000 0.000000
# 5 0.000000 0.000000 0.000000 0.000000 0.063247 0.000000
# 6 0.000000 0.000000 0.000000 0.000000 0.000000 -0.008040
#
#
# Mechanical properties :
#
#
# Convention : Reuss Voigt Hill
#
# Bulk Modulus (GPa) = 43.20114 57.65875 50.42995
# Shear Modulus (GPa) = 36.61193 5.42755 21.01974
#
# Velocity S-wave (km/s) = 4.29986 1.65556 3.25804
# Velocity P-wave (km/s) = 6.81674 5.72466 6.29443
#
# Compressibility (1/GPa) = 0.02314753
#
# Stress axis : x y z
#
# Youngs Moduli (GPa) = 116.05295 73.14386 67.90398
#
# Poissons Ratio (x) = -0.04187 0.45232
# Poissons Ratio (y) = -0.06643 0.05738
# Poissons Ratio (z) = 0.77304 0.06181
#
# Static dielectric constant tensor:
#      x y z
#    x 1.745910 0.000000 0.000000 
#    y 0.000000 1.775300 0.000000 
#    z 0.000000 0.000000 1.658790 
# 
# From -- ./inp_files/31509.got.cif
#   From: 2010.05.17/outbox.cif.g08.bks.cpg/sg47_16_cif.got.tgz:31509.got - 2010.06.03 20:15:42.
