data_PCOD9388494
_publ_section_title
;
Structure prediction by ZEFSAII (Michael W. Deem and Ramdas Pophale) SiO2 
 PCOD9388494
Probable space group: P M M M
;
_chemical_formula_sum "Si O2"
_cell_formula_units_Z 40
_cell_length_a 10.469345
_cell_length_b 24.958313
_cell_length_c 8.386864
_cell_angle_alpha 90.000000
_cell_angle_beta 90.000000
_cell_angle_gamma 90.000000
_cell_volume 2191.463991
_symmetry_space_group_name_H-M "P M M M"
_symmetry_group_IT_number 47
_symmetry_cell_setting 'orthorhombic'
loop_
_space_group_symop_operation_xyz
x,y,z
-x,-y,z
x,-y,-z
-x,y,-z
-x,-y,-z
x,y,-z
-x,y,z
x,-y,z
loop_
_atom_site_type_symbol
_atom_site_label
_atom_site_fract_x
_atom_site_fract_y
_atom_site_fract_z
Si Si1 0.354663 0.938501 0.694555
Si Si2 0.146356 0.852939 0.692278
Si Si3 0.251282 0.376890 0.809112
Si Si4 0.851548 0.734970 0.192298
Si Si5 0.000000 0.562342 0.691419
Si Si6 0.500000 0.561420 0.690390
O O1 0.353395 0.937724 0.500000
O O2 0.500000 0.924744 0.743398
O O3 0.247487 0.896969 0.750315
O O4 0.328540 0.000000 0.742412
O O5 0.144077 0.855512 0.500000
O O6 0.184926 0.792931 0.741519
O O7 0.000000 0.861947 0.748691
O O8 0.232911 0.315338 0.753940
O O9 0.375077 0.406738 0.744862
O O10 0.125444 0.408781 0.756664
O O11 0.257252 0.376238 0.000000
O O12 0.000000 0.724929 0.238427
O O13 0.847634 0.737256 0.000000
O O14 0.000000 0.500000 0.738148
O O15 0.000000 0.565346 0.500000
O O16 0.500000 0.500000 0.751844
O O17 0.500000 0.558900 0.500000
#
# Coordination Sequence:
#
# PCOD9388494 Si02
#       6
#     8   8   8   8   4   4
#     4   8  14  26  44  67  99 135 167 206 257 307
#     4   9  17  28  46  74 101 128 168 213 256 305
#     4  11  22  39  61  83 108 145 190 228 267 326
#     4   9  18  35  55  76 105 138 173 216 265 313
#     4  11  23  37  57  87 117 143 176 225 280 327
#     4  11  25  43  59  81 115 147 176 221 284 337
#
# _framework density 18.252637
#
# number of rings (size 3 to 8) (size 9 to 14) (size 15 to 20)
#    0.000    2.400    1.000    2.400    0.000    6.000 
#    1.800    2.000    0.000    0.600    0.000    4.200 
#    0.000    0.000    0.000    0.000    0.000    0.000 
#
# Total GULP energy -223164.698431 kJ/mol
# GULP energy per Si atom -5579.117461 kJ/mol
# Density = 1.821109 g / cm^3
# Si number density = 18.252637 Si / 1000 Ang^3
#
#
#
# Elastic Constant Matrix: (Units=GPa)
#
#
# Indices 1 2 3 4 5 6 
#
# 1 156.6539 123.4261 21.4326 0.0000 0.0000 0.0000
# 2 123.4261 187.3773 22.6163 0.0000 0.0000 0.0000
# 3 21.4326 22.6163 15.2145 0.0000 0.0000 0.0000
# 4 0.0000 0.0000 0.0000 41.3113 0.0000 0.0000
# 5 0.0000 0.0000 0.0000 0.0000 22.4375 0.0000
# 6 0.0000 0.0000 0.0000 0.0000 0.0000 -13.3804
#
#
#
# Elastic Compliance Matrix: (Units=1/GPa)
#
#
# Indices 1 2 3 4 5 6 
#
# 1 0.013902 -0.008279 -0.007277 0.000000 0.000000 0.000000
# 2 -0.008279 0.011434 -0.005334 0.000000 0.000000 0.000000
# 3 -0.007277 -0.005334 0.083907 0.000000 0.000000 0.000000
# 4 0.000000 0.000000 0.000000 0.024206 0.000000 0.000000
# 5 0.000000 0.000000 0.000000 0.000000 0.044568 0.000000
# 6 0.000000 0.000000 0.000000 0.000000 0.000000 -0.074736
#
#
# Mechanical properties :
#
#
# Convention : Reuss Voigt Hill
#
# Bulk Modulus (GPa) = 14.82302 77.13286 45.97794
# Shear Modulus (GPa) = 29.84201 22.85840 26.35020
#
# Velocity S-wave (km/s) = 4.04783 3.54267 3.80365
# Velocity P-wave (km/s) = 5.47588 7.68663 6.67343
#
# Compressibility (1/GPa) = 0.06746263
#
# Stress axis : x y z
#
# Youngs Moduli (GPa) = 71.93183 87.45815 11.91800
#
# Poissons Ratio (x) = 0.72407 0.08673
# Poissons Ratio (y) = 0.59552 0.06357
# Poissons Ratio (z) = 0.52345 0.46650
#
# Static dielectric constant tensor:
#      x y z
#    x 1.607470 0.000000 0.000000 
#    y 0.000000 1.623130 0.000000 
#    z 0.000000 0.000000 1.628330 
# 
# From -- ./inp_files/1730.got.cif
#   From: 2010.05.17/outbox.cif.g08.bks.cpg/sg47_1_cif.got.tgz:1730.got - 2010.06.03 20:15:42.
