data_PCOD9388040
_publ_section_title
;
Structure prediction by ZEFSAII (Michael W. Deem and Ramdas Pophale) SiO2 
 PCOD9388040
Probable space group: P M M M
;
_chemical_formula_sum "Si O2"
_cell_formula_units_Z 44
_cell_length_a 8.037605
_cell_length_b 18.150044
_cell_length_c 15.046013
_cell_angle_alpha 90.000000
_cell_angle_beta 90.000000
_cell_angle_gamma 90.000000
_cell_volume 2194.955775
_symmetry_space_group_name_H-M "P M M M"
_symmetry_group_IT_number 47
_symmetry_cell_setting 'orthorhombic'
loop_
_space_group_symop_operation_xyz
x,y,z
-x,-y,z
x,-y,-z
-x,y,-z
-x,-y,-z
x,y,-z
-x,y,z
x,-y,z
loop_
_atom_site_type_symbol
_atom_site_label
_atom_site_fract_x
_atom_site_fract_y
_atom_site_fract_z
Si Si1 0.700027 0.782063 0.099671
Si Si2 0.801656 0.356775 0.785374
Si Si3 0.797137 0.586381 0.401434
Si Si4 0.300245 0.500000 0.102611
Si Si5 0.199422 0.087888 0.595639
Si Si6 0.301508 0.916369 0.212016
O O1 0.500000 0.787922 0.094704
O O2 0.737892 0.715390 0.165457
O O3 0.764980 0.858586 0.140654
O O4 0.763206 0.768094 0.000000
O O5 0.737544 0.369534 0.684807
O O6 0.757934 0.427973 0.844483
O O7 0.000000 0.351506 0.780133
O O8 0.742252 0.610797 0.500000
O O9 0.752442 0.500000 0.390834
O O10 0.000000 0.588949 0.401377
O O11 0.500000 0.500000 0.101121
O O12 0.241421 0.500000 0.000000
O O13 0.258568 0.117945 0.500000
O O14 0.270317 0.114597 0.688743
O O15 0.000000 0.096304 0.598380
O O16 0.235326 0.000000 0.594549
O O17 0.500000 0.921538 0.200599
O O18 0.233426 0.000000 0.205624
#
# Coordination Sequence:
#
# PCOD9388040 Si02
#       6
#     8   8   8   4   8   8
#     4  10  22  39  55  73 104 143 177 218 278 334
#     4  11  21  35  57  84 109 137 178 223 261 306
#     4   8  14  28  52  80 108 137 170 209 254 303
#     4  11  23  37  54  77 108 146 181 215 262 315
#     4   8  14  26  46  73 104 135 165 202 255 318
#     4   9  18  33  54  78 101 132 180 231 273 319
#
# _framework density 20.045960999999998
#
# number of rings (size 3 to 8) (size 9 to 14) (size 15 to 20)
#    0.000    2.636    0.909    2.455    0.000    4.727 
#    0.000    4.545    0.000    6.000    0.000    3.818 
#    0.000    0.000    0.000    0.000    0.000    0.000 
#
# Total GULP energy -245323.090887 kJ/mol
# GULP energy per Si atom -5575.524793 kJ/mol
# Density = 2.000034 g / cm^3
# Si number density = 20.045961 Si / 1000 Ang^3
#
#
#
# Elastic Constant Matrix: (Units=GPa)
#
#
# Indices 1 2 3 4 5 6 
#
# 1 10.5384 2.0415 11.0196 0.0000 0.0000 0.0000
# 2 2.0415 92.8816 83.8161 0.0000 0.0000 0.0000
# 3 11.0196 83.8161 207.0107 0.0000 0.0000 0.0000
# 4 0.0000 0.0000 0.0000 30.8729 0.0000 0.0000
# 5 0.0000 0.0000 0.0000 0.0000 19.5970 0.0000
# 6 0.0000 0.0000 0.0000 0.0000 0.0000 -32.6445
#
#
#
# Elastic Compliance Matrix: (Units=1/GPa)
#
#
# Indices 1 2 3 4 5 6 
#
# 1 0.101498 0.004167 -0.007090 0.000000 0.000000 0.000000
# 2 0.004167 0.017136 -0.007160 0.000000 0.000000 0.000000
# 3 -0.007090 -0.007160 0.008107 0.000000 0.000000 0.000000
# 4 0.000000 0.000000 0.000000 0.032391 0.000000 0.000000
# 5 0.000000 0.000000 0.000000 0.000000 0.051028 0.000000
# 6 0.000000 0.000000 0.000000 0.000000 0.000000 -0.030633
#
#
# Mechanical properties :
#
#
# Convention : Reuss Voigt Hill
#
# Bulk Modulus (GPa) = 9.38304 56.02057 32.70180
# Shear Modulus (GPa) = 21.25689 17.80200 19.52944
#
# Velocity S-wave (km/s) = 3.25992 2.98327 3.12466
# Velocity P-wave (km/s) = 4.34285 6.31452 5.41911
#
# Compressibility (1/GPa) = 0.10657527
#
# Stress axis : x y z
#
# Youngs Moduli (GPa) = 9.85240 58.35697 123.34915
#
# Poissons Ratio (x) = -0.24319 0.87457
# Poissons Ratio (y) = -0.04106 0.88317
# Poissons Ratio (z) = 0.06986 0.41783
#
# Static dielectric constant tensor:
#      x y z
#    x 1.720140 0.000000 0.000000 
#    y 0.000000 1.683720 0.000000 
#    z 0.000000 0.000000 1.745470 
# 
# From -- ./inp_files/20921.got.cif
#   From: 2010.05.17/outbox.cif.g08.bks.cpg/sg47_11_cif.got.tgz:20921.got - 2010.06.03 20:15:42.
