data_PCOD9388900
_publ_section_title
;
Structure prediction by ZEFSAII (Michael W. Deem and Ramdas Pophale) SiO2 
 PCOD9388900
Probable space group: P M M M
;
_chemical_formula_sum "Si O2"
_cell_formula_units_Z 52
_cell_length_a 11.147285
_cell_length_b 7.357913
_cell_length_c 29.450896
_cell_angle_alpha 90.000000
_cell_angle_beta 90.000000
_cell_angle_gamma 90.000000
_cell_volume 2415.584673
_symmetry_space_group_name_H-M "P M M M"
_symmetry_group_IT_number 47
_symmetry_cell_setting 'orthorhombic'
loop_
_space_group_symop_operation_xyz
x,y,z
-x,-y,z
x,-y,-z
-x,y,-z
-x,-y,-z
x,y,-z
-x,y,z
x,-y,z
loop_
_atom_site_type_symbol
_atom_site_label
_atom_site_fract_x
_atom_site_fract_y
_atom_site_fract_z
Si Si1 0.864061 0.277895 0.724382
Si Si2 0.000000 0.720712 0.551102
Si Si3 0.364864 0.278478 0.783721
Si Si4 0.867131 0.783014 0.948269
Si Si5 0.367777 0.716725 0.888153
Si Si6 0.638698 0.279675 0.548783
Si Si7 0.801149 0.279781 0.623088
O O1 0.864410 0.500000 0.725119
O O2 0.751157 0.219453 0.755053
O O3 0.838352 0.216711 0.672654
O O4 0.000000 0.222573 0.737752
O O5 0.110299 0.773052 0.582491
O O6 0.000000 0.500000 0.548644
O O7 0.000000 0.788129 0.500000
O O8 0.500000 0.224611 0.768169
O O9 0.363966 0.500000 0.782685
O O10 0.352142 0.219869 0.836198
O O11 0.750003 0.749707 0.918035
O O12 0.000000 0.718486 0.932055
O O13 0.875339 0.000000 0.950633
O O14 0.850099 0.715678 0.000000
O O15 0.500000 0.782141 0.904829
O O16 0.376464 0.500000 0.885681
O O17 0.694622 0.219156 0.500000
O O18 0.500000 0.237823 0.545727
O O19 0.654136 0.500000 0.548597
O O20 0.679819 0.220884 0.598771
O O21 0.804470 0.500000 0.626959
#
# Coordination Sequence:
#
# PCOD9388900 Si02
#       7
#     8   4   8   8   8   8   8
#     4   9  15  22  31  44  63  84 112 153 199 250
#     4   9  14  18  24  32  44  66  96 132 180 237
#     4   8  15  27  40  54  75 103 133 169 217 267
#     4   9  19  35  52  72 101 134 165 198 237 282
#     4   9  18  32  49  71  98 126 161 204 244 287
#     4   8  13  19  24  30  41  58  84 121 166 220
#     4   9  14  19  25  34  48  67  94 132 181 235
#
# _framework density 21.526880999999999
#
# number of rings (size 3 to 8) (size 9 to 14) (size 15 to 20)
#    0.000    3.308    0.769    2.308    0.000    4.308 
#    0.000    6.923    0.000    0.000    0.000    0.000 
#    0.000    0.000    0.000    0.000    0.000    0.000 
#
# Total GULP energy -289471.030530 kJ/mol
# GULP energy per Si atom -5566.750587 kJ/mol
# Density = 2.147789 g / cm^3
# Si number density = 21.526881 Si / 1000 Ang^3
#
#
#
# Elastic Constant Matrix: (Units=GPa)
#
#
# Indices 1 2 3 4 5 6 
#
# 1 211.4452 6.0449 119.8056 0.0000 0.0000 0.0000
# 2 6.0449 75.4449 5.2484 0.0000 0.0000 0.0000
# 3 119.8056 5.2484 120.4336 0.0000 0.0000 0.0000
# 4 0.0000 0.0000 0.0000 -30.3009 0.0000 0.0000
# 5 0.0000 0.0000 0.0000 0.0000 58.0346 0.0000
# 6 0.0000 0.0000 0.0000 0.0000 0.0000 16.2651
#
#
#
# Elastic Compliance Matrix: (Units=1/GPa)
#
#
# Indices 1 2 3 4 5 6 
#
# 1 0.010839 -0.000119 -0.010778 0.000000 0.000000 0.000000
# 2 -0.000119 0.013296 -0.000461 0.000000 0.000000 0.000000
# 3 -0.010778 -0.000461 0.019045 0.000000 0.000000 0.000000
# 4 0.000000 0.000000 0.000000 -0.033002 0.000000 0.000000
# 5 0.000000 0.000000 0.000000 0.000000 0.017231 0.000000
# 6 0.000000 0.000000 0.000000 0.000000 0.000000 0.061481
#
#
# Mechanical properties :
#
#
# Convention : Reuss Voigt Hill
#
# Bulk Modulus (GPa) = 48.86363 74.39129 61.62746
# Shear Modulus (GPa) = 42.21969 27.21476 34.71722
#
# Velocity S-wave (km/s) = 4.43341 3.55945 4.02025
# Velocity P-wave (km/s) = 6.99678 7.17811 7.08803
#
# Compressibility (1/GPa) = 0.02046512
#
# Stress axis : x y z
#
# Youngs Moduli (GPa) = 92.25536 75.20878 52.50719
#
# Poissons Ratio (x) = 0.00893 0.56591
# Poissons Ratio (y) = 0.01095 0.02422
# Poissons Ratio (z) = 0.99431 0.03470
#
# Static dielectric constant tensor:
#      x y z
#    x 2.125860 0.000000 0.000000 
#    y 0.000000 1.899000 0.000000 
#    z 0.000000 0.000000 1.762340 
# 
# From -- ./inp_files/33578.got.cif
#   From: 2010.05.17/outbox.cif.g08.bks.cpg/sg47_17_cif.got.tgz:33578.got - 2010.06.03 20:15:42.
