data_PCOD9388538
_publ_section_title
;
Structure prediction by ZEFSAII (Michael W. Deem and Ramdas Pophale) SiO2 
 PCOD9388538
Probable space group: P M M M
;
_chemical_formula_sum "Si O2"
_cell_formula_units_Z 28
_cell_length_a 7.906311
_cell_length_b 9.181753
_cell_length_c 19.585026
_cell_angle_alpha 90.000000
_cell_angle_beta 90.000000
_cell_angle_gamma 90.000000
_cell_volume 1421.751357
_symmetry_space_group_name_H-M "P M M M"
_symmetry_group_IT_number 47
_symmetry_cell_setting 'orthorhombic'
loop_
_space_group_symop_operation_xyz
x,y,z
-x,-y,z
x,-y,-z
-x,y,-z
-x,-y,-z
x,y,-z
-x,y,z
x,-y,z
loop_
_atom_site_type_symbol
_atom_site_label
_atom_site_fract_x
_atom_site_fract_y
_atom_site_fract_z
Si Si1 0.000000 0.329970 0.918303
Si Si2 0.309048 0.826816 0.844459
Si Si3 0.199431 0.667477 0.711963
Si Si4 0.704535 0.168865 0.422891
O O1 0.833850 0.253050 0.888224
O O2 0.000000 0.500000 0.898139
O O3 0.000000 0.320192 0.000000
O O4 0.500000 0.798257 0.869274
O O5 0.292209 0.766385 0.767543
O O6 0.280417 0.000000 0.844856
O O7 0.256393 0.500000 0.716369
O O8 0.226423 0.729891 0.636444
O O9 0.000000 0.672507 0.728061
O O10 0.757041 0.209374 0.500000
O O11 0.500000 0.174315 0.420749
O O12 0.754064 0.000000 0.411277
#
# Coordination Sequence:
#
# PCOD9388538 Si02
#       4
#     4   8   8   8
#     4  11  25  45  69  99 134 169 206 251 307 371
#     4  11  24  42  67  97 128 167 214 261 310 367
#     4  11  23  37  56  85 121 160 204 257 315 373
#     4   9  19  36  56  79 110 151 202 258 314 373
#
# _framework density 19.694019999999998
#
# number of rings (size 3 to 8) (size 9 to 14) (size 15 to 20)
#    0.000    1.571    1.429    3.857    0.000   10.857 
#    0.000    7.143    0.000    0.000    0.000    0.000 
#    0.000    0.000    0.000    0.000    0.000    0.000 
#
# Total GULP energy -156555.964811 kJ/mol
# GULP energy per Si atom -5591.284458 kJ/mol
# Density = 1.964920 g / cm^3
# Si number density = 19.694020 Si / 1000 Ang^3
#
#
#
# Elastic Constant Matrix: (Units=GPa)
#
#
# Indices 1 2 3 4 5 6 
#
# 1 109.5038 82.3458 50.6817 0.0000 0.0000 0.0000
# 2 82.3458 131.7464 62.7553 0.0000 0.0000 0.0000
# 3 50.6817 62.7553 90.8376 0.0000 0.0000 0.0000
# 4 0.0000 0.0000 0.0000 38.1873 0.0000 0.0000
# 5 0.0000 0.0000 0.0000 0.0000 -13.3079 0.0000
# 6 0.0000 0.0000 0.0000 0.0000 0.0000 47.6986
#
#
#
# Elastic Compliance Matrix: (Units=1/GPa)
#
#
# Indices 1 2 3 4 5 6 
#
# 1 0.017895 -0.009583 -0.003364 0.000000 0.000000 0.000000
# 2 -0.009583 0.016445 -0.006014 0.000000 0.000000 0.000000
# 3 -0.003364 -0.006014 0.017041 0.000000 0.000000 0.000000
# 4 0.000000 0.000000 0.000000 0.026187 0.000000 0.000000
# 5 0.000000 0.000000 0.000000 0.000000 -0.075144 0.000000
# 6 0.000000 0.000000 0.000000 0.000000 0.000000 0.020965
#
#
# Mechanical properties :
#
#
# Convention : Reuss Voigt Hill
#
# Bulk Modulus (GPa) = 74.30410 80.40594 77.35502
# Shear Modulus (GPa) = 75.99154 23.60261 49.79707
#
# Velocity S-wave (km/s) = 6.21851 3.46564 5.03391
# Velocity P-wave (km/s) = 9.45362 7.54523 8.55282
#
# Compressibility (1/GPa) = 0.01345821
#
# Stress axis : x y z
#
# Youngs Moduli (GPa) = 55.88099 60.81047 58.68313
#
# Poissons Ratio (x) = 0.58272 0.19743
# Poissons Ratio (y) = 0.53548 0.35294
# Poissons Ratio (z) = 0.18800 0.36573
#
# Static dielectric constant tensor:
#      x y z
#    x 1.699240 0.000000 0.000000 
#    y 0.000000 1.657900 0.000000 
#    z 0.000000 0.000000 1.672680 
# 
# From -- ./inp_files/843.got.cif
#   From: 2010.05.17/outbox.cif.g08.bks.cpg/sg47_1_cif.got.tgz:843.got - 2010.06.03 20:15:42.
