data_PCOD9388360
_publ_section_title
;
Structure prediction by ZEFSAII (Michael W. Deem and Ramdas Pophale) SiO2 
 PCOD9388360
Probable space group: P M M M
;
_chemical_formula_sum "Si O2"
_cell_formula_units_Z 40
_cell_length_a 8.991903
_cell_length_b 10.404603
_cell_length_c 25.714120
_cell_angle_alpha 90.000000
_cell_angle_beta 90.000000
_cell_angle_gamma 90.000000
_cell_volume 2405.740577
_symmetry_space_group_name_H-M "P M M M"
_symmetry_group_IT_number 47
_symmetry_cell_setting 'orthorhombic'
loop_
_space_group_symop_operation_xyz
x,y,z
-x,-y,z
x,-y,-z
-x,y,-z
-x,-y,-z
x,y,-z
-x,y,z
x,-y,z
loop_
_atom_site_type_symbol
_atom_site_label
_atom_site_fract_x
_atom_site_fract_y
_atom_site_fract_z
Si Si1 0.824947 0.000000 0.937658
Si Si2 0.824386 0.844581 0.443471
Si Si3 0.319049 0.148829 0.775578
Si Si4 0.327305 0.843421 0.661839
Si Si5 0.821868 0.500000 0.938152
Si Si6 0.320579 0.249856 0.886349
O O1 0.743828 0.874917 0.915225
O O2 0.000000 0.000000 0.923351
O O3 0.815629 0.000000 0.000000
O O4 0.766126 0.799295 0.500000
O O5 0.751940 0.796533 0.390318
O O6 0.000000 0.819293 0.441905
O O7 0.806166 0.000000 0.443315
O O8 0.500000 0.146025 0.772934
O O9 0.266764 0.194961 0.718707
O O10 0.279415 0.232705 0.825468
O O11 0.271899 0.000000 0.783892
O O12 0.500000 0.807571 0.658610
O O13 0.320414 0.000000 0.662451
O O14 0.750261 0.624984 0.911913
O O15 0.000000 0.500000 0.931268
O O16 0.791637 0.500000 0.000000
O O17 0.500000 0.252644 0.890346
#
# Coordination Sequence:
#
# PCOD9388360 Si02
#       6
#     4   8   8   8   4   8
#     4  11  23  37  53  77 109 137 160 197 252 299
#     4   8  13  20  28  41  68 106 146 188 229 266
#     4   8  14  27  46  69  95 119 148 196 249 284
#     4   8  13  21  35  53  76 108 144 183 230 280
#     4  11  25  43  57  73 105 139 162 199 258 309
#     4  11  21  36  59  81 100 129 171 211 244 294
#
# _framework density 16.626897
#
# number of rings (size 3 to 8) (size 9 to 14) (size 15 to 20)
#    0.000    2.800    1.000    3.600    0.000    4.400 
#    0.000    4.000    0.000    0.000    0.000    0.000 
#    0.000    0.000    0.000    0.900    0.000   19.200 
#
# Total GULP energy -222706.342080 kJ/mol
# GULP energy per Si atom -5567.658552 kJ/mol
# Density = 1.658905 g / cm^3
# Si number density = 16.626897 Si / 1000 Ang^3
#
#
#
# Elastic Constant Matrix: (Units=GPa)
#
#
# Indices 1 2 3 4 5 6 
#
# 1 51.7894 33.0137 69.1273 0.0000 0.0000 0.0000
# 2 33.0137 78.2693 60.4209 0.0000 0.0000 0.0000
# 3 69.1273 60.4209 195.8424 0.0000 0.0000 0.0000
# 4 0.0000 0.0000 0.0000 19.3339 0.0000 0.0000
# 5 0.0000 0.0000 0.0000 0.0000 108.4383 0.0000
# 6 0.0000 0.0000 0.0000 0.0000 0.0000 15.9257
#
#
#
# Elastic Compliance Matrix: (Units=1/GPa)
#
#
# Indices 1 2 3 4 5 6 
#
# 1 0.039843 -0.007809 -0.011654 0.000000 0.000000 0.000000
# 2 -0.007809 0.018301 -0.002890 0.000000 0.000000 0.000000
# 3 -0.011654 -0.002890 0.010111 0.000000 0.000000 0.000000
# 4 0.000000 0.000000 0.000000 0.051723 0.000000 0.000000
# 5 0.000000 0.000000 0.000000 0.000000 0.009222 0.000000
# 6 0.000000 0.000000 0.000000 0.000000 0.000000 0.062792
#
#
# Mechanical properties :
#
#
# Convention : Reuss Voigt Hill
#
# Bulk Modulus (GPa) = 42.46451 72.33610 57.40030
# Shear Modulus (GPa) = 20.44600 39.62885 30.03742
#
# Velocity S-wave (km/s) = 3.51050 4.88732 4.25497
# Velocity P-wave (km/s) = 6.48279 8.68607 7.66402
#
# Compressibility (1/GPa) = 0.02354908
#
# Stress axis : x y z
#
# Youngs Moduli (GPa) = 25.09876 54.64170 98.89861
#
# Poissons Ratio (x) = 0.42669 1.15259
# Poissons Ratio (y) = 0.19599 0.28581
# Poissons Ratio (z) = 0.29251 0.15791
#
# Static dielectric constant tensor:
#      x y z
#    x 1.558920 0.000000 0.000000 
#    y 0.000000 1.540580 0.000000 
#    z 0.000000 0.000000 1.612010 
# 
# From -- ./inp_files/33004.got.cif
#   From: 2010.05.17/outbox.cif.g08.bks.cpg/sg47_17_cif.got.tgz:33004.got - 2010.06.03 20:15:42.
