data_PCOD9388134
_publ_section_title
;
Structure prediction by ZEFSAII (Michael W. Deem and Ramdas Pophale) SiO2 
 PCOD9388134
Probable space group: P M M M
;
_chemical_formula_sum "Si O2"
_cell_formula_units_Z 25
_cell_length_a 7.820706
_cell_length_b 21.712466
_cell_length_c 7.380801
_cell_angle_alpha 90.000000
_cell_angle_beta 90.000000
_cell_angle_gamma 90.000000
_cell_volume 1253.310296
_symmetry_space_group_name_H-M "P M M M"
_symmetry_group_IT_number 47
_symmetry_cell_setting 'orthorhombic'
loop_
_space_group_symop_operation_xyz
x,y,z
-x,-y,z
x,-y,-z
-x,y,-z
-x,-y,-z
x,y,-z
-x,y,z
x,-y,z
loop_
_atom_site_type_symbol
_atom_site_label
_atom_site_fract_x
_atom_site_fract_y
_atom_site_fract_z
Si Si1 0.705761 0.606583 0.500000
Si Si2 0.187806 0.844934 0.779280
Si Si3 0.295504 0.289293 0.792775
Si Si4 0.500000 0.070651 0.778386
Si Si5 0.000000 0.500000 0.500000
O O1 0.500000 0.588947 0.500000
O O2 0.735874 0.651232 0.671851
O O3 0.845967 0.553268 0.500000
O O4 0.216643 0.774323 0.722141
O O5 0.334928 0.890885 0.719357
O O6 0.000000 0.866018 0.726443
O O7 0.196306 0.842987 0.000000
O O8 0.500000 0.278938 0.793597
O O9 0.239098 0.299277 0.000000
O O10 0.500000 0.000000 0.719811
O O11 0.500000 0.070228 0.000000
#
# Coordination Sequence:
#
# PCOD9388134 Si02
#       5
#     4   8   8   4   1
#     4  10  23  41  61  86 115 148 183 223 272 334
#     4   9  16  26  44  71 103 138 182 234 276 319
#     4   9  17  34  59  84 112 145 185 234 281 321
#     4   9  16  26  40  65 107 151 185 224 281 337
#     4  12  26  44  62  86 124 150 180 224 274 342
#
# _framework density 19.947175000000001
#
# number of rings (size 3 to 8) (size 9 to 14) (size 15 to 20)
#    0.000    2.720    1.600    0.240    2.240    0.640 
#    0.000    4.800    0.000    3.840    0.000    2.240 
#    0.000    2.560    0.000    0.320    0.000    0.000 
#
# Total GULP energy -139277.686749 kJ/mol
# GULP energy per Si atom -5571.107470 kJ/mol
# Density = 1.990177 g / cm^3
# Si number density = 19.947175 Si / 1000 Ang^3
#
#
#
# Elastic Constant Matrix: (Units=GPa)
#
#
# Indices 1 2 3 4 5 6 
#
# 1 177.1655 126.2916 26.8373 0.0000 0.0000 0.0000
# 2 126.2916 170.1828 33.4054 0.0000 0.0000 0.0000
# 3 26.8373 33.4054 78.2477 0.0000 0.0000 0.0000
# 4 0.0000 0.0000 0.0000 -6.7515 0.0000 0.0000
# 5 0.0000 0.0000 0.0000 0.0000 7.8293 0.0000
# 6 0.0000 0.0000 0.0000 0.0000 0.0000 -19.0547
#
#
#
# Elastic Compliance Matrix: (Units=1/GPa)
#
#
# Indices 1 2 3 4 5 6 
#
# 1 0.011992 -0.008832 -0.000342 0.000000 0.000000 0.000000
# 2 -0.008832 0.012918 -0.002486 0.000000 0.000000 0.000000
# 3 -0.000342 -0.002486 0.013959 0.000000 0.000000 0.000000
# 4 0.000000 0.000000 0.000000 -0.148116 0.000000 0.000000
# 5 0.000000 0.000000 0.000000 0.000000 0.127726 0.000000
# 6 0.000000 0.000000 0.000000 0.000000 0.000000 -0.052481
#
#
# Mechanical properties :
#
#
# Convention : Reuss Voigt Hill
#
# Bulk Modulus (GPa) = 64.31583 88.74052 76.52818
# Shear Modulus (GPa) = -909.45718 12.34208 -448.55755
#
# Velocity S-wave (km/s) = -21.37575 2.49014 -15.01203
# Velocity P-wave (km/s) = 24.01910 7.26995 16.18742
#
# Compressibility (1/GPa) = 0.01554827
#
# Stress axis : x y z
#
# Youngs Moduli (GPa) = 83.38681 77.40963 71.64031
#
# Poissons Ratio (x) = 0.68370 0.02453
# Poissons Ratio (y) = 0.73649 0.17808
# Poissons Ratio (z) = 0.02856 0.19243
#
# Static dielectric constant tensor:
#      x y z
#    x 1.711990 0.000000 0.000000 
#    y 0.000000 1.640420 0.000000 
#    z 0.000000 0.000000 1.810950 
# 
# From -- ./inp_files/696.got.cif
#   From: 2010.05.17/outbox.cif.g08.bks.cpg/sg47_1_cif.got.tgz:696.got - 2010.06.03 20:15:42.
