data_PCOD9388383
_publ_section_title
;
Structure prediction by ZEFSAII (Michael W. Deem and Ramdas Pophale) SiO2 
 PCOD9388383
Probable space group: P M M M
;
_chemical_formula_sum "Si O2"
_cell_formula_units_Z 40
_cell_length_a 19.909122
_cell_length_b 13.911621
_cell_length_c 10.430326
_cell_angle_alpha 90.000000
_cell_angle_beta 90.000000
_cell_angle_gamma 90.000000
_cell_volume 2888.868197
_symmetry_space_group_name_H-M "P M M M"
_symmetry_group_IT_number 47
_symmetry_cell_setting 'orthorhombic'
loop_
_space_group_symop_operation_xyz
x,y,z
-x,-y,z
x,-y,-z
-x,y,-z
-x,-y,-z
x,y,-z
-x,y,z
x,-y,z
loop_
_atom_site_type_symbol
_atom_site_label
_atom_site_fract_x
_atom_site_fract_y
_atom_site_fract_z
Si Si1 0.077762 0.114913 0.500000
Si Si2 0.921545 0.612586 0.346333
Si Si3 0.080138 0.889557 0.000000
Si Si4 0.855343 0.795598 0.249016
Si Si5 0.279059 0.115045 0.844718
Si Si6 0.572129 0.115772 0.847199
O O1 0.114889 0.152571 0.374194
O O2 0.000000 0.148043 0.500000
O O3 0.077786 0.000000 0.500000
O O4 0.913037 0.625822 0.500000
O O5 0.910644 0.500000 0.318666
O O6 0.872876 0.684113 0.271288
O O7 0.000000 0.634990 0.317177
O O8 0.106180 0.836405 0.125578
O O9 0.000000 0.891516 0.000000
O O10 0.105299 0.000000 0.000000
O O11 0.778441 0.824673 0.224856
O O12 0.354121 0.146269 0.801705
O O13 0.270830 0.000000 0.820591
O O14 0.273808 0.126776 0.000000
O O15 0.500000 0.151515 0.794769
O O16 0.571930 0.000000 0.833192
O O17 0.571662 0.134456 0.000000
#
# Coordination Sequence:
#
# PCOD9388383 Si02
#       6
#     4   8   4   8   8   8
#     4  11  22  32  43  61  86 116 155 192 215 251
#     4   9  18  34  53  67  79 103 146 199 246 277
#     4  11  22  32  43  61  90 126 153 172 211 269
#     4  12  20  31  47  65  88 117 149 188 227 265
#     4   9  16  26  40  61  92 125 149 173 213 262
#     4   7  10  18  34  56  82 114 151 182 203 235
#
# _framework density 13.846253000000001
#
# number of rings (size 3 to 8) (size 9 to 14) (size 15 to 20)
#    0.000    2.400    2.000    6.000    0.000    1.600 
#    0.000    0.500    0.000    1.800    0.000    0.700 
#    0.000    4.800    0.000    7.200    0.000    0.400 
#
# Total GULP energy -222721.955327 kJ/mol
# GULP energy per Si atom -5568.048883 kJ/mol
# Density = 1.381474 g / cm^3
# Si number density = 13.846253 Si / 1000 Ang^3
#
#
#
# Elastic Constant Matrix: (Units=GPa)
#
#
# Indices 1 2 3 4 5 6 
#
# 1 150.0710 49.1733 37.8011 0.0000 0.0000 0.0000
# 2 49.1733 70.5049 25.4728 0.0000 0.0000 0.0000
# 3 37.8011 25.4728 61.9093 0.0000 0.0000 0.0000
# 4 0.0000 0.0000 0.0000 19.1343 0.0000 0.0000
# 5 0.0000 0.0000 0.0000 0.0000 15.3015 0.0000
# 6 0.0000 0.0000 0.0000 0.0000 0.0000 -6.0207
#
#
#
# Elastic Compliance Matrix: (Units=1/GPa)
#
#
# Indices 1 2 3 4 5 6 
#
# 1 0.009246 -0.005179 -0.003515 0.000000 0.000000 0.000000
# 2 -0.005179 0.019561 -0.004886 0.000000 0.000000 0.000000
# 3 -0.003515 -0.004886 0.020309 0.000000 0.000000 0.000000
# 4 0.000000 0.000000 0.000000 0.052262 0.000000 0.000000
# 5 0.000000 0.000000 0.000000 0.000000 0.065353 0.000000
# 6 0.000000 0.000000 0.000000 0.000000 0.000000 -0.166094
#
#
# Mechanical properties :
#
#
# Convention : Reuss Voigt Hill
#
# Bulk Modulus (GPa) = 45.54462 56.37551 50.96007
# Shear Modulus (GPa) = 142.39139 17.01886 79.70512
#
# Velocity S-wave (km/s) = 10.15188 3.50970 7.59535
# Velocity P-wave (km/s) = 13.05292 7.56490 10.66786
#
# Compressibility (1/GPa) = 0.02195649
#
# Stress axis : x y z
#
# Youngs Moduli (GPa) = 108.15925 51.12328 49.23898
#
# Poissons Ratio (x) = 0.26474 0.17305
# Poissons Ratio (y) = 0.56011 0.24060
# Poissons Ratio (z) = 0.38013 0.24980
#
# Static dielectric constant tensor:
#      x y z
#    x 1.495190 0.000000 0.000000 
#    y 0.000000 1.450420 0.000000 
#    z 0.000000 0.000000 1.440820 
# 
# From -- ./inp_files/10800.got.cif
#   From: 2010.05.17/outbox.cif.g08.bks.cpg/sg47_6_cif.got.tgz:10800.got - 2010.06.03 20:15:42.
