data_PCOD9388202
_publ_section_title
;
Structure prediction by ZEFSAII (Michael W. Deem and Ramdas Pophale) SiO2 
 PCOD9388202
Probable space group: P M M M
;
_chemical_formula_sum "Si O2"
_cell_formula_units_Z 52
_cell_length_a 23.668032
_cell_length_b 14.631314
_cell_length_c 8.672901
_cell_angle_alpha 90.000000
_cell_angle_beta 90.000000
_cell_angle_gamma 90.000000
_cell_volume 3003.377117
_symmetry_space_group_name_H-M "P M M M"
_symmetry_group_IT_number 47
_symmetry_cell_setting 'orthorhombic'
loop_
_space_group_symop_operation_xyz
x,y,z
-x,-y,z
x,-y,-z
-x,y,-z
-x,-y,-z
x,y,-z
-x,y,z
x,-y,z
loop_
_atom_site_type_symbol
_atom_site_label
_atom_site_fract_x
_atom_site_fract_y
_atom_site_fract_z
Si Si1 0.167908 0.283103 0.315617
Si Si2 0.721663 0.605049 0.687805
Si Si3 0.391701 0.288816 0.684885
Si Si4 0.935196 0.394994 0.814061
Si Si5 0.780950 0.896265 0.814307
Si Si6 0.350980 0.895909 0.185916
Si Si7 0.500000 0.393625 0.815028
O O1 0.167216 0.284666 0.500000
O O2 0.221228 0.344653 0.261347
O O3 0.110513 0.326607 0.253488
O O4 0.180480 0.181179 0.258286
O O5 0.721902 0.604837 0.500000
O O6 0.719796 0.500000 0.739310
O O7 0.666012 0.660289 0.736149
O O8 0.394263 0.291533 0.500000
O O9 0.387351 0.184370 0.740556
O O10 0.444874 0.342076 0.752782
O O11 0.922450 0.500000 0.767131
O O12 0.000000 0.374955 0.768253
O O13 0.932897 0.391836 0.000000
O O14 0.715051 0.881799 0.770066
O O15 0.796153 0.000000 0.769940
O O16 0.783523 0.890338 0.000000
O O17 0.366444 0.000000 0.229871
O O18 0.354138 0.890143 0.000000
O O19 0.500000 0.500000 0.765618
O O20 0.500000 0.391056 0.000000
#
# Coordination Sequence:
#
# PCOD9388202 Si02
#       7
#     8   8   8   8   8   8   4
#     4  11  20  31  51  81 113 142 175 221 274 322
#     4   9  18  31  47  73 109 141 169 209 263 319
#     4  11  21  36  58  82 109 143 180 223 271 321
#     4   9  19  36  55  75 104 145 189 227 264 314
#     4   9  18  33  53  77 108 146 183 218 262 321
#     4   9  18  34  56  81 111 145 178 218 269 322
#     4  11  25  43  60  79 106 143 187 228 266 319
#
# _framework density 17.313842999999999
#
# number of rings (size 3 to 8) (size 9 to 14) (size 15 to 20)
#    0.000    2.231    1.538    3.462    0.000    3.077 
#    0.000    2.692    0.000    6.462    0.000    3.231 
#    0.000    0.000    0.000    0.000    0.000    0.000 
#
# Total GULP energy -290222.171827 kJ/mol
# GULP energy per Si atom -5581.195612 kJ/mol
# Density = 1.727444 g / cm^3
# Si number density = 17.313843 Si / 1000 Ang^3
#
#
#
# Elastic Constant Matrix: (Units=GPa)
#
#
# Indices 1 2 3 4 5 6 
#
# 1 118.0848 93.9605 35.1318 0.0000 0.0000 0.0000
# 2 93.9605 172.2972 42.2824 0.0000 0.0000 0.0000
# 3 35.1318 42.2824 29.4022 0.0000 0.0000 0.0000
# 4 0.0000 0.0000 0.0000 21.6317 0.0000 0.0000
# 5 0.0000 0.0000 0.0000 0.0000 22.3685 0.0000
# 6 0.0000 0.0000 0.0000 0.0000 0.0000 33.0464
#
#
#
# Elastic Compliance Matrix: (Units=1/GPa)
#
#
# Indices 1 2 3 4 5 6 
#
# 1 0.016897 -0.006583 -0.010722 0.000000 0.000000 0.000000
# 2 -0.006583 0.011534 -0.008721 0.000000 0.000000 0.000000
# 3 -0.010722 -0.008721 0.059364 0.000000 0.000000 0.000000
# 4 0.000000 0.000000 0.000000 0.046228 0.000000 0.000000
# 5 0.000000 0.000000 0.000000 0.000000 0.044706 0.000000
# 6 0.000000 0.000000 0.000000 0.000000 0.000000 0.030260
#
#
# Mechanical properties :
#
#
# Convention : Reuss Voigt Hill
#
# Bulk Modulus (GPa) = 27.97810 73.61486 50.79648
# Shear Modulus (GPa) = 18.31792 25.30329 21.81061
#
# Velocity S-wave (km/s) = 3.25621 3.82704 3.55310
# Velocity P-wave (km/s) = 5.50742 7.88280 6.79964
#
# Compressibility (1/GPa) = 0.03574224
#
# Stress axis : x y z
#
# Youngs Moduli (GPa) = 59.18268 86.69927 16.84515
#
# Poissons Ratio (x) = 0.57076 0.18062
# Poissons Ratio (y) = 0.38961 0.14690
# Poissons Ratio (z) = 0.63459 0.75609
#
# Static dielectric constant tensor:
#      x y z
#    x 1.564580 0.000000 0.000000 
#    y 0.000000 1.581230 0.000000 
#    z 0.000000 0.000000 1.583720 
# 
# From -- ./inp_files/10960.got.cif
#   From: 2010.05.17/outbox.cif.g08.bks.cpg/sg47_6_cif.got.tgz:10960.got - 2010.06.03 20:15:42.
