data_PCOD9388926
_publ_section_title
;
Structure prediction by ZEFSAII (Michael W. Deem and Ramdas Pophale) SiO2 
 PCOD9388926
Probable space group: P M M M
;
_chemical_formula_sum "Si O2"
_cell_formula_units_Z 44
_cell_length_a 9.395760
_cell_length_b 7.278785
_cell_length_c 31.482454
_cell_angle_alpha 90.000000
_cell_angle_beta 90.000000
_cell_angle_gamma 90.000000
_cell_volume 2153.076118
_symmetry_space_group_name_H-M "P M M M"
_symmetry_group_IT_number 47
_symmetry_cell_setting 'orthorhombic'
loop_
_space_group_symop_operation_xyz
x,y,z
-x,-y,z
x,-y,-z
-x,y,-z
-x,-y,-z
x,y,-z
-x,y,z
x,-y,z
loop_
_atom_site_type_symbol
_atom_site_label
_atom_site_fract_x
_atom_site_fract_y
_atom_site_fract_z
Si Si1 0.163824 0.723725 0.296488
Si Si2 0.336082 0.724053 0.786844
Si Si3 0.331982 0.718259 0.380757
Si Si4 0.163454 0.275875 0.129819
Si Si5 0.672609 0.000000 0.548066
Si Si6 0.335509 0.276558 0.952423
O O1 0.164323 0.500000 0.296065
O O2 0.251375 0.782541 0.255105
O O3 0.241968 0.777858 0.339889
O O4 0.000000 0.782364 0.294956
O O5 0.500000 0.782313 0.786288
O O6 0.336313 0.500000 0.786758
O O7 0.255133 0.781493 0.829508
O O8 0.500000 0.754744 0.372905
O O9 0.315615 0.500000 0.386197
O O10 0.288169 0.825119 0.423186
O O11 0.164195 0.500000 0.129715
O O12 0.236156 0.216009 0.085937
O O13 0.000000 0.218257 0.133169
O O14 0.500000 0.000000 0.545384
O O15 0.727680 0.000000 0.500000
O O16 0.500000 0.222650 0.945469
O O17 0.333710 0.500000 0.952279
O O18 0.292717 0.219083 0.000000
#
# Coordination Sequence:
#
# PCOD9388926 Si02
#       6
#     8   8   8   8   4   8
#     4   9  16  26  41  61  85 112 143 181 226 276
#     4   9  15  22  33  49  70  96 127 165 212 268
#     4   9  17  30  49  72  98 129 164 201 243 290
#     4   9  15  20  26  38  57  81 112 155 209 266
#     4   9  18  32  51  77 105 131 165 209 248 283
#     4   8  13  20  27  33  44  68 106 153 206 264
#
# _framework density 20.435877999999999
#
# number of rings (size 3 to 8) (size 9 to 14) (size 15 to 20)
#    0.000    3.182    0.000    2.182    0.000    7.273 
#    0.000    4.091    0.000    1.091    0.000    2.545 
#    0.000    0.000    0.000    0.000    0.000    0.000 
#
# Total GULP energy -245695.521418 kJ/mol
# GULP energy per Si atom -5583.989123 kJ/mol
# Density = 2.038937 g / cm^3
# Si number density = 20.435878 Si / 1000 Ang^3
#
#
#
# Elastic Constant Matrix: (Units=GPa)
#
#
# Indices 1 2 3 4 5 6 
#
# 1 158.2170 25.1012 135.5878 0.0000 0.0000 0.0000
# 2 25.1012 86.4145 32.1829 0.0000 0.0000 0.0000
# 3 135.5878 32.1829 243.1760 0.0000 0.0000 0.0000
# 4 0.0000 0.0000 0.0000 -438.0146 0.0000 0.0000
# 5 0.0000 0.0000 0.0000 0.0000 -3.2746 0.0000
# 6 0.0000 0.0000 0.0000 0.0000 0.0000 -11.5311
#
#
#
# Elastic Compliance Matrix: (Units=1/GPa)
#
#
# Indices 1 2 3 4 5 6 
#
# 1 0.012196 -0.001062 -0.006660 0.000000 0.000000 0.000000
# 2 -0.001062 0.012265 -0.001031 0.000000 0.000000 0.000000
# 3 -0.006660 -0.001031 0.007962 0.000000 0.000000 0.000000
# 4 0.000000 0.000000 0.000000 -0.002283 0.000000 0.000000
# 5 0.000000 0.000000 0.000000 0.000000 -0.305377 0.000000
# 6 0.000000 0.000000 0.000000 0.000000 0.000000 -0.086722
#
#
# Mechanical properties :
#
#
# Convention : Reuss Voigt Hill
#
# Bulk Modulus (GPa) = 67.03765 97.06124 82.04944
# Shear Modulus (GPa) = -14.72833 -70.90170 -42.81502
#
# Velocity S-wave (km/s) = -2.68752 -5.89661 -4.58218
# Velocity P-wave (km/s) = 4.82129 1.11291 3.49881
#
# Compressibility (1/GPa) = 0.01491699
#
# Stress axis : x y z
#
# Youngs Moduli (GPa) = 81.99373 81.53524 125.59919
#
# Poissons Ratio (x) = 0.08663 0.83643
# Poissons Ratio (y) = 0.08711 0.12946
# Poissons Ratio (z) = 0.54604 0.08404
#
# Static dielectric constant tensor:
#      x y z
#    x 1.676400 0.000000 0.000000 
#    y 0.000000 1.265940 0.000000 
#    z 0.000000 0.000000 1.679010 
# 
# From -- ./inp_files/33897.got.cif
#   From: 2010.05.17/outbox.cif.g08.bks.cpg/sg47_17_cif.got.tgz:33897.got - 2010.06.03 20:15:42.
