data_PCOD9388201
_publ_section_title
;
Structure prediction by ZEFSAII (Michael W. Deem and Ramdas Pophale) SiO2 
 PCOD9388201
Probable space group: P M M M
;
_chemical_formula_sum "Si O2"
_cell_formula_units_Z 32
_cell_length_a 16.950296
_cell_length_b 11.171096
_cell_length_c 10.472528
_cell_angle_alpha 90.000000
_cell_angle_beta 90.000000
_cell_angle_gamma 90.000000
_cell_volume 1983.008614
_symmetry_space_group_name_H-M "P M M M"
_symmetry_group_IT_number 47
_symmetry_cell_setting 'orthorhombic'
loop_
_space_group_symop_operation_xyz
x,y,z
-x,-y,z
x,-y,-z
-x,y,-z
-x,-y,-z
x,y,-z
-x,y,z
x,-y,z
loop_
_atom_site_type_symbol
_atom_site_label
_atom_site_fract_x
_atom_site_fract_y
_atom_site_fract_z
Si Si1 0.094893 0.000000 0.345223
Si Si2 0.324877 0.644620 0.654217
Si Si3 0.086236 0.640908 0.500000
Si Si4 0.832575 0.750799 0.743570
Si Si5 0.094418 0.356894 0.000000
Si Si6 0.500000 0.638982 0.345590
O O1 0.137683 0.884610 0.285015
O O2 0.104970 0.000000 0.500000
O O3 0.000000 0.000000 0.320344
O O4 0.315668 0.660229 0.500000
O O5 0.316355 0.500000 0.676736
O O6 0.259878 0.721428 0.728402
O O7 0.413676 0.684946 0.691902
O O8 0.078787 0.500000 0.500000
O O9 0.130255 0.676911 0.373096
O O10 0.000000 0.700165 0.500000
O O11 0.867269 0.701941 0.875218
O O12 0.107989 0.500000 0.000000
O O13 0.000000 0.337573 0.000000
O O14 0.500000 0.500000 0.307138
O O15 0.500000 0.641399 0.500000
#
# Coordination Sequence:
#
# PCOD9388201 Si02
#       6
#     4   8   4   8   4   4
#     4  11  22  37  55  76 104 139 186 235 268 306
#     4   9  15  27  49  78 106 132 170 219 274 328
#     4  11  20  31  51  76  98 126 170 223 274 314
#     4  12  22  35  54  75 104 143 181 221 264 313
#     4  11  24  39  53  76 110 142 176 223 280 330
#     4   7  12  22  42  74 108 133 156 207 277 332
#
# _framework density 16.137094999999999
#
# number of rings (size 3 to 8) (size 9 to 14) (size 15 to 20)
#    0.000    1.750    2.500    6.000    0.000    2.500 
#    0.000    1.250    0.000    1.500    0.000    7.000 
#    0.000    2.000    0.000    0.000    0.000    0.000 
#
# Total GULP energy -178337.134181 kJ/mol
# GULP energy per Si atom -5573.035443 kJ/mol
# Density = 1.610037 g / cm^3
# Si number density = 16.137095 Si / 1000 Ang^3
#
#
#
# Elastic Constant Matrix: (Units=GPa)
#
#
# Indices 1 2 3 4 5 6 
#
# 1 180.1334 64.6619 61.3880 0.0000 0.0000 0.0000
# 2 64.6619 103.5752 47.1416 0.0000 0.0000 0.0000
# 3 61.3880 47.1416 107.0500 0.0000 0.0000 0.0000
# 4 0.0000 0.0000 0.0000 21.6253 0.0000 0.0000
# 5 0.0000 0.0000 0.0000 0.0000 20.1708 0.0000
# 6 0.0000 0.0000 0.0000 0.0000 0.0000 26.9673
#
#
#
# Elastic Compliance Matrix: (Units=1/GPa)
#
#
# Indices 1 2 3 4 5 6 
#
# 1 0.007823 -0.003554 -0.002921 0.000000 0.000000 0.000000
# 2 -0.003554 0.013690 -0.003990 0.000000 0.000000 0.000000
# 3 -0.002921 -0.003990 0.012774 0.000000 0.000000 0.000000
# 4 0.000000 0.000000 0.000000 0.046242 0.000000 0.000000
# 5 0.000000 0.000000 0.000000 0.000000 0.049577 0.000000
# 6 0.000000 0.000000 0.000000 0.000000 0.000000 0.037082
#
#
# Mechanical properties :
#
#
# Convention : Reuss Voigt Hill
#
# Bulk Modulus (GPa) = 74.87652 81.90462 78.39057
# Shear Modulus (GPa) = 25.96460 28.25714 27.11087
#
# Velocity S-wave (km/s) = 4.01559 4.18912 4.10327
# Velocity P-wave (km/s) = 8.24627 8.61765 8.43400
#
# Compressibility (1/GPa) = 0.01335532
#
# Stress axis : x y z
#
# Youngs Moduli (GPa) = 127.83333 73.04594 78.28668
#
# Poissons Ratio (x) = 0.25963 0.22865
# Poissons Ratio (y) = 0.45437 0.31240
# Poissons Ratio (z) = 0.37336 0.29148
#
# Static dielectric constant tensor:
#      x y z
#    x 1.605250 0.000000 0.000000 
#    y 0.000000 1.551040 0.000000 
#    z 0.000000 0.000000 1.505300 
# 
# From -- ./inp_files/8611.got.cif
#   From: 2010.05.17/outbox.cif.g08.bks.cpg/sg47_5_cif.got.tgz:8611.got - 2010.06.03 20:15:42.
