data_PCOD9388190
_publ_section_title
;
Structure prediction by ZEFSAII (Michael W. Deem and Ramdas Pophale) SiO2 
 PCOD9388190
Probable space group: P M M M
;
_chemical_formula_sum "Si O2"
_cell_formula_units_Z 64
_cell_length_a 32.342958
_cell_length_b 8.651235
_cell_length_c 14.667468
_cell_angle_alpha 90.000000
_cell_angle_beta 90.000000
_cell_angle_gamma 90.000000
_cell_volume 4104.053329
_symmetry_space_group_name_H-M "P M M M"
_symmetry_group_IT_number 47
_symmetry_cell_setting 'orthorhombic'
loop_
_space_group_symop_operation_xyz
x,y,z
-x,-y,z
x,-y,-z
-x,y,-z
-x,-y,-z
x,y,-z
-x,y,z
x,-y,z
loop_
_atom_site_type_symbol
_atom_site_label
_atom_site_fract_x
_atom_site_fract_y
_atom_site_fract_z
Si Si1 0.158693 0.686036 0.103170
Si Si2 0.126901 0.185232 0.713071
Si Si3 0.744088 0.686125 0.103555
Si Si4 0.364876 0.312636 0.607211
Si Si5 0.455557 0.684237 0.610082
Si Si6 0.793814 0.314582 0.606656
Si Si7 0.046397 0.811795 0.605334
Si Si8 0.286025 0.183567 0.288546
O O1 0.155793 0.500000 0.109765
O O2 0.132733 0.762065 0.183109
O O3 0.207279 0.725538 0.116017
O O4 0.147048 0.730994 0.000000
O O5 0.165302 0.251553 0.655686
O O6 0.083757 0.239996 0.669119
O O7 0.128385 0.000000 0.707995
O O8 0.740962 0.500000 0.110735
O O9 0.718564 0.762887 0.184032
O O10 0.732480 0.729777 0.000000
O O11 0.359783 0.271947 0.500000
O O12 0.364204 0.500000 0.611823
O O13 0.410500 0.257511 0.639636
O O14 0.327685 0.246131 0.665639
O O15 0.455301 0.699068 0.500000
O O16 0.500000 0.748446 0.642702
O O17 0.455983 0.500000 0.628902
O O18 0.793441 0.271011 0.500000
O O19 0.793580 0.500000 0.613342
O O20 0.753266 0.251577 0.657039
O O21 0.053735 0.766212 0.500000
O O22 0.000000 0.761489 0.631547
O O23 0.046305 0.000000 0.606778
O O24 0.284767 0.000000 0.294085
#
# Coordination Sequence:
#
# PCOD9388190 Si02
#       8
#     8   8   8   8   8   8   8   8
#     4   9  18  33  52  71  93 123 155 187 228 280
#     4  11  20  30  50  78  99 117 150 196 237 273
#     4   9  18  34  54  70  87 117 155 192 231 278
#     4   9  17  29  45  64  90 128 166 196 232 278
#     4   7  10  19  38  63  86 110 150 202 242 269
#     4  11  23  36  48  63  90 129 164 191 224 270
#     4   8  15  29  48  70  98 129 155 182 223 274
#     4  12  23  32  45  67  95 125 156 194 233 272
#
# _framework density 15.594340000000001
#
# number of rings (size 3 to 8) (size 9 to 14) (size 15 to 20)
#    0.000    2.500    1.250    4.875    0.000    3.750 
#    0.000    1.250    0.000    2.250    0.000    8.750 
#    0.000    0.500    0.000    5.750    0.000    1.875 
#
# Total GULP energy -356714.586850 kJ/mol
# GULP energy per Si atom -5573.665420 kJ/mol
# Density = 1.555885 g / cm^3
# Si number density = 15.594340 Si / 1000 Ang^3
#
#
#
# Elastic Constant Matrix: (Units=GPa)
#
#
# Indices 1 2 3 4 5 6 
#
# 1 151.6841 30.0438 82.1465 0.0000 0.0000 0.0000
# 2 30.0438 25.0234 33.4108 0.0000 0.0000 0.0000
# 3 82.1465 33.4108 112.1212 0.0000 0.0000 0.0000
# 4 0.0000 0.0000 0.0000 2.9982 0.0000 0.0000
# 5 0.0000 0.0000 0.0000 0.0000 5.7017 0.0000
# 6 0.0000 0.0000 0.0000 0.0000 0.0000 18.7107
#
#
#
# Elastic Compliance Matrix: (Units=1/GPa)
#
#
# Indices 1 2 3 4 5 6 
#
# 1 0.011180 -0.004129 -0.006961 0.000000 0.000000 0.000000
# 2 -0.004129 0.067894 -0.017206 0.000000 0.000000 0.000000
# 3 -0.006961 -0.017206 0.019146 0.000000 0.000000 0.000000
# 4 0.000000 0.000000 0.000000 0.333531 0.000000 0.000000
# 5 0.000000 0.000000 0.000000 0.000000 0.175387 0.000000
# 6 0.000000 0.000000 0.000000 0.000000 0.000000 0.053445
#
#
# Mechanical properties :
#
#
# Convention : Reuss Voigt Hill
#
# Bulk Modulus (GPa) = 24.02263 64.44787 44.23525
# Shear Modulus (GPa) = 6.83946 15.03063 10.93504
#
# Velocity S-wave (km/s) = 2.09652 3.10796 2.65093
# Velocity P-wave (km/s) = 4.61505 7.36863 6.14798
#
# Compressibility (1/GPa) = 0.04162741
#
# Stress axis : x y z
#
# Youngs Moduli (GPa) = 89.44342 14.72891 52.23028
#
# Poissons Ratio (x) = 0.06082 0.36356
# Poissons Ratio (y) = 0.36935 0.89868
# Poissons Ratio (z) = 0.62260 0.25343
#
# Static dielectric constant tensor:
#      x y z
#    x 1.530780 0.000000 0.000000 
#    y 0.000000 1.528830 0.000000 
#    z 0.000000 0.000000 1.508280 
# 
# From -- ./inp_files/25858.got.cif
#   From: 2010.05.17/outbox.cif.g08.bks.cpg/sg47_13_cif.got.tgz:25858.got - 2010.06.03 20:15:42.
