data_PCOD9388879
_publ_section_title
;
Structure prediction by ZEFSAII (Michael W. Deem and Ramdas Pophale) SiO2 
 PCOD9388879
Probable space group: P M M M
;
_chemical_formula_sum "Si O2"
_cell_formula_units_Z 64
_cell_length_a 23.008618
_cell_length_b 7.244970
_cell_length_c 14.990327
_cell_angle_alpha 90.000000
_cell_angle_beta 90.000000
_cell_angle_gamma 90.000000
_cell_volume 2498.838750
_symmetry_space_group_name_H-M "P M M M"
_symmetry_group_IT_number 47
_symmetry_cell_setting 'orthorhombic'
loop_
_space_group_symop_operation_xyz
x,y,z
-x,-y,z
x,-y,-z
-x,y,-z
-x,-y,-z
x,y,-z
-x,y,z
x,-y,z
loop_
_atom_site_type_symbol
_atom_site_label
_atom_site_fract_x
_atom_site_fract_y
_atom_site_fract_z
Si Si1 0.688794 0.789879 0.362785
Si Si2 0.437959 0.285453 0.106794
Si Si3 0.937509 0.784308 0.362295
Si Si4 0.812813 0.287416 0.134736
Si Si5 0.187492 0.225133 0.348193
Si Si6 0.310636 0.274677 0.844539
Si Si7 0.437778 0.212673 0.393230
Si Si8 0.937226 0.276798 0.148333
O O1 0.751554 0.713746 0.391673
O O2 0.694724 0.788427 0.256723
O O3 0.625441 0.702504 0.376546
O O4 0.684727 0.000000 0.397324
O O5 0.500000 0.207238 0.139607
O O6 0.437007 0.500000 0.136203
O O7 0.374471 0.209229 0.127708
O O8 0.440799 0.283416 0.000000
O O9 0.873951 0.712821 0.389065
O O10 0.937444 0.770625 0.253965
O O11 0.000000 0.706404 0.391678
O O12 0.937985 0.000000 0.386419
O O13 0.813088 0.500000 0.106064
O O14 0.813193 0.282880 0.243705
O O15 0.749317 0.212592 0.108708
O O16 0.875840 0.208595 0.109504
O O17 0.188273 0.000000 0.349141
O O18 0.310527 0.500000 0.849527
O O19 0.441361 0.207445 0.500000
O O20 0.500000 0.290922 0.361249
O O21 0.435629 0.000000 0.359891
O O22 0.936020 0.500000 0.142054
O O23 0.000000 0.215880 0.112101
#
# Coordination Sequence:
#
# PCOD9388879 Si02
#       8
#     8   8   8   8   8   8   8   8
#     4   9  16  25  38  56  76  96 118 146 180 215
#     4   8  14  25  40  56  73  94 121 151 179 207
#     4   8  12  17  25  37  55  81 110 135 160 194
#     4   8  13  20  29  43  64  87 110 137 169 203
#     4   8  13  20  29  43  64  87 110 137 169 203
#     4   9  16  25  38  56  76  96 118 146 180 215
#     4   8  14  25  40  56  73  94 121 151 179 207
#     4   8  12  17  25  37  55  81 110 135 160 194
#
# _framework density 25.611896000000002
#
# number of rings (size 3 to 8) (size 9 to 14) (size 15 to 20)
#    0.000    3.750    0.000    0.750    0.000    0.500 
#    0.000    0.000    0.000    0.750    0.000    1.750 
#    0.000    1.000    0.000   14.000    0.000    4.750 
#
# Total GULP energy -356369.098749 kJ/mol
# GULP energy per Si atom -5568.267168 kJ/mol
# Density = 2.555360 g / cm^3
# Si number density = 25.611896 Si / 1000 Ang^3
#
#
#
# Elastic Constant Matrix: (Units=GPa)
#
#
# Indices 1 2 3 4 5 6 
#
# 1 400.4280 23.8868 32.4579 0.0000 0.0000 0.0000
# 2 23.8868 128.9900 -4.8860 0.0000 0.0000 0.0000
# 3 32.4579 -4.8860 50.6496 0.0000 0.0000 0.0000
# 4 0.0000 0.0000 0.0000 -13.7332 0.0000 0.0000
# 5 0.0000 0.0000 0.0000 0.0000 100.6043 0.0000
# 6 0.0000 0.0000 0.0000 0.0000 0.0000 -2.0812
#
#
#
# Elastic Compliance Matrix: (Units=1/GPa)
#
#
# Indices 1 2 3 4 5 6 
#
# 1 0.002674 -0.000562 -0.001768 0.000000 0.000000 0.000000
# 2 -0.000562 0.007899 0.001122 0.000000 0.000000 0.000000
# 3 -0.001768 0.001122 0.020985 0.000000 0.000000 0.000000
# 4 0.000000 0.000000 0.000000 -0.072816 0.000000 0.000000
# 5 0.000000 0.000000 0.000000 0.000000 0.009940 0.000000
# 6 0.000000 0.000000 0.000000 0.000000 0.000000 -0.480483
#
#
# Mechanical properties :
#
#
# Convention : Reuss Voigt Hill
#
# Bulk Modulus (GPa) = 34.31433 75.88721 55.10077
# Shear Modulus (GPa) = -10.00659 52.19857 21.09599
#
# Velocity S-wave (km/s) = -1.97876 4.51939 2.87310
# Velocity P-wave (km/s) = 2.86465 7.54501 5.70672
#
# Compressibility (1/GPa) = 0.02914234
#
# Stress axis : x y z
#
# Youngs Moduli (GPa) = 373.94818 126.59582 47.65381
#
# Poissons Ratio (x) = 0.07117 0.08425
# Poissons Ratio (y) = 0.21023 -0.05348
# Poissons Ratio (z) = 0.66111 -0.14207
#
# Static dielectric constant tensor:
#      x y z
#    x 2.049650 0.000000 0.000000 
#    y 0.000000 1.956460 0.000000 
#    z 0.000000 0.000000 1.959620 
# 
# From -- ./inp_files/12863.got.cif
#   From: 2010.05.17/outbox.cif.g08.bks.cpg/sg47_7_cif.got.tgz:12863.got - 2010.06.03 20:15:42.
