data_PCOD9388718
_publ_section_title
;
Structure prediction by ZEFSAII (Michael W. Deem and Ramdas Pophale) SiO2 
 PCOD9388718
Probable space group: P M M M
;
_chemical_formula_sum "Si O2"
_cell_formula_units_Z 52
_cell_length_a 27.640503
_cell_length_b 14.378168
_cell_length_c 7.383313
_cell_angle_alpha 90.000000
_cell_angle_beta 90.000000
_cell_angle_gamma 90.000000
_cell_volume 2934.274744
_symmetry_space_group_name_H-M "P M M M"
_symmetry_group_IT_number 47
_symmetry_cell_setting 'orthorhombic'
loop_
_space_group_symop_operation_xyz
x,y,z
-x,-y,z
x,-y,-z
-x,y,-z
-x,-y,-z
x,y,-z
-x,y,z
x,-y,z
loop_
_atom_site_type_symbol
_atom_site_label
_atom_site_fract_x
_atom_site_fract_y
_atom_site_fract_z
Si Si1 0.298549 0.604664 0.779119
Si Si2 0.349353 0.786857 0.214748
Si Si3 0.798456 0.711633 0.779761
Si Si4 0.894207 0.608092 0.778246
Si Si5 0.745043 0.895052 0.221142
Si Si6 0.445959 0.894887 0.283138
Si Si7 0.000000 0.612904 0.210658
O O1 0.307042 0.500000 0.715804
O O2 0.336443 0.683560 0.718039
O O3 0.245561 0.643248 0.727847
O O4 0.299387 0.601968 0.000000
O O5 0.307903 0.858144 0.280674
O O6 0.402803 0.824945 0.242856
O O7 0.342000 0.782734 0.000000
O O8 0.849745 0.671766 0.718993
O O9 0.783068 0.815441 0.723269
O O10 0.799307 0.711879 0.000000
O O11 0.886577 0.500000 0.726542
O O12 0.947509 0.639857 0.714644
O O13 0.895236 0.608688 0.000000
O O14 0.754214 0.000000 0.282132
O O15 0.745246 0.896597 0.000000
O O16 0.448403 0.899773 0.500000
O O17 0.500000 0.869318 0.218409
O O18 0.434878 0.000000 0.217452
O O19 0.000000 0.500000 0.214871
O O20 0.000000 0.641425 0.000000
#
# Coordination Sequence:
#
# PCOD9388718 Si02
#       7
#     8   8   8   8   8   8   4
#     4   8  13  21  33  51  74  94 112 139 176 214
#     4   9  16  25  40  60  77  95 119 146 177 212
#     4   8  12  16  24  39  57  80 106 130 166 213
#     4   8  11  14  20  30  46  68  96 131 168 205
#     4   8  13  20  29  44  66  85 102 130 167 204
#     4   9  18  31  44  58  77  99 120 144 177 213
#     4   7  10  14  18  26  41  63  93 131 171 202
#
# _framework density 17.721585999999999
#
# number of rings (size 3 to 8) (size 9 to 14) (size 15 to 20)
#    0.000    3.769    0.000    4.154    0.000    3.077 
#    0.000    0.769    0.000    0.923    0.000    3.769 
#    0.000    4.308    0.000    0.000    0.000    0.000 
#
# Total GULP energy -289593.143833 kJ/mol
# GULP energy per Si atom -5569.098920 kJ/mol
# Density = 1.768125 g / cm^3
# Si number density = 17.721586 Si / 1000 Ang^3
#
#
#
# Elastic Constant Matrix: (Units=GPa)
#
#
# Indices 1 2 3 4 5 6 
#
# 1 173.1881 107.4042 1.9489 0.0000 0.0000 0.0000
# 2 107.4042 157.8644 6.1252 0.0000 0.0000 0.0000
# 3 1.9489 6.1252 58.0886 0.0000 0.0000 0.0000
# 4 0.0000 0.0000 0.0000 3.5310 0.0000 0.0000
# 5 0.0000 0.0000 0.0000 0.0000 49.4378 0.0000
# 6 0.0000 0.0000 0.0000 0.0000 0.0000 27.2493
#
#
#
# Elastic Compliance Matrix: (Units=1/GPa)
#
#
# Indices 1 2 3 4 5 6 
#
# 1 0.009997 -0.006816 0.000383 0.000000 0.000000 0.000000
# 2 -0.006816 0.011008 -0.000932 0.000000 0.000000 0.000000
# 3 0.000383 -0.000932 0.017300 0.000000 0.000000 0.000000
# 4 0.000000 0.000000 0.000000 0.283204 0.000000 0.000000
# 5 0.000000 0.000000 0.000000 0.000000 0.020227 0.000000
# 6 0.000000 0.000000 0.000000 0.000000 0.000000 0.036698
#
#
# Mechanical properties :
#
#
# Convention : Reuss Voigt Hill
#
# Bulk Modulus (GPa) = 42.41687 68.89975 55.65831
# Shear Modulus (GPa) = 12.46809 34.28782 23.37795
#
# Velocity S-wave (km/s) = 2.65534 4.40341 3.63599
# Velocity P-wave (km/s) = 5.77825 8.05089 7.00732
#
# Compressibility (1/GPa) = 0.02357553
#
# Stress axis : x y z
#
# Youngs Moduli (GPa) = 100.02974 90.84034 57.80183
#
# Poissons Ratio (x) = 0.61921 -0.02216
# Poissons Ratio (y) = 0.68185 0.05388
# Poissons Ratio (z) = -0.03835 0.08467
#
# Static dielectric constant tensor:
#      x y z
#    x 1.613500 0.000000 0.000000 
#    y 0.000000 1.592540 0.000000 
#    z 0.000000 0.000000 1.698160 
# 
# From -- ./inp_files/13390.got.cif
#   From: 2010.05.17/outbox.cif.g08.bks.cpg/sg47_7_cif.got.tgz:13390.got - 2010.06.03 20:15:42.
