data_PCOD9388451
_publ_section_title
;
Structure prediction by ZEFSAII (Michael W. Deem and Ramdas Pophale) SiO2 
 PCOD9388451
Probable space group: P M M M
;
_chemical_formula_sum "Si O2"
_cell_formula_units_Z 52
_cell_length_a 11.642838
_cell_length_b 9.206653
_cell_length_c 31.854057
_cell_angle_alpha 90.000000
_cell_angle_beta 90.000000
_cell_angle_gamma 90.000000
_cell_volume 3414.486362
_symmetry_space_group_name_H-M "P M M M"
_symmetry_group_IT_number 47
_symmetry_cell_setting 'orthorhombic'
loop_
_space_group_symop_operation_xyz
x,y,z
-x,-y,z
x,-y,-z
-x,y,-z
-x,-y,-z
x,y,-z
-x,y,z
x,-y,z
loop_
_atom_site_type_symbol
_atom_site_label
_atom_site_fract_x
_atom_site_fract_y
_atom_site_fract_z
Si Si1 0.140016 0.832390 0.500000
Si Si2 0.140004 0.332433 0.584424
Si Si3 0.139794 0.667140 0.752869
Si Si4 0.500000 0.326826 0.949336
Si Si5 0.862775 0.331204 0.000000
Si Si6 0.140053 0.832485 0.331151
Si Si7 0.735105 0.825383 0.075587
Si Si8 0.134502 0.172662 0.162081
O O1 0.176744 0.750508 0.457700
O O2 0.000000 0.831201 0.500000
O O3 0.175997 0.000000 0.500000
O O4 0.176040 0.500000 0.584073
O O5 0.176640 0.251753 0.626920
O O6 0.000000 0.331256 0.584404
O O7 0.176200 0.500000 0.751110
O O8 0.177824 0.753787 0.711535
O O9 0.173377 0.742423 0.796460
O O10 0.000000 0.669540 0.752347
O O11 0.500000 0.500000 0.941280
O O12 0.612013 0.249208 0.930637
O O13 0.500000 0.307031 0.000000
O O14 0.815485 0.247260 0.959557
O O15 0.822555 0.500000 0.000000
O O16 0.000000 0.330890 0.000000
O O17 0.000000 0.830804 0.331044
O O18 0.175818 0.000000 0.332116
O O19 0.789949 0.796829 0.121170
O O20 0.728339 0.000000 0.069657
O O21 0.000000 0.208643 0.153705
O O22 0.139389 0.000000 0.170520
#
# Coordination Sequence:
#
# PCOD9388451 Si02
#       8
#     4   8   8   4   4   8   8   8
#     4   9  15  21  27  35  49  71 101 139 187 240
#     4   9  15  21  28  38  53  74 104 144 189 237
#     4   9  16  25  38  56  77 102 130 159 195 243
#     4  11  23  39  57  75  98 124 152 186 224 261
#     4  11  23  36  51  74 103 129 151 179 218 261
#     4   9  15  22  32  45  62  86 116 151 191 236
#     4  11  22  36  56  76  95 121 155 188 218 256
#     4   9  18  32  48  68  93 117 141 173 214 258
#
# _framework density 15.229229999999999
#
# number of rings (size 3 to 8) (size 9 to 14) (size 15 to 20)
#    0.000    2.385    0.769    3.000    0.000    9.231 
#    0.000    1.538    0.000    0.000    0.000    0.000 
#    0.000    0.000    0.000    0.000    0.000    0.000 
#
# Total GULP energy -289873.725667 kJ/mol
# GULP energy per Si atom -5574.494724 kJ/mol
# Density = 1.519457 g / cm^3
# Si number density = 15.229230 Si / 1000 Ang^3
#
#
#
# Elastic Constant Matrix: (Units=GPa)
#
#
# Indices 1 2 3 4 5 6 
#
# 1 38.4322 33.4305 34.7598 0.0000 0.0000 0.0000
# 2 33.4305 149.2068 115.1555 0.0000 0.0000 0.0000
# 3 34.7598 115.1555 172.3651 0.0000 0.0000 0.0000
# 4 0.0000 0.0000 0.0000 14.2124 0.0000 0.0000
# 5 0.0000 0.0000 0.0000 0.0000 -0.9856 0.0000
# 6 0.0000 0.0000 0.0000 0.0000 0.0000 10.9386
#
#
#
# Elastic Compliance Matrix: (Units=1/GPa)
#
#
# Indices 1 2 3 4 5 6 
#
# 1 0.033355 -0.004711 -0.003579 0.000000 0.000000 0.000000
# 2 -0.004711 0.014502 -0.008739 0.000000 0.000000 0.000000
# 3 -0.003579 -0.008739 0.012362 0.000000 0.000000 0.000000
# 4 0.000000 0.000000 0.000000 0.070361 0.000000 0.000000
# 5 0.000000 0.000000 0.000000 0.000000 -1.014611 0.000000
# 6 0.000000 0.000000 0.000000 0.000000 0.000000 0.091420
#
#
# Mechanical properties :
#
#
# Convention : Reuss Voigt Hill
#
# Bulk Modulus (GPa) = 38.22482 80.74395 59.48438
# Shear Modulus (GPa) = -6.66814 16.61028 4.97107
#
# Velocity S-wave (km/s) = -2.09476 3.30613 1.80866
# Velocity P-wave (km/s) = 4.39357 8.22850 6.59589
#
# Compressibility (1/GPa) = 0.02616102
#
# Stress axis : x y z
#
# Youngs Moduli (GPa) = 29.98062 68.95637 80.89603
#
# Poissons Ratio (x) = 0.32486 0.28953
# Poissons Ratio (y) = 0.14124 0.70691
# Poissons Ratio (z) = 0.10730 0.60258
#
# Static dielectric constant tensor:
#      x y z
#    x 1.472260 0.000000 0.000000 
#    y 0.000000 1.511110 0.000000 
#    z 0.000000 0.000000 1.498640 
# 
# From -- ./inp_files/34548.got.cif
#   From: 2010.05.17/outbox.cif.g08.bks.cpg/sg47_18_cif.got.tgz:34548.got - 2010.06.03 20:15:42.
