data_PCOD9388834
_publ_section_title
;
Structure prediction by ZEFSAII (Michael W. Deem and Ramdas Pophale) SiO2 
 PCOD9388834
Probable space group: P M M M
;
_chemical_formula_sum "Si O2"
_cell_formula_units_Z 56
_cell_length_a 30.635112
_cell_length_b 14.274578
_cell_length_c 7.397945
_cell_angle_alpha 90.000000
_cell_angle_beta 90.000000
_cell_angle_gamma 90.000000
_cell_volume 3235.145731
_symmetry_space_group_name_H-M "P M M M"
_symmetry_group_IT_number 47
_symmetry_cell_setting 'orthorhombic'
loop_
_space_group_symop_operation_xyz
x,y,z
-x,-y,z
x,-y,-z
-x,y,-z
-x,-y,-z
x,y,-z
-x,y,z
x,-y,z
loop_
_atom_site_type_symbol
_atom_site_label
_atom_site_fract_x
_atom_site_fract_y
_atom_site_fract_z
Si Si1 0.866396 0.714723 0.215416
Si Si2 0.728092 0.214070 0.284882
Si Si3 0.778175 0.605178 0.282863
Si Si4 0.357489 0.890694 0.721166
Si Si5 0.183643 0.104965 0.782731
Si Si6 0.950887 0.608136 0.779506
Si Si7 0.546929 0.888230 0.282095
O O1 0.827096 0.641342 0.244864
O O2 0.849052 0.814475 0.286265
O O3 0.911893 0.674107 0.285280
O O4 0.871378 0.725124 0.000000
O O5 0.722728 0.224918 0.500000
O O6 0.745497 0.313953 0.213918
O O7 0.682894 0.171738 0.215265
O O8 0.767523 0.141031 0.256261
O O9 0.773748 0.602793 0.500000
O O10 0.771224 0.500000 0.214658
O O11 0.357383 0.890475 0.500000
O O12 0.405460 0.855322 0.780330
O O13 0.352074 0.000000 0.773669
O O14 0.176534 0.000000 0.714515
O O15 0.179424 0.102649 0.000000
O O16 0.943233 0.500000 0.726178
O O17 0.000000 0.634841 0.724015
O O18 0.950342 0.609117 0.000000
O O19 0.546568 0.877550 0.500000
O O20 0.500000 0.850994 0.215319
O O21 0.547006 0.000000 0.246751
#
# Coordination Sequence:
#
# PCOD9388834 Si02
#       7
#     8   8   8   8   8   8   8
#     4   9  16  26  41  57  71  92 121 145 166 201
#     4   9  16  25  37  52  69  91 120 148 172 203
#     4   9  17  27  37  51  73  96 115 141 177 210
#     4   8  12  17  27  44  64  85 110 140 169 197
#     4   9  17  27  37  51  73  97 118 143 174 203
#     4   8  13  21  35  56  76  89 107 141 178 205
#     4   7   9  13  21  35  58  85 106 127 164 207
#
# _framework density 17.309885999999999
#
# number of rings (size 3 to 8) (size 9 to 14) (size 15 to 20)
#    0.000    3.571    0.000    2.571    0.000    1.714 
#    0.000    0.000    0.000    0.857    0.000    5.000 
#    0.000    1.143    0.000   20.429    0.000   12.286 
#
# Total GULP energy -311857.814769 kJ/mol
# GULP energy per Si atom -5568.889549 kJ/mol
# Density = 1.727049 g / cm^3
# Si number density = 17.309886 Si / 1000 Ang^3
#
#
#
# Elastic Constant Matrix: (Units=GPa)
#
#
# Indices 1 2 3 4 5 6 
#
# 1 193.7294 93.5712 6.3025 0.0000 0.0000 0.0000
# 2 93.5712 118.4300 3.2916 0.0000 0.0000 0.0000
# 3 6.3025 3.2916 55.8121 0.0000 0.0000 0.0000
# 4 0.0000 0.0000 0.0000 0.2330 0.0000 0.0000
# 5 0.0000 0.0000 0.0000 0.0000 7.7908 0.0000
# 6 0.0000 0.0000 0.0000 0.0000 0.0000 21.5990
#
#
#
# Elastic Compliance Matrix: (Units=1/GPa)
#
#
# Indices 1 2 3 4 5 6 
#
# 1 0.008364 -0.006593 -0.000556 0.000000 0.000000 0.000000
# 2 -0.006593 0.013655 -0.000061 0.000000 0.000000 0.000000
# 3 -0.000556 -0.000061 0.017984 0.000000 0.000000 0.000000
# 4 0.000000 0.000000 0.000000 4.292045 0.000000 0.000000
# 5 0.000000 0.000000 0.000000 0.000000 0.128356 0.000000
# 6 0.000000 0.000000 0.000000 0.000000 0.000000 0.046298
#
#
# Mechanical properties :
#
#
# Convention : Reuss Voigt Hill
#
# Bulk Modulus (GPa) = 39.08791 63.81137 51.44964
# Shear Modulus (GPa) = 1.10384 23.57831 12.34108
#
# Velocity S-wave (km/s) = 0.79942 3.69471 2.67301
# Velocity P-wave (km/s) = 4.84586 7.42599 6.27008
#
# Compressibility (1/GPa) = 0.02558336
#
# Stress axis : x y z
#
# Youngs Moduli (GPa) = 119.55307 73.23405 55.60622
#
# Poissons Ratio (x) = 0.48285 0.03090
# Poissons Ratio (y) = 0.78825 0.00338
# Poissons Ratio (z) = 0.06644 0.00445
#
# Static dielectric constant tensor:
#      x y z
#    x 1.606670 0.000000 0.000000 
#    y 0.000000 1.576590 0.000000 
#    z 0.000000 0.000000 1.695140 
# 
# From -- ./inp_files/8133.got.cif
#   From: 2010.05.17/outbox.cif.g08.bks.cpg/sg47_5_cif.got.tgz:8133.got - 2010.06.03 20:15:42.
