data_PCOD9388282
_publ_section_title
;
Structure prediction by ZEFSAII (Michael W. Deem and Ramdas Pophale) SiO2 
 PCOD9388282
Probable space group: P M M M
;
_chemical_formula_sum "Si O2"
_cell_formula_units_Z 40
_cell_length_a 12.924366
_cell_length_b 23.165789
_cell_length_c 9.115963
_cell_angle_alpha 90.000000
_cell_angle_beta 90.000000
_cell_angle_gamma 90.000000
_cell_volume 2729.347907
_symmetry_space_group_name_H-M "P M M M"
_symmetry_group_IT_number 47
_symmetry_cell_setting 'orthorhombic'
loop_
_space_group_symop_operation_xyz
x,y,z
-x,-y,z
x,-y,-z
-x,y,-z
-x,-y,-z
x,y,-z
-x,y,z
x,-y,z
loop_
_atom_site_type_symbol
_atom_site_label
_atom_site_fract_x
_atom_site_fract_y
_atom_site_fract_z
Si Si1 0.121017 0.242117 0.324438
Si Si2 0.000000 0.568926 0.825156
Si Si3 0.806096 0.367746 0.323883
Si Si4 0.120969 0.000000 0.821054
Si Si5 0.874111 0.125310 0.171805
Si Si6 0.620861 0.568053 0.174285
O O1 0.123641 0.236758 0.500000
O O2 0.180501 0.300361 0.283225
O O3 0.160289 0.182572 0.255175
O O4 0.000000 0.249870 0.281446
O O5 0.100787 0.597101 0.751558
O O6 0.000000 0.500000 0.802508
O O7 0.000000 0.579691 0.000000
O O8 0.815174 0.372434 0.500000
O O9 0.699028 0.393852 0.267138
O O10 0.164291 0.062335 0.774222
O O11 0.000000 0.000000 0.778194
O O12 0.122945 0.000000 0.000000
O O13 0.000000 0.123627 0.183072
O O14 0.849267 0.130703 0.000000
O O15 0.500000 0.579793 0.204666
O O16 0.639404 0.500000 0.203280
O O17 0.638206 0.577057 0.000000
#
# Coordination Sequence:
#
# PCOD9388282 Si02
#       6
#     8   4   8   4   8   8
#     4   9  17  29  39  53  83 116 142 174 214 252
#     4  11  23  35  47  65  89 116 147 182 221 265
#     4  11  21  33  48  67  91 118 147 182 222 263
#     4   7  10  18  31  49  73  97 130 179 218 239
#     4   8  13  21  35  53  72 101 141 178 210 246
#     4   9  19  36  54  70  89 112 140 179 226 271
#
# _framework density 14.655514999999999
#
# number of rings (size 3 to 8) (size 9 to 14) (size 15 to 20)
#    0.000    2.800    1.000    3.300    0.000    5.600 
#    0.000    1.500    0.000    3.000    0.000    0.000 
#    0.000    0.000    0.000    0.900    0.000   17.700 
#
# Total GULP energy -222723.293822 kJ/mol
# GULP energy per Si atom -5568.082346 kJ/mol
# Density = 1.462216 g / cm^3
# Si number density = 14.655515 Si / 1000 Ang^3
#
#
#
# Elastic Constant Matrix: (Units=GPa)
#
#
# Indices 1 2 3 4 5 6 
#
# 1 43.1949 53.5547 29.4698 0.0000 0.0000 0.0000
# 2 53.5547 157.6489 62.8732 0.0000 0.0000 0.0000
# 3 29.4698 62.8732 39.5732 0.0000 0.0000 0.0000
# 4 0.0000 0.0000 0.0000 36.4910 0.0000 0.0000
# 5 0.0000 0.0000 0.0000 0.0000 18.7962 0.0000
# 6 0.0000 0.0000 0.0000 0.0000 0.0000 8.7962
#
#
#
# Elastic Compliance Matrix: (Units=1/GPa)
#
#
# Indices 1 2 3 4 5 6 
#
# 1 0.048867 -0.005697 -0.027339 0.000000 0.000000 0.000000
# 2 -0.005697 0.017978 -0.024321 0.000000 0.000000 0.000000
# 3 -0.027339 -0.024321 0.084270 0.000000 0.000000 0.000000
# 4 0.000000 0.000000 0.000000 0.027404 0.000000 0.000000
# 5 0.000000 0.000000 0.000000 0.000000 0.053202 0.000000
# 6 0.000000 0.000000 0.000000 0.000000 0.000000 0.113685
#
#
# Mechanical properties :
#
#
# Convention : Reuss Voigt Hill
#
# Bulk Modulus (GPa) = 27.47246 59.13472 43.30359
# Shear Modulus (GPa) = 10.58754 19.11796 14.85275
#
# Velocity S-wave (km/s) = 2.69072 3.61569 3.18694
# Velocity P-wave (km/s) = 5.33286 7.60712 6.56916
#
# Compressibility (1/GPa) = 0.03640009
#
# Stress axis : x y z
#
# Youngs Moduli (GPa) = 20.46389 55.62310 11.86669
#
# Poissons Ratio (x) = 0.31689 0.32443
# Poissons Ratio (y) = 0.11658 0.28861
# Poissons Ratio (z) = 0.55947 1.35280
#
# Static dielectric constant tensor:
#      x y z
#    x 1.456030 0.000000 0.000000 
#    y 0.000000 1.512900 0.000000 
#    z 0.000000 0.000000 1.488280 
# 
# From -- ./inp_files/4062.got.cif
#   From: 2010.05.17/outbox.cif.g08.bks.cpg/sg47_3_cif.got.tgz:4062.got - 2010.06.03 20:15:42.
