data_PCOD9388158
_publ_section_title
;
Structure prediction by ZEFSAII (Michael W. Deem and Ramdas Pophale) SiO2 
 PCOD9388158
Probable space group: P M M M
;
_chemical_formula_sum "Si O2"
_cell_formula_units_Z 56
_cell_length_a 13.689165
_cell_length_b 13.837527
_cell_length_c 19.411713
_cell_angle_alpha 90.000000
_cell_angle_beta 90.000000
_cell_angle_gamma 90.000000
_cell_volume 3677.048017
_symmetry_space_group_name_H-M "P M M M"
_symmetry_group_IT_number 47
_symmetry_cell_setting 'orthorhombic'
loop_
_space_group_symop_operation_xyz
x,y,z
-x,-y,z
x,-y,-z
-x,y,-z
-x,-y,-z
x,y,-z
-x,y,z
x,-y,z
loop_
_atom_site_type_symbol
_atom_site_label
_atom_site_fract_x
_atom_site_fract_y
_atom_site_fract_z
Si Si1 0.381663 0.202061 0.423912
Si Si2 0.382964 0.887772 0.720311
Si Si3 0.706641 0.705891 0.211350
Si Si4 0.617125 0.613513 0.921053
Si Si5 0.382303 0.392067 0.345573
Si Si6 0.882964 0.615992 0.426388
Si Si7 0.116402 0.384362 0.272847
O O1 0.345075 0.176443 0.500000
O O2 0.500000 0.198323 0.426781
O O3 0.354503 0.135414 0.359100
O O4 0.355069 0.311209 0.401528
O O5 0.500000 0.866803 0.726622
O O6 0.323507 0.814179 0.768010
O O7 0.367751 0.000000 0.735670
O O8 0.668392 0.676407 0.136886
O O9 0.653842 0.640511 0.270407
O O10 0.819613 0.677805 0.220690
O O11 0.500000 0.623578 0.914632
O O12 0.639939 0.500000 0.909837
O O13 0.643441 0.637706 0.000000
O O14 0.500000 0.392938 0.343366
O O15 0.348127 0.500000 0.362461
O O16 0.844490 0.653843 0.500000
O O17 0.871009 0.500000 0.426984
O O18 0.850736 0.647010 0.350301
O O19 0.000000 0.633005 0.426660
O O20 0.134753 0.500000 0.265288
O O21 0.000000 0.371068 0.266699
#
# Coordination Sequence:
#
# PCOD9388158 Si02
#       7
#     8   8   8   8   8   8   8
#     4   8  14  24  37  54  78 111 148 178 206 249
#     4   9  18  31  46  64  83 106 142 188 234 272
#     4  11  18  28  46  63  84 114 147 180 218 264
#     4   9  17  28  44  69  97 121 145 172 205 255
#     4   9  16  24  36  57  83 110 139 171 212 262
#     4   7  10  19  35  52  73 105 142 177 213 252
#     4   9  17  27  40  62  90 119 151 182 213 255
#
# _framework density 15.229608000000001
#
# number of rings (size 3 to 8) (size 9 to 14) (size 15 to 20)
#    0.000    3.143    0.000    5.143    0.000    1.714 
#    0.000    5.714    0.000    4.714    0.000    4.000 
#    0.000    0.000    0.000   10.000    0.000    1.143 
#
# Total GULP energy -311866.281005 kJ/mol
# GULP energy per Si atom -5569.040732 kJ/mol
# Density = 1.519494 g / cm^3
# Si number density = 15.229608 Si / 1000 Ang^3
#
#
#
# Elastic Constant Matrix: (Units=GPa)
#
#
# Indices 1 2 3 4 5 6 
#
# 1 53.5380 31.7265 28.3570 0.0000 0.0000 0.0000
# 2 31.7265 73.3337 40.5980 0.0000 0.0000 0.0000
# 3 28.3570 40.5980 103.8752 0.0000 0.0000 0.0000
# 4 0.0000 0.0000 0.0000 7.5810 0.0000 0.0000
# 5 0.0000 0.0000 0.0000 0.0000 19.0475 0.0000
# 6 0.0000 0.0000 0.0000 0.0000 0.0000 12.9871
#
#
#
# Elastic Compliance Matrix: (Units=1/GPa)
#
#
# Indices 1 2 3 4 5 6 
#
# 1 0.026054 -0.009359 -0.003455 0.000000 0.000000 0.000000
# 2 -0.009359 0.020764 -0.005560 0.000000 0.000000 0.000000
# 3 -0.003455 -0.005560 0.012743 0.000000 0.000000 0.000000
# 4 0.000000 0.000000 0.000000 0.131909 0.000000 0.000000
# 5 0.000000 0.000000 0.000000 0.000000 0.052500 0.000000
# 6 0.000000 0.000000 0.000000 0.000000 0.000000 0.077000
#
#
# Mechanical properties :
#
#
# Convention : Reuss Voigt Hill
#
# Bulk Modulus (GPa) = 43.83505 48.01220 45.92362
# Shear Modulus (GPa) = 13.68651 16.59414 15.14033
#
# Velocity S-wave (km/s) = 3.00105 3.30449 3.15642
# Velocity P-wave (km/s) = 6.39169 6.79364 6.59572
#
# Compressibility (1/GPa) = 0.02281280
#
# Stress axis : x y z
#
# Youngs Moduli (GPa) = 38.38111 48.16125 78.47390
#
# Poissons Ratio (x) = 0.45076 0.27110
# Poissons Ratio (y) = 0.35923 0.43632
# Poissons Ratio (z) = 0.13259 0.26778
#
# Static dielectric constant tensor:
#      x y z
#    x 1.538980 0.000000 0.000000 
#    y 0.000000 1.494700 0.000000 
#    z 0.000000 0.000000 1.517250 
# 
# From -- ./inp_files/28264.got.cif
#   From: 2010.05.17/outbox.cif.g08.bks.cpg/sg47_15_cif.got.tgz:28264.got - 2010.06.03 20:15:42.
