data_PCOD9388681
_publ_section_title
;
Structure prediction by ZEFSAII (Michael W. Deem and Ramdas Pophale) SiO2 
 PCOD9388681
Probable space group: P M M M
;
_chemical_formula_sum "Si O2"
_cell_formula_units_Z 24
_cell_length_a 18.811262
_cell_length_b 7.426248
_cell_length_c 7.623009
_cell_angle_alpha 90.000000
_cell_angle_beta 90.000000
_cell_angle_gamma 90.000000
_cell_volume 1064.912226
_symmetry_space_group_name_H-M "P M M M"
_symmetry_group_IT_number 47
_symmetry_cell_setting 'orthorhombic'
loop_
_space_group_symop_operation_xyz
x,y,z
-x,-y,z
x,-y,-z
-x,y,-z
-x,-y,-z
x,y,-z
-x,y,z
x,-y,z
loop_
_atom_site_type_symbol
_atom_site_label
_atom_site_fract_x
_atom_site_fract_y
_atom_site_fract_z
Si Si1 0.000000 0.716641 0.211834
Si Si2 0.420395 0.000000 0.707710
Si Si3 0.693819 0.703436 0.789475
Si Si4 0.847140 0.280455 0.206741
O O1 0.076619 0.780942 0.280378
O O2 0.000000 0.500000 0.236354
O O3 0.000000 0.746106 0.000000
O O4 0.372866 0.171602 0.755401
O O5 0.500000 0.000000 0.783849
O O6 0.426867 0.000000 0.500000
O O7 0.682936 0.500000 0.724242
O O8 0.770239 0.775694 0.721522
O O9 0.702040 0.694367 0.000000
O O10 0.846014 0.500000 0.215872
O O11 0.848790 0.232378 0.000000
#
# Coordination Sequence:
#
# PCOD9388681 Si02
#       4
#     4   4   8   8
#     4   7   8  12  28  59  99 134 159 189 234 286
#     4  11  25  41  55  74 101 134 172 213 259 315
#     4   9  18  34  57  83 108 134 168 212 259 305
#     4   7  10  18  36  66 101 132 161 196 241 290
#
# _framework density 22.537071000000001
#
# number of rings (size 3 to 8) (size 9 to 14) (size 15 to 20)
#    0.000    3.667    0.000    4.500    0.000    2.667 
#    0.000    3.333    0.000    1.000    0.000    8.167 
#    0.000    6.667    0.000    0.000    0.000    0.000 
#
# Total GULP energy -133720.248903 kJ/mol
# GULP energy per Si atom -5571.677038 kJ/mol
# Density = 2.248578 g / cm^3
# Si number density = 22.537071 Si / 1000 Ang^3
#
#
#
# Elastic Constant Matrix: (Units=GPa)
#
#
# Indices 1 2 3 4 5 6 
#
# 1 308.0830 84.2450 13.3319 0.0000 0.0000 0.0000
# 2 84.2450 95.1405 2.6882 0.0000 0.0000 0.0000
# 3 13.3319 2.6882 45.0035 0.0000 0.0000 0.0000
# 4 0.0000 0.0000 0.0000 10.6580 0.0000 0.0000
# 5 0.0000 0.0000 0.0000 0.0000 78.1590 0.0000
# 6 0.0000 0.0000 0.0000 0.0000 0.0000 50.5369
#
#
#
# Elastic Compliance Matrix: (Units=1/GPa)
#
#
# Indices 1 2 3 4 5 6 
#
# 1 0.004332 -0.003806 -0.001056 0.000000 0.000000 0.000000
# 2 -0.003806 0.013873 0.000299 0.000000 0.000000 0.000000
# 3 -0.001056 0.000299 0.022515 0.000000 0.000000 0.000000
# 4 0.000000 0.000000 0.000000 0.093826 0.000000 0.000000
# 5 0.000000 0.000000 0.000000 0.000000 0.012794 0.000000
# 6 0.000000 0.000000 0.000000 0.000000 0.000000 0.019788
#
#
# Mechanical properties :
#
#
# Convention : Reuss Voigt Hill
#
# Bulk Modulus (GPa) = 31.65193 72.08414 51.86803
# Shear Modulus (GPa) = 26.76837 51.06824 38.91830
#
# Velocity S-wave (km/s) = 3.45011 4.76538 4.16006
# Velocity P-wave (km/s) = 5.47228 7.89510 6.79259
#
# Compressibility (1/GPa) = 0.03159365
#
# Stress axis : x y z
#
# Youngs Moduli (GPa) = 230.81613 72.08316 44.41389
#
# Poissons Ratio (x) = 0.27438 0.04690
# Poissons Ratio (y) = 0.87859 -0.01328
# Poissons Ratio (z) = 0.24376 -0.02155
#
# Static dielectric constant tensor:
#      x y z
#    x 1.904630 0.000000 0.000000 
#    y 0.000000 2.087390 0.000000 
#    z 0.000000 0.000000 1.852180 
# 
# From -- ./inp_files/8360.got.cif
#   From: 2010.05.17/outbox.cif.g08.bks.cpg/sg47_5_cif.got.tgz:8360.got - 2010.06.03 20:15:42.
