data_PCOD9388071
_publ_section_title
;
Structure prediction by ZEFSAII (Michael W. Deem and Ramdas Pophale) SiO2 
 PCOD9388071
Probable space group: P M M M
;
_chemical_formula_sum "Si O2"
_cell_formula_units_Z 48
_cell_length_a 10.041245
_cell_length_b 17.972315
_cell_length_c 14.067496
_cell_angle_alpha 90.000000
_cell_angle_beta 90.000000
_cell_angle_gamma 90.000000
_cell_volume 2538.682480
_symmetry_space_group_name_H-M "P M M M"
_symmetry_group_IT_number 47
_symmetry_cell_setting 'orthorhombic'
loop_
_space_group_symop_operation_xyz
x,y,z
-x,-y,z
x,-y,-z
-x,y,-z
-x,-y,-z
x,y,-z
-x,y,z
x,-y,z
loop_
_atom_site_type_symbol
_atom_site_label
_atom_site_fract_x
_atom_site_fract_y
_atom_site_fract_z
Si Si1 0.500000 0.912381 0.393183
Si Si2 0.348924 0.590475 0.109035
Si Si3 0.839896 0.086607 0.110924
Si Si4 0.657743 0.688532 0.611249
Si Si5 0.255100 0.161119 0.707625
Si Si6 0.845789 0.589605 0.722558
Si Si7 0.000000 0.912953 0.613822
O O1 0.500000 0.879241 0.500000
O O2 0.373894 0.886747 0.335030
O O3 0.500000 0.000000 0.402016
O O4 0.500000 0.613765 0.136791
O O5 0.349777 0.500000 0.109284
O O6 0.233950 0.613343 0.181856
O O7 0.325217 0.613939 0.000000
O O8 0.767704 0.142659 0.182065
O O9 0.000000 0.094372 0.121794
O O10 0.807773 0.000000 0.134585
O O11 0.808350 0.098391 0.000000
O O12 0.672773 0.708270 0.500000
O O13 0.500000 0.674412 0.627703
O O14 0.709323 0.755399 0.677765
O O15 0.753552 0.620263 0.638060
O O16 0.125724 0.130413 0.654273
O O17 0.847944 0.500000 0.720667
O O18 0.000000 0.615425 0.719658
O O19 0.000000 0.912040 0.500000
O O20 0.000000 0.000000 0.644293
#
# Coordination Sequence:
#
# PCOD9388071 Si02
#       7
#     4   8   8   8   8   8   4
#     4  11  22  36  57  85 122 162 195 238 297 353
#     4   8  14  28  54  87 121 156 192 232 283 347
#     4   9  18  35  60  89 121 160 206 253 301 355
#     4  11  25  44  63  83 114 161 207 247 307 379
#     4  12  22  38  60  87 122 160 202 250 305 362
#     4  10  22  39  61  91 122 152 196 255 316 374
#     4  11  22  34  55  89 122 154 201 250 293 355
#
# _framework density 18.907444999999999
#
# number of rings (size 3 to 8) (size 9 to 14) (size 15 to 20)
#    0.000    1.833    1.667    4.500    1.167    3.333 
#    0.000    4.583    0.000    2.500    0.000    0.000 
#    0.000    0.000    0.000    0.000    0.000    0.000 
#
# Total GULP energy -267853.957155 kJ/mol
# GULP energy per Si atom -5580.290774 kJ/mol
# Density = 1.886441 g / cm^3
# Si number density = 18.907445 Si / 1000 Ang^3
#
#
#
# Elastic Constant Matrix: (Units=GPa)
#
#
# Indices 1 2 3 4 5 6 
#
# 1 150.9810 36.7164 51.3013 0.0000 0.0000 0.0000
# 2 36.7164 38.6276 29.8688 0.0000 0.0000 0.0000
# 3 51.3013 29.8688 115.8633 0.0000 0.0000 0.0000
# 4 0.0000 0.0000 0.0000 39.1013 0.0000 0.0000
# 5 0.0000 0.0000 0.0000 0.0000 33.7634 0.0000
# 6 0.0000 0.0000 0.0000 0.0000 0.0000 33.0291
#
#
#
# Elastic Compliance Matrix: (Units=1/GPa)
#
#
# Indices 1 2 3 4 5 6 
#
# 1 0.009056 -0.006879 -0.002237 0.000000 0.000000 0.000000
# 2 -0.006879 0.037558 -0.006637 0.000000 0.000000 0.000000
# 3 -0.002237 -0.006637 0.011332 0.000000 0.000000 0.000000
# 4 0.000000 0.000000 0.000000 0.025575 0.000000 0.000000
# 5 0.000000 0.000000 0.000000 0.000000 0.029618 0.000000
# 6 0.000000 0.000000 0.000000 0.000000 0.000000 0.030276
#
#
# Mechanical properties :
#
#
# Convention : Reuss Voigt Hill
#
# Bulk Modulus (GPa) = 37.81740 60.13831 48.97786
# Shear Modulus (GPa) = 27.21342 33.68445 30.44893
#
# Velocity S-wave (km/s) = 3.79792 4.22541 4.01736
# Velocity P-wave (km/s) = 6.26714 7.46199 6.89051
#
# Compressibility (1/GPa) = 0.02644285
#
# Stress axis : x y z
#
# Youngs Moduli (GPa) = 110.42316 26.62532 88.24557
#
# Poissons Ratio (x) = 0.18315 0.19736
# Poissons Ratio (y) = 0.75956 0.58565
# Poissons Ratio (z) = 0.24697 0.17670
#
# Static dielectric constant tensor:
#      x y z
#    x 1.636990 0.000000 0.000000 
#    y 0.000000 1.699640 0.000000 
#    z 0.000000 0.000000 1.675950 
# 
# From -- ./inp_files/21047.got.cif
#   From: 2010.05.17/outbox.cif.g08.bks.cpg/sg47_11_cif.got.tgz:21047.got - 2010.06.03 20:15:42.
