data_PCOD9388657
_publ_section_title
;
Structure prediction by ZEFSAII (Michael W. Deem and Ramdas Pophale) SiO2 
 PCOD9388657
Probable space group: P M M M
;
_chemical_formula_sum "Si O2"
_cell_formula_units_Z 48
_cell_length_a 31.809133
_cell_length_b 8.513622
_cell_length_c 9.312347
_cell_angle_alpha 90.000000
_cell_angle_beta 90.000000
_cell_angle_gamma 90.000000
_cell_volume 2521.885394
_symmetry_space_group_name_H-M "P M M M"
_symmetry_group_IT_number 47
_symmetry_cell_setting 'orthorhombic'
loop_
_space_group_symop_operation_xyz
x,y,z
-x,-y,z
x,-y,-z
-x,y,-z
-x,-y,-z
x,y,-z
-x,y,z
x,-y,z
loop_
_atom_site_type_symbol
_atom_site_label
_atom_site_fract_x
_atom_site_fract_y
_atom_site_fract_z
Si Si1 0.743048 0.187594 0.666341
Si Si2 0.337593 0.688020 0.833707
Si Si3 0.917795 0.691395 0.165816
Si Si4 0.500000 0.688365 0.833817
Si Si5 0.823555 0.689361 0.169783
Si Si6 0.418684 0.811729 0.666219
Si Si7 0.000000 0.307735 0.335257
O O1 0.740895 0.238789 0.500000
O O2 0.705666 0.262989 0.758234
O O3 0.787342 0.234307 0.736342
O O4 0.738147 0.000000 0.670362
O O5 0.341108 0.500000 0.832465
O O6 0.376449 0.758036 0.745610
O O7 0.338409 0.740789 0.000000
O O8 0.917776 0.500000 0.168730
O O9 0.870909 0.739028 0.212680
O O10 0.957375 0.745433 0.257668
O O11 0.923355 0.737760 0.000000
O O12 0.500000 0.500000 0.833930
O O13 0.458788 0.747261 0.751391
O O14 0.500000 0.742156 0.000000
O O15 0.820798 0.500000 0.183213
O O16 0.818196 0.725742 0.000000
O O17 0.418974 0.758224 0.500000
O O18 0.420513 0.000000 0.666472
O O19 0.000000 0.500000 0.329718
O O20 0.000000 0.260508 0.500000
#
# Coordination Sequence:
#
# PCOD9388657 Si02
#       7
#     8   8   8   4   8   8   4
#     4  11  24  39  55  79 110 143 180 221 268 325
#     4  11  24  41  62  88 115 145 185 230 275 327
#     4   8  14  25  41  62  92 129 166 207 257 311
#     4  11  24  41  62  90 122 157 200 243 282 330
#     4   9  18  33  53  77 103 134 176 222 267 319
#     4  11  24  41  62  90 122 155 193 235 280 332
#     4   9  15  21  33  59  94 129 166 207 252 306
#
# _framework density 19.033377999999999
#
# number of rings (size 3 to 8) (size 9 to 14) (size 15 to 20)
#    0.000    2.000    0.000    4.750    0.000   13.667 
#    0.000    1.667    0.000    0.000    0.000    0.583 
#    0.000    4.667    0.000    0.000    0.000    0.000 
#
# Total GULP energy -268139.305784 kJ/mol
# GULP energy per Si atom -5586.235537 kJ/mol
# Density = 1.899006 g / cm^3
# Si number density = 19.033378 Si / 1000 Ang^3
#
#
#
# Elastic Constant Matrix: (Units=GPa)
#
#
# Indices 1 2 3 4 5 6 
#
# 1 177.8501 22.8949 107.7215 0.0000 0.0000 0.0000
# 2 22.8949 26.3694 33.7830 0.0000 0.0000 0.0000
# 3 107.7215 33.7830 163.1821 0.0000 0.0000 0.0000
# 4 0.0000 0.0000 0.0000 25.3325 0.0000 0.0000
# 5 0.0000 0.0000 0.0000 0.0000 166.8896 0.0000
# 6 0.0000 0.0000 0.0000 0.0000 0.0000 93.4973
#
#
#
# Elastic Compliance Matrix: (Units=1/GPa)
#
#
# Indices 1 2 3 4 5 6 
#
# 1 0.009370 -0.000287 -0.006126 0.000000 0.000000 0.000000
# 2 -0.000287 0.051620 -0.010497 0.000000 0.000000 0.000000
# 3 -0.006126 -0.010497 0.012345 0.000000 0.000000 0.000000
# 4 0.000000 0.000000 0.000000 0.039475 0.000000 0.000000
# 5 0.000000 0.000000 0.000000 0.000000 0.005992 0.000000
# 6 0.000000 0.000000 0.000000 0.000000 0.000000 0.010695
#
#
# Mechanical properties :
#
#
# Convention : Reuss Voigt Hill
#
# Bulk Modulus (GPa) = 25.30681 77.35559 51.33120
# Shear Modulus (GPa) = 28.33005 70.67737 49.50371
#
# Velocity S-wave (km/s) = 3.86222 6.10033 5.10542
# Velocity P-wave (km/s) = 5.76314 9.50521 7.86011
#
# Compressibility (1/GPa) = 0.03951505
#
# Stress axis : x y z
#
# Youngs Moduli (GPa) = 106.72174 19.37216 81.00211
#
# Poissons Ratio (x) = 0.00556 0.49623
# Poissons Ratio (y) = 0.03064 0.85030
# Poissons Ratio (z) = 0.65379 0.20335
#
# Static dielectric constant tensor:
#      x y z
#    x 1.634280 0.000000 0.000000 
#    y 0.000000 1.651080 0.000000 
#    z 0.000000 0.000000 1.644370 
# 
# From -- ./inp_files/13975.got.cif
#   From: 2010.05.17/outbox.cif.g08.bks.cpg/sg47_7_cif.got.tgz:13975.got - 2010.06.03 20:15:42.
