data_PCOD9388346
_publ_section_title
;
Structure prediction by ZEFSAII (Michael W. Deem and Ramdas Pophale) SiO2 
 PCOD9388346
Probable space group: P M M M
;
_chemical_formula_sum "Si O2"
_cell_formula_units_Z 44
_cell_length_a 7.805384
_cell_length_b 14.057273
_cell_length_c 23.311121
_cell_angle_alpha 90.000000
_cell_angle_beta 90.000000
_cell_angle_gamma 90.000000
_cell_volume 2557.752464
_symmetry_space_group_name_H-M "P M M M"
_symmetry_group_IT_number 47
_symmetry_cell_setting 'orthorhombic'
loop_
_space_group_symop_operation_xyz
x,y,z
-x,-y,z
x,-y,-z
-x,y,-z
-x,-y,-z
x,y,-z
-x,y,z
x,-y,z
loop_
_atom_site_type_symbol
_atom_site_label
_atom_site_fract_x
_atom_site_fract_y
_atom_site_fract_z
Si Si1 0.205117 0.207111 0.180487
Si Si2 0.208190 0.891807 0.297319
Si Si3 0.208285 0.392691 0.757460
Si Si4 0.294362 0.108382 0.063298
Si Si5 0.000000 0.611924 0.431400
Si Si6 0.693599 0.297338 0.638585
O O1 0.264595 0.139696 0.233069
O O2 0.262287 0.313598 0.196422
O O3 0.251235 0.171415 0.117847
O O4 0.000000 0.206215 0.183632
O O5 0.272649 0.811211 0.340949
O O6 0.000000 0.888448 0.298558
O O7 0.261459 0.000000 0.309396
O O8 0.258634 0.500000 0.771152
O O9 0.280935 0.359065 0.696533
O O10 0.000000 0.389428 0.752576
O O11 0.500000 0.104259 0.060796
O O12 0.231410 0.000000 0.072344
O O13 0.233618 0.140416 0.000000
O O14 0.834478 0.664401 0.405339
O O15 0.000000 0.500000 0.414095
O O16 0.000000 0.616354 0.500000
O O17 0.500000 0.307317 0.617461
#
# Coordination Sequence:
#
# PCOD9388346 Si02
#       6
#     8   8   8   8   4   8
#     4   9  17  28  45  73 100 124 163 212 258 305
#     4   9  17  32  54  79 111 146 174 210 266 323
#     4   9  17  32  52  72 101 137 167 205 261 315
#     4   9  18  31  44  59  86 127 167 202 249 309
#     4  11  24  42  61  81 111 147 181 222 268 308
#     4  11  21  35  57  85 113 142 180 220 264 318
#
# _framework density 17.202603
#
# number of rings (size 3 to 8) (size 9 to 14) (size 15 to 20)
#    0.000    2.455    1.818    2.727    0.000    6.545 
#    0.000    1.818    0.000    1.636    0.000    5.091 
#    0.000    0.000    0.000    0.000    0.000    0.000 
#
# Total GULP energy -245369.530899 kJ/mol
# GULP energy per Si atom -5576.580248 kJ/mol
# Density = 1.716345 g / cm^3
# Si number density = 17.202603 Si / 1000 Ang^3
#
#
#
# Elastic Constant Matrix: (Units=GPa)
#
#
# Indices 1 2 3 4 5 6 
#
# 1 67.0294 43.4416 36.7733 0.0000 0.0000 0.0000
# 2 43.4416 141.0706 64.1647 0.0000 0.0000 0.0000
# 3 36.7733 64.1647 97.8328 0.0000 0.0000 0.0000
# 4 0.0000 0.0000 0.0000 22.4798 0.0000 0.0000
# 5 0.0000 0.0000 0.0000 0.0000 412.9511 0.0000
# 6 0.0000 0.0000 0.0000 0.0000 0.0000 7.8542
#
#
#
# Elastic Compliance Matrix: (Units=1/GPa)
#
#
# Indices 1 2 3 4 5 6 
#
# 1 0.020229 -0.003949 -0.005014 0.000000 0.000000 0.000000
# 2 -0.003949 0.010873 -0.005647 0.000000 0.000000 0.000000
# 3 -0.005014 -0.005647 0.015810 0.000000 0.000000 0.000000
# 4 0.000000 0.000000 0.000000 0.044484 0.000000 0.000000
# 5 0.000000 0.000000 0.000000 0.000000 0.002422 0.000000
# 6 0.000000 0.000000 0.000000 0.000000 0.000000 0.127320
#
#
# Mechanical properties :
#
#
# Convention : Reuss Voigt Hill
#
# Bulk Modulus (GPa) = 56.52106 66.07692 61.29899
# Shear Modulus (GPa) = 19.51189 99.42723 59.46956
#
# Velocity S-wave (km/s) = 3.37150 7.61073 5.88601
# Velocity P-wave (km/s) = 6.93422 10.75757 9.05011
#
# Compressibility (1/GPa) = 0.01769252
#
# Stress axis : x y z
#
# Youngs Moduli (GPa) = 49.43495 91.96965 63.25242
#
# Poissons Ratio (x) = 0.36317 0.31712
# Poissons Ratio (y) = 0.19521 0.35719
# Poissons Ratio (z) = 0.24785 0.51935
#
# Static dielectric constant tensor:
#      x y z
#    x 1.619380 0.000000 0.000000 
#    y 0.000000 1.590740 0.000000 
#    z 0.000000 0.000000 1.560640 
# 
# From -- ./inp_files/29450.got.cif
#   From: 2010.05.17/outbox.cif.g08.bks.cpg/sg47_15_cif.got.tgz:29450.got - 2010.06.03 20:15:42.
