data_PCOD9388992
_publ_section_title
;
Structure prediction by ZEFSAII (Michael W. Deem and Ramdas Pophale) SiO2 
 PCOD9388992
Probable space group: P M M M
;
_chemical_formula_sum "Si O2"
_cell_formula_units_Z 52
_cell_length_a 35.288408
_cell_length_b 7.338576
_cell_length_c 9.475038
_cell_angle_alpha 90.000000
_cell_angle_beta 90.000000
_cell_angle_gamma 90.000000
_cell_volume 2453.718982
_symmetry_space_group_name_H-M "P M M M"
_symmetry_group_IT_number 47
_symmetry_cell_setting 'orthorhombic'
loop_
_space_group_symop_operation_xyz
x,y,z
-x,-y,z
x,-y,-z
-x,y,-z
-x,-y,-z
x,y,-z
-x,y,z
x,-y,z
loop_
_atom_site_type_symbol
_atom_site_label
_atom_site_fract_x
_atom_site_fract_y
_atom_site_fract_z
Si Si1 0.852568 0.278012 0.835072
Si Si2 0.313177 0.784689 0.160550
Si Si3 0.000000 0.722255 0.162908
Si Si4 0.615193 0.223035 0.661810
Si Si5 0.542350 0.778287 0.163038
Si Si6 0.769758 0.281762 0.162710
Si Si7 0.925977 0.722500 0.337235
O O1 0.853188 0.500000 0.834327
O O2 0.810738 0.220397 0.781907
O O3 0.887474 0.217776 0.739817
O O4 0.856804 0.224962 0.000000
O O5 0.347595 0.714311 0.253997
O O6 0.271126 0.763634 0.225537
O O7 0.319413 0.000000 0.148165
O O8 0.313265 0.709725 0.000000
O O9 0.037530 0.779143 0.246932
O O10 0.000000 0.500000 0.161561
O O11 0.000000 0.780814 0.000000
O O12 0.616004 0.280282 0.500000
O O13 0.576872 0.281726 0.740107
O O14 0.615266 0.000000 0.662801
O O15 0.500000 0.721120 0.206930
O O16 0.542466 0.000000 0.164729
O O17 0.548196 0.724279 0.000000
O O18 0.771334 0.500000 0.159819
O O19 0.768240 0.216317 0.000000
O O20 0.928117 0.779905 0.500000
O O21 0.925907 0.500000 0.337367
#
# Coordination Sequence:
#
# PCOD9388992 Si02
#       7
#     8   8   4   8   8   8   8
#     4   8  13  22  35  48  63  87 119 151 183 222
#     4   9  16  26  41  59  78 102 132 164 197 232
#     4   9  15  21  29  41  59  87 122 153 180 217
#     4   9  16  24  34  50  74 103 131 158 191 232
#     4   8  13  21  33  49  70  97 128 160 192 226
#     4   8  14  25  41  59  77  99 130 166 199 231
#     4   9  15  21  29  43  64  88 115 149 187 223
#
# _framework density 21.192322999999998
#
# number of rings (size 3 to 8) (size 9 to 14) (size 15 to 20)
#    0.000    3.462    0.000    2.538    0.000    4.923 
#    0.000    2.308    0.000    1.385    0.000    0.000 
#    0.000    0.615    0.000    7.769    0.000   26.154 
#
# Total GULP energy -290009.696063 kJ/mol
# GULP energy per Si atom -5577.109540 kJ/mol
# Density = 2.114409 g / cm^3
# Si number density = 21.192323 Si / 1000 Ang^3
#
#
#
# Elastic Constant Matrix: (Units=GPa)
#
#
# Indices 1 2 3 4 5 6 
#
# 1 271.2072 5.0931 136.6226 0.0000 0.0000 0.0000
# 2 5.0931 79.9188 5.0175 0.0000 0.0000 0.0000
# 3 136.6226 5.0175 136.1518 0.0000 0.0000 0.0000
# 4 0.0000 0.0000 0.0000 -12.8445 0.0000 0.0000
# 5 0.0000 0.0000 0.0000 0.0000 -6.2155 0.0000
# 6 0.0000 0.0000 0.0000 0.0000 0.0000 4.7481
#
#
#
# Elastic Compliance Matrix: (Units=1/GPa)
#
#
# Indices 1 2 3 4 5 6 
#
# 1 0.007456 -0.000005 -0.007482 0.000000 0.000000 0.000000
# 2 -0.000005 0.012542 -0.000457 0.000000 0.000000 0.000000
# 3 -0.007482 -0.000457 0.014869 0.000000 0.000000 0.000000
# 4 0.000000 0.000000 0.000000 -0.077855 0.000000 0.000000
# 5 0.000000 0.000000 0.000000 0.000000 -0.160888 0.000000
# 6 0.000000 0.000000 0.000000 0.000000 0.000000 0.210609
#
#
# Mechanical properties :
#
#
# Convention : Reuss Voigt Hill
#
# Bulk Modulus (GPa) = 52.68914 86.74935 69.71924
# Shear Modulus (GPa) = 172.72209 19.84062 96.28135
#
# Velocity S-wave (km/s) = 9.03765 3.06309 6.74765
# Velocity P-wave (km/s) = 11.56814 7.31664 9.67871
#
# Compressibility (1/GPa) = 0.01897924
#
# Stress axis : x y z
#
# Youngs Moduli (GPa) = 134.11217 79.73390 67.25186
#
# Poissons Ratio (x) = 0.00043 0.50318
# Poissons Ratio (y) = 0.00073 0.03072
# Poissons Ratio (z) = 1.00343 0.03642
#
# Static dielectric constant tensor:
#      x y z
#    x 1.763810 0.000000 0.000000 
#    y 0.000000 1.926140 0.000000 
#    z 0.000000 0.000000 1.703090 
# 
# From -- ./inp_files/14131.got.cif
#   From: 2010.05.17/outbox.cif.g08.bks.cpg/sg47_8_cif.got.tgz:14131.got - 2010.06.03 20:15:42.
