data_PCOD9388502
_publ_section_title
;
Structure prediction by ZEFSAII (Michael W. Deem and Ramdas Pophale) SiO2 
 PCOD9388502
Probable space group: P M M M
;
_chemical_formula_sum "Si O2"
_cell_formula_units_Z 25
_cell_length_a 11.656627
_cell_length_b 7.590580
_cell_length_c 12.908888
_cell_angle_alpha 90.000000
_cell_angle_beta 90.000000
_cell_angle_gamma 90.000000
_cell_volume 1142.185636
_symmetry_space_group_name_H-M "P M M M"
_symmetry_group_IT_number 47
_symmetry_cell_setting 'orthorhombic'
loop_
_space_group_symop_operation_xyz
x,y,z
-x,-y,z
x,-y,-z
-x,y,-z
-x,-y,-z
x,y,-z
-x,y,z
x,-y,z
loop_
_atom_site_type_symbol
_atom_site_label
_atom_site_fract_x
_atom_site_fract_y
_atom_site_fract_z
Si Si1 0.863967 0.710769 0.112519
Si Si2 0.500000 0.000000 0.000000
Si Si3 0.133777 0.783939 0.500000
Si Si4 0.279811 0.801761 0.695950
Si Si5 0.500000 0.306145 0.819279
O O1 0.845449 0.500000 0.121418
O O2 0.806168 0.804656 0.207198
O O3 0.000000 0.739710 0.113483
O O4 0.818043 0.767717 0.000000
O O5 0.500000 0.154985 0.093031
O O6 0.206498 0.726907 0.600459
O O7 0.000000 0.726648 0.500000
O O8 0.129991 0.000000 0.500000
O O9 0.390493 0.709420 0.743370
O O10 0.314718 0.000000 0.666586
O O11 0.500000 0.500000 0.867967
#
# Coordination Sequence:
#
# PCOD9388502 Si02
#       5
#     8   1   4   8   4
#     4   9  19  35  55  83 121 165 213 272 345 415
#     4  12  26  52  72 104 134 188 242 268 346 424
#     4   9  20  39  67  98 134 185 237 291 348 408
#     4  11  22  40  63  94 132 175 235 288 341 413
#     4  12  27  46  70 103 142 181 228 292 347 410
#
# _framework density 21.887861999999998
#
# number of rings (size 3 to 8) (size 9 to 14) (size 15 to 20)
#    0.000    1.760    1.600    3.120    2.240    3.200 
#    0.000    8.000    0.000    5.760    0.000    0.000 
#    0.000    0.000    0.000    0.000    0.000    0.000 
#
# Total GULP energy -139384.039379 kJ/mol
# GULP energy per Si atom -5575.361575 kJ/mol
# Density = 2.183804 g / cm^3
# Si number density = 21.887862 Si / 1000 Ang^3
#
#
#
# Elastic Constant Matrix: (Units=GPa)
#
#
# Indices 1 2 3 4 5 6 
#
# 1 103.3980 38.7912 84.2335 0.0000 0.0000 0.0000
# 2 38.7912 105.4816 35.8436 0.0000 0.0000 0.0000
# 3 84.2335 35.8436 185.6575 0.0000 0.0000 0.0000
# 4 0.0000 0.0000 0.0000 6.8216 0.0000 0.0000
# 5 0.0000 0.0000 0.0000 0.0000 20.2126 0.0000
# 6 0.0000 0.0000 0.0000 0.0000 0.0000 23.2496
#
#
#
# Elastic Compliance Matrix: (Units=1/GPa)
#
#
# Indices 1 2 3 4 5 6 
#
# 1 0.016658 -0.003808 -0.006823 0.000000 0.000000 0.000000
# 2 -0.003808 0.011016 -0.000399 0.000000 0.000000 0.000000
# 3 -0.006823 -0.000399 0.008559 0.000000 0.000000 0.000000
# 4 0.000000 0.000000 0.000000 0.146594 0.000000 0.000000
# 5 0.000000 0.000000 0.000000 0.000000 0.049474 0.000000
# 6 0.000000 0.000000 0.000000 0.000000 0.000000 0.043012
#
#
# Mechanical properties :
#
#
# Convention : Reuss Voigt Hill
#
# Bulk Modulus (GPa) = 70.55233 79.14154 74.84693
# Shear Modulus (GPa) = 16.55102 25.76799 21.15951
#
# Velocity S-wave (km/s) = 2.75284 3.43486 3.11259
# Velocity P-wave (km/s) = 6.51212 7.20883 6.86932
#
# Compressibility (1/GPa) = 0.01417388
#
# Stress axis : x y z
#
# Youngs Moduli (GPa) = 60.03129 90.77474 116.83839
#
# Poissons Ratio (x) = 0.34564 0.79715
# Poissons Ratio (y) = 0.22858 0.04665
# Poissons Ratio (z) = 0.40957 0.03625
#
# Static dielectric constant tensor:
#      x y z
#    x 0.176590 0.000000 0.000000 
#    y 0.000000 1.846800 0.000000 
#    z 0.000000 0.000000 1.770520 
# 
# From -- ./inp_files/15789.got.cif
#   From: 2010.05.17/outbox.cif.g08.bks.cpg/sg47_8_cif.got.tgz:15789.got - 2010.06.03 20:15:42.
