data_PCOD9388283
_publ_section_title
;
Structure prediction by ZEFSAII (Michael W. Deem and Ramdas Pophale) SiO2 
 PCOD9388283
Probable space group: P M M M
;
_chemical_formula_sum "Si O2"
_cell_formula_units_Z 36
_cell_length_a 9.168422
_cell_length_b 20.254995
_cell_length_c 12.894178
_cell_angle_alpha 90.000000
_cell_angle_beta 90.000000
_cell_angle_gamma 90.000000
_cell_volume 2394.530626
_symmetry_space_group_name_H-M "P M M M"
_symmetry_group_IT_number 47
_symmetry_cell_setting 'orthorhombic'
loop_
_space_group_symop_operation_xyz
x,y,z
-x,-y,z
x,-y,-z
-x,y,-z
-x,-y,-z
x,y,-z
-x,y,z
x,-y,z
loop_
_atom_site_type_symbol
_atom_site_label
_atom_site_fract_x
_atom_site_fract_y
_atom_site_fract_z
Si Si1 0.674336 0.295005 0.621735
Si Si2 0.827196 0.922048 0.878597
Si Si3 0.172003 0.427603 0.625501
Si Si4 0.173562 0.921057 0.500000
Si Si5 0.675022 0.150561 0.693812
O O1 0.715094 0.286102 0.500000
O O2 0.500000 0.302594 0.625316
O O3 0.746999 0.362073 0.662305
O O4 0.713586 0.227796 0.680302
O O5 0.732245 0.878906 0.801224
O O6 0.000000 0.910976 0.859909
O O7 0.799725 0.000000 0.860130
O O8 0.798470 0.908886 0.000000
O O9 0.187490 0.427880 0.500000
O O10 0.224615 0.500000 0.661974
O O11 0.000000 0.422899 0.647749
O O12 0.248158 0.889338 0.600898
O O13 0.000000 0.907765 0.500000
O O14 0.193851 0.000000 0.500000
O O15 0.500000 0.144471 0.684444
#
# Coordination Sequence:
#
# PCOD9388283 Si02
#       5
#     8   8   8   4   8
#     4   9  17  29  41  58  89 123 152 182 221 268
#     4   9  19  36  54  70  90 117 152 195 239 283
#     4   8  14  24  38  58  83 112 150 190 220 253
#     4  11  23  35  47  65  90 123 160 191 227 280
#     4  11  21  33  48  69  96 122 153 194 234 275
#
# _framework density 15.034261000000001
#
# number of rings (size 3 to 8) (size 9 to 14) (size 15 to 20)
#    0.000    2.556    1.111    3.000    0.000    6.667 
#    0.000    3.333    0.000    0.000    0.000    0.000 
#    0.000    0.889    0.000    9.778    0.000    7.556 
#
# Total GULP energy -200618.392144 kJ/mol
# GULP energy per Si atom -5572.733115 kJ/mol
# Density = 1.500004 g / cm^3
# Si number density = 15.034261 Si / 1000 Ang^3
#
#
#
# Elastic Constant Matrix: (Units=GPa)
#
#
# Indices 1 2 3 4 5 6 
#
# 1 53.1935 72.6417 37.0447 0.0000 0.0000 0.0000
# 2 72.6417 150.3568 57.0455 0.0000 0.0000 0.0000
# 3 37.0447 57.0455 49.4284 0.0000 0.0000 0.0000
# 4 0.0000 0.0000 0.0000 9.2603 0.0000 0.0000
# 5 0.0000 0.0000 0.0000 0.0000 21.6992 0.0000
# 6 0.0000 0.0000 0.0000 0.0000 0.0000 31.2724
#
#
#
# Elastic Compliance Matrix: (Units=1/GPa)
#
#
# Indices 1 2 3 4 5 6 
#
# 1 0.067291 -0.023796 -0.022970 0.000000 0.000000 0.000000
# 2 -0.023796 0.020246 -0.005532 0.000000 0.000000 0.000000
# 3 -0.022970 -0.005532 0.043831 0.000000 0.000000 0.000000
# 4 0.000000 0.000000 0.000000 0.107988 0.000000 0.000000
# 5 0.000000 0.000000 0.000000 0.000000 0.046085 0.000000
# 6 0.000000 0.000000 0.000000 0.000000 0.000000 0.031977
#
#
# Mechanical properties :
#
#
# Convention : Reuss Voigt Hill
#
# Bulk Modulus (GPa) = 37.35059 65.16028 51.25544
# Shear Modulus (GPa) = 11.60262 18.19617 14.89940
#
# Velocity S-wave (km/s) = 2.78104 3.48273 3.15148
# Velocity P-wave (km/s) = 5.93379 7.72061 6.88541
#
# Compressibility (1/GPa) = 0.02677334
#
# Stress axis : x y z
#
# Youngs Moduli (GPa) = 14.86078 49.39212 22.81502
#
# Poissons Ratio (x) = 1.17532 0.52405
# Poissons Ratio (y) = 0.35362 0.12622
# Poissons Ratio (z) = 0.34135 0.27325
#
# Static dielectric constant tensor:
#      x y z
#    x 1.500420 0.000000 0.000000 
#    y 0.000000 1.511820 0.000000 
#    z 0.000000 0.000000 1.473710 
# 
# From -- ./inp_files/3705.got.cif
#   From: 2010.05.17/outbox.cif.g08.bks.cpg/sg47_2_cif.got.tgz:3705.got - 2010.06.03 20:15:42.
