data_PCOD9388149
_publ_section_title
;
Structure prediction by ZEFSAII (Michael W. Deem and Ramdas Pophale) SiO2 
 PCOD9388149
Probable space group: P M M M
;
_chemical_formula_sum "Si O2"
_cell_formula_units_Z 52
_cell_length_a 12.461958
_cell_length_b 8.962608
_cell_length_c 25.011230
_cell_angle_alpha 90.000000
_cell_angle_beta 90.000000
_cell_angle_gamma 90.000000
_cell_volume 2793.545409
_symmetry_space_group_name_H-M "P M M M"
_symmetry_group_IT_number 47
_symmetry_cell_setting 'orthorhombic'
loop_
_space_group_symop_operation_xyz
x,y,z
-x,-y,z
x,-y,-z
-x,y,-z
-x,-y,-z
x,y,-z
-x,y,z
x,-y,z
loop_
_atom_site_type_symbol
_atom_site_label
_atom_site_fract_x
_atom_site_fract_y
_atom_site_fract_z
Si Si1 0.732830 0.324334 0.093702
Si Si2 0.500000 0.680714 0.134280
Si Si3 0.878082 0.168097 0.299290
Si Si4 0.121883 0.170086 0.828973
Si Si5 0.126610 0.821030 0.000000
Si Si6 0.500000 0.821429 0.253262
Si Si7 0.371071 0.170891 0.440805
Si Si8 0.326627 0.327202 0.669740
O O1 0.734743 0.500000 0.081743
O O2 0.608676 0.278600 0.102096
O O3 0.793401 0.286049 0.148727
O O4 0.805266 0.239335 0.050307
O O5 0.500000 0.500000 0.140640
O O6 0.500000 0.752911 0.193485
O O7 0.878738 0.170610 0.234903
O O8 0.796474 0.291264 0.318398
O O9 0.000000 0.190011 0.317539
O O10 0.843210 0.000000 0.315313
O O11 0.000000 0.201994 0.847555
O O12 0.148611 0.000000 0.846208
O O13 0.000000 0.773484 0.000000
O O14 0.126585 0.000000 0.000000
O O15 0.398359 0.765855 0.288122
O O16 0.500000 0.000000 0.249648
O O17 0.333480 0.219690 0.500000
O O18 0.500000 0.165450 0.442851
O O19 0.344948 0.272755 0.390632
O O20 0.333764 0.000000 0.431904
O O21 0.353703 0.500000 0.675817
#
# Coordination Sequence:
#
# PCOD9388149 Si02
#       8
#     8   4   8   8   4   4   8   8
#     4  11  23  39  60  85 115 149 183 224 276 335
#     4  10  24  43  59  83 120 154 184 225 280 334
#     4   9  19  36  57  80 109 150 196 236 277 334
#     4   9  18  34  56  82 111 142 181 230 279 325
#     4  11  25  44  65  88 114 143 182 235 282 321
#     4  12  24  38  58  84 116 156 199 236 272 327
#     4   9  18  34  56  80 107 143 188 234 281 339
#     4  12  23  34  53  83 118 151 185 233 291 342
#
# _framework density 18.614336999999999
#
# number of rings (size 3 to 8) (size 9 to 14) (size 15 to 20)
#    0.000    1.769    0.769    5.538    0.000    8.000 
#    0.000    3.846    0.000    0.462    0.000    3.231 
#    0.000    0.000    0.000    0.000    0.000    0.000 
#
# Total GULP energy -290184.664308 kJ/mol
# GULP energy per Si atom -5580.474314 kJ/mol
# Density = 1.857197 g / cm^3
# Si number density = 18.614337 Si / 1000 Ang^3
#
#
#
# Elastic Constant Matrix: (Units=GPa)
#
#
# Indices 1 2 3 4 5 6 
#
# 1 106.1047 45.3291 46.4579 0.0000 0.0000 0.0000
# 2 45.3291 75.6171 37.6447 0.0000 0.0000 0.0000
# 3 46.4579 37.6447 79.0376 0.0000 0.0000 0.0000
# 4 0.0000 0.0000 0.0000 10.6147 0.0000 0.0000
# 5 0.0000 0.0000 0.0000 0.0000 13.9695 0.0000
# 6 0.0000 0.0000 0.0000 0.0000 0.0000 28.7321
#
#
#
# Elastic Compliance Matrix: (Units=1/GPa)
#
#
# Indices 1 2 3 4 5 6 
#
# 1 0.014396 -0.005790 -0.005704 0.000000 0.000000 0.000000
# 2 -0.005790 0.019663 -0.005962 0.000000 0.000000 0.000000
# 3 -0.005704 -0.005962 0.018845 0.000000 0.000000 0.000000
# 4 0.000000 0.000000 0.000000 0.094209 0.000000 0.000000
# 5 0.000000 0.000000 0.000000 0.000000 0.071585 0.000000
# 6 0.000000 0.000000 0.000000 0.000000 0.000000 0.034804
#
#
# Mechanical properties :
#
#
# Convention : Reuss Voigt Hill
#
# Bulk Modulus (GPa) = 55.58150 57.73585 56.65867
# Shear Modulus (GPa) = 16.98307 19.41845 18.20076
#
# Velocity S-wave (km/s) = 3.02381 3.23336 3.13034
# Velocity P-wave (km/s) = 6.48965 6.70997 6.60073
#
# Compressibility (1/GPa) = 0.01799160
#
# Stress axis : x y z
#
# Youngs Moduli (GPa) = 69.46535 50.85567 53.06519
#
# Poissons Ratio (x) = 0.29445 0.30269
# Poissons Ratio (y) = 0.40220 0.31639
# Poissons Ratio (z) = 0.39623 0.30321
#
# Static dielectric constant tensor:
#      x y z
#    x 1.664430 0.000000 0.000000 
#    y 0.000000 1.642190 0.000000 
#    z 0.000000 0.000000 1.672720 
# 
# From -- ./inp_files/33604.got.cif
#   From: 2010.05.17/outbox.cif.g08.bks.cpg/sg47_17_cif.got.tgz:33604.got - 2010.06.03 20:15:42.
