data_PCOD9388611
_publ_section_title
;
Structure prediction by ZEFSAII (Michael W. Deem and Ramdas Pophale) SiO2 
 PCOD9388611
Probable space group: P M M M
;
_chemical_formula_sum "Si O2"
_cell_formula_units_Z 40
_cell_length_a 26.741119
_cell_length_b 9.458078
_cell_length_c 7.439791
_cell_angle_alpha 90.000000
_cell_angle_beta 90.000000
_cell_angle_gamma 90.000000
_cell_volume 1881.668884
_symmetry_space_group_name_H-M "P M M M"
_symmetry_group_IT_number 47
_symmetry_cell_setting 'orthorhombic'
loop_
_space_group_symop_operation_xyz
x,y,z
-x,-y,z
x,-y,-z
-x,y,-z
-x,-y,-z
x,y,-z
-x,y,z
x,-y,z
loop_
_atom_site_type_symbol
_atom_site_label
_atom_site_fract_x
_atom_site_fract_y
_atom_site_fract_z
Si Si1 0.097055 0.840962 0.214301
Si Si2 0.598031 0.836730 0.780530
Si Si3 0.500000 0.663483 0.780505
Si Si4 0.000000 0.656456 0.288086
Si Si5 0.792020 0.835662 0.218955
Si Si6 0.304260 0.337263 0.780264
O O1 0.152000 0.793650 0.278929
O O2 0.050254 0.741220 0.244969
O O3 0.087287 0.000000 0.283332
O O4 0.101911 0.851757 0.000000
O O5 0.549430 0.748243 0.724192
O O6 0.648351 0.756362 0.724287
O O7 0.596554 0.000000 0.722598
O O8 0.597915 0.838162 0.000000
O O9 0.500000 0.500000 0.722734
O O10 0.500000 0.661983 0.000000
O O11 0.000000 0.500000 0.206520
O O12 0.000000 0.642632 0.500000
O O13 0.747247 0.735749 0.279587
O O14 0.784067 0.000000 0.269605
O O15 0.791111 0.831995 0.000000
O O16 0.308410 0.500000 0.723415
O O17 0.304216 0.337362 0.000000
#
# Coordination Sequence:
#
# PCOD9388611 Si02
#       6
#     8   8   4   4   8   8
#     4   9  18  33  53  74  93 116 150 189 227 270
#     4   9  15  21  28  37  52  78 112 150 194 242
#     4   9  15  21  27  35  49  71 105 151 198 243
#     4  11  24  37  48  68  98 127 154 185 222 266
#     4   8  14  25  40  58  79 100 124 160 206 253
#     4   9  15  21  30  46  67  90 117 151 194 243
#
# _framework density 21.257726000000002
#
# number of rings (size 3 to 8) (size 9 to 14) (size 15 to 20)
#    0.000    3.000    0.000    3.300    0.000    9.200 
#    0.000    2.000    0.000    0.000    0.000    0.000 
#    0.000    0.000    0.000    0.000    0.000    0.000 
#
# Total GULP energy -223308.051380 kJ/mol
# GULP energy per Si atom -5582.701285 kJ/mol
# Density = 2.120934 g / cm^3
# Si number density = 21.257726 Si / 1000 Ang^3
#
#
#
# Elastic Constant Matrix: (Units=GPa)
#
#
# Indices 1 2 3 4 5 6 
#
# 1 249.2022 167.6313 6.5250 0.0000 0.0000 0.0000
# 2 167.6313 211.0046 4.9709 0.0000 0.0000 0.0000
# 3 6.5250 4.9709 63.6856 0.0000 0.0000 0.0000
# 4 0.0000 0.0000 0.0000 2.2438 0.0000 0.0000
# 5 0.0000 0.0000 0.0000 0.0000 -39.9474 0.0000
# 6 0.0000 0.0000 0.0000 0.0000 0.0000 -13.7023
#
#
#
# Elastic Compliance Matrix: (Units=1/GPa)
#
#
# Indices 1 2 3 4 5 6 
#
# 1 0.008626 -0.006845 -0.000350 0.000000 0.000000 0.000000
# 2 -0.006845 0.010179 -0.000093 0.000000 0.000000 0.000000
# 3 -0.000350 -0.000093 0.015745 0.000000 0.000000 0.000000
# 4 0.000000 0.000000 0.000000 0.445670 0.000000 0.000000
# 5 0.000000 0.000000 0.000000 0.000000 -0.025033 0.000000
# 6 0.000000 0.000000 0.000000 0.000000 0.000000 -0.072980
#
#
# Mechanical properties :
#
#
# Convention : Reuss Voigt Hill
#
# Bulk Modulus (GPa) = 50.06131 98.01631 74.03881
# Shear Modulus (GPa) = 12.39339 12.70317 12.54828
#
# Velocity S-wave (km/s) = 2.41717 2.44720 2.43223
# Velocity P-wave (km/s) = 5.60278 7.36164 6.54159
#
# Compressibility (1/GPa) = 0.01997551
#
# Stress axis : x y z
#
# Youngs Moduli (GPa) = 115.92420 98.23842 63.51132
#
# Poissons Ratio (x) = 0.67243 0.02220
# Poissons Ratio (y) = 0.79349 0.00592
# Poissons Ratio (z) = 0.04052 0.00916
#
# Static dielectric constant tensor:
#      x y z
#    x 1.768120 0.000000 0.000000 
#    y 0.000000 1.748270 0.000000 
#    z 0.000000 0.000000 1.799550 
# 
# From -- ./inp_files/13040.got.cif
#   From: 2010.05.17/outbox.cif.g08.bks.cpg/sg47_7_cif.got.tgz:13040.got - 2010.06.03 20:15:42.
