data_PCOD9388448
_publ_section_title
;
Structure prediction by ZEFSAII (Michael W. Deem and Ramdas Pophale) SiO2 
 PCOD9388448
Probable space group: P M M M
;
_chemical_formula_sum "Si O2"
_cell_formula_units_Z 32
_cell_length_a 8.892916
_cell_length_b 11.783984
_cell_length_c 18.771908
_cell_angle_alpha 90.000000
_cell_angle_beta 90.000000
_cell_angle_gamma 90.000000
_cell_volume 1967.182949
_symmetry_space_group_name_H-M "P M M M"
_symmetry_group_IT_number 47
_symmetry_cell_setting 'orthorhombic'
loop_
_space_group_symop_operation_xyz
x,y,z
-x,-y,z
x,-y,-z
-x,y,-z
-x,-y,-z
x,y,-z
-x,y,z
x,-y,z
loop_
_atom_site_type_symbol
_atom_site_label
_atom_site_fract_x
_atom_site_fract_y
_atom_site_fract_z
Si Si1 0.677490 0.362831 0.422167
Si Si2 0.819266 0.631669 0.274726
Si Si3 0.818811 0.235870 0.867390
Si Si4 0.675774 0.364364 0.000000
Si Si5 0.680178 0.000000 0.084924
O O1 0.732575 0.322067 0.500000
O O2 0.500000 0.338296 0.417467
O O3 0.693400 0.500000 0.422914
O O4 0.758596 0.324589 0.350459
O O5 0.769332 0.500000 0.264567
O O6 0.773697 0.708191 0.207854
O O7 0.000000 0.630423 0.277368
O O8 0.756317 0.314147 0.930733
O O9 0.000000 0.231171 0.870783
O O10 0.750306 0.112007 0.880209
O O11 0.683739 0.500000 0.000000
O O12 0.500000 0.329511 0.000000
O O13 0.500000 0.000000 0.092323
O O14 0.714694 0.000000 0.000000
#
# Coordination Sequence:
#
# PCOD9388448 Si02
#       5
#     8   8   8   4   4
#     4   8  14  25  42  66  97 133 169 200 234 283
#     4   9  18  31  47  72 104 133 163 201 244 292
#     4  11  22  36  55  75  98 130 169 209 252 299
#     4  11  23  36  51  74 103 133 165 201 246 299
#     4  11  23  39  57  75  97 124 165 216 258 301
#
# _framework density 16.266915999999998
#
# number of rings (size 3 to 8) (size 9 to 14) (size 15 to 20)
#    0.000    2.250    1.250    3.000    0.000    5.000 
#    0.000    5.000    0.000    0.000    0.000    0.875 
#    0.000    7.000    0.000    0.000    0.000    0.000 
#
# Total GULP energy -178428.835826 kJ/mol
# GULP energy per Si atom -5575.901120 kJ/mol
# Density = 1.622989 g / cm^3
# Si number density = 16.266916 Si / 1000 Ang^3
#
#
#
# Elastic Constant Matrix: (Units=GPa)
#
#
# Indices 1 2 3 4 5 6 
#
# 1 44.8304 34.0719 55.6832 0.0000 0.0000 0.0000
# 2 34.0719 76.1538 67.5217 0.0000 0.0000 0.0000
# 3 55.6832 67.5217 193.9819 0.0000 0.0000 0.0000
# 4 0.0000 0.0000 0.0000 -1.3705 0.0000 0.0000
# 5 0.0000 0.0000 0.0000 0.0000 46.8008 0.0000
# 6 0.0000 0.0000 0.0000 0.0000 0.0000 18.0413
#
#
#
# Elastic Compliance Matrix: (Units=1/GPa)
#
#
# Indices 1 2 3 4 5 6 
#
# 1 0.040407 -0.011274 -0.007675 0.000000 0.000000 0.000000
# 2 -0.011274 0.022138 -0.004470 0.000000 0.000000 0.000000
# 3 -0.007675 -0.004470 0.008914 0.000000 0.000000 0.000000
# 4 0.000000 0.000000 0.000000 -0.729649 0.000000 0.000000
# 5 0.000000 0.000000 0.000000 0.000000 0.021367 0.000000
# 6 0.000000 0.000000 0.000000 0.000000 0.000000 0.055428
#
#
# Mechanical properties :
#
#
# Convention : Reuss Voigt Hill
#
# Bulk Modulus (GPa) = 40.61230 69.94662 55.27946
# Shear Modulus (GPa) = -9.49940 23.20694 6.85377
#
# Velocity S-wave (km/s) = -2.41917 3.78118 2.05486
# Velocity P-wave (km/s) = 4.14936 7.88389 6.29972
#
# Compressibility (1/GPa) = 0.02462308
#
# Stress axis : x y z
#
# Youngs Moduli (GPa) = 24.74794 45.17029 112.18155
#
# Poissons Ratio (x) = 0.50923 0.86099
# Poissons Ratio (y) = 0.27900 0.50144
# Poissons Ratio (z) = 0.18994 0.20191
#
# Static dielectric constant tensor:
#      x y z
#    x 1.546230 0.000000 0.000000 
#    y 0.000000 1.526220 0.000000 
#    z 0.000000 0.000000 1.555880 
# 
# From -- ./inp_files/3651.got.cif
#   From: 2010.05.17/outbox.cif.g08.bks.cpg/sg47_2_cif.got.tgz:3651.got - 2010.06.03 20:15:42.
