data_PCOD9388280
_publ_section_title
;
Structure prediction by ZEFSAII (Michael W. Deem and Ramdas Pophale) SiO2 
 PCOD9388280
Probable space group: P M M M
;
_chemical_formula_sum "Si O2"
_cell_formula_units_Z 53
_cell_length_a 8.516777
_cell_length_b 14.647072
_cell_length_c 27.033512
_cell_angle_alpha 90.000000
_cell_angle_beta 90.000000
_cell_angle_gamma 90.000000
_cell_volume 3372.318323
_symmetry_space_group_name_H-M "P M M M"
_symmetry_group_IT_number 47
_symmetry_cell_setting 'orthorhombic'
loop_
_space_group_symop_operation_xyz
x,y,z
-x,-y,z
x,-y,-z
-x,y,-z
-x,-y,-z
x,y,-z
-x,y,z
x,-y,z
loop_
_atom_site_type_symbol
_atom_site_label
_atom_site_fract_x
_atom_site_fract_y
_atom_site_fract_z
Si Si1 0.812873 0.603461 0.648283
Si Si2 0.687103 0.286845 0.445157
Si Si3 0.810741 0.103232 0.598112
Si Si4 0.000000 0.601072 0.897501
Si Si5 0.000000 0.500000 0.000000
Si Si6 0.810876 0.897507 0.285726
Si Si7 0.680580 0.389285 0.153008
Si Si8 0.684490 0.290475 0.742634
O O1 0.751654 0.500000 0.652245
O O2 0.753405 0.651601 0.598730
O O3 0.766068 0.660621 0.696464
O O4 0.000000 0.601071 0.646088
O O5 0.744683 0.312590 0.500000
O O6 0.500000 0.294155 0.444473
O O7 0.734762 0.182806 0.433427
O O8 0.768730 0.115316 0.656193
O O9 0.000000 0.110501 0.594872
O O10 0.766814 0.000000 0.583581
O O11 0.830601 0.640301 0.880594
O O12 0.000000 0.500000 0.872509
O O13 0.000000 0.578216 0.955634
O O14 0.742892 0.813718 0.255122
O O15 0.000000 0.894672 0.283254
O O16 0.760371 0.000000 0.271170
O O17 0.500000 0.363004 0.137636
O O18 0.678288 0.500000 0.155160
O O19 0.709988 0.346146 0.206910
O O20 0.500000 0.289939 0.732544
#
# Coordination Sequence:
#
# PCOD9388280 Si02
#       8
#     8   8   8   4   1   8   8   8
#     4  11  24  39  55  74  93 119 161 201 246 306
#     4  11  24  39  54  73  96 120 148 193 252 307
#     4   9  18  34  55  75  95 120 151 192 238 295
#     4   8  16  30  48  70 105 141 186 231 255 298
#     4   8  16  32  50  80 104 150 206 232 268 296
#     4   9  18  32  50  73 100 129 164 200 243 305
#     4   9  18  31  46  71 106 143 181 220 263 303
#     4  11  21  32  51  77 103 132 166 207 255 306
#
# _framework density 15.716191
#
# number of rings (size 3 to 8) (size 9 to 14) (size 15 to 20)
#    0.226    1.962    1.509    2.717    2.113    4.226 
#    0.000    5.283    0.000    0.000    0.000    0.000 
#    0.000    0.000    0.000    1.358    0.000    5.736 
#
# Total GULP energy -295047.367342 kJ/mol
# GULP energy per Si atom -5566.931459 kJ/mol
# Density = 1.568042 g / cm^3
# Si number density = 15.716191 Si / 1000 Ang^3
#
#
#
# Elastic Constant Matrix: (Units=GPa)
#
#
# Indices 1 2 3 4 5 6 
#
# 1 66.3495 24.5056 48.1347 0.0000 0.0000 0.0000
# 2 24.5056 69.6610 28.8580 0.0000 0.0000 0.0000
# 3 48.1347 28.8580 72.4532 0.0000 0.0000 0.0000
# 4 0.0000 0.0000 0.0000 2.4201 0.0000 0.0000
# 5 0.0000 0.0000 0.0000 0.0000 2.3767 0.0000
# 6 0.0000 0.0000 0.0000 0.0000 0.0000 -114.1472
#
#
#
# Elastic Compliance Matrix: (Units=1/GPa)
#
#
# Indices 1 2 3 4 5 6 
#
# 1 0.029514 -0.002706 -0.018530 0.000000 0.000000 0.000000
# 2 -0.002706 0.017440 -0.005148 0.000000 0.000000 0.000000
# 3 -0.018530 -0.005148 0.028163 0.000000 0.000000 0.000000
# 4 0.000000 0.000000 0.000000 0.413211 0.000000 0.000000
# 5 0.000000 0.000000 0.000000 0.000000 0.420752 0.000000
# 6 0.000000 0.000000 0.000000 0.000000 0.000000 -0.008761
#
#
# Mechanical properties :
#
#
# Convention : Reuss Voigt Hill
#
# Bulk Modulus (GPa) = 44.74682 45.71783 45.23232
# Shear Modulus (GPa) = 5.20541 -14.73906 -4.76683
#
# Velocity S-wave (km/s) = 1.82190 -3.06572 -1.74346
# Velocity P-wave (km/s) = 5.74102 4.07692 4.97899
#
# Compressibility (1/GPa) = 0.02234796
#
# Stress axis : x y z
#
# Youngs Moduli (GPa) = 33.88187 57.33921 35.50734
#
# Poissons Ratio (x) = 0.15518 0.65795
# Poissons Ratio (y) = 0.09170 0.18281
# Poissons Ratio (z) = 0.62783 0.29521
#
# Static dielectric constant tensor:
#      x y z
#    x 1.554010 0.000000 0.000000 
#    y 0.000000 1.538180 0.000000 
#    z 0.000000 0.000000 1.495280 
# 
# From -- ./inp_files/33432.got.cif
#   From: 2010.05.17/outbox.cif.g08.bks.cpg/sg47_17_cif.got.tgz:33432.got - 2010.06.03 20:15:42.
