data_PCOD9388738
_publ_section_title
;
Structure prediction by ZEFSAII (Michael W. Deem and Ramdas Pophale) SiO2 
 PCOD9388738
Probable space group: P M M M
;
_chemical_formula_sum "Si O2"
_cell_formula_units_Z 40
_cell_length_a 7.430233
_cell_length_b 29.403098
_cell_length_c 8.117221
_cell_angle_alpha 90.000000
_cell_angle_beta 90.000000
_cell_angle_gamma 90.000000
_cell_volume 1773.384443
_symmetry_space_group_name_H-M "P M M M"
_symmetry_group_IT_number 47
_symmetry_cell_setting 'orthorhombic'
loop_
_space_group_symop_operation_xyz
x,y,z
-x,-y,z
x,-y,-z
-x,y,-z
-x,-y,-z
x,y,-z
-x,y,z
x,-y,z
loop_
_atom_site_type_symbol
_atom_site_label
_atom_site_fract_x
_atom_site_fract_y
_atom_site_fract_z
Si Si1 0.206691 0.306291 0.195295
Si Si2 0.708739 0.891698 0.313283
Si Si3 0.279344 0.947188 0.000000
Si Si4 0.210084 0.597636 0.698318
Si Si5 0.220137 0.500000 0.305511
Si Si6 0.793683 0.210359 0.302535
O O1 0.290186 0.353857 0.252888
O O2 0.288979 0.257740 0.242525
O O3 0.000000 0.305285 0.264356
O O4 0.197799 0.308182 0.000000
O O5 0.786398 0.895361 0.500000
O O6 0.500000 0.904626 0.327842
O O7 0.784991 0.922063 0.166133
O O8 0.714398 0.838665 0.260786
O O9 0.500000 0.944360 0.000000
O O10 0.230815 0.000000 0.000000
O O11 0.213203 0.595445 0.500000
O O12 0.281841 0.548963 0.761528
O O13 0.000000 0.599156 0.751982
O O14 0.266556 0.500000 0.500000
O O15 0.000000 0.500000 0.297237
O O16 0.792543 0.212699 0.500000
O O17 0.000000 0.209172 0.241796
#
# Coordination Sequence:
#
# PCOD9388738 Si02
#       6
#     8   8   4   8   4   8
#     4   9  16  23  32  50  75 102 134 173 214 256
#     4   9  18  32  50  72  96 121 151 187 224 261
#     4   9  18  32  51  75  99 123 153 186 221 262
#     4   8  12  19  30  42  60  89 127 169 209 252
#     4   7  10  16  27  41  55  81 124 167 206 249
#     4   9  17  29  45  64  86 116 151 183 219 263
#
# _framework density 22.555743
#
# number of rings (size 3 to 8) (size 9 to 14) (size 15 to 20)
#    0.000    3.400    0.000    1.800    1.400    2.800 
#    0.000    2.500    0.000    4.200    0.000    2.800 
#    0.000    0.000    0.000    0.900    0.000   21.600 
#
# Total GULP energy -222832.932712 kJ/mol
# GULP energy per Si atom -5570.823318 kJ/mol
# Density = 2.250440 g / cm^3
# Si number density = 22.555743 Si / 1000 Ang^3
#
#
#
# Elastic Constant Matrix: (Units=GPa)
#
#
# Indices 1 2 3 4 5 6 
#
# 1 68.2881 7.8229 8.5798 0.0000 0.0000 0.0000
# 2 7.8229 238.3560 94.8426 0.0000 0.0000 0.0000
# 3 8.5798 94.8426 66.1449 0.0000 0.0000 0.0000
# 4 0.0000 0.0000 0.0000 76.8580 0.0000 0.0000
# 5 0.0000 0.0000 0.0000 0.0000 -10.7783 0.0000
# 6 0.0000 0.0000 0.0000 0.0000 0.0000 9.3369
#
#
#
# Elastic Compliance Matrix: (Units=1/GPa)
#
#
# Indices 1 2 3 4 5 6 
#
# 1 0.014930 0.000653 -0.002873 0.000000 0.000000 0.000000
# 2 0.000653 0.009798 -0.014133 0.000000 0.000000 0.000000
# 3 -0.002873 -0.014133 0.035756 0.000000 0.000000 0.000000
# 4 0.000000 0.000000 0.000000 0.013011 0.000000 0.000000
# 5 0.000000 0.000000 0.000000 0.000000 -0.092779 0.000000
# 6 0.000000 0.000000 0.000000 0.000000 0.000000 0.107102
#
#
# Mechanical properties :
#
#
# Convention : Reuss Voigt Hill
#
# Bulk Modulus (GPa) = 36.00076 66.14217 51.07147
# Shear Modulus (GPa) = 38.52592 32.51957 35.52274
#
# Velocity S-wave (km/s) = 4.13732 3.80115 3.97279
# Velocity P-wave (km/s) = 6.23046 6.97513 6.61329
#
# Compressibility (1/GPa) = 0.02777719
#
# Stress axis : x y z
#
# Youngs Moduli (GPa) = 66.97923 102.06643 27.96748
#
# Poissons Ratio (x) = -0.06668 0.08036
# Poissons Ratio (y) = -0.04376 0.39527
# Poissons Ratio (z) = 0.19246 1.44251
#
# Static dielectric constant tensor:
#      x y z
#    x 1.929580 0.000000 0.000000 
#    y 0.000000 1.864980 0.000000 
#    z 0.000000 0.000000 1.800180 
# 
# From -- ./inp_files/1694.got.cif
#   From: 2010.05.17/outbox.cif.g08.bks.cpg/sg47_1_cif.got.tgz:1694.got - 2010.06.03 20:15:42.
