data_PCOD9388838
_publ_section_title
;
Structure prediction by ZEFSAII (Michael W. Deem and Ramdas Pophale) SiO2 
 PCOD9388838
Probable space group: P M M M
;
_chemical_formula_sum "Si O2"
_cell_formula_units_Z 48
_cell_length_a 9.699677
_cell_length_b 32.609686
_cell_length_c 7.339321
_cell_angle_alpha 90.000000
_cell_angle_beta 90.000000
_cell_angle_gamma 90.000000
_cell_volume 2321.452342
_symmetry_space_group_name_H-M "P M M M"
_symmetry_group_IT_number 47
_symmetry_cell_setting 'orthorhombic'
loop_
_space_group_symop_operation_xyz
x,y,z
-x,-y,z
x,-y,-z
-x,y,-z
-x,-y,-z
x,y,-z
-x,y,z
x,-y,z
loop_
_atom_site_type_symbol
_atom_site_label
_atom_site_fract_x
_atom_site_fract_y
_atom_site_fract_z
Si Si1 0.665042 0.455929 0.719100
Si Si2 0.660423 0.366127 0.722337
Si Si3 0.840646 0.954452 0.222041
Si Si4 0.343359 0.120625 0.782007
Si Si5 0.841291 0.288587 0.277206
Si Si6 0.657315 0.212973 0.716718
O O1 0.683371 0.456301 0.500000
O O2 0.500000 0.455864 0.751688
O O3 0.719161 0.500000 0.787221
O O4 0.712259 0.411187 0.782916
O O5 0.659695 0.366500 0.500000
O O6 0.500000 0.360491 0.776682
O O7 0.756637 0.328853 0.779764
O O8 0.749665 0.916525 0.286509
O O9 0.000000 0.949930 0.276423
O O10 0.792369 0.000000 0.277193
O O11 0.838859 0.953997 0.000000
O O12 0.500000 0.118344 0.711854
O O13 0.291462 0.166637 0.746510
O O14 0.349466 0.116336 0.000000
O O15 0.841966 0.288490 0.500000
O O16 0.758753 0.248197 0.215654
O O17 0.000000 0.288954 0.219057
O O18 0.647925 0.218819 0.500000
O O19 0.500000 0.216035 0.788719
#
# Coordination Sequence:
#
# PCOD9388838 Si02
#       6
#     8   8   8   8   8   8
#     4   7   9  13  22  37  55  75 104 143 182 219
#     4   8  12  18  29  43  59  82 113 149 188 227
#     4   8  14  25  41  61  84 108 132 157 186 222
#     4   9  17  28  43  64  85 102 125 160 196 225
#     4   9  16  24  34  49  68  90 120 158 193 223
#     4   9  17  29  43  57  76 103 131 157 189 231
#
# _framework density 20.676711000000001
#
# number of rings (size 3 to 8) (size 9 to 14) (size 15 to 20)
#    0.000    3.667    0.000    2.500    0.000    3.000 
#    0.000    1.667    0.000    1.000    0.000    7.000 
#    0.000    0.000    0.000    0.000    0.000    0.833 
#
# Total GULP energy -267523.321498 kJ/mol
# GULP energy per Si atom -5573.402531 kJ/mol
# Density = 2.062965 g / cm^3
# Si number density = 20.676711 Si / 1000 Ang^3
#
#
#
# Elastic Constant Matrix: (Units=GPa)
#
#
# Indices 1 2 3 4 5 6 
#
# 1 92.5122 122.8514 4.5444 0.0000 0.0000 0.0000
# 2 122.8514 273.8414 4.0419 0.0000 0.0000 0.0000
# 3 4.5444 4.0419 77.2225 0.0000 0.0000 0.0000
# 4 0.0000 0.0000 0.0000 9.7029 0.0000 0.0000
# 5 0.0000 0.0000 0.0000 0.0000 -13.4173 0.0000
# 6 0.0000 0.0000 0.0000 0.0000 0.0000 -399.9891
#
#
#
# Elastic Compliance Matrix: (Units=1/GPa)
#
#
# Indices 1 2 3 4 5 6 
#
# 1 0.026809 -0.012013 -0.000949 0.000000 0.000000 0.000000
# 2 -0.012013 0.009038 0.000234 0.000000 0.000000 0.000000
# 3 -0.000949 0.000234 0.012993 0.000000 0.000000 0.000000
# 4 0.000000 0.000000 0.000000 0.103062 0.000000 0.000000
# 5 0.000000 0.000000 0.000000 0.000000 -0.074531 0.000000
# 6 0.000000 0.000000 0.000000 0.000000 0.000000 -0.002500
#
#
# Mechanical properties :
#
#
# Convention : Reuss Voigt Hill
#
# Bulk Modulus (GPa) = 42.76513 78.49463 60.62988
# Shear Modulus (GPa) = 46.24465 -59.93147 -6.84341
#
# Velocity S-wave (km/s) = 4.73436 -5.38961 -1.82124
# Velocity P-wave (km/s) = 7.11429 0.82785 4.99639
#
# Compressibility (1/GPa) = 0.02338354
#
# Stress axis : x y z
#
# Youngs Moduli (GPa) = 37.30158 110.64942 76.96336
#
# Poissons Ratio (x) = 1.32922 0.07303
# Poissons Ratio (y) = 0.44810 -0.01800
# Poissons Ratio (z) = 0.03539 -0.02588
#
# Static dielectric constant tensor:
#      x y z
#    x 1.687990 0.000000 0.000000 
#    y 0.000000 1.751180 0.000000 
#    z 0.000000 0.000000 1.863760 
# 
# From -- ./inp_files/4425.got.cif
#   From: 2010.05.17/outbox.cif.g08.bks.cpg/sg47_3_cif.got.tgz:4425.got - 2010.06.03 20:15:42.
