data_PCOD9388370
_publ_section_title
;
Structure prediction by ZEFSAII (Michael W. Deem and Ramdas Pophale) SiO2 
 PCOD9388370
Probable space group: P M M M
;
_chemical_formula_sum "Si O2"
_cell_formula_units_Z 25
_cell_length_a 13.008931
_cell_length_b 7.826541
_cell_length_c 12.564661
_cell_angle_alpha 90.000000
_cell_angle_beta 90.000000
_cell_angle_gamma 90.000000
_cell_volume 1279.270103
_symmetry_space_group_name_H-M "P M M M"
_symmetry_group_IT_number 47
_symmetry_cell_setting 'orthorhombic'
loop_
_space_group_symop_operation_xyz
x,y,z
-x,-y,z
x,-y,-z
-x,y,-z
-x,-y,-z
x,y,-z
-x,y,z
x,-y,z
loop_
_atom_site_type_symbol
_atom_site_label
_atom_site_fract_x
_atom_site_fract_y
_atom_site_fract_z
Si Si1 0.221155 0.703667 0.297236
Si Si2 0.500000 0.500000 0.500000
Si Si3 0.000000 0.795337 0.625534
Si Si4 0.384865 0.291953 0.122739
Si Si5 0.340882 0.813927 0.500000
O O1 0.237360 0.500000 0.307187
O O2 0.100402 0.736851 0.309322
O O3 0.288569 0.760348 0.195059
O O4 0.270605 0.797426 0.396915
O O5 0.413151 0.650831 0.500000
O O6 0.000000 0.734441 0.500000
O O7 0.000000 0.000000 0.620714
O O8 0.500000 0.240119 0.162051
O O9 0.385707 0.500000 0.122617
O O10 0.374978 0.236811 0.000000
O O11 0.390254 0.000000 0.500000
#
# Coordination Sequence:
#
# PCOD9388370 Si02
#       5
#     8   1   4   8   4
#     4  11  21  36  62  90 122 160 206 255 312 377
#     4  12  26  44  56  88 130 172 210 252 306 380
#     4  11  23  39  58  81 115 161 214 259 311 374
#     4   8  16  32  57  88 122 160 201 248 304 372
#     4  12  25  40  60  91 129 166 204 254 313 373
#
# _framework density 19.542394000000002
#
# number of rings (size 3 to 8) (size 9 to 14) (size 15 to 20)
#    0.000    1.760    3.200    2.640    2.240    0.640 
#    0.000    0.800    0.000    8.640    0.000    8.960 
#    0.000    0.000    0.000    0.000    0.000    0.000 
#
# Total GULP energy -139175.893979 kJ/mol
# GULP energy per Si atom -5567.035759 kJ/mol
# Density = 1.949791 g / cm^3
# Si number density = 19.542394 Si / 1000 Ang^3
#
#
#
# Elastic Constant Matrix: (Units=GPa)
#
#
# Indices 1 2 3 4 5 6 
#
# 1 199.1421 30.1650 90.4713 0.0000 0.0000 0.0000
# 2 30.1650 96.0367 12.6864 0.0000 0.0000 0.0000
# 3 90.4713 12.6864 109.0291 0.0000 0.0000 0.0000
# 4 0.0000 0.0000 0.0000 -13.0577 0.0000 0.0000
# 5 0.0000 0.0000 0.0000 0.0000 93.1708 0.0000
# 6 0.0000 0.0000 0.0000 0.0000 0.0000 59.2015
#
#
#
# Elastic Compliance Matrix: (Units=1/GPa)
#
#
# Indices 1 2 3 4 5 6 
#
# 1 0.008334 -0.001731 -0.006714 0.000000 0.000000 0.000000
# 2 -0.001731 0.010935 0.000164 0.000000 0.000000 0.000000
# 3 -0.006714 0.000164 0.014724 0.000000 0.000000 0.000000
# 4 0.000000 0.000000 0.000000 -0.076583 0.000000 0.000000
# 5 0.000000 0.000000 0.000000 0.000000 0.010733 0.000000
# 6 0.000000 0.000000 0.000000 0.000000 0.000000 0.016891
#
#
# Mechanical properties :
#
#
# Convention : Reuss Voigt Hill
#
# Bulk Modulus (GPa) = 57.36994 74.53926 65.95460
# Shear Modulus (GPa) = 675.12575 45.92192 360.52383
#
# Velocity S-wave (km/s) = 18.60691 4.85280 13.59718
# Velocity P-wave (km/s) = 22.15950 8.34414 16.74318
#
# Compressibility (1/GPa) = 0.01743073
#
# Stress axis : x y z
#
# Youngs Moduli (GPa) = 119.99155 91.45219 67.91615
#
# Poissons Ratio (x) = 0.15828 0.45599
# Poissons Ratio (y) = 0.20768 -0.01113
# Poissons Ratio (z) = 0.80563 -0.01498
#
# Static dielectric constant tensor:
#      x y z
#    x 1.720890 0.000000 0.000000 
#    y 0.000000 1.699270 0.000000 
#    z 0.000000 0.000000 1.630230 
# 
# From -- ./inp_files/14527.got.cif
#   From: 2010.05.17/outbox.cif.g08.bks.cpg/sg47_8_cif.got.tgz:14527.got - 2010.06.03 20:15:42.
