data_PCOD9388152
_publ_section_title
;
Structure prediction by ZEFSAII (Michael W. Deem and Ramdas Pophale) SiO2 
 PCOD9388152
Probable space group: P M M M
;
_chemical_formula_sum "Si O2"
_cell_formula_units_Z 48
_cell_length_a 16.392983
_cell_length_b 7.389626
_cell_length_c 18.382215
_cell_angle_alpha 90.000000
_cell_angle_beta 90.000000
_cell_angle_gamma 90.000000
_cell_volume 2226.785007
_symmetry_space_group_name_H-M "P M M M"
_symmetry_group_IT_number 47
_symmetry_cell_setting 'orthorhombic'
loop_
_space_group_symop_operation_xyz
x,y,z
-x,-y,z
x,-y,-z
-x,y,-z
-x,-y,-z
x,y,-z
-x,y,z
x,-y,z
loop_
_atom_site_type_symbol
_atom_site_label
_atom_site_fract_x
_atom_site_fract_y
_atom_site_fract_z
Si Si1 0.098589 0.500000 0.289772
Si Si2 0.792870 0.500000 0.414465
Si Si3 0.500000 0.779670 0.147597
Si Si4 0.198823 0.801592 0.204574
Si Si5 0.672472 0.779652 0.916774
Si Si6 0.500000 0.219800 0.316084
Si Si7 0.903314 0.288326 0.077660
Si Si8 0.345806 0.784105 0.414476
O O1 0.121104 0.500000 0.374234
O O2 0.150981 0.668854 0.258303
O O3 0.000000 0.500000 0.273728
O O4 0.805308 0.500000 0.500000
O O5 0.735301 0.327804 0.396314
O O6 0.418964 0.726078 0.104709
O O7 0.500000 0.720095 0.232130
O O8 0.500000 0.000000 0.149406
O O9 0.272041 0.726003 0.153229
O O10 0.131099 0.820935 0.142668
O O11 0.221907 0.000000 0.234713
O O12 0.678020 0.000000 0.917649
O O13 0.691570 0.719306 0.000000
O O14 0.580490 0.272156 0.361485
O O15 0.500000 0.000000 0.315236
O O16 0.880917 0.500000 0.085886
O O17 0.000000 0.281928 0.077141
O O18 0.872783 0.222872 0.000000
O O19 0.366099 0.748268 0.500000
O O20 0.333857 0.000000 0.407444
#
# Coordination Sequence:
#
# PCOD9388152 Si02
#       8
#     4   4   4   8   8   4   8   8
#     4  12  28  47  66  93 126 155 193 250 318 388
#     4  10  24  44  68  95 121 160 208 251 302 365
#     4   9  17  29  50  83 123 169 214 259 302 346
#     4  11  23  39  63  91 121 157 203 255 310 368
#     4   9  18  33  55  85 121 165 217 264 304 354
#     4   9  17  28  51  89 135 176 208 246 304 361
#     4   9  17  31  52  79 114 154 195 242 298 360
#     4   9  18  35  61  94 132 170 207 248 297 362
#
# _framework density 21.555741000000001
#
# number of rings (size 3 to 8) (size 9 to 14) (size 15 to 20)
#    0.000    2.333    0.833    2.000    2.333    5.500 
#    0.000    2.083    0.000    0.500    0.000    4.667 
#    0.000    0.000    0.000    0.000    0.000    0.000 
#
# Total GULP energy -267681.047792 kJ/mol
# GULP energy per Si atom -5576.688496 kJ/mol
# Density = 2.150668 g / cm^3
# Si number density = 21.555741 Si / 1000 Ang^3
#
#
#
# Elastic Constant Matrix: (Units=GPa)
#
#
# Indices 1 2 3 4 5 6 
#
# 1 131.6639 27.3321 57.9282 0.0000 0.0000 0.0000
# 2 27.3321 75.1971 17.7935 0.0000 0.0000 0.0000
# 3 57.9282 17.7935 82.1169 0.0000 0.0000 0.0000
# 4 0.0000 0.0000 0.0000 14.2641 0.0000 0.0000
# 5 0.0000 0.0000 0.0000 0.0000 41.5685 0.0000
# 6 0.0000 0.0000 0.0000 0.0000 0.0000 11.1029
#
#
#
# Elastic Compliance Matrix: (Units=1/GPa)
#
#
# Indices 1 2 3 4 5 6 
#
# 1 0.011398 -0.002361 -0.007529 0.000000 0.000000 0.000000
# 2 -0.002361 0.014506 -0.001478 0.000000 0.000000 0.000000
# 3 -0.007529 -0.001478 0.017809 0.000000 0.000000 0.000000
# 4 0.000000 0.000000 0.000000 0.070106 0.000000 0.000000
# 5 0.000000 0.000000 0.000000 0.000000 0.024057 0.000000
# 6 0.000000 0.000000 0.000000 0.000000 0.000000 0.090067
#
#
# Mechanical properties :
#
#
# Convention : Reuss Voigt Hill
#
# Bulk Modulus (GPa) = 47.66938 55.00952 51.33945
# Shear Modulus (GPa) = 19.40466 25.78204 22.59335
#
# Velocity S-wave (km/s) = 3.00360 3.46217 3.24101
# Velocity P-wave (km/s) = 5.84733 6.44649 6.15421
#
# Compressibility (1/GPa) = 0.02097783
#
# Stress axis : x y z
#
# Youngs Moduli (GPa) = 87.73732 68.93573 56.15167
#
# Poissons Ratio (x) = 0.16278 0.42275
# Poissons Ratio (y) = 0.20717 0.08297
# Poissons Ratio (z) = 0.66054 0.10186
#
# Static dielectric constant tensor:
#      x y z
#    x 1.785330 0.000000 0.000000 
#    y 0.000000 1.888590 0.000000 
#    z 0.000000 0.000000 1.796570 
# 
# From -- ./inp_files/28061.got.cif
#   From: 2010.05.17/outbox.cif.g08.bks.cpg/sg47_15_cif.got.tgz:28061.got - 2010.06.03 20:15:42.
