data_PCOD9388291
_publ_section_title
;
Structure prediction by ZEFSAII (Michael W. Deem and Ramdas Pophale) SiO2 
 PCOD9388291
Probable space group: P M M M
;
_chemical_formula_sum "Si O2"
_cell_formula_units_Z 28
_cell_length_a 17.466961
_cell_length_b 7.492088
_cell_length_c 12.056027
_cell_angle_alpha 90.000000
_cell_angle_beta 90.000000
_cell_angle_gamma 90.000000
_cell_volume 1577.700025
_symmetry_space_group_name_H-M "P M M M"
_symmetry_group_IT_number 47
_symmetry_cell_setting 'orthorhombic'
loop_
_space_group_symop_operation_xyz
x,y,z
-x,-y,z
x,-y,-z
-x,y,-z
-x,-y,-z
x,y,-z
-x,y,z
x,-y,z
loop_
_atom_site_type_symbol
_atom_site_label
_atom_site_fract_x
_atom_site_fract_y
_atom_site_fract_z
Si Si1 0.910777 0.215334 0.000000
Si Si2 0.500000 0.708118 0.134770
Si Si3 0.666979 0.718344 0.871489
Si Si4 0.089797 0.000000 0.632352
Si Si5 0.825373 0.294384 0.772059
O O1 0.869052 0.283260 0.889936
O O2 0.000000 0.265998 0.000000
O O3 0.906240 0.000000 0.000000
O O4 0.500000 0.500000 0.167944
O O5 0.416965 0.781840 0.167222
O O6 0.500000 0.712742 0.000000
O O7 0.665509 0.500000 0.872859
O O8 0.739029 0.770351 0.797664
O O9 0.678744 0.773336 0.000000
O O10 0.130636 0.170569 0.686266
O O11 0.095952 0.000000 0.500000
O O12 0.000000 0.000000 0.663258
O O13 0.823166 0.500000 0.736006
#
# Coordination Sequence:
#
# PCOD9388291 Si02
#       5
#     4   4   8   4   8
#     4  11  21  33  51  79 113 144 173 208 264 332
#     4   7  10  18  36  65 107 148 173 197 236 294
#     4   8  13  23  42  74 111 143 172 203 246 307
#     4  11  26  45  59  74  99 135 184 235 278 320
#     4  11  21  35  57  83 109 140 177 218 268 321
#
# _framework density 17.747353
#
# number of rings (size 3 to 8) (size 9 to 14) (size 15 to 20)
#    0.000    2.429    2.857    3.000    0.000    3.429 
#    0.000    1.429    0.000    0.857    0.000    6.000 
#    0.000    5.714    0.000    0.000    0.000    0.000 
#
# Total GULP energy -156208.226110 kJ/mol
# GULP energy per Si atom -5578.865218 kJ/mol
# Density = 1.770696 g / cm^3
# Si number density = 17.747353 Si / 1000 Ang^3
#
#
#
# Elastic Constant Matrix: (Units=GPa)
#
#
# Indices 1 2 3 4 5 6 
#
# 1 200.1597 46.1931 54.0512 0.0000 0.0000 0.0000
# 2 46.1931 81.9901 25.6696 0.0000 0.0000 0.0000
# 3 54.0512 25.6696 52.2410 0.0000 0.0000 0.0000
# 4 0.0000 0.0000 0.0000 62.4095 0.0000 0.0000
# 5 0.0000 0.0000 0.0000 0.0000 3.6578 0.0000
# 6 0.0000 0.0000 0.0000 0.0000 0.0000 41.3010
#
#
#
# Elastic Compliance Matrix: (Units=1/GPa)
#
#
# Indices 1 2 3 4 5 6 
#
# 1 0.007211 -0.002041 -0.006458 0.000000 0.000000 0.000000
# 2 -0.002041 0.014992 -0.005255 0.000000 0.000000 0.000000
# 3 -0.006458 -0.005255 0.028406 0.000000 0.000000 0.000000
# 4 0.000000 0.000000 0.000000 0.016023 0.000000 0.000000
# 5 0.000000 0.000000 0.000000 0.000000 0.273389 0.000000
# 6 0.000000 0.000000 0.000000 0.000000 0.000000 0.024212
#
#
# Mechanical properties :
#
#
# Convention : Reuss Voigt Hill
#
# Bulk Modulus (GPa) = 43.28808 65.13541 54.21174
# Shear Modulus (GPa) = 12.51749 35.37213 23.94481
#
# Velocity S-wave (km/s) = 2.65866 4.46925 3.67714
# Velocity P-wave (km/s) = 5.81970 7.96325 6.97432
#
# Compressibility (1/GPa) = 0.02310105
#
# Stress axis : x y z
#
# Youngs Moduli (GPa) = 138.67909 66.70422 35.20389
#
# Poissons Ratio (x) = 0.13612 0.22735
# Poissons Ratio (y) = 0.28301 0.18499
# Poissons Ratio (z) = 0.89559 0.35053
#
# Static dielectric constant tensor:
#      x y z
#    x 1.652070 0.000000 0.000000 
#    y 0.000000 1.673070 0.000000 
#    z 0.000000 0.000000 1.543350 
# 
# From -- ./inp_files/18134.got.cif
#   From: 2010.05.17/outbox.cif.g08.bks.cpg/sg47_10_cif.got.tgz:18134.got - 2010.06.03 20:15:42.
