data_PCOD9388941
_publ_section_title
;
Structure prediction by ZEFSAII (Michael W. Deem and Ramdas Pophale) SiO2 
 PCOD9388941
Probable space group: P M M M
;
_chemical_formula_sum "Si O2"
_cell_formula_units_Z 40
_cell_length_a 27.119900
_cell_length_b 7.383225
_cell_length_c 9.483164
_cell_angle_alpha 90.000000
_cell_angle_beta 90.000000
_cell_angle_gamma 90.000000
_cell_volume 1898.835964
_symmetry_space_group_name_H-M "P M M M"
_symmetry_group_IT_number 47
_symmetry_cell_setting 'orthorhombic'
loop_
_space_group_symop_operation_xyz
x,y,z
-x,-y,z
x,-y,-z
-x,y,-z
-x,-y,-z
x,y,-z
-x,y,z
x,-y,z
loop_
_atom_site_type_symbol
_atom_site_label
_atom_site_fract_x
_atom_site_fract_y
_atom_site_fract_z
Si Si1 0.838718 0.786196 0.660710
Si Si2 0.350262 0.221164 0.338116
Si Si3 0.444603 0.220575 0.837323
Si Si4 0.254378 0.778424 0.161997
Si Si5 0.052943 0.717408 0.663990
O O1 0.838032 0.711530 0.500000
O O2 0.794911 0.715819 0.757880
O O3 0.893739 0.766523 0.723520
O O4 0.830041 0.000000 0.647972
O O5 0.346926 0.279021 0.500000
O O6 0.400743 0.280621 0.263506
O O7 0.302795 0.277142 0.248112
O O8 0.350480 0.000000 0.337986
O O9 0.500000 0.277454 0.796812
O O10 0.444427 0.000000 0.835668
O O11 0.435829 0.274023 0.000000
O O12 0.254112 0.000000 0.160795
O O13 0.255937 0.720146 0.000000
O O14 0.053949 0.778860 0.500000
O O15 0.051730 0.500000 0.662983
O O16 0.000000 0.779261 0.724612
#
# Coordination Sequence:
#
# PCOD9388941 Si02
#       5
#     8   8   8   8   8
#     4   9  16  25  39  60  82 101 127 166 202 229
#     4   9  15  21  30  44  62  85 116 156 198 236
#     4   8  13  20  28  38  55  82 117 155 193 234
#     4   9  16  25  36  49  68  95 124 154 193 241
#     4   8  14  25  41  61  84 108 132 158 192 236
#
# _framework density 21.065538
#
# number of rings (size 3 to 8) (size 9 to 14) (size 15 to 20)
#    0.000    3.400    0.000    2.400    0.000    5.600 
#    0.000    4.000    0.000    1.200    0.000    4.200 
#    0.000    0.000    0.000    0.000    0.000    1.000 
#
# Total GULP energy -223040.535611 kJ/mol
# GULP energy per Si atom -5576.013390 kJ/mol
# Density = 2.101759 g / cm^3
# Si number density = 21.065538 Si / 1000 Ang^3
#
#
#
# Elastic Constant Matrix: (Units=GPa)
#
#
# Indices 1 2 3 4 5 6 
#
# 1 252.9489 3.0674 134.0973 0.0000 0.0000 0.0000
# 2 3.0674 71.2217 5.5801 0.0000 0.0000 0.0000
# 3 134.0973 5.5801 134.9647 0.0000 0.0000 0.0000
# 4 0.0000 0.0000 0.0000 -9.5318 0.0000 0.0000
# 5 0.0000 0.0000 0.0000 0.0000 -46.8077 0.0000
# 6 0.0000 0.0000 0.0000 0.0000 0.0000 70.9344
#
#
#
# Elastic Compliance Matrix: (Units=1/GPa)
#
#
# Indices 1 2 3 4 5 6 
#
# 1 0.008359 0.000292 -0.008318 0.000000 0.000000 0.000000
# 2 0.000292 0.014096 -0.000873 0.000000 0.000000 0.000000
# 3 -0.008318 -0.000873 0.015710 0.000000 0.000000 0.000000
# 4 0.000000 0.000000 0.000000 -0.104912 0.000000 0.000000
# 5 0.000000 0.000000 0.000000 0.000000 -0.021364 0.000000
# 6 0.000000 0.000000 0.000000 0.000000 0.000000 0.014098
#
#
# Mechanical properties :
#
#
# Convention : Reuss Voigt Hill
#
# Bulk Modulus (GPa) = 49.09612 82.73611 65.91612
# Shear Modulus (GPa) = -101.16045 24.01170 -38.57438
#
# Velocity S-wave (km/s) = -6.93729 3.37984 -4.28385
# Velocity P-wave (km/s) = 6.38835 7.38863 2.62496
#
# Compressibility (1/GPa) = 0.02036821
#
# Stress axis : x y z
#
# Youngs Moduli (GPa) = 119.62715 70.93975 63.65537
#
# Poissons Ratio (x) = -0.02069 0.52946
# Poissons Ratio (y) = -0.03489 0.05555
# Poissons Ratio (z) = 0.99502 0.06190
#
# Static dielectric constant tensor:
#      x y z
#    x 1.763730 0.000000 0.000000 
#    y 0.000000 1.817160 0.000000 
#    z 0.000000 0.000000 1.708040 
# 
# From -- ./inp_files/1656.got.cif
#   From: 2010.05.17/outbox.cif.g08.bks.cpg/sg47_1_cif.got.tgz:1656.got - 2010.06.03 20:15:42.
