data_PCOD9388578
_publ_section_title
;
Structure prediction by ZEFSAII (Michael W. Deem and Ramdas Pophale) SiO2 
 PCOD9388578
Probable space group: P M M M
;
_chemical_formula_sum "Si O2"
_cell_formula_units_Z 48
_cell_length_a 29.467354
_cell_length_b 10.232780
_cell_length_c 8.769646
_cell_angle_alpha 90.000000
_cell_angle_beta 90.000000
_cell_angle_gamma 90.000000
_cell_volume 2644.337235
_symmetry_space_group_name_H-M "P M M M"
_symmetry_group_IT_number 47
_symmetry_cell_setting 'orthorhombic'
loop_
_space_group_symop_operation_xyz
x,y,z
-x,-y,z
x,-y,-z
-x,y,-z
-x,-y,-z
x,y,-z
-x,y,z
x,-y,z
loop_
_atom_site_type_symbol
_atom_site_label
_atom_site_fract_x
_atom_site_fract_y
_atom_site_fract_z
Si Si1 0.897699 0.753324 0.681868
Si Si2 0.271284 0.651160 0.684035
Si Si3 0.053392 0.500000 0.816644
Si Si4 0.551643 0.150565 0.183809
Si Si5 0.623225 0.648285 0.683582
Si Si6 0.054039 0.000000 0.175609
Si Si7 0.802465 0.153965 0.817056
O O1 0.896528 0.743652 0.500000
O O2 0.920527 0.625401 0.752588
O O3 0.847543 0.783314 0.744583
O O4 0.927866 0.874270 0.737541
O O5 0.267353 0.660720 0.500000
O O6 0.259518 0.500000 0.724953
O O7 0.324137 0.672468 0.725086
O O8 0.239471 0.758490 0.760584
O O9 0.000000 0.500000 0.772013
O O10 0.055094 0.500000 0.000000
O O11 0.500000 0.184538 0.230961
O O12 0.588726 0.247836 0.249098
O O13 0.560199 0.000000 0.229726
O O14 0.552982 0.154974 0.000000
O O15 0.620986 0.652589 0.500000
O O16 0.611766 0.500000 0.731918
O O17 0.000000 0.000000 0.171692
O O18 0.071072 0.000000 0.000000
O O19 0.798953 0.000000 0.773293
O O20 0.805643 0.159373 0.000000
#
# Coordination Sequence:
#
# PCOD9388578 Si02
#       7
#     8   8   4   8   8   4   8
#     4  12  25  41  64  92 122 157 199 245 291 346
#     4   9  20  39  61  84 114 150 190 237 291 349
#     4  11  25  45  67  91 123 161 197 239 294 351
#     4   9  19  35  53  76 110 151 193 238 287 341
#     4   9  19  36  56  81 113 148 187 236 291 347
#     4  11  23  41  65  91 123 161 197 239 294 349
#     4  11  24  41  61  86 119 155 194 239 290 349
#
# _framework density 18.151997999999999
#
# number of rings (size 3 to 8) (size 9 to 14) (size 15 to 20)
#    0.000    1.833    0.833    4.500    1.167    7.333 
#    0.000    7.500    0.000    0.000    0.000    0.000 
#    0.000    0.000    0.000    0.000    0.000    0.000 
#
# Total GULP energy -268104.476293 kJ/mol
# GULP energy per Si atom -5585.509923 kJ/mol
# Density = 1.811068 g / cm^3
# Si number density = 18.151998 Si / 1000 Ang^3
#
#
#
# Elastic Constant Matrix: (Units=GPa)
#
#
# Indices 1 2 3 4 5 6 
#
# 1 146.2861 120.2945 58.2282 0.0000 0.0000 0.0000
# 2 120.2945 184.8854 64.4903 0.0000 0.0000 0.0000
# 3 58.2282 64.4903 70.5115 0.0000 0.0000 0.0000
# 4 0.0000 0.0000 0.0000 34.2615 0.0000 0.0000
# 5 0.0000 0.0000 0.0000 0.0000 37.3447 0.0000
# 6 0.0000 0.0000 0.0000 0.0000 0.0000 45.9210
#
#
#
# Elastic Compliance Matrix: (Units=1/GPa)
#
#
# Indices 1 2 3 4 5 6 
#
# 1 0.015999 -0.008519 -0.005420 0.000000 0.000000 0.000000
# 2 -0.008519 0.012479 -0.004378 0.000000 0.000000 0.000000
# 3 -0.005420 -0.004378 0.022663 0.000000 0.000000 0.000000
# 4 0.000000 0.000000 0.000000 0.029187 0.000000 0.000000
# 5 0.000000 0.000000 0.000000 0.000000 0.026778 0.000000
# 6 0.000000 0.000000 0.000000 0.000000 0.000000 0.021777
#
#
# Mechanical properties :
#
#
# Convention : Reuss Voigt Hill
#
# Bulk Modulus (GPa) = 68.94111 98.63434 83.78773
# Shear Modulus (GPa) = 29.35121 34.08344 31.71733
#
# Velocity S-wave (km/s) = 4.02552 4.33791 4.18463
# Velocity P-wave (km/s) = 7.72455 8.91885 8.34310
#
# Compressibility (1/GPa) = 0.01450513
#
# Stress axis : x y z
#
# Youngs Moduli (GPa) = 62.50564 80.13731 44.12560
#
# Poissons Ratio (x) = 0.68266 0.23918
# Poissons Ratio (y) = 0.53247 0.19319
# Poissons Ratio (z) = 0.33880 0.35086
#
# Static dielectric constant tensor:
#      x y z
#    x 1.607990 0.000000 0.000000 
#    y 0.000000 1.599660 0.000000 
#    z 0.000000 0.000000 1.611380 
# 
# From -- ./inp_files/13947.got.cif
#   From: 2010.05.17/outbox.cif.g08.bks.cpg/sg47_7_cif.got.tgz:13947.got - 2010.06.03 20:15:42.
