data_PCOD9388015
_publ_section_title
;
Structure prediction by ZEFSAII (Michael W. Deem and Ramdas Pophale) SiO2 
 PCOD9388015
Probable space group: P M M M
;
_chemical_formula_sum "Si O2"
_cell_formula_units_Z 56
_cell_length_a 9.170379
_cell_length_b 14.227769
_cell_length_c 21.810491
_cell_angle_alpha 90.000000
_cell_angle_beta 90.000000
_cell_angle_gamma 90.000000
_cell_volume 2845.702745
_symmetry_space_group_name_H-M "P M M M"
_symmetry_group_IT_number 47
_symmetry_cell_setting 'orthorhombic'
loop_
_space_group_symop_operation_xyz
x,y,z
-x,-y,z
x,-y,-z
-x,y,-z
-x,-y,-z
x,y,-z
-x,y,z
x,-y,z
loop_
_atom_site_type_symbol
_atom_site_label
_atom_site_fract_x
_atom_site_fract_y
_atom_site_fract_z
Si Si1 0.176187 0.390676 0.383576
Si Si2 0.675614 0.201272 0.067531
Si Si3 0.830948 0.113327 0.815376
Si Si4 0.834163 0.386013 0.246046
Si Si5 0.328392 0.886987 0.691483
Si Si6 0.325373 0.393547 0.877903
Si Si7 0.675441 0.214670 0.433142
O O1 0.214356 0.500000 0.394160
O O2 0.219989 0.362125 0.313935
O O3 0.253203 0.317095 0.427239
O O4 0.000000 0.384140 0.386939
O O5 0.500000 0.191968 0.071975
O O6 0.748245 0.149962 0.124736
O O7 0.711906 0.312068 0.074509
O O8 0.720743 0.167235 0.000000
O O9 0.759610 0.146253 0.751297
O O10 0.000000 0.140337 0.817956
O O11 0.821942 0.000000 0.815243
O O12 0.840048 0.500000 0.246900
O O13 0.737328 0.361978 0.187854
O O14 0.000000 0.352221 0.238245
O O15 0.500000 0.864888 0.700181
O O16 0.278430 0.844147 0.626670
O O17 0.315311 0.000000 0.687917
O O18 0.500000 0.397198 0.873776
O O19 0.273620 0.500000 0.891669
O O20 0.713494 0.173464 0.500000
O O21 0.500000 0.222110 0.430547
#
# Coordination Sequence:
#
# PCOD9388015 Si02
#       7
#     8   8   8   8   8   8   8
#     4   9  19  35  53  75 107 149 193 232 274 328
#     4  10  22  38  56  82 116 153 190 227 273 330
#     4  10  22  40  62  87 113 142 180 230 284 334
#     4   8  15  29  48  71  99 133 177 227 275 319
#     4   9  19  38  63  87 112 144 181 223 275 338
#     4   9  18  32  51  77 109 145 185 227 270 318
#     4  10  22  37  54  82 116 148 185 230 279 328
#
# _framework density 19.678795000000001
#
# number of rings (size 3 to 8) (size 9 to 14) (size 15 to 20)
#    0.000    2.714    0.000    1.286    2.000    4.571 
#    0.000    7.143    0.000    0.000    0.000    6.000 
#    0.000    0.000    0.000    0.000    0.000    0.000 
#
# Total GULP energy -312390.752856 kJ/mol
# GULP energy per Si atom -5578.406301 kJ/mol
# Density = 1.963401 g / cm^3
# Si number density = 19.678795 Si / 1000 Ang^3
#
#
#
# Elastic Constant Matrix: (Units=GPa)
#
#
# Indices 1 2 3 4 5 6 
#
# 1 25.6602 21.9491 51.7841 0.0000 0.0000 0.0000
# 2 21.9491 40.5927 43.8631 0.0000 0.0000 0.0000
# 3 51.7841 43.8631 174.8030 0.0000 0.0000 0.0000
# 4 0.0000 0.0000 0.0000 21.4102 0.0000 0.0000
# 5 0.0000 0.0000 0.0000 0.0000 -27.4326 0.0000
# 6 0.0000 0.0000 0.0000 0.0000 0.0000 18.8497
#
#
#
# Elastic Compliance Matrix: (Units=1/GPa)
#
#
# Indices 1 2 3 4 5 6 
#
# 1 0.131421 -0.039778 -0.028951 0.000000 0.000000 0.000000
# 2 -0.039778 0.045839 0.000281 0.000000 0.000000 0.000000
# 3 -0.028951 0.000281 0.014227 0.000000 0.000000 0.000000
# 4 0.000000 0.000000 0.000000 0.046707 0.000000 0.000000
# 5 0.000000 0.000000 0.000000 0.000000 -0.036453 0.000000
# 6 0.000000 0.000000 0.000000 0.000000 0.000000 0.053051
#
#
# Mechanical properties :
#
#
# Convention : Reuss Voigt Hill
#
# Bulk Modulus (GPa) = 18.31767 52.91651 35.61709
# Shear Modulus (GPa) = 12.19857 10.79610 11.49733
#
# Velocity S-wave (km/s) = 2.49245 2.34480 2.41975
# Velocity P-wave (km/s) = 4.19662 5.85485 5.09366
#
# Compressibility (1/GPa) = 0.05459211
#
# Stress axis : x y z
#
# Youngs Moduli (GPa) = 7.60913 21.81536 70.29057
#
# Poissons Ratio (x) = 0.86777 2.03499
# Poissons Ratio (y) = 0.30267 -0.01979
# Poissons Ratio (z) = 0.22029 -0.00614
#
# Static dielectric constant tensor:
#      x y z
#    x 1.657210 0.000000 0.000000 
#    y 0.000000 1.720490 0.000000 
#    z 0.000000 0.000000 1.697310 
# 
# From -- ./inp_files/7256.got.cif
#   From: 2010.05.17/outbox.cif.g08.bks.cpg/sg47_4_cif.got.tgz:7256.got - 2010.06.03 20:15:42.
