data_PCOD9388532
_publ_section_title
;
Structure prediction by ZEFSAII (Michael W. Deem and Ramdas Pophale) SiO2 
 PCOD9388532
Probable space group: P M M M
;
_chemical_formula_sum "Si O2"
_cell_formula_units_Z 40
_cell_length_a 21.336483
_cell_length_b 9.182322
_cell_length_c 14.219517
_cell_angle_alpha 90.000000
_cell_angle_beta 90.000000
_cell_angle_gamma 90.000000
_cell_volume 2785.865834
_symmetry_space_group_name_H-M "P M M M"
_symmetry_group_IT_number 47
_symmetry_cell_setting 'orthorhombic'
loop_
_space_group_symop_operation_xyz
x,y,z
-x,-y,z
x,-y,-z
-x,y,-z
-x,-y,-z
x,y,-z
-x,y,z
x,-y,z
loop_
_atom_site_type_symbol
_atom_site_label
_atom_site_fract_x
_atom_site_fract_y
_atom_site_fract_z
Si Si1 0.381702 0.673937 0.290141
Si Si2 0.124418 0.831890 0.614254
Si Si3 0.575106 0.829115 0.109288
Si Si4 0.000000 0.667402 0.614672
Si Si5 0.734745 0.174637 0.612442
Si Si6 0.500000 0.171154 0.612887
O O1 0.385187 0.500000 0.297654
O O2 0.390140 0.727455 0.183039
O O3 0.317749 0.736366 0.333328
O O4 0.438915 0.749602 0.346288
O O5 0.124282 0.828465 0.500000
O O6 0.194318 0.782846 0.641357
O O7 0.064183 0.742951 0.646867
O O8 0.117106 0.000000 0.642027
O O9 0.500000 0.809831 0.120914
O O10 0.588520 0.000000 0.128348
O O11 0.589842 0.800116 0.000000
O O12 0.000000 0.500000 0.641526
O O13 0.000000 0.675620 0.500000
O O14 0.728221 0.198026 0.500000
O O15 0.727785 0.000000 0.627758
O O16 0.500000 0.178505 0.500000
O O17 0.500000 0.000000 0.640390
#
# Coordination Sequence:
#
# PCOD9388532 Si02
#       6
#     8   8   8   4   8   4
#     4  12  23  32  46  69  92 113 138 178 228 270
#     4   8  14  25  40  56  75 105 147 186 214 246
#     4   9  18  34  55  72  85 107 140 176 215 264
#     4   9  15  21  33  55  81 107 136 175 222 261
#     4   9  18  32  47  61  82 118 158 188 216 255
#     4  11  23  37  50  61  80 115 155 188 214 249
#
# _framework density 14.358193
#
# number of rings (size 3 to 8) (size 9 to 14) (size 15 to 20)
#    0.000    2.400    1.000    4.800    0.000    6.000 
#    0.000    3.000    0.000    0.000    0.000    0.000 
#    0.000    0.000    0.000    0.900    0.000   17.500 
#
# Total GULP energy -222982.505778 kJ/mol
# GULP energy per Si atom -5574.562644 kJ/mol
# Density = 1.432551 g / cm^3
# Si number density = 14.358193 Si / 1000 Ang^3
#
#
#
# Elastic Constant Matrix: (Units=GPa)
#
#
# Indices 1 2 3 4 5 6 
#
# 1 143.4377 87.5452 41.4189 0.0000 0.0000 0.0000
# 2 87.5452 104.5476 46.4891 0.0000 0.0000 0.0000
# 3 41.4189 46.4891 51.8944 0.0000 0.0000 0.0000
# 4 0.0000 0.0000 0.0000 9.9841 0.0000 0.0000
# 5 0.0000 0.0000 0.0000 0.0000 1.0350 0.0000
# 6 0.0000 0.0000 0.0000 0.0000 0.0000 0.8903
#
#
#
# Elastic Compliance Matrix: (Units=1/GPa)
#
#
# Indices 1 2 3 4 5 6 
#
# 1 0.014300 -0.011467 -0.001141 0.000000 0.000000 0.000000
# 2 -0.011467 0.025094 -0.013328 0.000000 0.000000 0.000000
# 3 -0.001141 -0.013328 0.032120 0.000000 0.000000 0.000000
# 4 0.000000 0.000000 0.000000 0.100159 0.000000 0.000000
# 5 0.000000 0.000000 0.000000 0.000000 0.966216 0.000000
# 6 0.000000 0.000000 0.000000 0.000000 0.000000 1.123191
#
#
# Mechanical properties :
#
#
# Convention : Reuss Voigt Hill
#
# Bulk Modulus (GPa) = 50.90964 72.30954 61.60959
# Shear Modulus (GPa) = 2.15564 10.67698 6.41631
#
# Velocity S-wave (km/s) = 1.22662 2.72989 2.11623
# Velocity P-wave (km/s) = 6.12699 7.77219 6.99810
#
# Compressibility (1/GPa) = 0.01964264
#
# Stress axis : x y z
#
# Youngs Moduli (GPa) = 69.93119 39.85089 31.13370
#
# Poissons Ratio (x) = 0.45697 0.03551
# Poissons Ratio (y) = 0.80191 0.41493
# Poissons Ratio (z) = 0.07976 0.53111
#
# Static dielectric constant tensor:
#      x y z
#    x 1.475780 0.000000 0.000000 
#    y 0.000000 1.473390 0.000000 
#    z 0.000000 0.000000 1.456790 
# 
# From -- ./inp_files/24839.got.cif
#   From: 2010.05.17/outbox.cif.g08.bks.cpg/sg47_13_cif.got.tgz:24839.got - 2010.06.03 20:15:42.
