data_PCOD9388037
_publ_section_title
;
Structure prediction by ZEFSAII (Michael W. Deem and Ramdas Pophale) SiO2 
 PCOD9388037
Probable space group: P M M M
;
_chemical_formula_sum "Si O2"
_cell_formula_units_Z 40
_cell_length_a 9.271260
_cell_length_b 13.633678
_cell_length_c 16.905279
_cell_angle_alpha 90.000000
_cell_angle_beta 90.000000
_cell_angle_gamma 90.000000
_cell_volume 2136.850485
_symmetry_space_group_name_H-M "P M M M"
_symmetry_group_IT_number 47
_symmetry_cell_setting 'orthorhombic'
loop_
_space_group_symop_operation_xyz
x,y,z
-x,-y,z
x,-y,-z
-x,y,-z
-x,-y,-z
x,y,-z
-x,y,z
x,-y,z
loop_
_atom_site_type_symbol
_atom_site_label
_atom_site_fract_x
_atom_site_fract_y
_atom_site_fract_z
Si Si1 0.834784 0.114807 0.094649
Si Si2 0.669628 0.707622 0.147481
Si Si3 0.832638 0.500000 0.594612
Si Si4 0.326537 0.684796 0.670298
Si Si5 0.835446 0.383318 0.000000
Si Si6 0.674923 0.109607 0.407024
O O1 0.721042 0.180287 0.140080
O O2 0.000000 0.142188 0.114597
O O3 0.817174 0.000000 0.110147
O O4 0.816914 0.129473 0.000000
O O5 0.500000 0.698423 0.132718
O O6 0.700341 0.673108 0.236173
O O7 0.755968 0.652950 0.078711
O O8 0.828045 0.500000 0.500000
O O9 0.753151 0.402610 0.625570
O O10 0.000000 0.500000 0.620148
O O11 0.500000 0.677921 0.657470
O O12 0.279161 0.793403 0.640697
O O13 0.836343 0.500000 0.000000
O O14 0.000000 0.346922 0.000000
O O15 0.712787 0.120802 0.500000
O O16 0.500000 0.108087 0.402801
O O17 0.724296 0.000000 0.381004
#
# Coordination Sequence:
#
# PCOD9388037 Si02
#       6
#     8   8   4   8   4   8
#     4   9  18  34  56  80 110 153 200 238 278 342
#     4  11  23  37  57  88 119 147 188 246 299 344
#     4  11  25  43  63  88 119 156 199 245 288 339
#     4  10  22  38  59  89 122 156 193 238 294 354
#     4  11  25  43  62  79 102 149 199 236 292 359
#     4   8  14  28  54  86 117 150 188 229 276 337
#
# _framework density 18.719138999999998
#
# number of rings (size 3 to 8) (size 9 to 14) (size 15 to 20)
#    0.000    2.200    1.000    3.000    1.400    5.200 
#    0.000    3.000    0.000    0.600    0.000    2.800 
#    0.000    0.000    0.000    0.000    0.000    0.000 
#
# Total GULP energy -223212.851490 kJ/mol
# GULP energy per Si atom -5580.321287 kJ/mol
# Density = 1.867653 g / cm^3
# Si number density = 18.719139 Si / 1000 Ang^3
#
#
#
# Elastic Constant Matrix: (Units=GPa)
#
#
# Indices 1 2 3 4 5 6 
#
# 1 60.5814 48.0770 61.7799 0.0000 0.0000 0.0000
# 2 48.0770 133.8623 63.1641 0.0000 0.0000 0.0000
# 3 61.7799 63.1641 89.5996 0.0000 0.0000 0.0000
# 4 0.0000 0.0000 0.0000 18.6475 0.0000 0.0000
# 5 0.0000 0.0000 0.0000 0.0000 14.3214 0.0000
# 6 0.0000 0.0000 0.0000 0.0000 0.0000 23.1856
#
#
#
# Elastic Compliance Matrix: (Units=1/GPa)
#
#
# Indices 1 2 3 4 5 6 
#
# 1 0.056325 -0.002853 -0.036825 0.000000 0.000000 0.000000
# 2 -0.002853 0.011338 -0.006026 0.000000 0.000000 0.000000
# 3 -0.036825 -0.006026 0.040800 0.000000 0.000000 0.000000
# 4 0.000000 0.000000 0.000000 0.053626 0.000000 0.000000
# 5 0.000000 0.000000 0.000000 0.000000 0.069825 0.000000
# 6 0.000000 0.000000 0.000000 0.000000 0.000000 0.043130
#
#
# Mechanical properties :
#
#
# Convention : Reuss Voigt Hill
#
# Bulk Modulus (GPa) = 58.63398 70.00949 64.32173
# Shear Modulus (GPa) = 13.43585 18.63240 16.03412
#
# Velocity S-wave (km/s) = 2.68201 3.15836 2.92988
# Velocity P-wave (km/s) = 6.40171 7.12611 6.77360
#
# Compressibility (1/GPa) = 0.01705496
#
# Stress axis : x y z
#
# Youngs Moduli (GPa) = 17.75426 88.19582 24.50954
#
# Poissons Ratio (x) = 0.25160 0.90257
# Poissons Ratio (y) = 0.05065 0.14770
# Poissons Ratio (z) = 0.65381 0.53148
#
# Static dielectric constant tensor:
#      x y z
#    x 1.622350 0.000000 0.000000 
#    y 0.000000 1.664990 0.000000 
#    z 0.000000 0.000000 1.645000 
# 
# From -- ./inp_files/20729.got.cif
#   From: 2010.05.17/outbox.cif.g08.bks.cpg/sg47_11_cif.got.tgz:20729.got - 2010.06.03 20:15:42.
