data_PCOD9388113
_publ_section_title
;
Structure prediction by ZEFSAII (Michael W. Deem and Ramdas Pophale) SiO2 
 PCOD9388113
Probable space group: P M M M
;
_chemical_formula_sum "Si O2"
_cell_formula_units_Z 64
_cell_length_a 8.483182
_cell_length_b 15.506803
_cell_length_c 24.695950
_cell_angle_alpha 90.000000
_cell_angle_beta 90.000000
_cell_angle_gamma 90.000000
_cell_volume 3248.678927
_symmetry_space_group_name_H-M "P M M M"
_symmetry_group_IT_number 47
_symmetry_cell_setting 'orthorhombic'
loop_
_space_group_symop_operation_xyz
x,y,z
-x,-y,z
x,-y,-z
-x,y,-z
-x,-y,-z
x,y,-z
-x,y,z
x,-y,z
loop_
_atom_site_type_symbol
_atom_site_label
_atom_site_fract_x
_atom_site_fract_y
_atom_site_fract_z
Si Si1 0.319587 0.403201 0.776713
Si Si2 0.312880 0.838094 0.323306
Si Si3 0.181024 0.733679 0.148541
Si Si4 0.182883 0.895995 0.560801
Si Si5 0.310261 0.402157 0.937093
Si Si6 0.815576 0.654696 0.672176
Si Si7 0.689138 0.905180 0.794560
Si Si8 0.190283 0.602161 0.557213
O O1 0.500000 0.376754 0.787777
O O2 0.297951 0.500000 0.797288
O O3 0.203955 0.334711 0.802870
O O4 0.284836 0.401310 0.713289
O O5 0.500000 0.818885 0.321457
O O6 0.271395 0.870562 0.383865
O O7 0.210509 0.753297 0.313201
O O8 0.277540 0.895475 0.270132
O O9 0.255510 0.678063 0.099357
O O10 0.251074 0.823976 0.170304
O O11 0.000000 0.748351 0.135960
O O12 0.238893 0.868139 0.500000
O O13 0.000000 0.866367 0.565665
O O14 0.182772 0.000000 0.559707
O O15 0.500000 0.404460 0.933783
O O16 0.254924 0.500000 0.921592
O O17 0.266062 0.389727 0.000000
O O18 0.752993 0.645551 0.611324
O O19 0.000000 0.629964 0.674463
O O20 0.500000 0.903902 0.799259
O O21 0.747117 0.000000 0.812308
O O22 0.252733 0.635336 0.500000
O O23 0.220136 0.500000 0.560364
O O24 0.000000 0.612384 0.556399
#
# Coordination Sequence:
#
# PCOD9388113 Si02
#       8
#     8   8   8   8   8   8   8   8
#     4  11  23  38  56  79 113 157 198 239 290 348
#     4  11  22  36  55  79 109 144 185 235 297 365
#     4  12  24  37  59  92 127 162 202 250 301 351
#     4   9  19  36  56  77 102 134 175 228 293 363
#     4   9  19  38  65  96 132 176 218 251 290 344
#     4  11  21  33  52  78 106 137 180 234 290 350
#     4  10  22  41  63  84 113 157 205 253 306 365
#     4   8  15  29  48  69  94 127 170 221 276 336
#
# _framework density 19.700316999999998
#
# number of rings (size 3 to 8) (size 9 to 14) (size 15 to 20)
#    0.000    1.875    1.250    4.500    0.000    5.750 
#    0.000    2.500    0.000    1.500    0.000    7.000 
#    0.000    0.000    0.000    0.000    0.000    0.000 
#
# Total GULP energy -356849.239242 kJ/mol
# GULP energy per Si atom -5575.769363 kJ/mol
# Density = 1.965548 g / cm^3
# Si number density = 19.700317 Si / 1000 Ang^3
#
#
#
# Elastic Constant Matrix: (Units=GPa)
#
#
# Indices 1 2 3 4 5 6 
#
# 1 26.3766 18.2477 27.3688 0.0000 0.0000 0.0000
# 2 18.2477 91.4828 54.3905 0.0000 0.0000 0.0000
# 3 27.3688 54.3905 123.6537 0.0000 0.0000 0.0000
# 4 0.0000 0.0000 0.0000 29.3875 0.0000 0.0000
# 5 0.0000 0.0000 0.0000 0.0000 60.6815 0.0000
# 6 0.0000 0.0000 0.0000 0.0000 0.0000 -5.8082
#
#
#
# Elastic Compliance Matrix: (Units=1/GPa)
#
#
# Indices 1 2 3 4 5 6 
#
# 1 0.050637 -0.004654 -0.009161 0.000000 0.000000 0.000000
# 2 -0.004654 0.015230 -0.005669 0.000000 0.000000 0.000000
# 3 -0.009161 -0.005669 0.012608 0.000000 0.000000 0.000000
# 4 0.000000 0.000000 0.000000 0.034028 0.000000 0.000000
# 5 0.000000 0.000000 0.000000 0.000000 0.016479 0.000000
# 6 0.000000 0.000000 0.000000 0.000000 0.000000 -0.172169
#
#
# Mechanical properties :
#
#
# Convention : Reuss Voigt Hill
#
# Bulk Modulus (GPa) = 25.31120 49.05858 37.18489
# Shear Modulus (GPa) = 558.65247 26.28589 292.46918
#
# Velocity S-wave (km/s) = 16.85797 3.65675 12.19760
# Velocity P-wave (km/s) = 19.79387 6.54107 14.74081
#
# Compressibility (1/GPa) = 0.03950820
#
# Stress axis : x y z
#
# Youngs Moduli (GPa) = 19.74825 65.66105 79.31347
#
# Poissons Ratio (x) = 0.30559 0.72657
# Poissons Ratio (y) = 0.09191 0.44962
# Poissons Ratio (z) = 0.18091 0.37223
#
# Static dielectric constant tensor:
#      x y z
#    x 1.682330 0.000000 0.000000 
#    y 0.000000 1.717880 0.000000 
#    z 0.000000 0.000000 1.738730 
# 
# From -- ./inp_files/32134.got.cif
#   From: 2010.05.17/outbox.cif.g08.bks.cpg/sg47_17_cif.got.tgz:32134.got - 2010.06.03 20:15:42.
