data_PCOD9388467
_publ_section_title
;
Structure prediction by ZEFSAII (Michael W. Deem and Ramdas Pophale) SiO2 
 PCOD9388467
Probable space group: P M M M
;
_chemical_formula_sum "Si O2"
_cell_formula_units_Z 52
_cell_length_a 22.095571
_cell_length_b 14.847072
_cell_length_c 9.037149
_cell_angle_alpha 90.000000
_cell_angle_beta 90.000000
_cell_angle_gamma 90.000000
_cell_volume 2964.677700
_symmetry_space_group_name_H-M "P M M M"
_symmetry_group_IT_number 47
_symmetry_cell_setting 'orthorhombic'
loop_
_space_group_symop_operation_xyz
x,y,z
-x,-y,z
x,-y,-z
-x,y,-z
-x,-y,-z
x,y,-z
-x,y,z
x,-y,z
loop_
_atom_site_type_symbol
_atom_site_label
_atom_site_fract_x
_atom_site_fract_y
_atom_site_fract_z
Si Si1 0.068016 0.645538 0.827923
Si Si2 0.373665 0.105349 0.821259
Si Si3 0.195464 0.603021 0.675503
Si Si4 0.500000 0.891275 0.668469
Si Si5 0.264464 0.764298 0.174593
Si Si6 0.931056 0.136872 0.166129
Si Si7 0.817844 0.101165 0.332818
O O1 0.127432 0.614833 0.740453
O O2 0.069349 0.754376 0.826216
O O3 0.000000 0.618159 0.775883
O O4 0.073397 0.617456 0.000000
O O5 0.438484 0.131746 0.753948
O O6 0.323812 0.179464 0.775169
O O7 0.360120 0.000000 0.778294
O O8 0.376331 0.105881 0.000000
O O9 0.192717 0.618636 0.500000
O O10 0.214120 0.500000 0.703361
O O11 0.242759 0.673143 0.746547
O O12 0.500000 0.857175 0.500000
O O13 0.500000 0.000000 0.662353
O O14 0.211450 0.834314 0.212972
O O15 0.269130 0.748328 0.000000
O O16 0.888147 0.100816 0.292885
O O17 0.000000 0.107681 0.182030
O O18 0.910310 0.111192 0.000000
O O19 0.807277 0.134052 0.500000
O O20 0.793682 0.000000 0.321155
#
# Coordination Sequence:
#
# PCOD9388467 Si02
#       7
#     8   8   8   4   8   8   8
#     4   9  18  34  56  79 100 126 165 215 272 331
#     4   9  18  33  54  81 114 150 184 218 256 297
#     4  11  24  39  55  78 107 137 171 216 274 335
#     4   9  17  29  49  81 118 153 186 217 249 292
#     4  11  22  37  57  79 104 139 182 223 261 308
#     4   9  18  33  52  72  94 125 167 213 261 313
#     4  11  23  35  49  73 104 136 170 211 261 315
#
# _framework density 17.539849
#
# number of rings (size 3 to 8) (size 9 to 14) (size 15 to 20)
#    0.000    2.077    1.538    3.000    0.000    6.462 
#    0.000    6.154    0.000    0.000    0.000    0.538 
#    0.000    4.308    0.000    0.000    0.000    0.000 
#
# Total GULP energy -289982.450040 kJ/mol
# GULP energy per Si atom -5576.585578 kJ/mol
# Density = 1.749993 g / cm^3
# Si number density = 17.539849 Si / 1000 Ang^3
#
#
#
# Elastic Constant Matrix: (Units=GPa)
#
#
# Indices 1 2 3 4 5 6 
#
# 1 118.6357 53.2170 43.0066 0.0000 0.0000 0.0000
# 2 53.2170 99.6203 38.2125 0.0000 0.0000 0.0000
# 3 43.0066 38.2125 40.8539 0.0000 0.0000 0.0000
# 4 0.0000 0.0000 0.0000 25.9255 0.0000 0.0000
# 5 0.0000 0.0000 0.0000 0.0000 0.0492 0.0000
# 6 0.0000 0.0000 0.0000 0.0000 0.0000 14.5980
#
#
#
# Elastic Compliance Matrix: (Units=1/GPa)
#
#
# Indices 1 2 3 4 5 6 
#
# 1 0.014140 -0.002876 -0.012195 0.000000 0.000000 0.000000
# 2 -0.002876 0.016240 -0.012162 0.000000 0.000000 0.000000
# 3 -0.012195 -0.012162 0.048691 0.000000 0.000000 0.000000
# 4 0.000000 0.000000 0.000000 0.038572 0.000000 0.000000
# 5 0.000000 0.000000 0.000000 0.000000 20.312189 0.000000
# 6 0.000000 0.000000 0.000000 0.000000 0.000000 0.068503
#
#
# Mechanical properties :
#
#
# Convention : Reuss Voigt Hill
#
# Bulk Modulus (GPa) = 40.64348 58.66468 49.65408
# Shear Modulus (GPa) = 0.24318 16.42614 8.33466
#
# Velocity S-wave (km/s) = 0.37275 3.06356 2.18224
# Velocity P-wave (km/s) = 4.83814 6.78476 5.89239
#
# Compressibility (1/GPa) = 0.02460419
#
# Stress axis : x y z
#
# Youngs Moduli (GPa) = 70.72099 61.57814 20.53750
#
# Poissons Ratio (x) = 0.17708 0.25046
# Poissons Ratio (y) = 0.20337 0.24978
# Poissons Ratio (z) = 0.86247 0.74893
#
# Static dielectric constant tensor:
#      x y z
#    x 1.610220 0.000000 0.000000 
#    y 0.000000 1.618700 0.000000 
#    z 0.000000 0.000000 1.598240 
# 
# From -- ./inp_files/11035.got.cif
#   From: 2010.05.17/outbox.cif.g08.bks.cpg/sg47_6_cif.got.tgz:11035.got - 2010.06.03 20:15:42.
