data_PCOD9388653
_publ_section_title
;
Structure prediction by ZEFSAII (Michael W. Deem and Ramdas Pophale) SiO2 
 PCOD9388653
Probable space group: P M M M
;
_chemical_formula_sum "Si O2"
_cell_formula_units_Z 52
_cell_length_a 8.976582
_cell_length_b 23.917362
_cell_length_c 14.457227
_cell_angle_alpha 90.000000
_cell_angle_beta 90.000000
_cell_angle_gamma 90.000000
_cell_volume 3103.911139
_symmetry_space_group_name_H-M "P M M M"
_symmetry_group_IT_number 47
_symmetry_cell_setting 'orthorhombic'
loop_
_space_group_symop_operation_xyz
x,y,z
-x,-y,z
x,-y,-z
-x,y,-z
-x,-y,-z
x,y,-z
-x,y,z
x,-y,z
loop_
_atom_site_type_symbol
_atom_site_label
_atom_site_fract_x
_atom_site_fract_y
_atom_site_fract_z
Si Si1 0.322999 0.062918 0.708442
Si Si2 0.825492 0.167730 0.610553
Si Si3 0.176431 0.097581 0.105496
Si Si4 0.322910 0.727319 0.287979
Si Si5 0.176201 0.231830 0.105704
Si Si6 0.827050 0.500000 0.387810
Si Si7 0.819455 0.622853 0.390707
O O1 0.500000 0.071909 0.702570
O O2 0.238889 0.110250 0.650770
O O3 0.270068 0.068948 0.814504
O O4 0.289258 0.000000 0.676061
O O5 0.811528 0.169170 0.500000
O O6 0.739250 0.219480 0.655497
O O7 0.000000 0.172426 0.635273
O O8 0.196512 0.164712 0.114994
O O9 0.000000 0.086027 0.117878
O O10 0.216145 0.082084 0.000000
O O11 0.500000 0.725504 0.293864
O O12 0.269589 0.736855 0.183002
O O13 0.252166 0.671852 0.331786
O O14 0.000000 0.242513 0.119415
O O15 0.214589 0.246642 0.000000
O O16 0.827269 0.500000 0.500000
O O17 0.765179 0.560671 0.361147
O O18 0.000000 0.500000 0.358497
O O19 0.785626 0.630529 0.500000
O O20 0.000000 0.624382 0.382750
#
# Coordination Sequence:
#
# PCOD9388653 Si02
#       7
#     8   8   8   8   8   4   8
#     4  11  24  39  55  78 106 134 165 206 260 319
#     4  11  24  41  59  76  97 131 176 221 260 301
#     4   9  18  34  57  81 103 131 168 209 253 304
#     4  12  23  33  51  81 113 141 170 209 260 315
#     4   9  18  34  56  79 103 133 170 212 257 306
#     4   7  12  26  49  75 102 137 184 229 259 288
#     4   9  17  31  52  77 107 145 186 223 257 297
#
# _framework density 16.753056000000001
#
# number of rings (size 3 to 8) (size 9 to 14) (size 15 to 20)
#    0.000    2.077    1.538    4.615    0.000    5.846 
#    0.000    5.000    0.000    1.385    0.000    0.538 
#    0.000    4.308    0.000    0.000    0.000    0.000 
#
# Total GULP energy -290240.724595 kJ/mol
# GULP energy per Si atom -5581.552396 kJ/mol
# Density = 1.671493 g / cm^3
# Si number density = 16.753056 Si / 1000 Ang^3
#
#
#
# Elastic Constant Matrix: (Units=GPa)
#
#
# Indices 1 2 3 4 5 6 
#
# 1 62.6781 52.8762 44.3032 0.0000 0.0000 0.0000
# 2 52.8762 118.8248 51.9140 0.0000 0.0000 0.0000
# 3 44.3032 51.9140 70.0888 0.0000 0.0000 0.0000
# 4 0.0000 0.0000 0.0000 24.4380 0.0000 0.0000
# 5 0.0000 0.0000 0.0000 0.0000 -61.9444 0.0000
# 6 0.0000 0.0000 0.0000 0.0000 0.0000 -209.2804
#
#
#
# Elastic Compliance Matrix: (Units=1/GPa)
#
#
# Indices 1 2 3 4 5 6 
#
# 1 0.033708 -0.008414 -0.015075 0.000000 0.000000 0.000000
# 2 -0.008414 0.014542 -0.005453 0.000000 0.000000 0.000000
# 3 -0.015075 -0.005453 0.027835 0.000000 0.000000 0.000000
# 4 0.000000 0.000000 0.000000 0.040920 0.000000 0.000000
# 5 0.000000 0.000000 0.000000 0.000000 -0.016144 0.000000
# 6 0.000000 0.000000 0.000000 0.000000 0.000000 -0.004778
#
#
# Mechanical properties :
#
#
# Convention : Reuss Voigt Hill
#
# Bulk Modulus (GPa) = 54.93753 61.08650 58.01202
# Shear Modulus (GPa) = 31.24342 -42.52413 -5.64036
#
# Velocity S-wave (km/s) = 4.32318 -5.04361 -1.83686
# Velocity P-wave (km/s) = 7.60155 1.62009 5.49583
#
# Compressibility (1/GPa) = 0.01820249
#
# Stress axis : x y z
#
# Youngs Moduli (GPa) = 29.66669 68.76580 35.92556
#
# Poissons Ratio (x) = 0.57857 0.54157
# Poissons Ratio (y) = 0.24960 0.19590
# Poissons Ratio (z) = 0.44722 0.37497
#
# Static dielectric constant tensor:
#      x y z
#    x 1.554400 0.000000 0.000000 
#    y 0.000000 1.568330 0.000000 
#    z 0.000000 0.000000 1.556960 
# 
# From -- ./inp_files/21438.got.cif
#   From: 2010.05.17/outbox.cif.g08.bks.cpg/sg47_11_cif.got.tgz:21438.got - 2010.06.03 20:15:42.
