data_PCOD9388818
_publ_section_title
;
Structure prediction by ZEFSAII (Michael W. Deem and Ramdas Pophale) SiO2 
 PCOD9388818
Probable space group: P M M M
;
_chemical_formula_sum "Si O2"
_cell_formula_units_Z 36
_cell_length_a 7.362867
_cell_length_b 27.446063
_cell_length_c 7.372619
_cell_angle_alpha 90.000000
_cell_angle_beta 90.000000
_cell_angle_gamma 90.000000
_cell_volume 1489.871466
_symmetry_space_group_name_H-M "P M M M"
_symmetry_group_IT_number 47
_symmetry_cell_setting 'orthorhombic'
loop_
_space_group_symop_operation_xyz
x,y,z
-x,-y,z
x,-y,-z
-x,y,-z
-x,-y,-z
x,y,-z
-x,y,z
x,-y,z
loop_
_atom_site_type_symbol
_atom_site_label
_atom_site_fract_x
_atom_site_fract_y
_atom_site_fract_z
Si Si1 0.279314 0.157445 0.715974
Si Si2 0.718634 0.052483 0.281586
Si Si3 0.290034 0.261891 0.282146
Si Si4 0.000000 0.555841 0.777593
Si Si5 0.295621 0.631200 0.784840
O O1 0.241299 0.156323 0.500000
O O2 0.500000 0.158401 0.734687
O O3 0.215889 0.104999 0.787946
O O4 0.213918 0.210057 0.784756
O O5 0.747456 0.052507 0.500000
O O6 0.500000 0.052421 0.254376
O O7 0.786385 0.000000 0.213981
O O8 0.291505 0.258279 0.500000
O O9 0.500000 0.264265 0.218536
O O10 0.212286 0.314834 0.240174
O O11 0.827481 0.587434 0.716546
O O12 0.000000 0.500000 0.719336
O O13 0.000000 0.555591 0.000000
O O14 0.500000 0.631021 0.708980
O O15 0.308859 0.624484 0.000000
#
# Coordination Sequence:
#
# PCOD9388818 Si02
#       5
#     8   8   8   4   8
#     4   7   9  13  22  38  61  91 127 162 196 237
#     4   7   8   9  14  27  51  84 120 157 195 232
#     4   8  13  22  37  56  79 108 139 170 206 247
#     4   9  18  32  49  69  91 113 138 169 204 240
#     4   9  17  29  46  67  88 110 138 171 204 240
#
# _framework density 24.163157999999999
#
# number of rings (size 3 to 8) (size 9 to 14) (size 15 to 20)
#    0.000    4.111    0.000    3.333    0.000    0.444 
#    0.000    2.778    0.000    1.333    0.000    3.111 
#    0.000    0.889    0.000   13.444    0.000   36.667 
#
# Total GULP energy -200593.135005 kJ/mol
# GULP energy per Si atom -5572.031528 kJ/mol
# Density = 2.410816 g / cm^3
# Si number density = 24.163158 Si / 1000 Ang^3
#
#
#
# Elastic Constant Matrix: (Units=GPa)
#
#
# Indices 1 2 3 4 5 6 
#
# 1 97.7982 72.2646 3.8314 0.0000 0.0000 0.0000
# 2 72.2646 345.1892 8.3617 0.0000 0.0000 0.0000
# 3 3.8314 8.3617 83.7506 0.0000 0.0000 0.0000
# 4 0.0000 0.0000 0.0000 18.7736 0.0000 0.0000
# 5 0.0000 0.0000 0.0000 0.0000 -12.0175 0.0000
# 6 0.0000 0.0000 0.0000 0.0000 0.0000 107.3982
#
#
#
# Elastic Compliance Matrix: (Units=1/GPa)
#
#
# Indices 1 2 3 4 5 6 
#
# 1 0.012104 -0.002527 -0.000301 0.000000 0.000000 0.000000
# 2 -0.002527 0.003431 -0.000227 0.000000 0.000000 0.000000
# 3 -0.000301 -0.000227 0.011977 0.000000 0.000000 0.000000
# 4 0.000000 0.000000 0.000000 0.053266 0.000000 0.000000
# 5 0.000000 0.000000 0.000000 0.000000 -0.083212 0.000000
# 6 0.000000 0.000000 0.000000 0.000000 0.000000 0.009311
#
#
# Mechanical properties :
#
#
# Convention : Reuss Voigt Hill
#
# Bulk Modulus (GPa) = 46.72505 77.29480 62.00993
# Shear Modulus (GPa) = 248.48942 52.31621 150.40281
#
# Velocity S-wave (km/s) = 10.15192 4.65814 7.89809
# Velocity P-wave (km/s) = 12.52176 7.80955 10.43512
#
# Compressibility (1/GPa) = 0.02140179
#
# Stress axis : x y z
#
# Youngs Moduli (GPa) = 82.61790 291.42583 83.49567
#
# Poissons Ratio (x) = 0.73632 0.02517
# Poissons Ratio (y) = 0.20874 0.01895
# Poissons Ratio (z) = 0.02491 0.06616
#
# Static dielectric constant tensor:
#      x y z
#    x 2.583590 0.000000 0.000000 
#    y 0.000000 1.953130 0.000000 
#    z 0.000000 0.000000 1.976050 
# 
# From -- ./inp_files/15200.got.cif
#   From: 2010.05.17/outbox.cif.g08.bks.cpg/sg47_8_cif.got.tgz:15200.got - 2010.06.03 20:15:42.
