data_PCOD9388775
_publ_section_title
;
Structure prediction by ZEFSAII (Michael W. Deem and Ramdas Pophale) SiO2 
 PCOD9388775
Probable space group: P M M M
;
_chemical_formula_sum "Si O2"
_cell_formula_units_Z 44
_cell_length_a 7.351183
_cell_length_b 9.859704
_cell_length_c 29.401240
_cell_angle_alpha 90.000000
_cell_angle_beta 90.000000
_cell_angle_gamma 90.000000
_cell_volume 2131.016236
_symmetry_space_group_name_H-M "P M M M"
_symmetry_group_IT_number 47
_symmetry_cell_setting 'orthorhombic'
loop_
_space_group_symop_operation_xyz
x,y,z
-x,-y,z
x,-y,-z
-x,y,-z
-x,-y,-z
x,y,-z
-x,y,z
x,-y,z
loop_
_atom_site_type_symbol
_atom_site_label
_atom_site_fract_x
_atom_site_fract_y
_atom_site_fract_z
Si Si1 0.216290 0.845604 0.284220
Si Si2 0.287486 0.335199 0.000000
Si Si3 0.778659 0.154496 0.551824
Si Si4 0.282272 0.845902 0.819024
Si Si5 0.277164 0.656990 0.900720
Si Si6 0.222562 0.344101 0.365891
O O1 0.245393 0.799128 0.232405
O O2 0.283875 0.741466 0.321993
O O3 0.000000 0.854665 0.291110
O O4 0.288472 0.000000 0.288637
O O5 0.214416 0.293519 0.950696
O O6 0.279101 0.500000 0.000000
O O7 0.500000 0.296651 0.000000
O O8 0.721687 0.183506 0.500000
O O9 0.719905 0.262794 0.589056
O O10 0.000000 0.155060 0.551931
O O11 0.723934 0.000000 0.563456
O O12 0.500000 0.851352 0.823683
O O13 0.215589 0.748650 0.858914
O O14 0.212696 0.000000 0.823125
O O15 0.500000 0.658236 0.901674
O O16 0.224090 0.500000 0.894822
O O17 0.281213 0.500000 0.365224
O O18 0.000000 0.345279 0.365750
#
# Coordination Sequence:
#
# PCOD9388775 Si02
#       6
#     8   4   8   8   8   8
#     4   9  17  29  43  56  74 105 138 161 188 233
#     4   7  10  18  33  53  76 101 128 154 182 225
#     4   8  13  21  33  49  71 101 133 160 190 234
#     4   9  17  28  41  59  82 103 126 162 202 231
#     4   8  13  22  37  56  78 104 130 155 188 232
#     4   9  16  24  35  53  76 100 128 165 202 230
#
# _framework density 20.647428000000001
#
# number of rings (size 3 to 8) (size 9 to 14) (size 15 to 20)
#    0.000    3.545    0.000    2.182    0.000    3.273 
#    0.000    2.273    0.000    2.727    0.000    0.636 
#    0.000    5.818    0.000    8.364    0.000   10.727 
#
# Total GULP energy -245357.994185 kJ/mol
# GULP energy per Si atom -5576.318050 kJ/mol
# Density = 2.060043 g / cm^3
# Si number density = 20.647428 Si / 1000 Ang^3
#
#
#
# Elastic Constant Matrix: (Units=GPa)
#
#
# Indices 1 2 3 4 5 6 
#
# 1 76.4576 6.0791 3.1934 0.0000 0.0000 0.0000
# 2 6.0791 130.6098 145.6896 0.0000 0.0000 0.0000
# 3 3.1934 145.6896 228.9138 0.0000 0.0000 0.0000
# 4 0.0000 0.0000 0.0000 35.2273 0.0000 0.0000
# 5 0.0000 0.0000 0.0000 0.0000 9.2204 0.0000
# 6 0.0000 0.0000 0.0000 0.0000 0.0000 -8.3443
#
#
#
# Elastic Compliance Matrix: (Units=1/GPa)
#
#
# Indices 1 2 3 4 5 6 
#
# 1 0.013161 -0.001406 0.000711 0.000000 0.000000 0.000000
# 2 -0.001406 0.026544 -0.016874 0.000000 0.000000 0.000000
# 3 0.000711 -0.016874 0.015098 0.000000 0.000000 0.000000
# 4 0.000000 0.000000 0.000000 0.028387 0.000000 0.000000
# 5 0.000000 0.000000 0.000000 0.000000 0.108455 0.000000
# 6 0.000000 0.000000 0.000000 0.000000 0.000000 -0.119842
#
#
# Mechanical properties :
#
#
# Convention : Reuss Voigt Hill
#
# Bulk Modulus (GPa) = 50.85001 82.87840 66.86420
# Shear Modulus (GPa) = 44.05426 25.95528 35.00477
#
# Velocity S-wave (km/s) = 4.62415 3.54937 4.12194
# Velocity P-wave (km/s) = 7.29326 7.55144 7.42347
#
# Compressibility (1/GPa) = 0.01966568
#
# Stress axis : x y z
#
# Youngs Moduli (GPa) = 75.98084 37.67298 66.23434
#
# Poissons Ratio (x) = 0.05296 -0.04710
# Poissons Ratio (y) = 0.10681 1.11765
# Poissons Ratio (z) = -0.05403 0.63570
#
# Static dielectric constant tensor:
#      x y z
#    x 1.867860 0.000000 0.000000 
#    y 0.000000 1.696010 0.000000 
#    z 0.000000 0.000000 1.726010 
# 
# From -- ./inp_files/13163.got.cif
#   From: 2010.05.17/outbox.cif.g08.bks.cpg/sg47_7_cif.got.tgz:13163.got - 2010.06.03 20:15:42.
