data_PCOD9388767
_publ_section_title
;
Structure prediction by ZEFSAII (Michael W. Deem and Ramdas Pophale) SiO2 
 PCOD9388767
Probable space group: P M M M
;
_chemical_formula_sum "Si O2"
_cell_formula_units_Z 52
_cell_length_a 15.487109
_cell_length_b 23.629301
_cell_length_c 7.444193
_cell_angle_alpha 90.000000
_cell_angle_beta 90.000000
_cell_angle_gamma 90.000000
_cell_volume 2724.199154
_symmetry_space_group_name_H-M "P M M M"
_symmetry_group_IT_number 47
_symmetry_cell_setting 'orthorhombic'
loop_
_space_group_symop_operation_xyz
x,y,z
-x,-y,z
x,-y,-z
-x,y,-z
-x,-y,-z
x,y,-z
-x,y,z
x,-y,z
loop_
_atom_site_type_symbol
_atom_site_label
_atom_site_fract_x
_atom_site_fract_y
_atom_site_fract_z
Si Si1 0.399851 0.124013 0.779665
Si Si2 0.604784 0.000000 0.792238
Si Si3 0.094360 0.256876 0.209054
Si Si4 0.654153 0.647742 0.714657
Si Si5 0.500000 0.433720 0.720227
Si Si6 0.898228 0.500000 0.297462
Si Si7 0.712684 0.229514 0.785443
Si Si8 0.152809 0.620842 0.718651
O O1 0.500000 0.133531 0.727594
O O2 0.371172 0.061369 0.716856
O O3 0.337140 0.174073 0.719661
O O4 0.399480 0.123017 0.000000
O O5 0.500000 0.000000 0.791981
O O6 0.633395 0.000000 0.000000
O O7 0.188513 0.237624 0.284826
O O8 0.100020 0.325026 0.218084
O O9 0.000000 0.239670 0.285361
O O10 0.093740 0.239858 0.000000
O O11 0.651822 0.643155 0.500000
O O12 0.581786 0.604196 0.780031
O O13 0.653638 0.714764 0.754118
O O14 0.748766 0.629571 0.775448
O O15 0.500000 0.500000 0.776254
O O16 0.500000 0.435003 0.500000
O O17 0.858462 0.500000 0.500000
O O18 0.874461 0.559633 0.214152
O O19 0.000000 0.500000 0.315182
O O20 0.720781 0.224725 0.000000
O O21 0.146478 0.621498 0.500000
#
# Coordination Sequence:
#
# PCOD9388767 Si02
#       8
#     8   4   8   8   4   4   8   8
#     4   8  13  21  36  59  85 110 134 163 198 233
#     4   7  10  18  32  54  84 110 132 161 195 229
#     4   9  17  29  42  56  78 106 132 159 194 239
#     4   9  18  30  43  60  80 104 135 169 201 237
#     4   9  18  30  45  61  79 106 139 168 200 245
#     4   9  16  24  37  58  76  88 111 153 203 245
#     4   9  17  28  43  63  84 107 135 166 203 241
#     4   9  17  28  43  59  76  97 125 162 201 238
#
# _framework density 19.088180000000001
#
# number of rings (size 3 to 8) (size 9 to 14) (size 15 to 20)
#    0.000    3.308    0.000    1.385    2.154    0.923 
#    0.000    0.385    0.000    2.308    0.000    1.077 
#    0.000    6.154    0.000    0.000    0.000   13.615 
#
# Total GULP energy -289498.871271 kJ/mol
# GULP energy per Si atom -5567.285986 kJ/mol
# Density = 1.904473 g / cm^3
# Si number density = 19.088180 Si / 1000 Ang^3
#
#
#
# Elastic Constant Matrix: (Units=GPa)
#
#
# Indices 1 2 3 4 5 6 
#
# 1 115.5742 81.8149 4.4338 0.0000 0.0000 0.0000
# 2 81.8149 172.1979 -0.3620 0.0000 0.0000 0.0000
# 3 4.4338 -0.3620 55.9156 0.0000 0.0000 0.0000
# 4 0.0000 0.0000 0.0000 12.3707 0.0000 0.0000
# 5 0.0000 0.0000 0.0000 0.0000 -0.9220 0.0000
# 6 0.0000 0.0000 0.0000 0.0000 0.0000 8.7345
#
#
#
# Elastic Compliance Matrix: (Units=1/GPa)
#
#
# Indices 1 2 3 4 5 6 
#
# 1 0.013102 -0.006227 -0.001079 0.000000 0.000000 0.000000
# 2 -0.006227 0.008767 0.000551 0.000000 0.000000 0.000000
# 3 -0.001079 0.000551 0.017973 0.000000 0.000000 0.000000
# 4 0.000000 0.000000 0.000000 0.080836 0.000000 0.000000
# 5 0.000000 0.000000 0.000000 0.000000 -1.084638 0.000000
# 6 0.000000 0.000000 0.000000 0.000000 0.000000 0.114489
#
#
# Mechanical properties :
#
#
# Convention : Reuss Voigt Hill
#
# Bulk Modulus (GPa) = 37.97884 57.27349 47.62616
# Shear Modulus (GPa) = -6.04462 21.22339 7.58938
#
# Velocity S-wave (km/s) = -1.78145 3.33807 1.99614
# Velocity P-wave (km/s) = 3.96337 6.70275 5.50614
#
# Compressibility (1/GPa) = 0.02633045
#
# Stress axis : x y z
#
# Youngs Moduli (GPa) = 76.32281 114.06133 55.63827
#
# Poissons Ratio (x) = 0.71031 0.06005
# Poissons Ratio (y) = 0.47529 -0.03063
# Poissons Ratio (z) = 0.08237 -0.06280
#
# Static dielectric constant tensor:
#      x y z
#    x 1.678840 0.000000 0.000000 
#    y 0.000000 1.888910 0.000000 
#    z 0.000000 0.000000 1.774890 
# 
# From -- ./inp_files/7711.got.cif
#   From: 2010.05.17/outbox.cif.g08.bks.cpg/sg47_4_cif.got.tgz:7711.got - 2010.06.03 20:15:42.
