data_PCOD9388034
_publ_section_title
;
Structure prediction by ZEFSAII (Michael W. Deem and Ramdas Pophale) SiO2 
 PCOD9388034
Probable space group: P M M M
;
_chemical_formula_sum "Si O2"
_cell_formula_units_Z 56
_cell_length_a 9.298775
_cell_length_b 21.858738
_cell_length_c 14.011953
_cell_angle_alpha 90.000000
_cell_angle_beta 90.000000
_cell_angle_gamma 90.000000
_cell_volume 2848.062371
_symmetry_space_group_name_H-M "P M M M"
_symmetry_group_IT_number 47
_symmetry_cell_setting 'orthorhombic'
loop_
_space_group_symop_operation_xyz
x,y,z
-x,-y,z
x,-y,-z
-x,y,-z
-x,-y,-z
x,y,-z
-x,y,z
x,-y,z
loop_
_atom_site_type_symbol
_atom_site_label
_atom_site_fract_x
_atom_site_fract_y
_atom_site_fract_z
Si Si1 0.163639 0.748320 0.115962
Si Si2 0.333527 0.694883 0.384936
Si Si3 0.330342 0.870895 0.890456
Si Si4 0.328000 0.374979 0.108871
Si Si5 0.328858 0.067884 0.301706
Si Si6 0.165269 0.184006 0.384762
Si Si7 0.674080 0.433755 0.301267
O O1 0.240728 0.811579 0.141183
O O2 0.254048 0.688209 0.140314
O O3 0.000000 0.744777 0.150030
O O4 0.160710 0.748694 0.000000
O O5 0.334402 0.695105 0.500000
O O6 0.500000 0.701592 0.352463
O O7 0.242175 0.753293 0.352148
O O8 0.277144 0.628583 0.351939
O O9 0.500000 0.854924 0.889113
O O10 0.308017 0.922935 0.812059
O O11 0.293382 0.887039 0.000000
O O12 0.500000 0.366039 0.108785
O O13 0.295066 0.424955 0.188907
O O14 0.284556 0.389896 0.000000
O O15 0.500000 0.072968 0.320221
O O16 0.248350 0.123670 0.351386
O O17 0.281292 0.000000 0.331173
O O18 0.167504 0.185025 0.500000
O O19 0.000000 0.182098 0.353329
O O20 0.500000 0.434245 0.312796
O O21 0.727634 0.500000 0.335218
#
# Coordination Sequence:
#
# PCOD9388034 Si02
#       7
#     8   8   8   8   8   8   8
#     4   9  17  29  46  70  99 132 175 225 270 309
#     4   9  18  34  57  82 106 135 173 219 271 324
#     4   9  18  33  53  77 108 145 182 220 264 316
#     4   9  17  29  46  69 100 138 177 217 263 314
#     4  10  22  38  57  84 115 147 183 223 270 323
#     4  10  22  40  61  84 110 142 181 226 276 329
#     4   9  18  31  49  77 108 137 174 220 268 318
#
# _framework density 19.662489999999998
#
# number of rings (size 3 to 8) (size 9 to 14) (size 15 to 20)
#    0.000    2.714    0.000    0.857    2.000    4.571 
#    0.000    5.714    0.000    1.714    0.000    7.000 
#    0.000    0.000    0.000    0.000    0.000    0.000 
#
# Total GULP energy -312398.137422 kJ/mol
# GULP energy per Si atom -5578.538168 kJ/mol
# Density = 1.961774 g / cm^3
# Si number density = 19.662490 Si / 1000 Ang^3
#
#
#
# Elastic Constant Matrix: (Units=GPa)
#
#
# Indices 1 2 3 4 5 6 
#
# 1 44.7976 57.2367 17.5075 0.0000 0.0000 0.0000
# 2 57.2367 176.1747 29.6194 0.0000 0.0000 0.0000
# 3 17.5075 29.6194 38.3402 0.0000 0.0000 0.0000
# 4 0.0000 0.0000 0.0000 16.0573 0.0000 0.0000
# 5 0.0000 0.0000 0.0000 0.0000 14.5566 0.0000
# 6 0.0000 0.0000 0.0000 0.0000 0.0000 -7.2873
#
#
#
# Elastic Compliance Matrix: (Units=1/GPa)
#
#
# Indices 1 2 3 4 5 6 
#
# 1 0.041087 -0.011716 -0.009711 0.000000 0.000000 0.000000
# 2 -0.011716 0.009864 -0.002271 0.000000 0.000000 0.000000
# 3 -0.009711 -0.002271 0.032271 0.000000 0.000000 0.000000
# 4 0.000000 0.000000 0.000000 0.062277 0.000000 0.000000
# 5 0.000000 0.000000 0.000000 0.000000 0.068697 0.000000
# 6 0.000000 0.000000 0.000000 0.000000 0.000000 -0.137225
#
#
# Mechanical properties :
#
#
# Convention : Reuss Voigt Hill
#
# Bulk Modulus (GPa) = 27.91169 52.00443 39.95806
# Shear Modulus (GPa) = 36.68160 14.99524 25.83842
#
# Velocity S-wave (km/s) = 4.32390 2.76457 3.62898
# Velocity P-wave (km/s) = 6.25735 6.05776 6.15836
#
# Compressibility (1/GPa) = 0.03582728
#
# Stress axis : x y z
#
# Youngs Moduli (GPa) = 24.33874 101.37594 30.98781
#
# Poissons Ratio (x) = 1.18771 0.30091
# Poissons Ratio (y) = 0.28515 0.07036
# Poissons Ratio (z) = 0.23635 0.23019
#
# Static dielectric constant tensor:
#      x y z
#    x 1.663260 0.000000 0.000000 
#    y 0.000000 1.667870 0.000000 
#    z 0.000000 0.000000 1.743450 
# 
# From -- ./inp_files/7302.got.cif
#   From: 2010.05.17/outbox.cif.g08.bks.cpg/sg47_4_cif.got.tgz:7302.got - 2010.06.03 20:15:42.
