data_PCOD9388020
_publ_section_title
;
Structure prediction by ZEFSAII (Michael W. Deem and Ramdas Pophale) SiO2 
 PCOD9388020
Probable space group: P M M M
;
_chemical_formula_sum "Si O2"
_cell_formula_units_Z 52
_cell_length_a 10.069568
_cell_length_b 13.658767
_cell_length_c 21.459381
_cell_angle_alpha 90.000000
_cell_angle_beta 90.000000
_cell_angle_gamma 90.000000
_cell_volume 2951.477835
_symmetry_space_group_name_H-M "P M M M"
_symmetry_group_IT_number 47
_symmetry_cell_setting 'orthorhombic'
loop_
_space_group_symop_operation_xyz
x,y,z
-x,-y,z
x,-y,-z
-x,y,-z
-x,-y,-z
x,y,-z
-x,y,z
x,-y,z
loop_
_atom_site_type_symbol
_atom_site_label
_atom_site_fract_x
_atom_site_fract_y
_atom_site_fract_z
Si Si1 0.652612 0.609605 0.828235
Si Si2 0.156055 0.699652 0.072662
Si Si3 0.657389 0.201051 0.255513
Si Si4 0.750837 0.255658 0.610479
Si Si5 0.846590 0.111224 0.154498
Si Si6 0.000000 0.383570 0.424296
Si Si7 0.500000 0.387383 0.574700
Si Si8 0.160782 0.884013 0.500000
O O1 0.500000 0.617713 0.850541
O O2 0.673176 0.500000 0.804209
O O3 0.752709 0.632415 0.884175
O O4 0.669179 0.690910 0.775161
O O5 0.173758 0.809165 0.100235
O O6 0.000000 0.674665 0.079437
O O7 0.190334 0.694459 0.000000
O O8 0.500000 0.176464 0.258533
O O9 0.723099 0.206564 0.323125
O O10 0.741939 0.132935 0.209189
O O11 0.874519 0.329176 0.605161
O O12 0.625917 0.324421 0.595276
O O13 0.778378 0.171693 0.559484
O O14 0.000000 0.123853 0.176663
O O15 0.832338 0.000000 0.132411
O O16 0.000000 0.500000 0.413428
O O17 0.000000 0.369563 0.500000
O O18 0.500000 0.500000 0.598226
O O19 0.500000 0.392509 0.500000
O O20 0.000000 0.871915 0.500000
O O21 0.188649 0.000000 0.500000
#
# Coordination Sequence:
#
# PCOD9388020 Si02
#       8
#     8   8   8   8   8   4   4   4
#     4   9  19  36  54  75 107 149 190 223 258 314
#     4   9  18  33  54  81 112 143 176 223 279 326
#     4  10  22  37  57  80 112 148 182 227 277 328
#     4  12  21  40  59  86 116 148 187 237 282 336
#     4   9  19  36  58  82 108 142 185 229 274 329
#     4  11  22  38  60  86 116 148 183 228 285 343
#     4  11  22  36  60  88 118 148 179 224 291 351
#     4  11  24  43  64  83 109 151 193 235 288 343
#
# _framework density 17.618293000000001
#
# number of rings (size 3 to 8) (size 9 to 14) (size 15 to 20)
#    0.000    1.923    3.077    0.462    1.077    4.615 
#    0.000    5.385    0.000    0.000    0.000    4.308 
#    0.000    0.000    0.000    0.000    0.000    0.000 
#
# Total GULP energy -290066.173230 kJ/mol
# GULP energy per Si atom -5578.195639 kJ/mol
# Density = 1.757819 g / cm^3
# Si number density = 17.618293 Si / 1000 Ang^3
#
#
#
# Elastic Constant Matrix: (Units=GPa)
#
#
# Indices 1 2 3 4 5 6 
#
# 1 86.4050 23.0100 22.5843 0.0000 0.0000 0.0000
# 2 23.0100 79.3974 -4.0838 0.0000 0.0000 0.0000
# 3 22.5843 -4.0838 72.1232 0.0000 0.0000 0.0000
# 4 0.0000 0.0000 0.0000 2.2850 0.0000 0.0000
# 5 0.0000 0.0000 0.0000 0.0000 30.5331 0.0000
# 6 0.0000 0.0000 0.0000 0.0000 0.0000 26.3619
#
#
#
# Elastic Compliance Matrix: (Units=1/GPa)
#
#
# Indices 1 2 3 4 5 6 
#
# 1 0.013912 -0.004268 -0.004598 0.000000 0.000000 0.000000
# 2 -0.004268 0.013941 0.002126 0.000000 0.000000 0.000000
# 3 -0.004598 0.002126 0.015425 0.000000 0.000000 0.000000
# 4 0.000000 0.000000 0.000000 0.437641 0.000000 0.000000
# 5 0.000000 0.000000 0.000000 0.000000 0.032751 0.000000
# 6 0.000000 0.000000 0.000000 0.000000 0.000000 0.037934
#
#
# Mechanical properties :
#
#
# Convention : Reuss Voigt Hill
#
# Bulk Modulus (GPa) = 33.55958 35.66076 34.61017
# Shear Modulus (GPa) = 8.69539 24.93034 16.81286
#
# Velocity S-wave (km/s) = 2.22399 3.76576 3.09250
# Velocity P-wave (km/s) = 5.06797 6.26040 5.69548
#
# Compressibility (1/GPa) = 0.02979775
#
# Stress axis : x y z
#
# Youngs Moduli (GPa) = 71.88108 71.72988 64.82843
#
# Poissons Ratio (x) = 0.30616 0.29808
# Poissons Ratio (y) = 0.30681 -0.13782
# Poissons Ratio (z) = 0.33051 -0.15249
#
# Static dielectric constant tensor:
#      x y z
#    x 1.534840 0.000000 0.000000 
#    y 0.000000 1.593440 0.000000 
#    z 0.000000 0.000000 1.575820 
# 
# From -- ./inp_files/29652.got.cif
#   From: 2010.05.17/outbox.cif.g08.bks.cpg/sg47_15_cif.got.tgz:29652.got - 2010.06.03 20:15:42.
