data_PCOD9388564
_publ_section_title
;
Structure prediction by ZEFSAII (Michael W. Deem and Ramdas Pophale) SiO2 
 PCOD9388564
Probable space group: P M M M
;
_chemical_formula_sum "Si O2"
_cell_formula_units_Z 48
_cell_length_a 18.501237
_cell_length_b 8.138269
_cell_length_c 16.389839
_cell_angle_alpha 90.000000
_cell_angle_beta 90.000000
_cell_angle_gamma 90.000000
_cell_volume 2467.785992
_symmetry_space_group_name_H-M "P M M M"
_symmetry_group_IT_number 47
_symmetry_cell_setting 'orthorhombic'
loop_
_space_group_symop_operation_xyz
x,y,z
-x,-y,z
x,-y,-z
-x,y,-z
-x,-y,-z
x,y,-z
-x,y,z
x,-y,z
loop_
_atom_site_type_symbol
_atom_site_label
_atom_site_fract_x
_atom_site_fract_y
_atom_site_fract_z
Si Si1 0.828983 0.800246 0.153544
Si Si2 0.081879 0.201789 0.000000
Si Si3 0.846964 0.801410 0.337765
Si Si4 0.318244 0.694491 0.651761
Si Si5 0.416761 0.196091 0.500000
Si Si6 0.583489 0.200411 0.000000
Si Si7 0.335084 0.801598 0.836742
Si Si8 0.000000 0.810949 0.596665
O O1 0.853283 0.751697 0.243226
O O2 0.746507 0.750051 0.142333
O O3 0.830001 0.000000 0.152355
O O4 0.878053 0.740904 0.080728
O O5 0.000000 0.253855 0.000000
O O6 0.083599 0.000000 0.000000
O O7 0.765505 0.749801 0.363260
O O8 0.921440 0.739712 0.378599
O O9 0.846364 0.000000 0.345341
O O10 0.317752 0.500000 0.651560
O O11 0.371487 0.753319 0.580248
O O12 0.345092 0.750206 0.742162
O O13 0.500000 0.259935 0.500000
O O14 0.420703 0.000000 0.500000
O O15 0.617389 0.256745 0.913547
O O16 0.500000 0.243018 0.000000
O O17 0.590691 0.000000 0.000000
O O18 0.339157 0.000000 0.836015
O O19 0.000000 0.817974 0.500000
O O20 0.000000 0.000000 0.629736
#
# Coordination Sequence:
#
# PCOD9388564 Si02
#       8
#     8   4   8   8   4   4   8   4
#     4   8  14  24  39  62  94 134 173 216 270 325
#     4   9  15  19  31  60  96 128 164 221 286 331
#     4   9  18  33  54  78 109 147 190 237 285 334
#     4  11  23  39  60  87 120 155 194 236 286 346
#     4  11  25  45  69  92 113 144 187 235 290 349
#     4   9  17  29  52  85 114 142 183 236 285 332
#     4   9  17  33  55  79 110 148 191 235 282 335
#     4   9  18  30  49  80 108 138 184 238 287 330
#
# _framework density 19.450631999999999
#
# number of rings (size 3 to 8) (size 9 to 14) (size 15 to 20)
#    0.000    2.667    0.000    3.250    2.333    3.333 
#    0.000    2.500    0.000    1.000    0.000    0.000 
#    0.000    3.333    0.000    0.000    0.000    0.000 
#
# Total GULP energy -267365.187387 kJ/mol
# GULP energy per Si atom -5570.108071 kJ/mol
# Density = 1.940636 g / cm^3
# Si number density = 19.450632 Si / 1000 Ang^3
#
#
#
# Elastic Constant Matrix: (Units=GPa)
#
#
# Indices 1 2 3 4 5 6 
#
# 1 171.8516 26.3292 138.1905 0.0000 0.0000 0.0000
# 2 26.3292 32.8694 22.8312 0.0000 0.0000 0.0000
# 3 138.1905 22.8312 153.2601 0.0000 0.0000 0.0000
# 4 0.0000 0.0000 0.0000 -43.5522 0.0000 0.0000
# 5 0.0000 0.0000 0.0000 0.0000 32.3819 0.0000
# 6 0.0000 0.0000 0.0000 0.0000 0.0000 -5.5686
#
#
#
# Elastic Compliance Matrix: (Units=1/GPa)
#
#
# Indices 1 2 3 4 5 6 
#
# 1 0.021678 -0.004225 -0.018917 0.000000 0.000000 0.000000
# 2 -0.004225 0.034758 -0.001369 0.000000 0.000000 0.000000
# 3 -0.018917 -0.001369 0.023786 0.000000 0.000000 0.000000
# 4 0.000000 0.000000 0.000000 -0.022961 0.000000 0.000000
# 5 0.000000 0.000000 0.000000 0.000000 0.030881 0.000000
# 6 0.000000 0.000000 0.000000 0.000000 0.000000 -0.179578
#
#
# Mechanical properties :
#
#
# Convention : Reuss Voigt Hill
#
# Bulk Modulus (GPa) = 32.05019 81.40922 56.72971
# Shear Modulus (GPa) = -156.18133 8.02758 -74.07687
#
# Velocity S-wave (km/s) = -8.97054 2.03374 -6.17796
# Velocity P-wave (km/s) = 9.52789 6.88912 4.65407
#
# Compressibility (1/GPa) = 0.03120106
#
# Stress axis : x y z
#
# Youngs Moduli (GPa) = 46.12984 28.77020 42.04202
#
# Poissons Ratio (x) = 0.12155 0.79531
# Poissons Ratio (y) = 0.19489 0.05754
# Poissons Ratio (z) = 0.87264 0.03938
#
# Static dielectric constant tensor:
#      x y z
#    x 1.686460 0.000000 0.000000 
#    y 0.000000 1.690710 0.000000 
#    z 0.000000 0.000000 1.689700 
# 
# From -- ./inp_files/24526.got.cif
#   From: 2010.05.17/outbox.cif.g08.bks.cpg/sg47_13_cif.got.tgz:24526.got - 2010.06.03 20:15:42.
