data_PCOD9388996
_publ_section_title
;
Structure prediction by ZEFSAII (Michael W. Deem and Ramdas Pophale) SiO2 
 PCOD9388996
Probable space group: P M M M
;
_chemical_formula_sum "Si O2"
_cell_formula_units_Z 40
_cell_length_a 7.352561
_cell_length_b 9.925300
_cell_length_c 26.388954
_cell_angle_alpha 90.000000
_cell_angle_beta 90.000000
_cell_angle_gamma 90.000000
_cell_volume 1925.770168
_symmetry_space_group_name_H-M "P M M M"
_symmetry_group_IT_number 47
_symmetry_cell_setting 'orthorhombic'
loop_
_space_group_symop_operation_xyz
x,y,z
-x,-y,z
x,-y,-z
-x,y,-z
-x,-y,-z
x,y,-z
-x,y,z
x,-y,z
loop_
_atom_site_type_symbol
_atom_site_label
_atom_site_fract_x
_atom_site_fract_y
_atom_site_fract_z
Si Si1 0.778307 0.344746 0.443274
Si Si2 0.782096 0.152964 0.646169
Si Si3 0.283851 0.153385 0.761464
Si Si4 0.278719 0.846986 0.942098
Si Si5 0.277496 0.654994 0.851526
O O1 0.723543 0.301436 0.500000
O O2 0.723326 0.500000 0.436117
O O3 0.714192 0.250120 0.397975
O O4 0.000000 0.343508 0.442686
O O5 0.744778 0.198267 0.703569
O O6 0.000000 0.147753 0.641105
O O7 0.712891 0.000000 0.641177
O O8 0.500000 0.144335 0.769414
O O9 0.216268 0.258979 0.802823
O O10 0.211650 0.000000 0.766812
O O11 0.500000 0.846551 0.941945
O O12 0.220184 0.736793 0.901545
O O13 0.223922 0.000000 0.928250
O O14 0.221836 0.820558 0.000000
O O15 0.500000 0.653400 0.851345
O O16 0.218651 0.500000 0.850801
#
# Coordination Sequence:
#
# PCOD9388996 Si02
#       5
#     8   8   8   8   8
#     4   8  14  25  41  61  84 108 132 159 196 242
#     4   9  17  28  43  64  85 103 130 170 206 232
#     4   9  17  29  43  57  78 110 140 163 195 242
#     4   8  13  21  33  49  71 101 134 165 200 243
#     4   9  16  24  35  53  76 102 134 170 203 235
#
# _framework density 20.770910000000001
#
# number of rings (size 3 to 8) (size 9 to 14) (size 15 to 20)
#    0.000    3.400    0.000    1.800    0.000    4.000 
#    0.000    4.000    0.000    0.600    0.000    4.200 
#    0.000    0.800    0.000    9.200    0.000   11.800 
#
# Total GULP energy -223179.996317 kJ/mol
# GULP energy per Si atom -5579.499908 kJ/mol
# Density = 2.072363 g / cm^3
# Si number density = 20.770910 Si / 1000 Ang^3
#
#
#
# Elastic Constant Matrix: (Units=GPa)
#
#
# Indices 1 2 3 4 5 6 
#
# 1 77.3900 6.3810 1.1730 0.0000 0.0000 0.0000
# 2 6.3810 159.8529 157.1392 0.0000 0.0000 0.0000
# 3 1.1730 157.1392 210.8412 0.0000 0.0000 0.0000
# 4 0.0000 0.0000 0.0000 40.6329 0.0000 0.0000
# 5 0.0000 0.0000 0.0000 0.0000 13.6906 0.0000
# 6 0.0000 0.0000 0.0000 0.0000 0.0000 -7.5115
#
#
#
# Elastic Compliance Matrix: (Units=1/GPa)
#
#
# Indices 1 2 3 4 5 6 
#
# 1 0.013042 -0.001681 0.001180 0.000000 0.000000 0.000000
# 2 -0.001681 0.023615 -0.017591 0.000000 0.000000 0.000000
# 3 0.001180 -0.017591 0.017847 0.000000 0.000000 0.000000
# 4 0.000000 0.000000 0.000000 0.024611 0.000000 0.000000
# 5 0.000000 0.000000 0.000000 0.000000 0.073043 0.000000
# 6 0.000000 0.000000 0.000000 0.000000 0.000000 -0.133129
#
#
# Mechanical properties :
#
#
# Convention : Reuss Voigt Hill
#
# Bulk Modulus (GPa) = 54.58173 86.38559 70.48366
# Shear Modulus (GPa) = 81.54134 28.25513 54.89824
#
# Velocity S-wave (km/s) = 6.27238 3.69226 5.14662
# Velocity P-wave (km/s) = 8.87648 7.73673 8.32613
#
# Compressibility (1/GPa) = 0.01832115
#
# Stress axis : x y z
#
# Youngs Moduli (GPa) = 76.67387 42.34576 56.03249
#
# Poissons Ratio (x) = 0.07116 -0.06611
# Poissons Ratio (y) = 0.12885 0.98566
# Poissons Ratio (z) = -0.09047 0.74490
#
# Static dielectric constant tensor:
#      x y z
#    x 1.845780 0.000000 0.000000 
#    y 0.000000 1.706750 0.000000 
#    z 0.000000 0.000000 1.711520 
# 
# From -- ./inp_files/1379.got.cif
#   From: 2010.05.17/outbox.cif.g08.bks.cpg/sg47_1_cif.got.tgz:1379.got - 2010.06.03 20:15:42.
