data_PCOD9388770
_publ_section_title
;
Structure prediction by ZEFSAII (Michael W. Deem and Ramdas Pophale) SiO2 
 PCOD9388770
Probable space group: P M M M
;
_chemical_formula_sum "Si O2"
_cell_formula_units_Z 56
_cell_length_a 29.062944
_cell_length_b 14.144321
_cell_length_c 7.527084
_cell_angle_alpha 90.000000
_cell_angle_beta 90.000000
_cell_angle_gamma 90.000000
_cell_volume 3094.200640
_symmetry_space_group_name_H-M "P M M M"
_symmetry_group_IT_number 47
_symmetry_cell_setting 'orthorhombic'
loop_
_space_group_symop_operation_xyz
x,y,z
-x,-y,z
x,-y,-z
-x,y,-z
-x,-y,-z
x,y,-z
-x,y,z
x,-y,z
loop_
_atom_site_type_symbol
_atom_site_label
_atom_site_fract_x
_atom_site_fract_y
_atom_site_fract_z
Si Si1 0.551706 0.615397 0.000000
Si Si2 0.200179 0.391325 0.711408
Si Si3 0.000000 0.385675 0.212794
Si Si4 0.379362 0.386406 0.700520
Si Si5 0.449987 0.114618 0.711348
Si Si6 0.651781 0.891509 0.717377
Si Si7 0.901139 0.609230 0.786015
Si Si8 0.711901 0.720503 0.716044
O O1 0.579910 0.644540 0.827560
O O2 0.551004 0.500000 0.000000
O O3 0.500000 0.648542 0.000000
O O4 0.207028 0.398821 0.500000
O O5 0.202726 0.500000 0.782085
O O6 0.148754 0.351317 0.738734
O O7 0.240279 0.323193 0.781436
O O8 0.049777 0.350451 0.279183
O O9 0.000000 0.500000 0.238270
O O10 0.000000 0.370408 0.000000
O O11 0.386957 0.352045 0.500000
O O12 0.378513 0.500000 0.698927
O O13 0.329780 0.350278 0.760503
O O14 0.450457 0.134721 0.500000
O O15 0.500000 0.147181 0.782716
O O16 0.399125 0.142889 0.777602
O O17 0.449716 0.000000 0.729587
O O18 0.650705 0.890683 0.500000
O O19 0.692573 0.822019 0.774925
O O20 0.658347 0.000000 0.772082
O O21 0.899555 0.500000 0.723546
O O22 0.903349 0.607829 0.000000
O O23 0.714911 0.724482 0.500000
#
# Coordination Sequence:
#
# PCOD9388770 Si02
#       8
#     4   8   4   8   8   8   8   8
#     4   9  18  32  48  66  87 111 141 176 213 253
#     4   9  16  25  36  51  76 108 136 165 200 233
#     4   7  10  18  33  49  69  99 128 159 198 230
#     4   9  17  30  47  65  86 112 140 171 210 255
#     4   7   9  14  25  41  62  86 108 136 180 226
#     4   8  13  21  34  53  76 101 130 164 200 242
#     4   8  13  22  35  52  73  98 132 167 195 227
#     4   9  16  26  39  55  79 110 139 167 204 247
#
# _framework density 18.098372999999999
#
# number of rings (size 3 to 8) (size 9 to 14) (size 15 to 20)
#    0.000    3.714    0.000    2.571    0.000    2.000 
#    1.286    2.500    0.000    4.714    0.000    0.500 
#    0.000    0.571    0.000    0.643    0.000   14.929 
#
# Total GULP energy -311782.594974 kJ/mol
# GULP energy per Si atom -5567.546339 kJ/mol
# Density = 1.805718 g / cm^3
# Si number density = 18.098373 Si / 1000 Ang^3
#
#
#
# Elastic Constant Matrix: (Units=GPa)
#
#
# Indices 1 2 3 4 5 6 
#
# 1 214.1994 55.0417 23.8812 0.0000 0.0000 0.0000
# 2 55.0417 63.4832 8.5103 0.0000 0.0000 0.0000
# 3 23.8812 8.5103 46.8819 0.0000 0.0000 0.0000
# 4 0.0000 0.0000 0.0000 -181.7165 0.0000 0.0000
# 5 0.0000 0.0000 0.0000 0.0000 10.3138 0.0000
# 6 0.0000 0.0000 0.0000 0.0000 0.0000 -79.5641
#
#
#
# Elastic Compliance Matrix: (Units=1/GPa)
#
#
# Indices 1 2 3 4 5 6 
#
# 1 0.006230 -0.005100 -0.002248 0.000000 0.000000 0.000000
# 2 -0.005100 0.020320 -0.001091 0.000000 0.000000 0.000000
# 3 -0.002248 -0.001091 0.022673 0.000000 0.000000 0.000000
# 4 0.000000 0.000000 0.000000 -0.005503 0.000000 0.000000
# 5 0.000000 0.000000 0.000000 0.000000 0.096958 0.000000
# 6 0.000000 0.000000 0.000000 0.000000 0.000000 -0.012568
#
#
# Mechanical properties :
#
#
# Convention : Reuss Voigt Hill
#
# Bulk Modulus (GPa) = 30.91534 55.49231 43.20382
# Shear Modulus (GPa) = 32.09907 -34.38461 -1.14277
#
# Velocity S-wave (km/s) = 4.21597 -4.36348 -0.79548
# Velocity P-wave (km/s) = 6.38890 2.31115 4.80414
#
# Compressibility (1/GPa) = 0.03234640
#
# Stress axis : x y z
#
# Youngs Moduli (GPa) = 160.52289 49.21197 44.10518
#
# Poissons Ratio (x) = 0.25098 0.09913
# Poissons Ratio (y) = 0.81866 0.04811
# Poissons Ratio (z) = 0.36078 0.05368
#
# Static dielectric constant tensor:
#      x y z
#    x 1.664030 0.000000 0.000000 
#    y 0.000000 1.619530 0.000000 
#    z 0.000000 0.000000 1.684140 
# 
# From -- ./inp_files/14233.got.cif
#   From: 2010.05.17/outbox.cif.g08.bks.cpg/sg47_8_cif.got.tgz:14233.got - 2010.06.03 20:15:42.
