data_PCOD9388806
_publ_section_title
;
Structure prediction by ZEFSAII (Michael W. Deem and Ramdas Pophale) SiO2 
 PCOD9388806
Probable space group: P M M M
;
_chemical_formula_sum "Si O2"
_cell_formula_units_Z 36
_cell_length_a 7.469781
_cell_length_b 24.011306
_cell_length_c 10.228226
_cell_angle_alpha 90.000000
_cell_angle_beta 90.000000
_cell_angle_gamma 90.000000
_cell_volume 1834.526406
_symmetry_space_group_name_H-M "P M M M"
_symmetry_group_IT_number 47
_symmetry_cell_setting 'orthorhombic'
loop_
_space_group_symop_operation_xyz
x,y,z
-x,-y,z
x,-y,-z
-x,y,-z
-x,-y,-z
x,y,-z
-x,y,z
x,-y,z
loop_
_atom_site_type_symbol
_atom_site_label
_atom_site_fract_x
_atom_site_fract_y
_atom_site_fract_z
Si Si1 0.714079 0.379422 0.147912
Si Si2 0.214615 0.282553 0.352592
Si Si3 0.781564 0.157117 0.650167
Si Si4 0.706042 0.500000 0.159195
Si Si5 0.218374 0.063046 0.850066
O O1 0.500000 0.386353 0.138017
O O2 0.744329 0.329596 0.247597
O O3 0.785622 0.439860 0.194725
O O4 0.780054 0.367822 0.000000
O O5 0.279675 0.295447 0.500000
O O6 0.276517 0.220135 0.316451
O O7 0.000000 0.279437 0.359641
O O8 0.729600 0.145878 0.500000
O O9 0.719524 0.110150 0.750306
O O10 0.000000 0.156579 0.653292
O O11 0.500000 0.500000 0.206252
O O12 0.704003 0.500000 0.000000
O O13 0.000000 0.063517 0.848462
O O14 0.273115 0.000000 0.815070
O O15 0.272309 0.073946 0.000000
#
# Coordination Sequence:
#
# PCOD9388806 Si02
#       5
#     8   8   8   4   8
#     4   9  17  30  49  70  88 109 142 181 218 258
#     4   9  18  31  44  61  89 121 149 178 214 256
#     4   8  14  24  36  50  72 105 141 172 203 243
#     4   7  12  26  46  65  86 110 136 173 218 257
#     4   8  13  20  30  47  72 100 131 169 210 248
#
# _framework density 19.623593
#
# number of rings (size 3 to 8) (size 9 to 14) (size 15 to 20)
#    0.000    3.667    0.000    3.333    0.000    2.222 
#    0.000    5.556    0.000    5.333    0.000    0.000 
#    0.000    0.889    0.000    9.778    0.000   16.000 
#
# Total GULP energy -200529.072309 kJ/mol
# GULP energy per Si atom -5570.252009 kJ/mol
# Density = 1.957893 g / cm^3
# Si number density = 19.623593 Si / 1000 Ang^3
#
#
#
# Elastic Constant Matrix: (Units=GPa)
#
#
# Indices 1 2 3 4 5 6 
#
# 1 54.5692 7.1957 4.2976 0.0000 0.0000 0.0000
# 2 7.1957 231.8915 150.5071 0.0000 0.0000 0.0000
# 3 4.2976 150.5071 126.8342 0.0000 0.0000 0.0000
# 4 0.0000 0.0000 0.0000 8017.3543 0.0000 0.0000
# 5 0.0000 0.0000 0.0000 0.0000 10.1777 0.0000
# 6 0.0000 0.0000 0.0000 0.0000 0.0000 16.8498
#
#
#
# Elastic Compliance Matrix: (Units=1/GPa)
#
#
# Indices 1 2 3 4 5 6 
#
# 1 0.018402 -0.000724 0.000235 0.000000 0.000000 0.000000
# 2 -0.000724 0.018793 -0.022276 0.000000 0.000000 0.000000
# 3 0.000235 -0.022276 0.034310 0.000000 0.000000 0.000000
# 4 0.000000 0.000000 0.000000 0.000125 0.000000 0.000000
# 5 0.000000 0.000000 0.000000 0.000000 0.098254 0.000000
# 6 0.000000 0.000000 0.000000 0.000000 0.000000 0.059348
#
#
# Mechanical properties :
#
#
# Convention : Reuss Voigt Hill
#
# Bulk Modulus (GPa) = 38.49661 81.92175 60.20918
# Shear Modulus (GPa) = 17.64179 1625.62933 821.63556
#
# Velocity S-wave (km/s) = 3.00160 28.81326 20.48431
# Velocity P-wave (km/s) = 5.62787 33.89359 24.29453
#
# Compressibility (1/GPa) = 0.02597631
#
# Stress axis : x y z
#
# Youngs Moduli (GPa) = 54.34117 53.21234 29.14635
#
# Poissons Ratio (x) = 0.03851 -0.00686
# Poissons Ratio (y) = 0.03933 0.64925
# Poissons Ratio (z) = -0.01279 1.18534
#
# Static dielectric constant tensor:
#      x y z
#    x 1.782350 0.000000 0.000000 
#    y 0.000000 1.702070 0.000000 
#    z 0.000000 0.000000 1.659170 
# 
# From -- ./inp_files/3909.got.cif
#   From: 2010.05.17/outbox.cif.g08.bks.cpg/sg47_2_cif.got.tgz:3909.got - 2010.06.03 20:15:42.
