data_PCOD9388287
_publ_section_title
;
Structure prediction by ZEFSAII (Michael W. Deem and Ramdas Pophale) SiO2 
 PCOD9388287
Probable space group: P M M M
;
_chemical_formula_sum "Si O2"
_cell_formula_units_Z 36
_cell_length_a 11.978856
_cell_length_b 7.600825
_cell_length_c 24.663717
_cell_angle_alpha 90.000000
_cell_angle_beta 90.000000
_cell_angle_gamma 90.000000
_cell_volume 2245.611410
_symmetry_space_group_name_H-M "P M M M"
_symmetry_group_IT_number 47
_symmetry_cell_setting 'orthorhombic'
loop_
_space_group_symop_operation_xyz
x,y,z
-x,-y,z
x,-y,-z
-x,y,-z
-x,-y,-z
x,y,-z
-x,y,z
x,-y,z
loop_
_atom_site_type_symbol
_atom_site_label
_atom_site_fract_x
_atom_site_fract_y
_atom_site_fract_z
Si Si1 0.135891 0.798471 0.355284
Si Si2 0.000000 0.287705 0.063506
Si Si3 0.136198 0.500000 0.562168
Si Si4 0.871735 0.785648 0.234759
Si Si5 0.229565 0.203603 0.122895
Si Si6 0.633298 0.500000 0.936622
O O1 0.171249 0.670096 0.403231
O O2 0.167120 0.733923 0.294900
O O3 0.000000 0.800154 0.354579
O O4 0.172535 0.000000 0.362886
O O5 0.889442 0.216895 0.092398
O O6 0.000000 0.500000 0.068142
O O7 0.000000 0.242266 0.000000
O O8 0.173780 0.500000 0.500000
O O9 0.000000 0.500000 0.561346
O O10 0.795585 0.734493 0.184351
O O11 0.000000 0.725697 0.226372
O O12 0.875321 0.000000 0.234995
O O13 0.314471 0.330143 0.092363
O O14 0.265374 0.000000 0.123378
O O15 0.500000 0.500000 0.933251
O O16 0.666646 0.500000 0.000000
#
# Coordination Sequence:
#
# PCOD9388287 Si02
#       6
#     8   4   4   8   8   4
#     4   8  14  24  36  51  77 111 140 175 223 267
#     4  11  21  33  49  76 109 129 144 178 237 303
#     4   9  16  23  30  46  70 103 156 202 219 239
#     4   8  14  26  44  69  96 115 139 178 230 292
#     4  11  21  35  56  78  98 123 154 194 244 294
#     4  11  26  44  55  67  91 125 169 209 234 274
#
# _framework density 16.031269000000002
#
# number of rings (size 3 to 8) (size 9 to 14) (size 15 to 20)
#    0.000    2.556    2.222    2.333    0.000    4.000 
#    0.000    4.444    0.000    0.000    0.000    0.000 
#    0.000    0.000    0.000    0.000    0.000    8.889 
#
# Total GULP energy -200731.075034 kJ/mol
# GULP energy per Si atom -5575.863195 kJ/mol
# Density = 1.599478 g / cm^3
# Si number density = 16.031269 Si / 1000 Ang^3
#
#
#
# Elastic Constant Matrix: (Units=GPa)
#
#
# Indices 1 2 3 4 5 6 
#
# 1 31.2658 21.6186 30.5945 0.0000 0.0000 0.0000
# 2 21.6186 91.2592 67.9533 0.0000 0.0000 0.0000
# 3 30.5945 67.9533 173.5449 0.0000 0.0000 0.0000
# 4 0.0000 0.0000 0.0000 24.9027 0.0000 0.0000
# 5 0.0000 0.0000 0.0000 0.0000 -0.3944 0.0000
# 6 0.0000 0.0000 0.0000 0.0000 0.0000 -5.3097
#
#
#
# Elastic Compliance Matrix: (Units=1/GPa)
#
#
# Indices 1 2 3 4 5 6 
#
# 1 0.040925 -0.006102 -0.004826 0.000000 0.000000 0.000000
# 2 -0.006102 0.016377 -0.005337 0.000000 0.000000 0.000000
# 3 -0.004826 -0.005337 0.008703 0.000000 0.000000 0.000000
# 4 0.000000 0.000000 0.000000 0.040156 0.000000 0.000000
# 5 0.000000 0.000000 0.000000 0.000000 -2.535518 0.000000
# 6 0.000000 0.000000 0.000000 0.000000 0.000000 -0.188334
#
#
# Mechanical properties :
#
#
# Convention : Reuss Voigt Hill
#
# Bulk Modulus (GPa) = 29.87184 59.60030 44.73607
# Shear Modulus (GPa) = -1.94250 15.56662 6.81206
#
# Velocity S-wave (km/s) = -1.10196 3.11949 2.06360
# Velocity P-wave (km/s) = 4.12975 7.08754 5.80035
#
# Compressibility (1/GPa) = 0.03347634
#
# Stress axis : x y z
#
# Youngs Moduli (GPa) = 24.43515 61.06028 114.90727
#
# Poissons Ratio (x) = 0.37256 0.55449
# Poissons Ratio (y) = 0.14909 0.61326
# Poissons Ratio (z) = 0.11791 0.32588
#
# Static dielectric constant tensor:
#      x y z
#    x 1.487340 0.000000 0.000000 
#    y 0.000000 1.585220 0.000000 
#    z 0.000000 0.000000 1.558580 
# 
# From -- ./inp_files/32283.got.cif
#   From: 2010.05.17/outbox.cif.g08.bks.cpg/sg47_17_cif.got.tgz:32283.got - 2010.06.03 20:15:42.
