data_PCOD9388671
_publ_section_title
;
Structure prediction by ZEFSAII (Michael W. Deem and Ramdas Pophale) SiO2 
 PCOD9388671
Probable space group: P M M M
;
_chemical_formula_sum "Si O2"
_cell_formula_units_Z 33
_cell_length_a 11.877904
_cell_length_b 9.353799
_cell_length_c 15.188812
_cell_angle_alpha 90.000000
_cell_angle_beta 90.000000
_cell_angle_gamma 90.000000
_cell_volume 1687.530577
_symmetry_space_group_name_H-M "P M M M"
_symmetry_group_IT_number 47
_symmetry_cell_setting 'orthorhombic'
loop_
_space_group_symop_operation_xyz
x,y,z
-x,-y,z
x,-y,-z
-x,y,-z
-x,-y,-z
x,y,-z
-x,y,z
x,-y,z
loop_
_atom_site_type_symbol
_atom_site_label
_atom_site_fract_x
_atom_site_fract_y
_atom_site_fract_z
Si Si1 0.755848 0.661817 0.103703
Si Si2 0.000000 0.832764 0.645495
Si Si3 0.000000 0.000000 0.000000
Si Si4 0.000000 0.244707 0.849605
Si Si5 0.771994 0.668309 0.601163
Si Si6 0.365447 0.166279 0.747707
O O1 0.713410 0.500000 0.116241
O O2 0.885043 0.669059 0.135472
O O3 0.686048 0.771799 0.162291
O O4 0.751758 0.696197 0.000000
O O5 0.889747 0.751354 0.611225
O O6 0.000000 0.817833 0.751411
O O7 0.000000 0.000000 0.621340
O O8 0.000000 0.876998 0.076951
O O9 0.733524 0.680442 0.500000
O O10 0.787124 0.500000 0.621532
O O11 0.686472 0.740781 0.668968
O O12 0.500000 0.176023 0.748813
O O13 0.332750 0.000000 0.737146
#
# Coordination Sequence:
#
# PCOD9388671 Si02
#       6
#     8   4   1   4   8   8
#     4  11  24  41  65  95 131 170 212 263 319 382
#     4  12  24  38  64 101 135 170 209 254 317 386
#     4  12  24  36  58 104 140 176 210 264 304 394
#     4  12  23  36  62  97 133 170 208 254 316 376
#     4  11  25  44  68  97 130 168 210 263 326 388
#     4  11  26  45  66  93 126 168 219 270 322 380
#
# _framework density 19.555201
#
# number of rings (size 3 to 8) (size 9 to 14) (size 15 to 20)
#    0.000    0.727    4.242    2.545    1.697    8.727 
#    0.000    4.848    0.000    0.000    0.000    0.000 
#    0.000    0.000    0.000    0.000    0.000    0.000 
#
# Total GULP energy -184334.752847 kJ/mol
# GULP energy per Si atom -5585.901601 kJ/mol
# Density = 1.951069 g / cm^3
# Si number density = 19.555201 Si / 1000 Ang^3
#
#
#
# Elastic Constant Matrix: (Units=GPa)
#
#
# Indices 1 2 3 4 5 6 
#
# 1 77.4839 56.7317 34.6351 0.0000 0.0000 0.0000
# 2 56.7317 167.8153 66.8359 0.0000 0.0000 0.0000
# 3 34.6351 66.8359 107.7832 0.0000 0.0000 0.0000
# 4 0.0000 0.0000 0.0000 24.8726 0.0000 0.0000
# 5 0.0000 0.0000 0.0000 0.0000 73.7190 0.0000
# 6 0.0000 0.0000 0.0000 0.0000 0.0000 4.0218
#
#
#
# Elastic Compliance Matrix: (Units=1/GPa)
#
#
# Indices 1 2 3 4 5 6 
#
# 1 0.017693 -0.004936 -0.002625 0.000000 0.000000 0.000000
# 2 -0.004936 0.009290 -0.004175 0.000000 0.000000 0.000000
# 3 -0.002625 -0.004175 0.012710 0.000000 0.000000 0.000000
# 4 0.000000 0.000000 0.000000 0.040205 0.000000 0.000000
# 5 0.000000 0.000000 0.000000 0.000000 0.013565 0.000000
# 6 0.000000 0.000000 0.000000 0.000000 0.000000 0.248645
#
#
# Mechanical properties :
#
#
# Convention : Reuss Voigt Hill
#
# Bulk Modulus (GPa) = 61.64256 74.38754 68.01505
# Shear Modulus (GPa) = 13.47756 33.51466 23.49611
#
# Velocity S-wave (km/s) = 2.62812 4.14436 3.47007
# Velocity P-wave (km/s) = 6.38750 7.81174 7.13524
#
# Compressibility (1/GPa) = 0.01622256
#
# Stress axis : x y z
#
# Youngs Moduli (GPa) = 56.51897 107.63948 78.67789
#
# Poissons Ratio (x) = 0.53131 0.20651
# Poissons Ratio (y) = 0.27898 0.32846
# Poissons Ratio (z) = 0.14835 0.44936
#
# Static dielectric constant tensor:
#      x y z
#    x 1.660980 0.000000 0.000000 
#    y 0.000000 1.670790 0.000000 
#    z 0.000000 0.000000 1.667950 
# 
# From -- ./inp_files/3455.got.cif
#   From: 2010.05.17/outbox.cif.g08.bks.cpg/sg47_2_cif.got.tgz:3455.got - 2010.06.03 20:15:42.
