data_PCOD9388196
_publ_section_title
;
Structure prediction by ZEFSAII (Michael W. Deem and Ramdas Pophale) SiO2 
 PCOD9388196
Probable space group: P M M M
;
_chemical_formula_sum "Si O2"
_cell_formula_units_Z 36
_cell_length_a 18.749808
_cell_length_b 11.361894
_cell_length_c 11.576797
_cell_angle_alpha 90.000000
_cell_angle_beta 90.000000
_cell_angle_gamma 90.000000
_cell_volume 2466.243627
_symmetry_space_group_name_H-M "P M M M"
_symmetry_group_IT_number 47
_symmetry_cell_setting 'orthorhombic'
loop_
_space_group_symop_operation_xyz
x,y,z
-x,-y,z
x,-y,-z
-x,y,-z
-x,-y,-z
x,y,-z
-x,y,z
x,-y,z
loop_
_atom_site_type_symbol
_atom_site_label
_atom_site_fract_x
_atom_site_fract_y
_atom_site_fract_z
Si Si1 0.132195 0.750064 0.233614
Si Si2 0.000000 0.636096 0.637796
Si Si3 0.913814 0.000000 0.138948
Si Si4 0.423431 0.358043 0.637207
Si Si5 0.265174 0.641076 0.639580
Si Si6 0.918133 0.639491 0.000000
O O1 0.069072 0.702155 0.314976
O O2 0.118723 0.885157 0.200024
O O3 0.205604 0.715573 0.295085
O O4 0.121958 0.681892 0.113335
O O5 0.000000 0.500000 0.679566
O O6 0.000000 0.634663 0.500000
O O7 0.000000 0.000000 0.152334
O O8 0.899790 0.000000 0.000000
O O9 0.424010 0.332881 0.500000
O O10 0.500000 0.314981 0.685255
O O11 0.423698 0.500000 0.647737
O O12 0.345108 0.321672 0.678792
O O13 0.259954 0.655351 0.500000
O O14 0.255744 0.500000 0.661190
O O15 0.922873 0.500000 0.000000
O O16 0.000000 0.688163 0.000000
#
# Coordination Sequence:
#
# PCOD9388196 Si02
#       6
#     8   4   4   8   8   4
#     4  12  21  34  50  69  90 122 163 196 241 280
#     4  11  22  34  49  70  98 126 148 181 236 297
#     4  11  22  40  54  64  83 120 163 215 252 273
#     4   7  10  19  38  65  97 131 159 179 212 272
#     4   9  17  29  46  72 106 133 152 186 235 285
#     4  11  20  31  49  71  90 111 152 205 244 281
#
# _framework density 14.597098000000001
#
# number of rings (size 3 to 8) (size 9 to 14) (size 15 to 20)
#    0.000    2.111    3.333    4.667    0.000    1.778 
#    0.000    2.778    0.000    0.000    0.000    1.556 
#    0.000    8.889    0.000    0.000    0.000    0.000 
#
# Total GULP energy -200457.246019 kJ/mol
# GULP energy per Si atom -5568.256834 kJ/mol
# Density = 1.456387 g / cm^3
# Si number density = 14.597098 Si / 1000 Ang^3
#
#
#
# Elastic Constant Matrix: (Units=GPa)
#
#
# Indices 1 2 3 4 5 6 
#
# 1 168.2164 53.1252 45.4146 0.0000 0.0000 0.0000
# 2 53.1252 88.7204 34.2729 0.0000 0.0000 0.0000
# 3 45.4146 34.2729 56.1637 0.0000 0.0000 0.0000
# 4 0.0000 0.0000 0.0000 14.6660 0.0000 0.0000
# 5 0.0000 0.0000 0.0000 0.0000 4.3420 0.0000
# 6 0.0000 0.0000 0.0000 0.0000 0.0000 4.2151
#
#
#
# Elastic Compliance Matrix: (Units=1/GPa)
#
#
# Indices 1 2 3 4 5 6 
#
# 1 0.008199 -0.003073 -0.004755 0.000000 0.000000 0.000000
# 2 -0.003073 0.015900 -0.007218 0.000000 0.000000 0.000000
# 3 -0.004755 -0.007218 0.026054 0.000000 0.000000 0.000000
# 4 0.000000 0.000000 0.000000 0.068185 0.000000 0.000000
# 5 0.000000 0.000000 0.000000 0.000000 0.230308 0.000000
# 6 0.000000 0.000000 0.000000 0.000000 0.000000 0.237242
#
#
# Mechanical properties :
#
#
# Convention : Reuss Voigt Hill
#
# Bulk Modulus (GPa) = 49.84442 64.30290 57.07366
# Shear Modulus (GPa) = 8.03000 16.66381 12.34690
#
# Velocity S-wave (km/s) = 2.34798 3.38240 2.91150
# Velocity P-wave (km/s) = 6.44761 7.70725 7.10539
#
# Compressibility (1/GPa) = 0.02006242
#
# Stress axis : x y z
#
# Youngs Moduli (GPa) = 121.96999 62.89499 38.38142
#
# Poissons Ratio (x) = 0.19325 0.18249
# Poissons Ratio (y) = 0.37477 0.27703
# Poissons Ratio (z) = 0.57991 0.45397
#
# Static dielectric constant tensor:
#      x y z
#    x 1.517160 0.000000 0.000000 
#    y 0.000000 1.478190 0.000000 
#    z 0.000000 0.000000 1.495500 
# 
# From -- ./inp_files/16210.got.cif
#   From: 2010.05.17/outbox.cif.g08.bks.cpg/sg47_9_cif.got.tgz:16210.got - 2010.06.03 20:15:42.
