data_PCOD9388343
_publ_section_title
;
Structure prediction by ZEFSAII (Michael W. Deem and Ramdas Pophale) SiO2 
 PCOD9388343
Probable space group: P M M M
;
_chemical_formula_sum "Si O2"
_cell_formula_units_Z 36
_cell_length_a 19.284697
_cell_length_b 8.714289
_cell_length_c 11.083952
_cell_angle_alpha 90.000000
_cell_angle_beta 90.000000
_cell_angle_gamma 90.000000
_cell_volume 1862.684989
_symmetry_space_group_name_H-M "P M M M"
_symmetry_group_IT_number 47
_symmetry_cell_setting 'orthorhombic'
loop_
_space_group_symop_operation_xyz
x,y,z
-x,-y,z
x,-y,-z
-x,y,-z
-x,-y,-z
x,y,-z
-x,y,z
x,-y,z
loop_
_atom_site_type_symbol
_atom_site_label
_atom_site_fract_x
_atom_site_fract_y
_atom_site_fract_z
Si Si1 0.422721 0.813653 0.000000
Si Si2 0.423953 0.324012 0.356468
Si Si3 0.082254 0.815723 0.635741
Si Si4 0.683671 0.182012 0.205724
Si Si5 0.167602 0.316485 0.861082
O O1 0.376607 0.769750 0.886809
O O2 0.500000 0.751510 0.000000
O O3 0.426688 0.000000 0.000000
O O4 0.428601 0.330293 0.500000
O O5 0.500000 0.262836 0.313263
O O6 0.416763 0.500000 0.312448
O O7 0.355079 0.228982 0.327134
O O8 0.105806 0.764950 0.500000
O O9 0.119953 0.746536 0.752436
O O10 0.000000 0.783603 0.642934
O O11 0.091283 0.000000 0.639615
O O12 0.754568 0.264519 0.172242
O O13 0.695317 0.000000 0.197904
O O14 0.163083 0.500000 0.861013
O O15 0.151757 0.264098 0.000000
#
# Coordination Sequence:
#
# PCOD9388343 Si02
#       5
#     4   8   8   8   8
#     4   9  18  32  51  77 106 137 178 233 291 338
#     4   9  19  36  55  76 107 146 187 235 292 354
#     4   9  20  41  68  96 124 155 196 245 295 353
#     4  11  21  35  56  80 110 147 189 240 292 344
#     4  11  24  40  59  86 124 164 202 245 294 353
#
# _framework density 19.326937999999998
#
# number of rings (size 3 to 8) (size 9 to 14) (size 15 to 20)
#    0.000    2.111    1.111    3.333    0.000    5.333 
#    0.000    4.444    0.000    2.667    0.000    0.000 
#    0.000    0.000    0.000    0.000    0.000    0.000 
#
# Total GULP energy -200600.806551 kJ/mol
# GULP energy per Si atom -5572.244626 kJ/mol
# Density = 1.928295 g / cm^3
# Si number density = 19.326938 Si / 1000 Ang^3
#
#
#
# Elastic Constant Matrix: (Units=GPa)
#
#
# Indices 1 2 3 4 5 6 
#
# 1 102.5626 34.7855 77.9102 0.0000 0.0000 0.0000
# 2 34.7855 32.5804 39.7323 0.0000 0.0000 0.0000
# 3 77.9102 39.7323 139.2645 0.0000 0.0000 0.0000
# 4 0.0000 0.0000 0.0000 27.9950 0.0000 0.0000
# 5 0.0000 0.0000 0.0000 0.0000 13.5931 0.0000
# 6 0.0000 0.0000 0.0000 0.0000 0.0000 23.3162
#
#
#
# Elastic Compliance Matrix: (Units=1/GPa)
#
#
# Indices 1 2 3 4 5 6 
#
# 1 0.019397 -0.011466 -0.007580 0.000000 0.000000 0.000000
# 2 -0.011466 0.053848 -0.008949 0.000000 0.000000 0.000000
# 3 -0.007580 -0.008949 0.013974 0.000000 0.000000 0.000000
# 4 0.000000 0.000000 0.000000 0.035721 0.000000 0.000000
# 5 0.000000 0.000000 0.000000 0.000000 0.073567 0.000000
# 6 0.000000 0.000000 0.000000 0.000000 0.000000 0.042889
#
#
# Mechanical properties :
#
#
# Convention : Reuss Voigt Hill
#
# Bulk Modulus (GPa) = 32.02022 64.36262 48.19142
# Shear Modulus (GPa) = 16.35086 21.11284 18.73185
#
# Velocity S-wave (km/s) = 2.91179 3.30874 3.11659
# Velocity P-wave (km/s) = 5.28283 6.92613 6.15953
#
# Compressibility (1/GPa) = 0.03123026
#
# Stress axis : x y z
#
# Youngs Moduli (GPa) = 51.55373 18.57090 71.55930
#
# Poissons Ratio (x) = 0.21293 0.54245
# Poissons Ratio (y) = 0.59109 0.64035
# Poissons Ratio (z) = 0.39080 0.16618
#
# Static dielectric constant tensor:
#      x y z
#    x 1.652540 0.000000 0.000000 
#    y 0.000000 1.672940 0.000000 
#    z 0.000000 0.000000 1.923290 
# 
# From -- ./inp_files/8669.got.cif
#   From: 2010.05.17/outbox.cif.g08.bks.cpg/sg47_5_cif.got.tgz:8669.got - 2010.06.03 20:15:42.
