data_PCOD9388530
_publ_section_title
;
Structure prediction by ZEFSAII (Michael W. Deem and Ramdas Pophale) SiO2 
 PCOD9388530
Probable space group: P M M M
;
_chemical_formula_sum "Si O2"
_cell_formula_units_Z 45
_cell_length_a 14.558318
_cell_length_b 19.479310
_cell_length_c 9.401229
_cell_angle_alpha 90.000000
_cell_angle_beta 90.000000
_cell_angle_gamma 90.000000
_cell_volume 2666.056828
_symmetry_space_group_name_H-M "P M M M"
_symmetry_group_IT_number 47
_symmetry_cell_setting 'orthorhombic'
loop_
_space_group_symop_operation_xyz
x,y,z
-x,-y,z
x,-y,-z
-x,y,-z
-x,-y,-z
x,y,-z
-x,y,z
x,-y,z
loop_
_atom_site_type_symbol
_atom_site_label
_atom_site_fract_x
_atom_site_fract_y
_atom_site_fract_z
Si Si1 0.110605 0.500000 0.661285
Si Si2 0.102026 0.135873 0.664218
Si Si3 0.500000 0.000000 0.000000
Si Si4 0.608392 0.152626 0.334663
Si Si5 0.891820 0.638393 0.830164
Si Si6 0.239599 0.232698 0.829731
Si Si7 0.867801 0.000000 0.835130
Si Si8 0.343013 0.000000 0.759891
O O1 0.146985 0.500000 0.500000
O O2 0.133077 0.430817 0.746372
O O3 0.000000 0.500000 0.652959
O O4 0.131470 0.127454 0.500000
O O5 0.170032 0.180792 0.755195
O O6 0.000000 0.166581 0.663327
O O7 0.099157 0.064741 0.746481
O O8 0.579422 0.000000 0.122125
O O9 0.618472 0.171826 0.500000
O O10 0.500000 0.152024 0.297716
O O11 0.664160 0.207588 0.239100
O O12 0.644610 0.073714 0.318708
O O13 0.812382 0.694829 0.801443
O O14 0.000000 0.657530 0.794619
O O15 0.891849 0.626275 0.000000
O O16 0.244527 0.224257 0.000000
O O17 0.757659 0.000000 0.826579
O O18 0.895413 0.000000 0.000000
#
# Coordination Sequence:
#
# PCOD9388530 Si02
#       8
#     4   8   1   8   8   8   4   4
#     4   9  17  29  51  83 114 145 182 221 257 300
#     4  11  24  39  54  73 102 141 179 220 270 322
#     4  12  24  36  58  88 106 124 174 238 296 344
#     4  11  24  40  58  79 105 139 178 226 284 341
#     4   9  18  34  54  79 113 151 184 216 257 308
#     4  11  23  36  56  81 109 142 182 223 269 319
#     4  12  24  36  54  77  99 130 177 224 275 322
#     4  12  23  36  58  79 103 132 172 228 288 336
#
# _framework density 16.87886
#
# number of rings (size 3 to 8) (size 9 to 14) (size 15 to 20)
#    0.000    1.333    3.111    2.667    1.244    7.467 
#    0.000    1.778    0.000    0.000    0.000    0.622 
#    0.000    4.978    0.000    0.000    0.000    0.000 
#
# Total GULP energy -250549.251945 kJ/mol
# GULP energy per Si atom -5567.761154 kJ/mol
# Density = 1.684044 g / cm^3
# Si number density = 16.878860 Si / 1000 Ang^3
#
#
#
# Elastic Constant Matrix: (Units=GPa)
#
#
# Indices 1 2 3 4 5 6 
#
# 1 111.9517 43.4372 44.5256 0.0000 0.0000 0.0000
# 2 43.4372 114.0766 76.5219 0.0000 0.0000 0.0000
# 3 44.5256 76.5219 79.5060 0.0000 0.0000 0.0000
# 4 0.0000 0.0000 0.0000 10.8160 0.0000 0.0000
# 5 0.0000 0.0000 0.0000 0.0000 30.7816 0.0000
# 6 0.0000 0.0000 0.0000 0.0000 0.0000 20.5582
#
#
#
# Elastic Compliance Matrix: (Units=1/GPa)
#
#
# Indices 1 2 3 4 5 6 
#
# 1 0.011493 -0.000166 -0.006277 0.000000 0.000000 0.000000
# 2 -0.000166 0.024738 -0.023717 0.000000 0.000000 0.000000
# 3 -0.006277 -0.023717 0.038920 0.000000 0.000000 0.000000
# 4 0.000000 0.000000 0.000000 0.092456 0.000000 0.000000
# 5 0.000000 0.000000 0.000000 0.000000 0.032487 0.000000
# 6 0.000000 0.000000 0.000000 0.000000 0.000000 0.048642
#
#
# Mechanical properties :
#
#
# Convention : Reuss Voigt Hill
#
# Bulk Modulus (GPa) = 67.42251 70.50044 68.96148
# Shear Modulus (GPa) = 15.92356 21.83448 18.87902
#
# Velocity S-wave (km/s) = 3.07482 3.60057 3.34803
# Velocity P-wave (km/s) = 7.25518 7.69055 7.47604
#
# Compressibility (1/GPa) = 0.01483184
#
# Stress axis : x y z
#
# Youngs Moduli (GPa) = 87.00772 40.42294 25.69376
#
# Poissons Ratio (x) = 0.00670 0.16128
# Poissons Ratio (y) = 0.01442 0.60938
# Poissons Ratio (z) = 0.54615 0.95872
#
# Static dielectric constant tensor:
#      x y z
#    x 1.595310 0.000000 0.000000 
#    y 0.000000 1.548390 0.000000 
#    z 0.000000 0.000000 1.564390 
# 
# From -- ./inp_files/6308.got.cif
#   From: 2010.05.17/outbox.cif.g08.bks.cpg/sg47_4_cif.got.tgz:6308.got - 2010.06.03 20:15:42.
