data_PCOD9388557
_publ_section_title
;
Structure prediction by ZEFSAII (Michael W. Deem and Ramdas Pophale) SiO2 
 PCOD9388557
Probable space group: P M M M
;
_chemical_formula_sum "Si O2"
_cell_formula_units_Z 48
_cell_length_a 9.114725
_cell_length_b 13.848666
_cell_length_c 19.071176
_cell_angle_alpha 90.000000
_cell_angle_beta 90.000000
_cell_angle_gamma 90.000000
_cell_volume 2407.293179
_symmetry_space_group_name_H-M "P M M M"
_symmetry_group_IT_number 47
_symmetry_cell_setting 'orthorhombic'
loop_
_space_group_symop_operation_xyz
x,y,z
-x,-y,z
x,-y,-z
-x,y,-z
-x,-y,-z
x,y,-z
-x,y,z
x,-y,z
loop_
_atom_site_type_symbol
_atom_site_label
_atom_site_fract_x
_atom_site_fract_y
_atom_site_fract_z
Si Si1 0.667472 0.882376 0.641736
Si Si2 0.825701 0.702600 0.863652
Si Si3 0.831374 0.118461 0.500000
Si Si4 0.670910 0.383270 0.728850
Si Si5 0.677382 0.384788 0.575372
Si Si6 0.324897 0.385696 0.000000
Si Si7 0.825361 0.889257 0.214021
O O1 0.500000 0.848911 0.639468
O O2 0.750453 0.851558 0.571369
O O3 0.743096 0.857743 0.715191
O O4 0.666780 0.000000 0.640176
O O5 0.767929 0.650953 0.793360
O O6 0.794910 0.815481 0.848517
O O7 0.000000 0.689071 0.871323
O O8 0.743609 0.661717 0.930875
O O9 0.000000 0.149074 0.500000
O O10 0.830099 0.000000 0.500000
O O11 0.500000 0.353939 0.738767
O O12 0.671524 0.500000 0.727371
O O13 0.725152 0.348749 0.651911
O O14 0.732400 0.346937 0.500000
O O15 0.500000 0.375366 0.575439
O O16 0.707534 0.500000 0.574970
O O17 0.292338 0.500000 0.000000
O O18 0.500000 0.373962 0.000000
O O19 0.000000 0.885923 0.228108
O O20 0.785375 0.000000 0.198384
#
# Coordination Sequence:
#
# PCOD9388557 Si02
#       7
#     8   8   4   8   8   4   8
#     4   9  16  26  44  72 103 136 182 242 297 340
#     4  11  23  38  60  88 116 147 186 231 283 337
#     4   9  15  23  39  65  99 141 186 233 292 357
#     4   9  17  30  51  80 113 149 187 228 278 337
#     4   7  10  19  39  68 100 136 181 227 266 312
#     4  11  25  45  68  93 122 154 183 215 266 335
#     4   9  19  37  58  79 107 147 194 237 282 342
#
# _framework density 19.939409000000001
#
# number of rings (size 3 to 8) (size 9 to 14) (size 15 to 20)
#    0.000    2.833    0.000    3.500    0.000    7.333 
#    0.000    0.417    1.833    3.000    0.000    2.333 
#    0.000    0.000    0.000    0.000    0.000    0.000 
#
# Total GULP energy -268000.156478 kJ/mol
# GULP energy per Si atom -5583.336593 kJ/mol
# Density = 1.989403 g / cm^3
# Si number density = 19.939409 Si / 1000 Ang^3
#
#
#
# Elastic Constant Matrix: (Units=GPa)
#
#
# Indices 1 2 3 4 5 6 
#
# 1 76.0397 51.2422 79.3029 0.0000 0.0000 0.0000
# 2 51.2422 95.5852 74.5527 0.0000 0.0000 0.0000
# 3 79.3029 74.5527 201.2378 0.0000 0.0000 0.0000
# 4 0.0000 0.0000 0.0000 36.7414 0.0000 0.0000
# 5 0.0000 0.0000 0.0000 0.0000 18.5856 0.0000
# 6 0.0000 0.0000 0.0000 0.0000 0.0000 9.8050
#
#
#
# Elastic Compliance Matrix: (Units=1/GPa)
#
#
# Indices 1 2 3 4 5 6 
#
# 1 0.026486 -0.008520 -0.007281 0.000000 0.000000 0.000000
# 2 -0.008520 0.017454 -0.003109 0.000000 0.000000 0.000000
# 3 -0.007281 -0.003109 0.008990 0.000000 0.000000 0.000000
# 4 0.000000 0.000000 0.000000 0.027217 0.000000 0.000000
# 5 0.000000 0.000000 0.000000 0.000000 0.053805 0.000000
# 6 0.000000 0.000000 0.000000 0.000000 0.000000 0.101989
#
#
# Mechanical properties :
#
#
# Convention : Reuss Voigt Hill
#
# Bulk Modulus (GPa) = 66.17776 87.00646 76.59211
# Shear Modulus (GPa) = 17.93413 24.21073 21.07243
#
# Velocity S-wave (km/s) = 3.00231 3.48834 3.25441
# Velocity P-wave (km/s) = 6.72904 7.74305 7.25378
#
# Compressibility (1/GPa) = 0.01511082
#
# Stress axis : x y z
#
# Youngs Moduli (GPa) = 37.75566 57.29368 111.23165
#
# Poissons Ratio (x) = 0.48814 0.80990
# Poissons Ratio (y) = 0.32167 0.34578
# Poissons Ratio (z) = 0.27490 0.17811
#
# Static dielectric constant tensor:
#      x y z
#    x 1.661860 0.000000 0.000000 
#    y 0.000000 1.778390 0.000000 
#    z 0.000000 0.000000 1.673030 
# 
# From -- ./inp_files/26555.got.cif
#   From: 2010.05.17/outbox.cif.g08.bks.cpg/sg47_14_cif.got.tgz:26555.got - 2010.06.03 20:15:42.
