data_PCOD9388478
_publ_section_title
;
Structure prediction by ZEFSAII (Michael W. Deem and Ramdas Pophale) SiO2 
 PCOD9388478
Probable space group: P M M M
;
_chemical_formula_sum "Si O2"
_cell_formula_units_Z 37
_cell_length_a 14.806815
_cell_length_b 7.638855
_cell_length_c 15.551558
_cell_angle_alpha 90.000000
_cell_angle_beta 90.000000
_cell_angle_gamma 90.000000
_cell_volume 1758.991825
_symmetry_space_group_name_H-M "P M M M"
_symmetry_group_IT_number 47
_symmetry_cell_setting 'orthorhombic'
loop_
_space_group_symop_operation_xyz
x,y,z
-x,-y,z
x,-y,-z
-x,y,-z
-x,-y,-z
x,y,-z
-x,y,z
x,-y,z
loop_
_atom_site_type_symbol
_atom_site_label
_atom_site_fract_x
_atom_site_fract_y
_atom_site_fract_z
Si Si1 0.194917 0.701266 0.638479
Si Si2 0.342188 0.802969 0.500000
Si Si3 0.105248 0.786217 0.000000
Si Si4 0.211546 0.199058 0.168848
Si Si5 0.000000 0.698770 0.601822
Si Si6 0.598438 0.290585 0.102365
Si Si7 0.500000 0.500000 0.500000
O O1 0.190042 0.500000 0.608062
O O2 0.275499 0.783052 0.582928
O O3 0.208165 0.705288 0.740530
O O4 0.095614 0.782672 0.624975
O O5 0.419399 0.654698 0.500000
O O6 0.379573 0.000000 0.500000
O O7 0.155522 0.727257 0.087361
O O8 0.000000 0.738082 0.000000
O O9 0.111484 0.000000 0.000000
O O10 0.315800 0.199735 0.141763
O O11 0.179845 0.000000 0.182867
O O12 0.000000 0.500000 0.640472
O O13 0.000000 0.684141 0.500000
O O14 0.500000 0.234271 0.135038
O O15 0.606167 0.500000 0.116297
O O16 0.600053 0.262172 0.000000
#
# Coordination Sequence:
#
# PCOD9388478 Si02
#       7
#     8   4   4   8   4   8   1
#     4  11  22  42  67  98 137 178 219 278 349 406
#     4  12  25  48  76 107 140 181 237 279 336 420
#     4   9  20  38  56  79 124 176 219 275 344 411
#     4  11  22  37  59  89 124 168 219 273 332 399
#     4   9  18  36  68  97 128 169 213 269 341 409
#     4   9  18  35  58  82 110 150 199 256 323 387
#     4  12  26  52  80 104 144 194 218 284 356 392
#
# _framework density 21.034776999999998
#
# number of rings (size 3 to 8) (size 9 to 14) (size 15 to 20)
#    0.000    1.730    3.243    2.108    1.514    0.432 
#    1.946    3.243    0.000    2.595    0.000    0.000 
#    0.000    0.000    0.000    0.000    0.000    0.000 
#
# Total GULP energy -206222.599231 kJ/mol
# GULP energy per Si atom -5573.583763 kJ/mol
# Density = 2.098690 g / cm^3
# Si number density = 21.034777 Si / 1000 Ang^3
#
#
#
# Elastic Constant Matrix: (Units=GPa)
#
#
# Indices 1 2 3 4 5 6 
#
# 1 175.2760 33.8053 63.2036 0.0000 0.0000 0.0000
# 2 33.8053 86.6600 21.0098 0.0000 0.0000 0.0000
# 3 63.2036 21.0098 120.3528 0.0000 0.0000 0.0000
# 4 0.0000 0.0000 0.0000 101.9074 0.0000 0.0000
# 5 0.0000 0.0000 0.0000 0.0000 18.8008 0.0000
# 6 0.0000 0.0000 0.0000 0.0000 0.0000 9.8412
#
#
#
# Elastic Compliance Matrix: (Units=1/GPa)
#
#
# Indices 1 2 3 4 5 6 
#
# 1 0.007362 -0.002020 -0.003513 0.000000 0.000000 0.000000
# 2 -0.002020 0.012604 -0.001139 0.000000 0.000000 0.000000
# 3 -0.003513 -0.001139 0.010353 0.000000 0.000000 0.000000
# 4 0.000000 0.000000 0.000000 0.009813 0.000000 0.000000
# 5 0.000000 0.000000 0.000000 0.000000 0.053189 0.000000
# 6 0.000000 0.000000 0.000000 0.000000 0.000000 0.101614
#
#
# Mechanical properties :
#
#
# Convention : Reuss Voigt Hill
#
# Bulk Modulus (GPa) = 58.91834 68.70290 63.81062
# Shear Modulus (GPa) = 23.37136 43.72790 33.54963
#
# Velocity S-wave (km/s) = 3.33691 4.56437 3.99803
# Velocity P-wave (km/s) = 6.55113 7.77885 7.19124
#
# Compressibility (1/GPa) = 0.01697264
#
# Stress axis : x y z
#
# Youngs Moduli (GPa) = 135.83621 79.34270 96.59130
#
# Poissons Ratio (x) = 0.16027 0.33937
# Poissons Ratio (y) = 0.27439 0.11005
# Poissons Ratio (z) = 0.47725 0.09040
#
# Static dielectric constant tensor:
#      x y z
#    x 1.759400 0.000000 0.000000 
#    y 0.000000 1.820950 0.000000 
#    z 0.000000 0.000000 1.785390 
# 
# From -- ./inp_files/23325.got.cif
#   From: 2010.05.17/outbox.cif.g08.bks.cpg/sg47_12_cif.got.tgz:23325.got - 2010.06.03 20:15:42.
