data_PCOD9388549
_publ_section_title
;
Structure prediction by ZEFSAII (Michael W. Deem and Ramdas Pophale) SiO2 
 PCOD9388549
Probable space group: P M M M
;
_chemical_formula_sum "Si O2"
_cell_formula_units_Z 64
_cell_length_a 8.973834
_cell_length_b 18.695476
_cell_length_c 21.456137
_cell_angle_alpha 90.000000
_cell_angle_beta 90.000000
_cell_angle_gamma 90.000000
_cell_volume 3599.698211
_symmetry_space_group_name_H-M "P M M M"
_symmetry_group_IT_number 47
_symmetry_cell_setting 'orthorhombic'
loop_
_space_group_symop_operation_xyz
x,y,z
-x,-y,z
x,-y,-z
-x,y,-z
-x,-y,-z
x,y,-z
-x,y,z
x,-y,z
loop_
_atom_site_type_symbol
_atom_site_label
_atom_site_fract_x
_atom_site_fract_y
_atom_site_fract_z
Si Si1 0.823244 0.584700 0.427538
Si Si2 0.178771 0.414210 0.796163
Si Si3 0.820399 0.414412 0.066867
Si Si4 0.179078 0.916936 0.804080
Si Si5 0.677095 0.670971 0.317211
Si Si6 0.675948 0.913430 0.068174
Si Si7 0.321889 0.915451 0.428245
Si Si8 0.178884 0.173019 0.317464
O O1 0.791249 0.600858 0.500000
O O2 0.796919 0.500000 0.417871
O O3 0.729415 0.630693 0.379692
O O4 0.000000 0.597130 0.417093
O O5 0.201663 0.500000 0.791856
O O6 0.230449 0.388800 0.865211
O O7 0.261531 0.373996 0.741244
O O8 0.000000 0.402509 0.791058
O O9 0.793750 0.500000 0.066623
O O10 0.000000 0.405722 0.066816
O O11 0.763769 0.385821 0.000000
O O12 0.242356 0.888491 0.869603
O O13 0.224525 0.870933 0.744430
O O14 0.000000 0.916439 0.807517
O O15 0.226713 0.000000 0.796117
O O16 0.500000 0.675986 0.314942
O O17 0.749770 0.749037 0.316076
O O18 0.500000 0.898305 0.072555
O O19 0.692236 0.000000 0.067614
O O20 0.729974 0.887744 0.000000
O O21 0.283869 0.897403 0.500000
O O22 0.500000 0.905047 0.420870
O O23 0.234770 0.869386 0.378045
O O24 0.291876 0.000000 0.419366
O O25 0.000000 0.178191 0.318083
#
# Coordination Sequence:
#
# PCOD9388549 Si02
#       8
#     8   8   8   8   8   8   8   8
#     4   9  19  38  63  86 106 131 166 208 254 306
#     4   9  17  31  53  78 104 136 173 214 259 307
#     4   7  10  19  40  72 103 127 158 204 254 301
#     4   9  18  32  51  76 102 128 164 213 264 307
#     4  12  25  37  51  74 106 142 177 214 257 307
#     4   8  14  25  43  70 102 133 165 201 245 302
#     4   9  19  37  60  85 112 139 167 203 250 305
#     4  11  23  38  55  75 103 139 179 221 259 300
#
# _framework density 17.779268999999999
#
# number of rings (size 3 to 8) (size 9 to 14) (size 15 to 20)
#    0.000    2.750    0.000    4.500    0.000    5.000 
#    0.000    3.750    0.000    1.125    0.000    3.500 
#    0.000    0.000    0.000    0.000    0.000    0.000 
#
# Total GULP energy -356731.839310 kJ/mol
# GULP energy per Si atom -5573.934989 kJ/mol
# Density = 1.773880 g / cm^3
# Si number density = 17.779269 Si / 1000 Ang^3
#
#
#
# Elastic Constant Matrix: (Units=GPa)
#
#
# Indices 1 2 3 4 5 6 
#
# 1 51.3234 47.3448 74.6925 0.0000 0.0000 0.0000
# 2 47.3448 58.1734 79.1236 0.0000 0.0000 0.0000
# 3 74.6925 79.1236 174.7495 0.0000 0.0000 0.0000
# 4 0.0000 0.0000 0.0000 -9.6043 0.0000 0.0000
# 5 0.0000 0.0000 0.0000 0.0000 -237.6702 0.0000
# 6 0.0000 0.0000 0.0000 0.0000 0.0000 19.0225
#
#
#
# Elastic Compliance Matrix: (Units=1/GPa)
#
#
# Indices 1 2 3 4 5 6 
#
# 1 0.089190 -0.053980 -0.013681 0.000000 0.000000 0.000000
# 2 -0.053980 0.077418 -0.011981 0.000000 0.000000 0.000000
# 3 -0.013681 -0.011981 0.016995 0.000000 0.000000 0.000000
# 4 0.000000 0.000000 0.000000 -0.104120 0.000000 0.000000
# 5 0.000000 0.000000 0.000000 0.000000 -0.004208 0.000000
# 6 0.000000 0.000000 0.000000 0.000000 0.000000 0.052569
#
#
# Mechanical properties :
#
#
# Convention : Reuss Voigt Hill
#
# Bulk Modulus (GPa) = 41.12046 76.28535 58.70291
# Shear Modulus (GPa) = 16.93569 -40.11138 -11.58784
#
# Velocity S-wave (km/s) = 3.08969 -4.75497 -2.55573
# Velocity P-wave (km/s) = 5.99223 3.58521 4.93764
#
# Compressibility (1/GPa) = 0.02431879
#
# Stress axis : x y z
#
# Youngs Moduli (GPa) = 11.21203 12.91693 58.84142
#
# Poissons Ratio (x) = 0.69726 0.80500
# Poissons Ratio (y) = 0.60523 0.70498
# Poissons Ratio (z) = 0.15339 0.15476
#
# Static dielectric constant tensor:
#      x y z
#    x 1.587240 0.000000 0.000000 
#    y 0.000000 1.582110 0.000000 
#    z 0.000000 0.000000 1.631890 
# 
# From -- ./inp_files/29998.got.cif
#   From: 2010.05.17/outbox.cif.g08.bks.cpg/sg47_15_cif.got.tgz:29998.got - 2010.06.03 20:15:42.
