data_PCOD9388174
_publ_section_title
;
Structure prediction by ZEFSAII (Michael W. Deem and Ramdas Pophale) SiO2 
 PCOD9388174
Probable space group: P M M M
;
_chemical_formula_sum "Si O2"
_cell_formula_units_Z 36
_cell_length_a 20.706556
_cell_length_b 13.282781
_cell_length_c 7.978645
_cell_angle_alpha 90.000000
_cell_angle_beta 90.000000
_cell_angle_gamma 90.000000
_cell_volume 2194.451696
_symmetry_space_group_name_H-M "P M M M"
_symmetry_group_IT_number 47
_symmetry_cell_setting 'orthorhombic'
loop_
_space_group_symop_operation_xyz
x,y,z
-x,-y,z
x,-y,-z
-x,y,-z
-x,-y,-z
x,y,-z
-x,y,z
x,-y,z
loop_
_atom_site_type_symbol
_atom_site_label
_atom_site_fract_x
_atom_site_fract_y
_atom_site_fract_z
Si Si1 0.790571 0.384258 0.201927
Si Si2 0.345388 0.303247 0.699530
Si Si3 0.426428 0.500000 0.200268
Si Si4 0.425574 0.886389 0.295285
Si Si5 0.069497 0.621882 0.800616
O O1 0.780730 0.500000 0.261389
O O2 0.727989 0.320409 0.244958
O O3 0.860379 0.345446 0.265653
O O4 0.795109 0.388955 0.000000
O O5 0.345398 0.296903 0.500000
O O6 0.387633 0.400601 0.747270
O O7 0.379072 0.201925 0.766104
O O8 0.500000 0.500000 0.266488
O O9 0.429123 0.500000 0.000000
O O10 0.424506 0.885817 0.500000
O O11 0.500000 0.866659 0.246306
O O12 0.408303 0.000000 0.242412
O O13 0.070667 0.500000 0.786780
O O14 0.000000 0.656153 0.729670
O O15 0.068210 0.644437 0.000000
#
# Coordination Sequence:
#
# PCOD9388174 Si02
#       5
#     8   8   4   8   8
#     4   9  16  26  40  58  86 120 145 169 207 250
#     4  11  20  29  45  67  88 111 141 176 211 254
#     4  11  23  35  45  59  84 117 146 173 209 252
#     4   8  15  29  47  64  81 103 136 180 223 255
#     4   7  10  18  34  55  76 104 146 182 199 227
#
# _framework density 16.405009
#
# number of rings (size 3 to 8) (size 9 to 14) (size 15 to 20)
#    0.000    3.000    1.111    4.333    0.000    1.778 
#    0.000    0.000    0.000    3.333    0.000   10.889 
#    0.000    0.889    0.000   11.111    0.000    0.444 
#
# Total GULP energy -200416.123314 kJ/mol
# GULP energy per Si atom -5567.114536 kJ/mol
# Density = 1.636767 g / cm^3
# Si number density = 16.405009 Si / 1000 Ang^3
#
#
#
# Elastic Constant Matrix: (Units=GPa)
#
#
# Indices 1 2 3 4 5 6 
#
# 1 193.3299 84.4311 11.6116 0.0000 0.0000 0.0000
# 2 84.4311 93.1108 4.6754 0.0000 0.0000 0.0000
# 3 11.6116 4.6754 15.9673 0.0000 0.0000 0.0000
# 4 0.0000 0.0000 0.0000 -38.4829 0.0000 0.0000
# 5 0.0000 0.0000 0.0000 0.0000 -16.9423 0.0000
# 6 0.0000 0.0000 0.0000 0.0000 0.0000 16.2844
#
#
#
# Elastic Compliance Matrix: (Units=1/GPa)
#
#
# Indices 1 2 3 4 5 6 
#
# 1 0.008825 -0.007795 -0.004135 0.000000 0.000000 0.000000
# 2 -0.007795 0.017785 0.000461 0.000000 0.000000 0.000000
# 3 -0.004135 0.000461 0.065500 0.000000 0.000000 0.000000
# 4 0.000000 0.000000 0.000000 -0.025986 0.000000 0.000000
# 5 0.000000 0.000000 0.000000 0.000000 -0.059024 0.000000
# 6 0.000000 0.000000 0.000000 0.000000 0.000000 0.061409
#
#
# Mechanical properties :
#
#
# Convention : Reuss Voigt Hill
#
# Bulk Modulus (GPa) = 14.45678 55.98271 35.21975
# Shear Modulus (GPa) = 43.66637 5.61783 24.64210
#
# Velocity S-wave (km/s) = 5.16483 1.85254 3.87991
# Velocity P-wave (km/s) = 6.66325 6.22698 6.44881
#
# Compressibility (1/GPa) = 0.06917168
#
# Stress axis : x y z
#
# Youngs Moduli (GPa) = 113.31503 56.22781 15.26712
#
# Poissons Ratio (x) = 0.43828 0.06313
# Poissons Ratio (y) = 0.88325 -0.00703
# Poissons Ratio (z) = 0.46859 -0.02591
#
# Static dielectric constant tensor:
#      x y z
#    x 1.611400 0.000000 0.000000 
#    y 0.000000 1.527100 0.000000 
#    z 0.000000 0.000000 1.596810 
# 
# From -- ./inp_files/10565.got.cif
#   From: 2010.05.17/outbox.cif.g08.bks.cpg/sg47_6_cif.got.tgz:10565.got - 2010.06.03 20:15:42.
