data_PCOD9388801
_publ_section_title
;
Structure prediction by ZEFSAII (Michael W. Deem and Ramdas Pophale) SiO2 
 PCOD9388801
Probable space group: P M M M
;
_chemical_formula_sum "Si O2"
_cell_formula_units_Z 52
_cell_length_a 14.264463
_cell_length_b 7.347691
_cell_length_c 24.845214
_cell_angle_alpha 90.000000
_cell_angle_beta 90.000000
_cell_angle_gamma 90.000000
_cell_volume 2604.048405
_symmetry_space_group_name_H-M "P M M M"
_symmetry_group_IT_number 47
_symmetry_cell_setting 'orthorhombic'
loop_
_space_group_symop_operation_xyz
x,y,z
-x,-y,z
x,-y,-z
-x,y,-z
-x,-y,-z
x,y,-z
-x,y,z
x,-y,z
loop_
_atom_site_type_symbol
_atom_site_label
_atom_site_fract_x
_atom_site_fract_y
_atom_site_fract_z
Si Si1 0.603571 0.221414 0.228033
Si Si2 0.391938 0.221716 0.439210
Si Si3 0.895258 0.222202 0.270583
Si Si4 0.500000 0.708856 0.065616
Si Si5 0.703918 0.283163 0.060521
Si Si6 0.288842 0.221206 0.333823
Si Si7 0.212972 0.216986 0.832383
O O1 0.500000 0.284826 0.213944
O O2 0.634336 0.270194 0.288616
O O3 0.687522 0.286325 0.190365
O O4 0.602734 0.000000 0.225718
O O5 0.367743 0.278740 0.500000
O O6 0.500000 0.274725 0.428284
O O7 0.322725 0.283320 0.392151
O O8 0.390909 0.000000 0.438851
O O9 0.812289 0.279875 0.310996
O O10 0.865129 0.279752 0.210020
O O11 0.000000 0.282460 0.283890
O O12 0.895534 0.000000 0.271500
O O13 0.500000 0.500000 0.084811
O O14 0.398452 0.790919 0.079621
O O15 0.500000 0.706900 0.000000
O O16 0.691319 0.500000 0.056690
O O17 0.784289 0.253356 0.104378
O O18 0.723461 0.216377 0.000000
O O19 0.286156 0.000000 0.334951
O O20 0.213413 0.000000 0.826922
#
# Coordination Sequence:
#
# PCOD9388801 Si02
#       7
#     8   8   8   4   8   8   8
#     4   8  13  20  30  47  72  95 114 147 194 234
#     4   8  12  16  23  38  62  93 128 163 194 225
#     4   8  14  25  39  53  69  90 119 157 200 243
#     4   7  12  24  39  53  71 101 135 151 160 201
#     4   9  17  29  43  57  77 106 133 153 179 224
#     4   8  12  18  29  44  62  89 124 156 191 234
#     4   9  17  26  39  60  78  95 124 162 200 232
#
# _framework density 19.968906
#
# number of rings (size 3 to 8) (size 9 to 14) (size 15 to 20)
#    0.000    3.769    0.000    3.692    1.077    2.154 
#    0.000    0.000    0.000    2.769    0.000    6.462 
#    0.000    0.000    0.000    0.000    0.000   12.308 
#
# Total GULP energy -289732.539006 kJ/mol
# GULP energy per Si atom -5571.779596 kJ/mol
# Density = 1.992346 g / cm^3
# Si number density = 19.968906 Si / 1000 Ang^3
#
#
#
# Elastic Constant Matrix: (Units=GPa)
#
#
# Indices 1 2 3 4 5 6 
#
# 1 81.4320 2.5585 41.7318 0.0000 0.0000 0.0000
# 2 2.5585 74.2866 -0.8965 0.0000 0.0000 0.0000
# 3 41.7318 -0.8965 126.2254 0.0000 0.0000 0.0000
# 4 0.0000 0.0000 0.0000 12.3052 0.0000 0.0000
# 5 0.0000 0.0000 0.0000 0.0000 21.1761 0.0000
# 6 0.0000 0.0000 0.0000 0.0000 0.0000 6.4374
#
#
#
# Elastic Compliance Matrix: (Units=1/GPa)
#
#
# Indices 1 2 3 4 5 6 
#
# 1 0.014809 -0.000569 -0.004900 0.000000 0.000000 0.000000
# 2 -0.000569 0.013484 0.000284 0.000000 0.000000 0.000000
# 3 -0.004900 0.000284 0.009544 0.000000 0.000000 0.000000
# 4 0.000000 0.000000 0.000000 0.081266 0.000000 0.000000
# 5 0.000000 0.000000 0.000000 0.000000 0.047223 0.000000
# 6 0.000000 0.000000 0.000000 0.000000 0.000000 0.155342
#
#
# Mechanical properties :
#
#
# Convention : Reuss Voigt Hill
#
# Bulk Modulus (GPa) = 36.40694 40.97016 38.68855
# Shear Modulus (GPa) = 14.65433 23.88711 19.27072
#
# Velocity S-wave (km/s) = 2.71192 3.46239 3.10987
# Velocity P-wave (km/s) = 5.29881 6.04530 5.68432
#
# Compressibility (1/GPa) = 0.02746729
#
# Stress axis : x y z
#
# Youngs Moduli (GPa) = 67.52523 74.15973 104.77325
#
# Poissons Ratio (x) = 0.04221 0.51341
# Poissons Ratio (y) = 0.03843 -0.02975
# Poissons Ratio (z) = 0.33089 -0.02106
#
# Static dielectric constant tensor:
#      x y z
#    x 1.691600 0.000000 0.000000 
#    y 0.000000 1.814530 0.000000 
#    z 0.000000 0.000000 1.726930 
# 
# From -- ./inp_files/31140.got.cif
#   From: 2010.05.17/outbox.cif.g08.bks.cpg/sg47_16_cif.got.tgz:31140.got - 2010.06.03 20:15:42.
