data_PCOD9388779
_publ_section_title
;
Structure prediction by ZEFSAII (Michael W. Deem and Ramdas Pophale) SiO2 
 PCOD9388779
Probable space group: P M M M
;
_chemical_formula_sum "Si O2"
_cell_formula_units_Z 52
_cell_length_a 35.435906
_cell_length_b 7.496358
_cell_length_c 9.666878
_cell_angle_alpha 90.000000
_cell_angle_beta 90.000000
_cell_angle_gamma 90.000000
_cell_volume 2567.911767
_symmetry_space_group_name_H-M "P M M M"
_symmetry_group_IT_number 47
_symmetry_cell_setting 'orthorhombic'
loop_
_space_group_symop_operation_xyz
x,y,z
-x,-y,z
x,-y,-z
-x,y,-z
-x,-y,-z
x,y,-z
-x,y,z
x,-y,z
loop_
_atom_site_type_symbol
_atom_site_label
_atom_site_fract_x
_atom_site_fract_y
_atom_site_fract_z
Si Si1 0.693255 0.781134 0.159091
Si Si2 0.459461 0.285546 0.338849
Si Si3 0.152001 0.286044 0.342672
Si Si4 0.000000 0.709097 0.168190
Si Si5 0.376567 0.788972 0.657886
Si Si6 0.917819 0.718763 0.839731
Si Si7 0.763367 0.212984 0.342085
O O1 0.656395 0.720297 0.243744
O O2 0.730547 0.721857 0.241570
O O3 0.693159 0.000000 0.157940
O O4 0.692989 0.723873 0.000000
O O5 0.458914 0.226428 0.500000
O O6 0.500000 0.224714 0.279385
O O7 0.460093 0.500000 0.338507
O O8 0.418752 0.233292 0.281839
O O9 0.149667 0.217544 0.500000
O O10 0.148548 0.500000 0.347905
O O11 0.117592 0.220249 0.249767
O O12 0.194184 0.247309 0.290731
O O13 0.040846 0.781095 0.211677
O O14 0.000000 0.500000 0.206235
O O15 0.000000 0.717926 0.000000
O O16 0.375365 0.715404 0.500000
O O17 0.370190 0.000000 0.645693
O O18 0.918622 0.500000 0.837385
O O19 0.913414 0.770186 0.000000
O O20 0.760196 0.283192 0.500000
O O21 0.758824 0.000000 0.350604
#
# Coordination Sequence:
#
# PCOD9388779 Si02
#       7
#     8   8   8   4   8   8   8
#     4   9  17  29  45  64  85 108 135 170 209 244
#     4   8  14  25  41  62  88 115 141 170 204 240
#     4   9  17  28  41  60  86 109 129 162 208 247
#     4   7  10  18  33  53  76 103 136 168 196 233
#     4   9  16  26  43  66  87 107 135 171 207 242
#     4   8  13  22  37  56  79 108 138 166 199 241
#     4   9  17  30  47  63  80 107 141 170 198 241
#
# _framework density 20.249918000000001
#
# number of rings (size 3 to 8) (size 9 to 14) (size 15 to 20)
#    0.000    3.462    0.000    1.846    0.000    2.769 
#    0.000    2.692    0.000    7.846    0.000    3.769 
#    0.000    4.308    0.000    0.000    0.000    0.000 
#
# Total GULP energy -289669.911861 kJ/mol
# GULP energy per Si atom -5570.575228 kJ/mol
# Density = 2.020383 g / cm^3
# Si number density = 20.249918 Si / 1000 Ang^3
#
#
#
# Elastic Constant Matrix: (Units=GPa)
#
#
# Indices 1 2 3 4 5 6 
#
# 1 258.9879 2.0580 106.5258 0.0000 0.0000 0.0000
# 2 2.0580 52.6020 4.9642 0.0000 0.0000 0.0000
# 3 106.5258 4.9642 76.7102 0.0000 0.0000 0.0000
# 4 0.0000 0.0000 0.0000 -0.2995 0.0000 0.0000
# 5 0.0000 0.0000 0.0000 0.0000 64.0320 0.0000
# 6 0.0000 0.0000 0.0000 0.0000 0.0000 15.8645
#
#
#
# Elastic Compliance Matrix: (Units=1/GPa)
#
#
# Indices 1 2 3 4 5 6 
#
# 1 0.009041 0.000836 -0.012609 0.000000 0.000000 0.000000
# 2 0.000836 0.019205 -0.002404 0.000000 0.000000 0.000000
# 3 -0.012609 -0.002404 0.030701 0.000000 0.000000 0.000000
# 4 0.000000 0.000000 0.000000 -3.339188 0.000000 0.000000
# 5 0.000000 0.000000 0.000000 0.000000 0.015617 0.000000
# 6 0.000000 0.000000 0.000000 0.000000 0.000000 0.063034
#
#
# Mechanical properties :
#
#
# Convention : Reuss Voigt Hill
#
# Bulk Modulus (GPa) = 32.68666 68.37733 50.53199
# Shear Modulus (GPa) = -1.58076 34.23623 16.32773
#
# Velocity S-wave (km/s) = -0.88449 4.11625 2.84264
# Velocity P-wave (km/s) = 3.89019 7.51209 5.98185
#
# Compressibility (1/GPa) = 0.03059352
#
# Stress axis : x y z
#
# Youngs Moduli (GPa) = 110.61069 52.07016 32.57207
#
# Poissons Ratio (x) = -0.04354 0.41069
# Poissons Ratio (y) = -0.09250 0.07831
# Poissons Ratio (z) = 1.39466 0.12518
#
# Static dielectric constant tensor:
#      x y z
#    x 1.743870 0.000000 0.000000 
#    y 0.000000 1.785370 0.000000 
#    z 0.000000 0.000000 1.686200 
# 
# From -- ./inp_files/14134.got.cif
#   From: 2010.05.17/outbox.cif.g08.bks.cpg/sg47_8_cif.got.tgz:14134.got - 2010.06.03 20:15:42.
