data_PCOD9388354
_publ_section_title
;
Structure prediction by ZEFSAII (Michael W. Deem and Ramdas Pophale) SiO2 
 PCOD9388354
Probable space group: P M M M
;
_chemical_formula_sum "Si O2"
_cell_formula_units_Z 41
_cell_length_a 9.198983
_cell_length_b 11.768498
_cell_length_c 21.026042
_cell_angle_alpha 90.000000
_cell_angle_beta 90.000000
_cell_angle_gamma 90.000000
_cell_volume 2276.241734
_symmetry_space_group_name_H-M "P M M M"
_symmetry_group_IT_number 47
_symmetry_cell_setting 'orthorhombic'
loop_
_space_group_symop_operation_xyz
x,y,z
-x,-y,z
x,-y,-z
-x,y,-z
-x,-y,-z
x,y,-z
-x,y,z
x,-y,z
loop_
_atom_site_type_symbol
_atom_site_label
_atom_site_fract_x
_atom_site_fract_y
_atom_site_fract_z
Si Si1 0.671800 0.500000 0.746579
Si Si2 0.823653 0.368862 0.928384
Si Si3 0.669098 0.864351 0.309264
Si Si4 0.175349 0.726117 0.202332
Si Si5 0.757591 0.500000 0.399063
Si Si6 0.164621 0.247898 0.573278
Si Si7 0.500000 0.500000 0.500000
O O1 0.500000 0.500000 0.762259
O O2 0.755497 0.609964 0.771773
O O3 0.695716 0.500000 0.671526
O O4 0.777139 0.500000 0.914436
O O5 0.784923 0.281083 0.872637
O O6 0.000000 0.372058 0.929123
O O7 0.774860 0.340431 0.000000
O O8 0.500000 0.829749 0.303406
O O9 0.756236 0.822131 0.247127
O O10 0.736292 0.808896 0.372915
O O11 0.676920 0.000000 0.314432
O O12 0.000000 0.726278 0.208382
O O13 0.839374 0.382404 0.412339
O O14 0.624333 0.500000 0.445938
O O15 0.215439 0.231712 0.500000
O O16 0.000000 0.202928 0.578191
#
# Coordination Sequence:
#
# PCOD9388354 Si02
#       7
#     4   8   8   8   4   8   1
#     4  12  23  33  52  86 120 154 188 226 281 341
#     4   8  14  27  50  84 123 155 182 217 269 333
#     4  11  26  44  60  79 108 150 196 240 289 344
#     4  11  21  35  60  88 116 149 190 237 283 332
#     4  12  23  35  57  85 118 151 183 223 275 342
#     4  11  24  40  61  86 115 145 182 235 289 342
#     4  12  24  36  54  88 118 164 192 220 268 362
#
# _framework density 18.012146000000001
#
# number of rings (size 3 to 8) (size 9 to 14) (size 15 to 20)
#    0.000    1.366    4.390    2.341    1.366    3.902 
#    0.000    1.951    0.000    3.512    0.000    4.098 
#    0.000    0.000    0.000    0.000    0.000    0.000 
#
# Total GULP energy -228427.749123 kJ/mol
# GULP energy per Si atom -5571.408515 kJ/mol
# Density = 1.797115 g / cm^3
# Si number density = 18.012146 Si / 1000 Ang^3
#
#
#
# Elastic Constant Matrix: (Units=GPa)
#
#
# Indices 1 2 3 4 5 6 
#
# 1 99.4334 30.5439 55.3111 0.0000 0.0000 0.0000
# 2 30.5439 55.1434 45.5261 0.0000 0.0000 0.0000
# 3 55.3111 45.5261 168.0124 0.0000 0.0000 0.0000
# 4 0.0000 0.0000 0.0000 5.6624 0.0000 0.0000
# 5 0.0000 0.0000 0.0000 0.0000 13.1762 0.0000
# 6 0.0000 0.0000 0.0000 0.0000 0.0000 24.8809
#
#
#
# Elastic Compliance Matrix: (Units=1/GPa)
#
#
# Indices 1 2 3 4 5 6 
#
# 1 0.013233 -0.004809 -0.003053 0.000000 0.000000 0.000000
# 2 -0.004809 0.025108 -0.005220 0.000000 0.000000 0.000000
# 3 -0.003053 -0.005220 0.008372 0.000000 0.000000 0.000000
# 4 0.000000 0.000000 0.000000 0.176602 0.000000 0.000000
# 5 0.000000 0.000000 0.000000 0.000000 0.075894 0.000000
# 6 0.000000 0.000000 0.000000 0.000000 0.000000 0.040192
#
#
# Mechanical properties :
#
#
# Convention : Reuss Voigt Hill
#
# Bulk Modulus (GPa) = 48.66789 65.03905 56.85347
# Shear Modulus (GPa) = 13.42591 21.49111 17.45851
#
# Velocity S-wave (km/s) = 2.73313 3.45794 3.11668
# Velocity P-wave (km/s) = 6.08590 7.22011 6.67713
#
# Compressibility (1/GPa) = 0.02054743
#
# Stress axis : x y z
#
# Youngs Moduli (GPa) = 75.57135 39.82785 119.45062
#
# Poissons Ratio (x) = 0.19152 0.36471
# Poissons Ratio (y) = 0.36340 0.62358
# Poissons Ratio (z) = 0.23074 0.20792
#
# Static dielectric constant tensor:
#      x y z
#    x 1.632000 0.000000 0.000000 
#    y 0.000000 1.617090 0.000000 
#    z 0.000000 0.000000 1.656060 
# 
# From -- ./inp_files/29387.got.cif
#   From: 2010.05.17/outbox.cif.g08.bks.cpg/sg47_15_cif.got.tgz:29387.got - 2010.06.03 20:15:42.
