data_PCOD9388574
_publ_section_title
;
Structure prediction by ZEFSAII (Michael W. Deem and Ramdas Pophale) SiO2 
 PCOD9388574
Probable space group: P M M M
;
_chemical_formula_sum "Si O2"
_cell_formula_units_Z 26
_cell_length_a 17.744490
_cell_length_b 8.618734
_cell_length_c 7.702880
_cell_angle_alpha 90.000000
_cell_angle_beta 90.000000
_cell_angle_gamma 90.000000
_cell_volume 1178.040255
_symmetry_space_group_name_H-M "P M M M"
_symmetry_group_IT_number 47
_symmetry_cell_setting 'orthorhombic'
loop_
_space_group_symop_operation_xyz
x,y,z
-x,-y,z
x,-y,-z
-x,y,-z
-x,-y,-z
x,y,-z
-x,y,z
x,-y,z
loop_
_atom_site_type_symbol
_atom_site_label
_atom_site_fract_x
_atom_site_fract_y
_atom_site_fract_z
Si Si1 0.391395 0.682124 0.197588
Si Si2 0.759063 0.174315 0.704632
Si Si3 0.500000 0.215291 0.500000
Si Si4 0.916995 0.319976 0.790443
O O1 0.407409 0.500000 0.231589
O O2 0.302322 0.713307 0.211576
O O3 0.434940 0.775878 0.345893
O O4 0.414220 0.717861 0.000000
O O5 0.744390 0.175119 0.500000
O O6 0.844870 0.225718 0.731021
O O7 0.747977 0.000000 0.772462
O O8 0.909262 0.500000 0.736165
O O9 0.000000 0.264313 0.732811
O O10 0.916918 0.317647 0.000000
#
# Coordination Sequence:
#
# PCOD9388574 Si02
#       4
#     8   8   2   8
#     4  11  23  40  66  96 124 160 205 252 309 372
#     4  11  24  40  58  85 124 167 209 252 303 366
#     4  12  23  42  69  98 129 156 195 260 315 364
#     4   9  19  37  61  89 120 156 203 257 310 365
#
# _framework density 22.070554000000001
#
# number of rings (size 3 to 8) (size 9 to 14) (size 15 to 20)
#    0.000    1.538    1.538    4.615    0.000    9.231 
#    0.000    6.154    0.000    1.846    0.000    0.000 
#    0.000    0.000    0.000    0.000    0.000    0.000 
#
# Total GULP energy -144823.099423 kJ/mol
# GULP energy per Si atom -5570.119209 kJ/mol
# Density = 2.202032 g / cm^3
# Si number density = 22.070554 Si / 1000 Ang^3
#
#
#
# Elastic Constant Matrix: (Units=GPa)
#
#
# Indices 1 2 3 4 5 6 
#
# 1 153.4879 20.4414 23.7616 0.0000 0.0000 0.0000
# 2 20.4414 31.4738 12.1536 0.0000 0.0000 0.0000
# 3 23.7616 12.1536 100.2899 0.0000 0.0000 0.0000
# 4 0.0000 0.0000 0.0000 13.5258 0.0000 0.0000
# 5 0.0000 0.0000 0.0000 0.0000 39.0412 0.0000
# 6 0.0000 0.0000 0.0000 0.0000 0.0000 -79.0067
#
#
#
# Elastic Compliance Matrix: (Units=1/GPa)
#
#
# Indices 1 2 3 4 5 6 
#
# 1 0.007269 -0.004255 -0.001207 0.000000 0.000000 0.000000
# 2 -0.004255 0.035823 -0.003333 0.000000 0.000000 0.000000
# 3 -0.001207 -0.003333 0.010661 0.000000 0.000000 0.000000
# 4 0.000000 0.000000 0.000000 0.073933 0.000000 0.000000
# 5 0.000000 0.000000 0.000000 0.000000 0.025614 0.000000
# 6 0.000000 0.000000 0.000000 0.000000 0.000000 -0.012657
#
#
# Mechanical properties :
#
#
# Convention : Reuss Voigt Hill
#
# Bulk Modulus (GPa) = 27.65218 44.21829 35.93524
# Shear Modulus (GPa) = 29.36243 9.97172 19.66708
#
# Velocity S-wave (km/s) = 3.65141 2.12789 2.98837
# Velocity P-wave (km/s) = 5.50756 5.11035 5.31267
#
# Compressibility (1/GPa) = 0.03616351
#
# Stress axis : x y z
#
# Youngs Moduli (GPa) = 137.57777 27.91505 93.80092
#
# Poissons Ratio (x) = 0.11877 0.11317
# Poissons Ratio (y) = 0.58538 0.31265
# Poissons Ratio (z) = 0.16599 0.09304
#
# Static dielectric constant tensor:
#      x y z
#    x 1.805820 0.000000 0.000000 
#    y 0.000000 1.822570 0.000000 
#    z 0.000000 0.000000 1.796230 
# 
# From -- ./inp_files/8435.got.cif
#   From: 2010.05.17/outbox.cif.g08.bks.cpg/sg47_5_cif.got.tgz:8435.got - 2010.06.03 20:15:42.
