data_PCOD9388873
_publ_section_title
;
Structure prediction by ZEFSAII (Michael W. Deem and Ramdas Pophale) SiO2 
 PCOD9388873
Probable space group: P M M M
;
_chemical_formula_sum "Si O2"
_cell_formula_units_Z 52
_cell_length_a 14.246934
_cell_length_b 7.331813
_cell_length_c 29.870507
_cell_angle_alpha 90.000000
_cell_angle_beta 90.000000
_cell_angle_gamma 90.000000
_cell_volume 3120.149375
_symmetry_space_group_name_H-M "P M M M"
_symmetry_group_IT_number 47
_symmetry_cell_setting 'orthorhombic'
loop_
_space_group_symop_operation_xyz
x,y,z
-x,-y,z
x,-y,-z
-x,y,-z
-x,-y,-z
x,y,-z
-x,y,z
x,-y,z
loop_
_atom_site_type_symbol
_atom_site_label
_atom_site_fract_x
_atom_site_fract_y
_atom_site_fract_z
Si Si1 0.791819 0.777982 0.811780
Si Si2 0.293391 0.222144 0.950140
Si Si3 0.891457 0.777396 0.722058
Si Si4 0.394803 0.222294 0.860086
Si Si5 0.105236 0.778060 0.902236
Si Si6 0.114443 0.500000 0.448849
Si Si7 0.114238 0.791737 0.376848
O O1 0.829174 0.717314 0.763795
O O2 0.687424 0.720568 0.826196
O O3 0.861029 0.724888 0.852400
O O4 0.792196 0.000000 0.811195
O O5 0.361830 0.277972 0.909906
O O6 0.187929 0.277484 0.935908
O O7 0.294529 0.000000 0.950318
O O8 0.317658 0.283060 0.000000
O O9 0.858566 0.721160 0.672500
O O10 0.000000 0.722261 0.728599
O O11 0.891512 0.000000 0.721253
O O12 0.500000 0.282803 0.849955
O O13 0.394840 0.000000 0.859796
O O14 0.000000 0.716040 0.912165
O O15 0.104069 0.000000 0.902938
O O16 0.147102 0.500000 0.500000
O O17 0.143695 0.672205 0.418916
O O18 0.000000 0.500000 0.450180
O O19 0.000000 0.790554 0.375878
O O20 0.144900 0.000000 0.381729
#
# Coordination Sequence:
#
# PCOD9388873 Si02
#       7
#     8   8   8   8   8   4   8
#     4   8  12  17  25  36  48  64  89 120 160 210
#     4   8  13  18  21  26  36  53  82 119 159 203
#     4   8  12  18  29  43  58  76 100 135 176 213
#     4   8  13  19  24  30  42  61  87 121 159 201
#     4   8  12  16  21  29  41  56  77 112 158 205
#     4   9  16  24  34  48  68  98 133 165 194 219
#     4   8  14  23  33  47  67  91 123 161 195 225
#
# _framework density 16.665868
#
# number of rings (size 3 to 8) (size 9 to 14) (size 15 to 20)
#    0.000    3.923    0.000    3.231    0.000    2.769 
#    0.000    4.615    0.000    0.000    0.000    0.000 
#    0.000    0.000    0.000    0.692    0.000    3.308 
#
# Total GULP energy -289670.204137 kJ/mol
# GULP energy per Si atom -5570.580849 kJ/mol
# Density = 1.662794 g / cm^3
# Si number density = 16.665868 Si / 1000 Ang^3
#
#
#
# Elastic Constant Matrix: (Units=GPa)
#
#
# Indices 1 2 3 4 5 6 
#
# 1 70.9450 5.0843 34.0156 0.0000 0.0000 0.0000
# 2 5.0843 65.9557 24.5745 0.0000 0.0000 0.0000
# 3 34.0156 24.5745 145.5310 0.0000 0.0000 0.0000
# 4 0.0000 0.0000 0.0000 125.0882 0.0000 0.0000
# 5 0.0000 0.0000 0.0000 0.0000 10.8044 0.0000
# 6 0.0000 0.0000 0.0000 0.0000 0.0000 -9.4730
#
#
#
# Elastic Compliance Matrix: (Units=1/GPa)
#
#
# Indices 1 2 3 4 5 6 
#
# 1 0.015876 0.000169 -0.003739 0.000000 0.000000 0.000000
# 2 0.000169 0.016181 -0.002772 0.000000 0.000000 0.000000
# 3 -0.003739 -0.002772 0.008214 0.000000 0.000000 0.000000
# 4 0.000000 0.000000 0.000000 0.007994 0.000000 0.000000
# 5 0.000000 0.000000 0.000000 0.000000 0.092555 0.000000
# 6 0.000000 0.000000 0.000000 0.000000 0.000000 -0.105563
#
#
# Mechanical properties :
#
#
# Convention : Reuss Voigt Hill
#
# Bulk Modulus (GPa) = 36.24875 45.53116 40.88996
# Shear Modulus (GPa) = 87.50891 39.86774 63.68832
#
# Velocity S-wave (km/s) = 7.25409 4.89630 6.18852
# Velocity P-wave (km/s) = 9.58958 7.70352 8.69782
#
# Compressibility (1/GPa) = 0.02758716
#
# Stress axis : x y z
#
# Youngs Moduli (GPa) = 62.98739 61.79914 121.75070
#
# Poissons Ratio (x) = -0.01047 0.45528
# Poissons Ratio (y) = -0.01067 0.33750
# Poissons Ratio (z) = 0.23554 0.17131
#
# Static dielectric constant tensor:
#      x y z
#    x 1.532890 0.000000 0.000000 
#    y 0.000000 1.455670 0.000000 
#    z 0.000000 0.000000 1.553580 
# 
# From -- ./inp_files/33768.got.cif
#   From: 2010.05.17/outbox.cif.g08.bks.cpg/sg47_17_cif.got.tgz:33768.got - 2010.06.03 20:15:42.
