data_PCOD9388664
_publ_section_title
;
Structure prediction by ZEFSAII (Michael W. Deem and Ramdas Pophale) SiO2 
 PCOD9388664
Probable space group: P M M M
;
_chemical_formula_sum "Si O2"
_cell_formula_units_Z 28
_cell_length_a 20.753310
_cell_length_b 9.051435
_cell_length_c 7.633927
_cell_angle_alpha 90.000000
_cell_angle_beta 90.000000
_cell_angle_gamma 90.000000
_cell_volume 1434.012091
_symmetry_space_group_name_H-M "P M M M"
_symmetry_group_IT_number 47
_symmetry_cell_setting 'orthorhombic'
loop_
_space_group_symop_operation_xyz
x,y,z
-x,-y,z
x,-y,-z
-x,y,-z
-x,-y,-z
x,y,-z
-x,y,z
x,-y,z
loop_
_atom_site_type_symbol
_atom_site_label
_atom_site_fract_x
_atom_site_fract_y
_atom_site_fract_z
Si Si1 0.575111 0.323400 0.500000
Si Si2 0.930786 0.322655 0.288972
Si Si3 0.342341 0.173180 0.799740
Si Si4 0.209892 0.673614 0.712673
O O1 0.580328 0.500000 0.500000
O O2 0.500000 0.282006 0.500000
O O3 0.611715 0.259387 0.332014
O O4 0.931235 0.302325 0.500000
O O5 0.930525 0.500000 0.259675
O O6 0.860727 0.270331 0.227017
O O7 0.000000 0.265470 0.221987
O O8 0.270126 0.236062 0.781666
O O9 0.342280 0.000000 0.755357
O O10 0.363639 0.191073 0.000000
O O11 0.211214 0.680297 0.500000
O O12 0.216189 0.500000 0.759914
#
# Coordination Sequence:
#
# PCOD9388664 Si02
#       4
#     4   8   8   8
#     4  11  25  45  69  95 120 147 184 233 287 340
#     4   7  10  18  36  67 105 141 182 236 292 340
#     4  11  24  40  60  88 122 160 197 232 278 340
#     4   9  16  28  51  81 111 148 195 244 292 339
#
# _framework density 19.525637
#
# number of rings (size 3 to 8) (size 9 to 14) (size 15 to 20)
#    0.000    2.714    1.429    3.857    0.000    4.000 
#    0.000    2.857    0.000    1.714    0.000   10.000 
#    0.000    0.000    0.000    0.000    0.000    0.000 
#
# Total GULP energy -156147.342174 kJ/mol
# GULP energy per Si atom -5576.690792 kJ/mol
# Density = 1.948120 g / cm^3
# Si number density = 19.525637 Si / 1000 Ang^3
#
#
#
# Elastic Constant Matrix: (Units=GPa)
#
#
# Indices 1 2 3 4 5 6 
#
# 1 194.5901 60.4893 53.5663 0.0000 0.0000 0.0000
# 2 60.4893 46.8319 31.6082 0.0000 0.0000 0.0000
# 3 53.5663 31.6082 57.5257 0.0000 0.0000 0.0000
# 4 0.0000 0.0000 0.0000 28.2982 0.0000 0.0000
# 5 0.0000 0.0000 0.0000 0.0000 -21.7072 0.0000
# 6 0.0000 0.0000 0.0000 0.0000 0.0000 -17.3118
#
#
#
# Elastic Compliance Matrix: (Units=1/GPa)
#
#
# Indices 1 2 3 4 5 6 
#
# 1 0.008930 -0.009413 -0.003144 0.000000 0.000000 0.000000
# 2 -0.009413 0.043861 -0.015335 0.000000 0.000000 0.000000
# 3 -0.003144 -0.015335 0.028737 0.000000 0.000000 0.000000
# 4 0.000000 0.000000 0.000000 0.035338 0.000000 0.000000
# 5 0.000000 0.000000 0.000000 0.000000 -0.046068 0.000000
# 6 0.000000 0.000000 0.000000 0.000000 0.000000 -0.057764
#
#
# Mechanical properties :
#
#
# Convention : Reuss Voigt Hill
#
# Bulk Modulus (GPa) = 38.84227 65.58613 52.21420
# Shear Modulus (GPa) = 64.60029 8.07477 36.33753
#
# Velocity S-wave (km/s) = 5.75818 2.03579 4.31863
# Velocity P-wave (km/s) = 8.00906 6.26008 7.18796
#
# Compressibility (1/GPa) = 0.02574515
#
# Stress axis : x y z
#
# Youngs Moduli (GPa) = 111.97585 22.79933 34.79871
#
# Poissons Ratio (x) = 0.21461 0.10940
# Poissons Ratio (y) = 1.05404 0.53363
# Poissons Ratio (z) = 0.35202 0.34962
#
# Static dielectric constant tensor:
#      x y z
#    x 1.710270 0.000000 0.000000 
#    y 0.000000 1.639300 0.000000 
#    z 0.000000 0.000000 1.719040 
# 
# From -- ./inp_files/866.got.cif
#   From: 2010.05.17/outbox.cif.g08.bks.cpg/sg47_1_cif.got.tgz:866.got - 2010.06.03 20:15:42.
