data_PCOD9388097
_publ_section_title
;
Structure prediction by ZEFSAII (Michael W. Deem and Ramdas Pophale) SiO2 
 PCOD9388097
Probable space group: P M M M
;
_chemical_formula_sum "Si O2"
_cell_formula_units_Z 56
_cell_length_a 15.388274
_cell_length_b 21.012689
_cell_length_c 8.792485
_cell_angle_alpha 90.000000
_cell_angle_beta 90.000000
_cell_angle_gamma 90.000000
_cell_volume 2843.041371
_symmetry_space_group_name_H-M "P M M M"
_symmetry_group_IT_number 47
_symmetry_cell_setting 'orthorhombic'
loop_
_space_group_symop_operation_xyz
x,y,z
-x,-y,z
x,-y,-z
-x,y,-z
-x,-y,-z
x,y,-z
-x,y,z
x,-y,z
loop_
_atom_site_type_symbol
_atom_site_label
_atom_site_fract_x
_atom_site_fract_y
_atom_site_fract_z
Si Si1 0.602181 0.338464 0.181465
Si Si2 0.250000 0.573984 0.682167
Si Si3 0.603691 0.205980 0.326743
Si Si4 0.103692 0.794021 0.673258
Si Si5 0.854323 0.931628 0.677091
Si Si6 0.645671 0.931628 0.677091
Si Si7 0.897820 0.661536 0.818535
O O1 0.500000 0.347032 0.223637
O O2 0.665021 0.390231 0.255063
O O3 0.631962 0.268352 0.236680
O O4 0.608168 0.341777 0.000000
O O5 0.250000 0.577924 0.500000
O O6 0.250000 0.500000 0.727369
O O7 0.165022 0.609769 0.744938
O O8 0.639425 0.207448 0.500000
O O9 0.500000 0.210291 0.336747
O O10 0.621946 0.136712 0.255527
O O11 0.139421 0.792552 0.500000
O O12 0.121951 0.863288 0.744473
O O13 0.131961 0.731648 0.763320
O O14 0.000000 0.789713 0.663260
O O15 0.884429 0.929924 0.500000
O O16 0.749997 0.933447 0.675106
O O17 0.884507 0.000000 0.741805
O O18 0.615565 0.929924 0.500000
O O19 0.615487 0.000000 0.741805
O O20 0.000000 0.652968 0.776361
O O21 0.891833 0.658224 0.000000
#
# Coordination Sequence:
#
# PCOD9388097 Si02
#       7
#     8   8   8   8   8   8   8
#     4  10  22  40  61  87 121 158 194 234 282 340
#     4  11  25  43  65  93 120 149 188 233 283 340
#     4   9  17  29  48  75 104 139 187 237 283 332
#     4   9  17  29  48  75 104 139 187 237 283 332
#     4   8  14  24  39  64  99 137 179 230 285 334
#     4   8  14  24  39  64  99 137 179 230 285 334
#     4  10  22  40  61  87 121 158 194 234 282 340
#
# _framework density 19.697216999999998
#
# number of rings (size 3 to 8) (size 9 to 14) (size 15 to 20)
#    0.000    2.714    0.000    2.143    2.000    4.000 
#    0.000    5.714    0.000    0.857    0.000    6.000 
#    0.000    0.000    0.000    0.000    0.000    0.000 
#
# Total GULP energy -312093.532535 kJ/mol
# GULP energy per Si atom -5573.098795 kJ/mol
# Density = 1.965239 g / cm^3
# Si number density = 19.697217 Si / 1000 Ang^3
#
#
#
# Elastic Constant Matrix: (Units=GPa)
#
#
# Indices 1 2 3 4 5 6 
#
# 1 70.3373 71.0894 30.2546 0.0000 0.0000 0.0000
# 2 71.0894 236.9426 55.1787 0.0000 0.0000 0.0000
# 3 30.2546 55.1787 33.8475 0.0000 0.0000 0.0000
# 4 0.0000 0.0000 0.0000 -21.2931 0.0000 0.0000
# 5 0.0000 0.0000 0.0000 0.0000 19.0269 0.0000
# 6 0.0000 0.0000 0.0000 0.0000 0.0000 41.5407
#
#
#
# Elastic Compliance Matrix: (Units=1/GPa)
#
#
# Indices 1 2 3 4 5 6 
#
# 1 0.024956 -0.003696 -0.016282 0.000000 0.000000 0.000000
# 2 -0.003696 0.007351 -0.008679 0.000000 0.000000 0.000000
# 3 -0.016282 -0.008679 0.058247 0.000000 0.000000 0.000000
# 4 0.000000 0.000000 0.000000 -0.046964 0.000000 0.000000
# 5 0.000000 0.000000 0.000000 0.000000 0.052557 0.000000
# 6 0.000000 0.000000 0.000000 0.000000 0.000000 0.024073
#
#
# Mechanical properties :
#
#
# Convention : Reuss Voigt Hill
#
# Bulk Modulus (GPa) = 30.08481 72.68588 51.38535
# Shear Modulus (GPa) = 26.50905 20.16187 23.33546
#
# Velocity S-wave (km/s) = 3.67253 3.20283 3.44569
# Velocity P-wave (km/s) = 5.76976 7.11753 6.47879
#
# Compressibility (1/GPa) = 0.03323936
#
# Stress axis : x y z
#
# Youngs Moduli (GPa) = 40.07052 136.04480 17.16813
#
# Poissons Ratio (x) = 0.50279 0.27953
# Poissons Ratio (y) = 0.14809 0.14901
# Poissons Ratio (z) = 0.65243 1.18080
#
# Static dielectric constant tensor:
#      x y z
#    x 1.701840 0.000000 0.000000 
#    y 0.000000 1.725820 0.000000 
#    z 0.000000 0.000000 1.673570 
# 
# From -- ./inp_files/7358.got.cif
#   From: 2010.05.17/outbox.cif.g08.bks.cpg/sg47_4_cif.got.tgz:7358.got - 2010.06.03 20:15:42.
