data_PCOD9388307
_publ_section_title
;
Structure prediction by ZEFSAII (Michael W. Deem and Ramdas Pophale) SiO2 
 PCOD9388307
Probable space group: P M M M
;
_chemical_formula_sum "Si O2"
_cell_formula_units_Z 28
_cell_length_a 17.341171
_cell_length_b 11.908144
_cell_length_c 7.696934
_cell_angle_alpha 90.000000
_cell_angle_beta 90.000000
_cell_angle_gamma 90.000000
_cell_volume 1589.425810
_symmetry_space_group_name_H-M "P M M M"
_symmetry_group_IT_number 47
_symmetry_cell_setting 'orthorhombic'
loop_
_space_group_symop_operation_xyz
x,y,z
-x,-y,z
x,-y,-z
-x,y,-z
-x,-y,-z
x,y,-z
-x,y,z
x,-y,z
loop_
_atom_site_type_symbol
_atom_site_label
_atom_site_fract_x
_atom_site_fract_y
_atom_site_fract_z
Si Si1 0.090066 0.134213 0.500000
Si Si2 0.825892 0.269624 0.202176
Si Si3 0.500000 0.372117 0.706642
Si Si4 0.909205 0.500000 0.290571
Si Si5 0.332091 0.628598 0.206707
O O1 0.131144 0.185162 0.669626
O O2 0.000000 0.168903 0.500000
O O3 0.094154 0.000000 0.500000
O O4 0.869348 0.389137 0.216123
O O5 0.738921 0.295994 0.266876
O O6 0.825310 0.233636 0.000000
O O7 0.500000 0.500000 0.779740
O O8 0.500000 0.377645 0.500000
O O9 0.417506 0.323742 0.760285
O O10 0.899637 0.500000 0.500000
O O11 0.000000 0.500000 0.252266
O O12 0.328211 0.500000 0.278072
O O13 0.322013 0.619723 0.000000
#
# Coordination Sequence:
#
# PCOD9388307 Si02
#       5
#     4   8   4   4   8
#     4  11  26  45  61  80 107 143 192 245 290 332
#     4  11  22  37  59  85 113 149 187 227 281 339
#     4   9  17  25  41  71 109 152 185 210 252 314
#     4  11  21  33  53  83 117 148 178 221 282 345
#     4   9  17  30  47  74 112 149 181 216 262 324
#
# _framework density 17.616425
#
# number of rings (size 3 to 8) (size 9 to 14) (size 15 to 20)
#    0.000    1.857    2.857    1.714    2.000    5.143 
#    0.000    1.429    0.000    0.000    0.000    2.000 
#    0.000    4.571    0.000    0.000    0.000    0.000 
#
# Total GULP energy -156229.902625 kJ/mol
# GULP energy per Si atom -5579.639379 kJ/mol
# Density = 1.757633 g / cm^3
# Si number density = 17.616425 Si / 1000 Ang^3
#
#
#
# Elastic Constant Matrix: (Units=GPa)
#
#
# Indices 1 2 3 4 5 6 
#
# 1 180.5451 41.4836 42.4156 0.0000 0.0000 0.0000
# 2 41.4836 47.8342 24.4738 0.0000 0.0000 0.0000
# 3 42.4156 24.4738 77.2624 0.0000 0.0000 0.0000
# 4 0.0000 0.0000 0.0000 0.5490 0.0000 0.0000
# 5 0.0000 0.0000 0.0000 0.0000 27.0025 0.0000
# 6 0.0000 0.0000 0.0000 0.0000 0.0000-1036.3461
#
#
#
# Elastic Compliance Matrix: (Units=1/GPa)
#
#
# Indices 1 2 3 4 5 6 
#
# 1 0.007266 -0.005084 -0.002378 0.000000 0.000000 0.000000
# 2 -0.005084 0.028507 -0.006239 0.000000 0.000000 0.000000
# 3 -0.002378 -0.006239 0.016225 0.000000 0.000000 0.000000
# 4 0.000000 0.000000 0.000000 1.821546 0.000000 0.000000
# 5 0.000000 0.000000 0.000000 0.000000 0.037034 0.000000
# 6 0.000000 0.000000 0.000000 0.000000 0.000000 -0.000965
#
#
# Mechanical properties :
#
#
# Convention : Reuss Voigt Hill
#
# Bulk Modulus (GPa) = 40.65906 58.04308 49.35107
# Shear Modulus (GPa) = 2.57041 -188.60769 -93.01864
#
# Velocity S-wave (km/s) = 1.20924 -10.35838 -7.27440
# Velocity P-wave (km/s) = 5.00799 10.49007 6.51773
#
# Compressibility (1/GPa) = 0.02459476
#
# Stress axis : x y z
#
# Youngs Moduli (GPa) = 137.63266 35.07935 61.63443
#
# Poissons Ratio (x) = 0.17835 0.14658
# Poissons Ratio (y) = 0.69977 0.38452
# Poissons Ratio (z) = 0.32732 0.21885
#
# Static dielectric constant tensor:
#      x y z
#    x 1.646210 0.000000 0.000000 
#    y 0.000000 1.562630 0.000000 
#    z 0.000000 0.000000 1.620400 
# 
# From -- ./inp_files/8543.got.cif
#   From: 2010.05.17/outbox.cif.g08.bks.cpg/sg47_5_cif.got.tgz:8543.got - 2010.06.03 20:15:42.
