data_PCOD9388623
_publ_section_title
;
Structure prediction by ZEFSAII (Michael W. Deem and Ramdas Pophale) SiO2 
 PCOD9388623
Probable space group: P M M M
;
_chemical_formula_sum "Si O2"
_cell_formula_units_Z 56
_cell_length_a 22.977433
_cell_length_b 9.404961
_cell_length_c 14.652608
_cell_angle_alpha 90.000000
_cell_angle_beta 90.000000
_cell_angle_gamma 90.000000
_cell_volume 3166.455861
_symmetry_space_group_name_H-M "P M M M"
_symmetry_group_IT_number 47
_symmetry_cell_setting 'orthorhombic'
loop_
_space_group_symop_operation_xyz
x,y,z
-x,-y,z
x,-y,-z
-x,y,-z
-x,-y,-z
x,y,-z
-x,y,z
x,-y,z
loop_
_atom_site_type_symbol
_atom_site_label
_atom_site_fract_x
_atom_site_fract_y
_atom_site_fract_z
Si Si1 0.894517 0.832957 0.394376
Si Si2 0.704249 0.831095 0.107206
Si Si3 0.159391 0.163558 0.890980
Si Si4 0.065015 0.331062 0.777234
Si Si5 0.661988 0.330458 0.276625
Si Si6 0.755754 0.164118 0.608181
Si Si7 0.430649 0.166072 0.393140
O O1 0.906883 0.798763 0.500000
O O2 0.927457 0.736884 0.322498
O O3 0.824891 0.815668 0.379490
O O4 0.907784 0.000000 0.380500
O O5 0.772802 0.803445 0.126480
O O6 0.667278 0.737341 0.176209
O O7 0.694654 0.000000 0.121908
O O8 0.694007 0.802094 0.000000
O O9 0.114814 0.263703 0.839684
O O10 0.149480 0.000000 0.861822
O O11 0.151213 0.171152 0.000000
O O12 0.071490 0.500000 0.772813
O O13 0.000000 0.297920 0.812059
O O14 0.661821 0.500000 0.274163
O O15 0.717222 0.270259 0.333336
O O16 0.606242 0.267628 0.329002
O O17 0.743648 0.179589 0.500000
O O18 0.742105 0.000000 0.633596
O O19 0.417226 0.192960 0.500000
O O20 0.500000 0.182876 0.381448
O O21 0.416261 0.000000 0.375007
#
# Coordination Sequence:
#
# PCOD9388623 Si02
#       7
#     8   8   8   8   8   8   8
#     4   9  19  36  56  75  95 126 171 219 262 302
#     4   9  19  37  59  80 103 134 173 216 260 308
#     4   9  19  37  60  82 101 126 166 215 263 308
#     4  11  24  37  49  71 103 136 168 204 253 315
#     4  12  23  31  48  81 116 145 172 209 260 313
#     4   9  18  33  52  74 102 135 171 212 256 305
#     4   9  19  37  59  80 105 144 192 231 259 294
#
# _framework density 17.685389000000001
#
# number of rings (size 3 to 8) (size 9 to 14) (size 15 to 20)
#    0.000    2.286    0.000    5.143    0.000    9.714 
#    0.000    6.429    0.000    0.429    0.000    3.000 
#    0.000    0.000    0.000    0.000    0.000    0.000 
#
# Total GULP energy -312779.331368 kJ/mol
# GULP energy per Si atom -5585.345203 kJ/mol
# Density = 1.764514 g / cm^3
# Si number density = 17.685389 Si / 1000 Ang^3
#
#
#
# Elastic Constant Matrix: (Units=GPa)
#
#
# Indices 1 2 3 4 5 6 
#
# 1 52.8575 59.6478 49.2741 0.0000 0.0000 0.0000
# 2 59.6478 103.0133 69.5112 0.0000 0.0000 0.0000
# 3 49.2741 69.5112 81.0320 0.0000 0.0000 0.0000
# 4 0.0000 0.0000 0.0000 -66.2935 0.0000 0.0000
# 5 0.0000 0.0000 0.0000 0.0000 8.7464 0.0000
# 6 0.0000 0.0000 0.0000 0.0000 0.0000 43.7468
#
#
#
# Elastic Compliance Matrix: (Units=1/GPa)
#
#
# Indices 1 2 3 4 5 6 
#
# 1 0.062763 -0.025142 -0.016598 0.000000 0.000000 0.000000
# 2 -0.025142 0.033121 -0.013124 0.000000 0.000000 0.000000
# 3 -0.016598 -0.013124 0.033691 0.000000 0.000000 0.000000
# 4 0.000000 0.000000 0.000000 -0.015084 0.000000 0.000000
# 5 0.000000 0.000000 0.000000 0.000000 0.114333 0.000000
# 6 0.000000 0.000000 0.000000 0.000000 0.000000 0.022859
#
#
# Mechanical properties :
#
#
# Convention : Reuss Voigt Hill
#
# Bulk Modulus (GPa) = 50.38088 65.97435 58.17762
# Shear Modulus (GPa) = 13.58603 1.13792 7.36197
#
# Velocity S-wave (km/s) = 2.77466 0.80301 2.04249
# Velocity P-wave (km/s) = 6.23010 6.18427 6.20723
#
# Compressibility (1/GPa) = 0.01984880
#
# Stress axis : x y z
#
# Youngs Moduli (GPa) = 15.93296 30.19247 29.68126
#
# Poissons Ratio (x) = 0.75909 0.49264
# Poissons Ratio (y) = 0.40058 0.38952
# Poissons Ratio (z) = 0.26445 0.39623
#
# Static dielectric constant tensor:
#      x y z
#    x 1.601980 0.000000 0.000000 
#    y 0.000000 1.573130 0.000000 
#    z 0.000000 0.000000 1.609220 
# 
# From -- ./inp_files/7312.got.cif
#   From: 2010.05.17/outbox.cif.g08.bks.cpg/sg47_4_cif.got.tgz:7312.got - 2010.06.03 20:15:42.
