data_PCOD9388431
_publ_section_title
;
Structure prediction by ZEFSAII (Michael W. Deem and Ramdas Pophale) SiO2 
 PCOD9388431
Probable space group: P M M M
;
_chemical_formula_sum "Si O2"
_cell_formula_units_Z 40
_cell_length_a 8.112662
_cell_length_b 13.796383
_cell_length_c 23.085229
_cell_angle_alpha 90.000000
_cell_angle_beta 90.000000
_cell_angle_gamma 90.000000
_cell_volume 2583.823308
_symmetry_space_group_name_H-M "P M M M"
_symmetry_group_IT_number 47
_symmetry_cell_setting 'orthorhombic'
loop_
_space_group_symop_operation_xyz
x,y,z
-x,-y,z
x,-y,-z
-x,y,-z
-x,-y,-z
x,y,-z
-x,y,z
x,-y,z
loop_
_atom_site_type_symbol
_atom_site_label
_atom_site_fract_x
_atom_site_fract_y
_atom_site_fract_z
Si Si1 0.192284 0.795200 0.367528
Si Si2 0.803148 0.888489 0.246106
Si Si3 0.195367 0.110977 0.000000
Si Si4 0.500000 0.884634 0.565574
Si Si5 0.304396 0.110718 0.878185
Si Si6 0.301122 0.613325 0.433035
O O1 0.235194 0.821724 0.301125
O O2 0.331772 0.849901 0.404453
O O3 0.214303 0.684440 0.387922
O O4 0.000000 0.824288 0.377162
O O5 0.744841 0.848413 0.184165
O O6 0.000000 0.895140 0.243460
O O7 0.738749 0.000000 0.254032
O O8 0.247668 0.156416 0.938795
O O9 0.000000 0.104715 0.000000
O O10 0.266379 0.000000 0.000000
O O11 0.500000 0.847208 0.500000
O O12 0.500000 0.000000 0.565498
O O13 0.500000 0.105531 0.880067
O O14 0.234521 0.000000 0.877563
O O15 0.256321 0.637146 0.500000
O O16 0.500000 0.624781 0.428045
O O17 0.263514 0.500000 0.423841
#
# Coordination Sequence:
#
# PCOD9388431 Si02
#       6
#     8   8   4   4   8   8
#     4  11  22  35  53  74  96 124 159 198 242 291
#     4   9  18  31  44  61  87 120 157 192 227 273
#     4   9  15  23  35  51  77 111 144 185 232 269
#     4  11  24  38  51  69  95 126 161 199 237 279
#     4   9  16  24  37  57  79 108 149 192 228 265
#     4   9  18  34  55  76  97 120 149 190 242 300
#
# _framework density 15.480933
#
# number of rings (size 3 to 8) (size 9 to 14) (size 15 to 20)
#    0.000    2.400    1.000    2.700    1.400    6.800 
#    0.000    2.000    0.000    0.000    0.000    0.000 
#    0.000    0.000    0.000    0.900    0.000   16.900 
#
# Total GULP energy -222727.671479 kJ/mol
# GULP energy per Si atom -5568.191787 kJ/mol
# Density = 1.544570 g / cm^3
# Si number density = 15.480933 Si / 1000 Ang^3
#
#
#
# Elastic Constant Matrix: (Units=GPa)
#
#
# Indices 1 2 3 4 5 6 
#
# 1 58.2376 16.9268 54.1325 0.0000 0.0000 0.0000
# 2 16.9268 50.2499 43.6613 0.0000 0.0000 0.0000
# 3 54.1325 43.6613 173.5723 0.0000 0.0000 0.0000
# 4 0.0000 0.0000 0.0000 8.8544 0.0000 0.0000
# 5 0.0000 0.0000 0.0000 0.0000 30.4577 0.0000
# 6 0.0000 0.0000 0.0000 0.0000 0.0000 13.3332
#
#
#
# Elastic Compliance Matrix: (Units=1/GPa)
#
#
# Indices 1 2 3 4 5 6 
#
# 1 0.024345 -0.002052 -0.007076 0.000000 0.000000 0.000000
# 2 -0.002052 0.025640 -0.005809 0.000000 0.000000 0.000000
# 3 -0.007076 -0.005809 0.009430 0.000000 0.000000 0.000000
# 4 0.000000 0.000000 0.000000 0.112939 0.000000 0.000000
# 5 0.000000 0.000000 0.000000 0.000000 0.032832 0.000000
# 6 0.000000 0.000000 0.000000 0.000000 0.000000 0.075001
#
#
# Mechanical properties :
#
#
# Convention : Reuss Voigt Hill
#
# Bulk Modulus (GPa) = 33.85449 56.83343 45.34396
# Shear Modulus (GPa) = 15.62949 21.68500 18.65725
#
# Velocity S-wave (km/s) = 3.18086 3.74673 3.47533
# Velocity P-wave (km/s) = 5.95034 7.45043 6.74223
#
# Compressibility (1/GPa) = 0.02953818
#
# Stress axis : x y z
#
# Youngs Moduli (GPa) = 41.07611 39.00222 106.04945
#
# Poissons Ratio (x) = 0.08004 0.75044
# Poissons Ratio (y) = 0.08429 0.61609
# Poissons Ratio (z) = 0.29067 0.22658
#
# Static dielectric constant tensor:
#      x y z
#    x 1.535340 0.000000 0.000000 
#    y 0.000000 1.512120 0.000000 
#    z 0.000000 0.000000 1.553560 
# 
# From -- ./inp_files/29421.got.cif
#   From: 2010.05.17/outbox.cif.g08.bks.cpg/sg47_15_cif.got.tgz:29421.got - 2010.06.03 20:15:42.
