data_PCOD9388731
_publ_section_title
;
Structure prediction by ZEFSAII (Michael W. Deem and Ramdas Pophale) SiO2 
 PCOD9388731
Probable space group: P M M M
;
_chemical_formula_sum "Si O2"
_cell_formula_units_Z 44
_cell_length_a 7.362449
_cell_length_b 7.358657
_cell_length_c 31.604682
_cell_angle_alpha 90.000000
_cell_angle_beta 90.000000
_cell_angle_gamma 90.000000
_cell_volume 1712.270145
_symmetry_space_group_name_H-M "P M M M"
_symmetry_group_IT_number 47
_symmetry_cell_setting 'orthorhombic'
loop_
_space_group_symop_operation_xyz
x,y,z
-x,-y,z
x,-y,-z
-x,y,-z
-x,-y,-z
x,y,-z
-x,y,z
x,-y,z
loop_
_atom_site_type_symbol
_atom_site_label
_atom_site_fract_x
_atom_site_fract_y
_atom_site_fract_z
Si Si1 0.792043 0.717293 0.682410
Si Si2 0.208832 0.782273 0.409412
Si Si3 0.782781 0.291942 0.227991
Si Si4 0.715907 0.279147 0.954418
Si Si5 0.717514 0.709007 0.863855
Si Si6 0.777650 0.786144 0.500000
O O1 0.799453 0.500000 0.687506
O O2 0.706261 0.747454 0.636452
O O3 0.714476 0.785660 0.727207
O O4 0.000000 0.787613 0.679070
O O5 0.283931 0.713332 0.454347
O O6 0.000000 0.714255 0.407131
O O7 0.202610 0.000000 0.413260
O O8 0.712524 0.500000 0.224666
O O9 0.752387 0.206278 0.182031
O O10 0.000000 0.299225 0.233060
O O11 0.500000 0.239126 0.955507
O O12 0.732943 0.500000 0.953437
O O13 0.785063 0.213844 0.908725
O O14 0.790270 0.218676 0.000000
O O15 0.500000 0.702541 0.867737
O O16 0.785827 0.500000 0.861605
O O17 0.000000 0.774569 0.500000
O O18 0.730358 0.000000 0.500000
#
# Coordination Sequence:
#
# PCOD9388731 Si02
#       6
#     8   8   8   8   8   4
#     4   8  13  20  28  38  54  77 103 127 152 186
#     4   8  12  18  28  40  54  74 101 130 156 183
#     4   8  13  20  28  37  52  76 101 123 151 186
#     4   7   9  13  21  33  48  65  87 118 154 185
#     4   8  12  17  26  39  52  68  95 129 157 181
#     4   7  10  16  25  37  53  73  96 123 156 188
#
# _framework density 25.69688
#
# number of rings (size 3 to 8) (size 9 to 14) (size 15 to 20)
#    0.000    4.273    0.000    3.818    0.000    0.000 
#    0.000    0.455    0.000    3.273    0.000    3.818 
#    0.000    0.727    0.000    0.818    0.000   20.727 
#
# Total GULP energy -244952.114759 kJ/mol
# GULP energy per Si atom -5567.093517 kJ/mol
# Density = 2.563839 g / cm^3
# Si number density = 25.696880 Si / 1000 Ang^3
#
#
#
# Elastic Constant Matrix: (Units=GPa)
#
#
# Indices 1 2 3 4 5 6 
#
# 1 93.4716 -2.9429 19.5763 0.0000 0.0000 0.0000
# 2 -2.9429 93.8043 18.5314 0.0000 0.0000 0.0000
# 3 19.5763 18.5314 422.8761 0.0000 0.0000 0.0000
# 4 0.0000 0.0000 0.0000 12.2131 0.0000 0.0000
# 5 0.0000 0.0000 0.0000 0.0000 7.1076 0.0000
# 6 0.0000 0.0000 0.0000 0.0000 0.0000 -7.8354
#
#
#
# Elastic Compliance Matrix: (Units=1/GPa)
#
#
# Indices 1 2 3 4 5 6 
#
# 1 0.010821 0.000442 -0.000520 0.000000 0.000000 0.000000
# 2 0.000442 0.010772 -0.000493 0.000000 0.000000 0.000000
# 3 -0.000520 -0.000493 0.002410 0.000000 0.000000 0.000000
# 4 0.000000 0.000000 0.000000 0.081879 0.000000 0.000000
# 5 0.000000 0.000000 0.000000 0.000000 0.140694 0.000000
# 6 0.000000 0.000000 0.000000 0.000000 0.000000 -0.127625
#
#
# Mechanical properties :
#
#
# Convention : Reuss Voigt Hill
#
# Bulk Modulus (GPa) = 43.74009 75.60905 59.67457
# Shear Modulus (GPa) = 39.15005 40.62954 39.88979
#
# Velocity S-wave (km/s) = 3.90748 3.98063 3.94422
# Velocity P-wave (km/s) = 6.11689 7.11439 6.63441
#
# Compressibility (1/GPa) = 0.02286232
#
# Stress axis : x y z
#
# Youngs Moduli (GPa) = 92.41000 92.83614 414.86371
#
# Poissons Ratio (x) = -0.04106 0.21587
# Poissons Ratio (y) = -0.04087 0.20433
# Poissons Ratio (z) = 0.04808 0.04572
#
# Static dielectric constant tensor:
#      x y z
#    x 2.138670 0.000000 0.000000 
#    y 0.000000 2.095230 0.000000 
#    z 0.000000 0.000000 2.150770 
# 
# From -- ./inp_files/34257.got.cif
#   From: 2010.05.17/outbox.cif.g08.bks.cpg/sg47_18_cif.got.tgz:34257.got - 2010.06.03 20:15:42.
