data_PCOD9388901
_publ_section_title
;
Structure prediction by ZEFSAII (Michael W. Deem and Ramdas Pophale) SiO2 
 PCOD9388901
Probable space group: P M M M
;
_chemical_formula_sum "Si O2"
_cell_formula_units_Z 48
_cell_length_a 9.767203
_cell_length_b 32.488387
_cell_length_c 7.348510
_cell_angle_alpha 90.000000
_cell_angle_beta 90.000000
_cell_angle_gamma 90.000000
_cell_volume 2331.834124
_symmetry_space_group_name_H-M "P M M M"
_symmetry_group_IT_number 47
_symmetry_cell_setting 'orthorhombic'
loop_
_space_group_symop_operation_xyz
x,y,z
-x,-y,z
x,-y,-z
-x,y,-z
-x,-y,-z
x,y,-z
-x,y,z
x,-y,z
loop_
_atom_site_type_symbol
_atom_site_label
_atom_site_fract_x
_atom_site_fract_y
_atom_site_fract_z
Si Si1 0.341532 0.545677 0.778325
Si Si2 0.156259 0.864957 0.213999
Si Si3 0.159311 0.955818 0.281495
Si Si4 0.157667 0.378790 0.221603
Si Si5 0.657577 0.209901 0.222739
Si Si6 0.842140 0.713720 0.221457
O O1 0.500000 0.550153 0.725088
O O2 0.293732 0.500000 0.722328
O O3 0.251908 0.583959 0.715190
O O4 0.338524 0.546048 0.000000
O O5 0.215254 0.911215 0.230699
O O6 0.256597 0.829896 0.285251
O O7 0.000000 0.863933 0.289314
O O8 0.143130 0.856772 0.000000
O O9 0.159288 0.956658 0.500000
O O10 0.000000 0.955213 0.220964
O O11 0.218478 0.000000 0.219662
O O12 0.197702 0.332547 0.278125
O O13 0.000000 0.385195 0.274353
O O14 0.161535 0.378920 0.000000
O O15 0.500000 0.209377 0.281059
O O16 0.739341 0.250738 0.280003
O O17 0.656251 0.209689 0.000000
O O18 0.000000 0.721505 0.276786
O O19 0.842544 0.714024 0.000000
#
# Coordination Sequence:
#
# PCOD9388901 Si02
#       6
#     8   8   8   8   8   8
#     4   8  13  19  24  30  42  61  86 119 160 204
#     4   9  16  25  39  59  80 101 125 154 188 223
#     4   8  14  25  41  61  83 104 127 157 190 221
#     4   8  13  19  26  36  48  64  89 122 161 205
#     4   9  16  24  34  49  69  92 116 142 175 216
#     4   8  13  21  31  42  58  79 103 133 170 213
#
# _framework density 20.584654
#
# number of rings (size 3 to 8) (size 9 to 14) (size 15 to 20)
#    0.000    3.667    0.000    2.500    0.000    3.333 
#    0.000    6.667    0.000    1.000    0.000    3.500 
#    0.000    0.000    0.000    0.000    0.000    0.000 
#
# Total GULP energy -267502.826659 kJ/mol
# GULP energy per Si atom -5572.975555 kJ/mol
# Density = 2.053780 g / cm^3
# Si number density = 20.584654 Si / 1000 Ang^3
#
#
#
# Elastic Constant Matrix: (Units=GPa)
#
#
# Indices 1 2 3 4 5 6 
#
# 1 103.8419 130.8815 5.2850 0.0000 0.0000 0.0000
# 2 130.8815 254.7265 3.6154 0.0000 0.0000 0.0000
# 3 5.2850 3.6154 74.8586 0.0000 0.0000 0.0000
# 4 0.0000 0.0000 0.0000 75.9685 0.0000 0.0000
# 5 0.0000 0.0000 0.0000 0.0000 -11.5202 0.0000
# 6 0.0000 0.0000 0.0000 0.0000 0.0000 -11.4289
#
#
#
# Elastic Compliance Matrix: (Units=1/GPa)
#
#
# Indices 1 2 3 4 5 6 
#
# 1 0.027445 -0.014084 -0.001257 0.000000 0.000000 0.000000
# 2 -0.014084 0.011156 0.000456 0.000000 0.000000 0.000000
# 3 -0.001257 0.000456 0.013425 0.000000 0.000000 0.000000
# 4 0.000000 0.000000 0.000000 0.013163 0.000000 0.000000
# 5 0.000000 0.000000 0.000000 0.000000 -0.086804 0.000000
# 6 0.000000 0.000000 0.000000 0.000000 0.000000 -0.087498
#
#
# Mechanical properties :
#
#
# Convention : Reuss Voigt Hill
#
# Bulk Modulus (GPa) = 44.93418 79.22122 62.07770
# Shear Modulus (GPa) = -69.51924 30.18022 -19.66951
#
# Velocity S-wave (km/s) = -5.81770 3.83319 -3.09454
# Velocity P-wave (km/s) = 4.82195 7.62629 4.17786
#
# Compressibility (1/GPa) = 0.02225477
#
# Stress axis : x y z
#
# Youngs Moduli (GPa) = 36.43635 89.63999 74.48630
#
# Poissons Ratio (x) = 1.26247 0.09366
# Poissons Ratio (y) = 0.51316 -0.03393
# Poissons Ratio (z) = 0.04582 -0.04083
#
# Static dielectric constant tensor:
#      x y z
#    x 1.683000 0.000000 0.000000 
#    y 0.000000 1.745440 0.000000 
#    z 0.000000 0.000000 1.821120 
# 
# From -- ./inp_files/4710.got.cif
#   From: 2010.05.17/outbox.cif.g08.bks.cpg/sg47_3_cif.got.tgz:4710.got - 2010.06.03 20:15:42.
