data_PCOD9388598
_publ_section_title
;
Structure prediction by ZEFSAII (Michael W. Deem and Ramdas Pophale) SiO2 
 PCOD9388598
Probable space group: P M M M
;
_chemical_formula_sum "Si O2"
_cell_formula_units_Z 44
_cell_length_a 29.593712
_cell_length_b 9.582884
_cell_length_c 8.460453
_cell_angle_alpha 90.000000
_cell_angle_beta 90.000000
_cell_angle_gamma 90.000000
_cell_volume 2399.326172
_symmetry_space_group_name_H-M "P M M M"
_symmetry_group_IT_number 47
_symmetry_cell_setting 'orthorhombic'
loop_
_space_group_symop_operation_xyz
x,y,z
-x,-y,z
x,-y,-z
-x,y,-z
-x,-y,-z
x,y,-z
-x,y,z
x,-y,z
loop_
_atom_site_type_symbol
_atom_site_label
_atom_site_fract_x
_atom_site_fract_y
_atom_site_fract_z
Si Si1 0.781577 0.338383 0.808385
Si Si2 0.683067 0.330291 0.182823
Si Si3 0.500000 0.160620 0.689371
Si Si4 0.415707 0.662203 0.808155
Si Si5 0.948557 0.338659 0.809142
Si Si6 0.865412 0.840366 0.311040
O O1 0.788840 0.500000 0.760106
O O2 0.731861 0.290552 0.748700
O O3 0.822213 0.242823 0.752905
O O4 0.779992 0.337728 0.000000
O O5 0.683233 0.500000 0.180339
O O6 0.634195 0.291451 0.251071
O O7 0.682957 0.282993 0.000000
O O8 0.500000 0.162223 0.500000
O O9 0.544195 0.241419 0.749456
O O10 0.500000 0.000000 0.743912
O O11 0.423100 0.500000 0.761841
O O12 0.414653 0.664396 0.000000
O O13 0.939887 0.500000 0.762972
O O14 0.910784 0.238142 0.741441
O O15 0.000000 0.303147 0.761507
O O16 0.946691 0.333459 0.000000
O O17 0.863399 0.840756 0.500000
O O18 0.865333 0.000000 0.253661
#
# Coordination Sequence:
#
# PCOD9388598 Si02
#       6
#     8   8   4   8   8   8
#     4   9  17  32  56  81 102 128 165 208 252 298
#     4   7  12  26  50  79 104 122 150 201 257 301
#     4  11  24  37  46  64 100 141 174 203 242 294
#     4   9  17  32  56  81 100 122 159 207 256 303
#     4   9  19  37  60  83 103 125 161 210 259 305
#     4  11  24  37  48  70 107 145 176 206 243 290
#
# _framework density 18.338481000000002
#
# number of rings (size 3 to 8) (size 9 to 14) (size 15 to 20)
#    0.000    2.818    0.000    4.364    0.000    7.273 
#    0.000    4.545    0.000    8.727    0.000    0.000 
#    0.000    0.000    0.000    0.000    0.000    0.000 
#
# Total GULP energy -245239.643000 kJ/mol
# GULP energy per Si atom -5573.628250 kJ/mol
# Density = 1.829674 g / cm^3
# Si number density = 18.338481 Si / 1000 Ang^3
#
#
#
# Elastic Constant Matrix: (Units=GPa)
#
#
# Indices 1 2 3 4 5 6 
#
# 1 214.5204 116.6147 28.8967 0.0000 0.0000 0.0000
# 2 116.6147 112.2890 24.1361 0.0000 0.0000 0.0000
# 3 28.8967 24.1361 13.2029 0.0000 0.0000 0.0000
# 4 0.0000 0.0000 0.0000 25.0777 0.0000 0.0000
# 5 0.0000 0.0000 0.0000 0.0000 -36.2355 0.0000
# 6 0.0000 0.0000 0.0000 0.0000 0.0000 -9.6634
#
#
#
# Elastic Compliance Matrix: (Units=1/GPa)
#
#
# Indices 1 2 3 4 5 6 
#
# 1 0.010919 -0.010218 -0.005219 0.000000 0.000000 0.000000
# 2 -0.010218 0.024232 -0.021934 0.000000 0.000000 0.000000
# 3 -0.005219 -0.021934 0.127261 0.000000 0.000000 0.000000
# 4 0.000000 0.000000 0.000000 0.039876 0.000000 0.000000
# 5 0.000000 0.000000 0.000000 0.000000 -0.027597 0.000000
# 6 0.000000 0.000000 0.000000 0.000000 0.000000 -0.103484
#
#
# Mechanical properties :
#
#
# Convention : Reuss Voigt Hill
#
# Bulk Modulus (GPa) = 11.40646 75.47861 43.44254
# Shear Modulus (GPa) = 28.54318 7.19343 17.86830
#
# Velocity S-wave (km/s) = 3.94948 1.98270 3.12486
# Velocity P-wave (km/s) = 5.19917 6.81831 6.06303
#
# Compressibility (1/GPa) = 0.08766959
#
# Stress axis : x y z
#
# Youngs Moduli (GPa) = 91.58244 41.26780 7.85786
#
# Poissons Ratio (x) = 0.42167 0.04101
# Poissons Ratio (y) = 0.93579 0.17236
# Poissons Ratio (z) = 0.47795 0.90519
#
# Static dielectric constant tensor:
#      x y z
#    x 1.652040 0.000000 0.000000 
#    y 0.000000 1.604960 0.000000 
#    z 0.000000 0.000000 1.629690 
# 
# From -- ./inp_files/13634.got.cif
#   From: 2010.05.17/outbox.cif.g08.bks.cpg/sg47_7_cif.got.tgz:13634.got - 2010.06.03 20:15:42.
