data_PCOD9388222
_publ_section_title
;
Structure prediction by ZEFSAII (Michael W. Deem and Ramdas Pophale) SiO2 
 PCOD9388222
Probable space group: P M M M
;
_chemical_formula_sum "Si O2"
_cell_formula_units_Z 56
_cell_length_a 8.639208
_cell_length_b 14.152456
_cell_length_c 30.375555
_cell_angle_alpha 90.000000
_cell_angle_beta 90.000000
_cell_angle_gamma 90.000000
_cell_volume 3713.897945
_symmetry_space_group_name_H-M "P M M M"
_symmetry_group_IT_number 47
_symmetry_cell_setting 'orthorhombic'
loop_
_space_group_symop_operation_xyz
x,y,z
-x,-y,z
x,-y,-z
-x,y,-z
-x,-y,-z
x,y,-z
-x,y,z
x,-y,z
loop_
_atom_site_type_symbol
_atom_site_label
_atom_site_fract_x
_atom_site_fract_y
_atom_site_fract_z
Si Si1 0.812312 0.610983 0.143945
Si Si2 0.313522 0.891081 0.450376
Si Si3 0.187225 0.607242 0.685547
Si Si4 0.187092 0.891848 0.724043
Si Si5 0.184113 0.385833 0.047315
Si Si6 0.684197 0.288331 0.770627
Si Si7 0.185987 0.789486 0.366101
O O1 0.769941 0.500000 0.149900
O O2 0.756902 0.644055 0.095317
O O3 0.747396 0.673330 0.183255
O O4 0.000000 0.614603 0.144403
O O5 0.263512 0.864558 0.500000
O O6 0.500000 0.890068 0.449859
O O7 0.253155 0.825296 0.411731
O O8 0.264063 0.000000 0.442539
O O9 0.234533 0.500000 0.676282
O O10 0.253193 0.643501 0.731867
O O11 0.233419 0.684224 0.648939
O O12 0.000000 0.610167 0.688747
O O13 0.255828 0.815911 0.757755
O O14 0.231470 0.857302 0.674815
O O15 0.000000 0.886532 0.726456
O O16 0.234315 0.000000 0.731411
O O17 0.197240 0.500000 0.047569
O O18 0.000000 0.365180 0.046844
O O19 0.249079 0.352421 0.000000
O O20 0.500000 0.289495 0.770543
O O21 0.000000 0.791876 0.368954
#
# Coordination Sequence:
#
# PCOD9388222 Si02
#       7
#     8   8   8   8   8   8   8
#     4   9  16  26  41  59  82 115 149 179 213 251
#     4   9  18  31  45  63  89 118 142 164 198 248
#     4   9  18  33  49  62  82 114 148 180 213 249
#     4   9  18  33  50  65  84 111 141 173 210 254
#     4   7  10  18  34  56  78 101 136 180 217 247
#     4  11  21  29  40  62  90 115 142 177 212 249
#     4   9  17  29  47  70  88 104 134 174 212 247
#
# _framework density 15.078497
#
# number of rings (size 3 to 8) (size 9 to 14) (size 15 to 20)
#    0.000    3.000    0.000    4.714    0.000    6.000 
#    0.000    0.714    0.000    0.857    0.000    5.000 
#    0.000    0.571    0.000    6.571    0.000    2.143 
#
# Total GULP energy -311808.786747 kJ/mol
# GULP energy per Si atom -5568.014049 kJ/mol
# Density = 1.504418 g / cm^3
# Si number density = 15.078497 Si / 1000 Ang^3
#
#
#
# Elastic Constant Matrix: (Units=GPa)
#
#
# Indices 1 2 3 4 5 6 
#
# 1 11.7049 25.9304 27.2614 0.0000 0.0000 0.0000
# 2 25.9304 110.1286 80.8949 0.0000 0.0000 0.0000
# 3 27.2614 80.8949 162.8250 0.0000 0.0000 0.0000
# 4 0.0000 0.0000 0.0000 20.5123 0.0000 0.0000
# 5 0.0000 0.0000 0.0000 0.0000 -62.8058 0.0000
# 6 0.0000 0.0000 0.0000 0.0000 0.0000 6.1700
#
#
#
# Elastic Compliance Matrix: (Units=1/GPa)
#
#
# Indices 1 2 3 4 5 6 
#
# 1 0.202148 -0.035801 -0.016058 0.000000 0.000000 0.000000
# 2 -0.035801 0.020639 -0.004260 0.000000 0.000000 0.000000
# 3 -0.016058 -0.004260 0.010946 0.000000 0.000000 0.000000
# 4 0.000000 0.000000 0.000000 0.048751 0.000000 0.000000
# 5 0.000000 0.000000 0.000000 0.000000 -0.015922 0.000000
# 6 0.000000 0.000000 0.000000 0.000000 0.000000 0.162076
#
#
# Mechanical properties :
#
#
# Convention : Reuss Voigt Hill
#
# Bulk Modulus (GPa) = 8.23082 61.42576 34.82829
# Shear Modulus (GPa) = 8.60031 2.81340 5.70686
#
# Velocity S-wave (km/s) = 2.39083 1.36744 1.94756
# Velocity P-wave (km/s) = 3.61828 6.58171 5.31088
#
# Compressibility (1/GPa) = 0.12149453
#
# Stress axis : x y z
#
# Youngs Moduli (GPa) = 4.94688 48.45221 91.35362
#
# Poissons Ratio (x) = 1.73465 1.46698
# Poissons Ratio (y) = 0.17710 0.38914
# Poissons Ratio (z) = 0.07944 0.20639
#
# Static dielectric constant tensor:
#      x y z
#    x 1.508460 0.000000 0.000000 
#    y 0.000000 1.488400 0.000000 
#    z 0.000000 0.000000 1.511960 
# 
# From -- ./inp_files/8143.got.cif
#   From: 2010.05.17/outbox.cif.g08.bks.cpg/sg47_5_cif.got.tgz:8143.got - 2010.06.03 20:15:42.
