data_PCOD9388728
_publ_section_title
;
Structure prediction by ZEFSAII (Michael W. Deem and Ramdas Pophale) SiO2 
 PCOD9388728
Probable space group: P M M M
;
_chemical_formula_sum "Si O2"
_cell_formula_units_Z 44
_cell_length_a 9.416352
_cell_length_b 30.109556
_cell_length_c 7.378578
_cell_angle_alpha 90.000000
_cell_angle_beta 90.000000
_cell_angle_gamma 90.000000
_cell_volume 2091.990504
_symmetry_space_group_name_H-M "P M M M"
_symmetry_group_IT_number 47
_symmetry_cell_setting 'orthorhombic'
loop_
_space_group_symop_operation_xyz
x,y,z
-x,-y,z
x,-y,-z
-x,y,-z
-x,-y,-z
x,y,-z
-x,y,z
x,-y,z
loop_
_atom_site_type_symbol
_atom_site_label
_atom_site_fract_x
_atom_site_fract_y
_atom_site_fract_z
Si Si1 0.834891 0.547687 0.217485
Si Si2 0.327257 0.000000 0.711090
Si Si3 0.161732 0.645160 0.285958
Si Si4 0.836897 0.183344 0.278832
Si Si5 0.335217 0.903098 0.278295
Si Si6 0.336933 0.270310 0.721728
O O1 0.773904 0.500000 0.279447
O O2 0.774365 0.595698 0.265918
O O3 0.000000 0.548669 0.279355
O O4 0.836243 0.546521 0.000000
O O5 0.284970 0.951884 0.785439
O O6 0.500000 0.000000 0.716326
O O7 0.284432 0.000000 0.500000
O O8 0.149042 0.652784 0.500000
O O9 0.257753 0.685054 0.215636
O O10 0.000000 0.645558 0.211266
O O11 0.836287 0.183206 0.500000
O O12 0.760198 0.138067 0.220794
O O13 0.749265 0.226653 0.222223
O O14 0.000000 0.185566 0.221001
O O15 0.334071 0.904244 0.500000
O O16 0.500000 0.896640 0.225915
O O17 0.337681 0.270517 0.500000
O O18 0.500000 0.268753 0.779729
#
# Coordination Sequence:
#
# PCOD9388728 Si02
#       6
#     8   4   8   8   8   8
#     4   8  14  25  41  61  84 108 132 157 187 226
#     4   7  10  16  25  35  47  67  99 139 178 217
#     4   9  16  25  39  60  82 101 125 161 198 225
#     4   9  15  21  29  42  60  81 107 142 184 227
#     4   8  12  18  27  37  50  72 104 140 179 223
#     4   9  16  25  36  49  67  92 119 147 184 231
#
# _framework density 21.032601
#
# number of rings (size 3 to 8) (size 9 to 14) (size 15 to 20)
#    0.000    3.545    0.000    2.727    0.000    4.727 
#    0.000    2.273    0.000    3.818    0.000    3.818 
#    0.000    0.000    0.000    0.000    0.000    0.000 
#
# Total GULP energy -245228.676237 kJ/mol
# GULP energy per Si atom -5573.379005 kJ/mol
# Density = 2.098473 g / cm^3
# Si number density = 21.032601 Si / 1000 Ang^3
#
#
#
# Elastic Constant Matrix: (Units=GPa)
#
#
# Indices 1 2 3 4 5 6 
#
# 1 114.0120 118.5747 4.8401 0.0000 0.0000 0.0000
# 2 118.5747 274.9323 5.4071 0.0000 0.0000 0.0000
# 3 4.8401 5.4071 71.8880 0.0000 0.0000 0.0000
# 4 0.0000 0.0000 0.0000 82.1741 0.0000 0.0000
# 5 0.0000 0.0000 0.0000 0.0000 -11.1430 0.0000
# 6 0.0000 0.0000 0.0000 0.0000 0.0000 41.9589
#
#
#
# Elastic Compliance Matrix: (Units=1/GPa)
#
#
# Indices 1 2 3 4 5 6 
#
# 1 0.015927 -0.006858 -0.000557 0.000000 0.000000 0.000000
# 2 -0.006858 0.006596 -0.000034 0.000000 0.000000 0.000000
# 3 -0.000557 -0.000034 0.013951 0.000000 0.000000 0.000000
# 4 0.000000 0.000000 0.000000 0.012169 0.000000 0.000000
# 5 0.000000 0.000000 0.000000 0.000000 -0.089742 0.000000
# 6 0.000000 0.000000 0.000000 0.000000 0.000000 0.023833
#
#
# Mechanical properties :
#
#
# Convention : Reuss Voigt Hill
#
# Bulk Modulus (GPa) = 46.34899 79.83068 63.08984
# Shear Modulus (GPa) = 1036.43243 44.73203 540.58223
#
# Velocity S-wave (km/s) = 22.22260 4.61672 16.04927
# Velocity P-wave (km/s) = 26.08722 8.15211 19.32615
#
# Compressibility (1/GPa) = 0.02157544
#
# Stress axis : x y z
#
# Youngs Moduli (GPa) = 62.78463 151.61032 71.68162
#
# Poissons Ratio (x) = 1.03980 0.03989
# Poissons Ratio (y) = 0.43060 0.00246
# Poissons Ratio (z) = 0.03494 0.00521
#
# Static dielectric constant tensor:
#      x y z
#    x 1.704970 0.000000 0.000000 
#    y 0.000000 1.778910 0.000000 
#    z 0.000000 0.000000 1.820400 
# 
# From -- ./inp_files/2326.got.cif
#   From: 2010.05.17/outbox.cif.g08.bks.cpg/sg47_2_cif.got.tgz:2326.got - 2010.06.03 20:15:42.
