data_PCOD9388484
_publ_section_title
;
Structure prediction by ZEFSAII (Michael W. Deem and Ramdas Pophale) SiO2 
 PCOD9388484
Probable space group: P M M M
;
_chemical_formula_sum "Si O2"
_cell_formula_units_Z 40
_cell_length_a 9.219676
_cell_length_b 10.332578
_cell_length_c 25.162543
_cell_angle_alpha 90.000000
_cell_angle_beta 90.000000
_cell_angle_gamma 90.000000
_cell_volume 2397.059872
_symmetry_space_group_name_H-M "P M M M"
_symmetry_group_IT_number 47
_symmetry_cell_setting 'orthorhombic'
loop_
_space_group_symop_operation_xyz
x,y,z
-x,-y,z
x,-y,-z
-x,y,-z
-x,-y,-z
x,y,-z
-x,y,z
x,-y,z
loop_
_atom_site_type_symbol
_atom_site_label
_atom_site_fract_x
_atom_site_fract_y
_atom_site_fract_z
Si Si1 0.332979 0.657736 0.335884
Si Si2 0.330509 0.500000 0.063733
Si Si3 0.825434 0.250888 0.112818
Si Si4 0.830438 0.657298 0.441311
Si Si5 0.672984 0.000000 0.936188
Si Si6 0.172369 0.651719 0.771049
O O1 0.500000 0.695923 0.334982
O O2 0.326233 0.500000 0.336449
O O3 0.256798 0.703250 0.390037
O O4 0.253328 0.697375 0.281792
O O5 0.500000 0.500000 0.080818
O O6 0.246525 0.625172 0.084967
O O7 0.328662 0.500000 0.000000
O O8 0.797300 0.268018 0.175825
O O9 0.000000 0.249456 0.105032
O O10 0.750138 0.124982 0.088735
O O11 0.778615 0.699426 0.500000
O O12 0.823161 0.500000 0.441179
O O13 0.000000 0.690980 0.436258
O O14 0.500000 0.000000 0.925473
O O15 0.691580 0.000000 0.000000
O O16 0.210834 0.500000 0.781121
O O17 0.000000 0.655091 0.761284
#
# Coordination Sequence:
#
# PCOD9388484 Si02
#       6
#     8   4   8   8   4   8
#     4   9  16  23  34  56  83 114 153 196 244 293
#     4  11  23  37  55  81 111 139 166 205 258 309
#     4  11  22  38  59  82 104 134 176 217 255 302
#     4   8  13  21  32  46  69 108 155 197 239 287
#     4  11  25  43  59  79 109 141 170 205 260 321
#     4   9  17  31  48  68  95 124 159 204 251 297
#
# _framework density 16.687109
#
# number of rings (size 3 to 8) (size 9 to 14) (size 15 to 20)
#    0.000    2.400    1.000    3.000    0.000    8.400 
#    0.000    2.000    0.000    0.000    0.000    0.000 
#    0.000    0.000    0.000    0.900    0.000   17.800 
#
# Total GULP energy -222987.059249 kJ/mol
# GULP energy per Si atom -5574.676481 kJ/mol
# Density = 1.664913 g / cm^3
# Si number density = 16.687109 Si / 1000 Ang^3
#
#
#
# Elastic Constant Matrix: (Units=GPa)
#
#
# Indices 1 2 3 4 5 6 
#
# 1 107.5760 50.9218 103.8251 0.0000 0.0000 0.0000
# 2 50.9218 80.4507 53.2886 0.0000 0.0000 0.0000
# 3 103.8251 53.2886 168.5530 0.0000 0.0000 0.0000
# 4 0.0000 0.0000 0.0000 13.7685 0.0000 0.0000
# 5 0.0000 0.0000 0.0000 0.0000 -68.3454 0.0000
# 6 0.0000 0.0000 0.0000 0.0000 0.0000 15.9492
#
#
#
# Elastic Compliance Matrix: (Units=1/GPa)
#
#
# Indices 1 2 3 4 5 6 
#
# 1 0.025992 -0.007396 -0.013673 0.000000 0.000000 0.000000
# 2 -0.007396 0.017827 -0.001080 0.000000 0.000000 0.000000
# 3 -0.013673 -0.001080 0.014696 0.000000 0.000000 0.000000
# 4 0.000000 0.000000 0.000000 0.072630 0.000000 0.000000
# 5 0.000000 0.000000 0.000000 0.000000 -0.014632 0.000000
# 6 0.000000 0.000000 0.000000 0.000000 0.000000 0.062699
#
#
# Mechanical properties :
#
#
# Convention : Reuss Voigt Hill
#
# Bulk Modulus (GPa) = 70.33215 85.85008 78.09111
# Shear Modulus (GPa) = 21.90583 2.17740 12.04162
#
# Velocity S-wave (km/s) = 3.62711 1.14354 2.68920
# Velocity P-wave (km/s) = 7.73177 7.30084 7.51939
#
# Compressibility (1/GPa) = 0.01421825
#
# Stress axis : x y z
#
# Youngs Moduli (GPa) = 38.47270 56.09542 68.04348
#
# Poissons Ratio (x) = 0.41486 0.93033
# Poissons Ratio (y) = 0.28453 0.07351
# Poissons Ratio (z) = 0.52602 0.06061
#
# Static dielectric constant tensor:
#      x y z
#    x 1.555120 0.000000 0.000000 
#    y 0.000000 1.555220 0.000000 
#    z 0.000000 0.000000 1.571420 
# 
# From -- ./inp_files/32994.got.cif
#   From: 2010.05.17/outbox.cif.g08.bks.cpg/sg47_17_cif.got.tgz:32994.got - 2010.06.03 20:15:42.
