data_PCOD9388894
_publ_section_title
;
Structure prediction by ZEFSAII (Michael W. Deem and Ramdas Pophale) SiO2 
 PCOD9388894
Probable space group: P M M M
;
_chemical_formula_sum "Si O2"
_cell_formula_units_Z 40
_cell_length_a 29.329442
_cell_length_b 8.115705
_cell_length_c 7.442748
_cell_angle_alpha 90.000000
_cell_angle_beta 90.000000
_cell_angle_gamma 90.000000
_cell_volume 1771.590601
_symmetry_space_group_name_H-M "P M M M"
_symmetry_group_IT_number 47
_symmetry_cell_setting 'orthorhombic'
loop_
_space_group_symop_operation_xyz
x,y,z
-x,-y,z
x,-y,-z
-x,y,-z
-x,-y,-z
x,y,-z
-x,y,z
x,-y,z
loop_
_atom_site_type_symbol
_atom_site_label
_atom_site_fract_x
_atom_site_fract_y
_atom_site_fract_z
Si Si1 0.293040 0.307329 0.780506
Si Si2 0.902193 0.812757 0.214661
Si Si3 0.390479 0.818477 0.219312
Si Si4 0.194744 0.697732 0.791241
Si Si5 0.552517 0.500000 0.780364
Si Si6 0.000000 0.187338 0.711043
O O1 0.298458 0.500000 0.730804
O O2 0.338095 0.211424 0.724948
O O3 0.243524 0.245005 0.715989
O O4 0.291571 0.303451 0.000000
O O5 0.854469 0.743566 0.286615
O O6 0.951434 0.730774 0.245978
O O7 0.906040 0.000000 0.282148
O O8 0.898008 0.815115 0.000000
O O9 0.421104 0.664789 0.277842
O O10 0.406129 0.000000 0.275575
O O11 0.390790 0.815833 0.000000
O O12 0.197370 0.500000 0.790350
O O13 0.194282 0.752954 0.000000
O O14 0.500000 0.500000 0.724699
O O15 0.553349 0.500000 0.000000
O O16 0.000000 0.169607 0.500000
O O17 0.000000 0.000000 0.793629
#
# Coordination Sequence:
#
# PCOD9388894 Si02
#       6
#     8   8   8   8   4   4
#     4   8  12  20  32  44  62  85 106 132 173 229
#     4   9  16  26  41  60  79  97 124 165 205 239
#     4   9  15  21  30  42  55  76 108 145 188 236
#     4   8  14  23  36  54  75  97 116 139 182 240
#     4   9  16  24  30  36  52  78 110 151 193 232
#     4   9  17  29  44  59  76 104 138 165 196 242
#
# _framework density 22.578579999999999
#
# number of rings (size 3 to 8) (size 9 to 14) (size 15 to 20)
#    0.000    3.400    1.000    1.500    0.000    2.400 
#    0.000    6.500    0.000    3.600    0.000    0.000 
#    0.000    0.000    0.000    0.000    0.000    0.000 
#
# Total GULP energy -222895.377529 kJ/mol
# GULP energy per Si atom -5572.384438 kJ/mol
# Density = 2.252719 g / cm^3
# Si number density = 22.578580 Si / 1000 Ang^3
#
#
#
# Elastic Constant Matrix: (Units=GPa)
#
#
# Indices 1 2 3 4 5 6 
#
# 1 237.2444 86.6823 8.3204 0.0000 0.0000 0.0000
# 2 86.6823 94.3999 3.9370 0.0000 0.0000 0.0000
# 3 8.3204 3.9370 68.4340 0.0000 0.0000 0.0000
# 4 0.0000 0.0000 0.0000 -11.3578 0.0000 0.0000
# 5 0.0000 0.0000 0.0000 0.0000 -56.3868 0.0000
# 6 0.0000 0.0000 0.0000 0.0000 0.0000 41.5832
#
#
#
# Elastic Compliance Matrix: (Units=1/GPa)
#
#
# Indices 1 2 3 4 5 6 
#
# 1 0.006356 -0.005818 -0.000438 0.000000 0.000000 0.000000
# 2 -0.005818 0.015945 -0.000210 0.000000 0.000000 0.000000
# 3 -0.000438 -0.000210 0.014678 0.000000 0.000000 0.000000
# 4 0.000000 0.000000 0.000000 -0.088045 0.000000 0.000000
# 5 0.000000 0.000000 0.000000 0.000000 -0.017735 0.000000
# 6 0.000000 0.000000 0.000000 0.000000 0.000000 0.024048
#
#
# Mechanical properties :
#
#
# Convention : Reuss Voigt Hill
#
# Bulk Modulus (GPa) = 41.58648 66.43972 54.01310
# Shear Modulus (GPa) = -210.04400 14.84363 -97.60018
#
# Velocity S-wave (km/s) = -9.65557 2.56680 -6.58185
# Velocity P-wave (km/s) = 10.28825 6.18664 5.81264
#
# Compressibility (1/GPa) = 0.02404627
#
# Stress axis : x y z
#
# Youngs Moduli (GPa) = 157.32444 62.71684 68.12934
#
# Poissons Ratio (x) = 0.36491 0.02985
# Poissons Ratio (y) = 0.91537 0.01430
# Poissons Ratio (z) = 0.06892 0.01316
#
# Static dielectric constant tensor:
#      x y z
#    x 1.881250 0.000000 0.000000 
#    y 0.000000 1.818210 0.000000 
#    z 0.000000 0.000000 1.843480 
# 
# From -- ./inp_files/13078.got.cif
#   From: 2010.05.17/outbox.cif.g08.bks.cpg/sg47_7_cif.got.tgz:13078.got - 2010.06.03 20:15:42.
