data_PCOD9388193
_publ_section_title
;
Structure prediction by ZEFSAII (Michael W. Deem and Ramdas Pophale) SiO2 
 PCOD9388193
Probable space group: P M M M
;
_chemical_formula_sum "Si O2"
_cell_formula_units_Z 52
_cell_length_a 14.330843
_cell_length_b 22.194508
_cell_length_c 8.607933
_cell_angle_alpha 90.000000
_cell_angle_beta 90.000000
_cell_angle_gamma 90.000000
_cell_volume 2737.890900
_symmetry_space_group_name_H-M "P M M M"
_symmetry_group_IT_number 47
_symmetry_cell_setting 'orthorhombic'
loop_
_space_group_symop_operation_xyz
x,y,z
-x,-y,z
x,-y,-z
-x,y,-z
-x,-y,-z
x,y,-z
-x,y,z
x,-y,z
loop_
_atom_site_type_symbol
_atom_site_label
_atom_site_fract_x
_atom_site_fract_y
_atom_site_fract_z
Si Si1 0.107941 0.760053 0.314534
Si Si2 0.750507 0.669478 0.178924
Si Si3 0.606350 0.570038 0.810865
Si Si4 0.798486 0.880784 0.183596
Si Si5 0.890120 0.000000 0.819978
Si Si6 0.603069 0.108927 0.321410
Si Si7 0.605294 0.253618 0.672992
O O1 0.107443 0.760821 0.500000
O O2 0.159685 0.698913 0.259775
O O3 0.167689 0.818235 0.259443
O O4 0.000000 0.763924 0.259173
O O5 0.691341 0.612481 0.243905
O O6 0.672499 0.721606 0.196619
O O7 0.773381 0.657709 0.000000
O O8 0.500000 0.586045 0.760180
O O9 0.621412 0.500000 0.771143
O O10 0.605866 0.574642 0.000000
O O11 0.856971 0.937028 0.249129
O O12 0.692443 0.901421 0.216344
O O13 0.813705 0.873229 0.000000
O O14 0.000000 0.000000 0.823559
O O15 0.855290 0.000000 0.000000
O O16 0.617596 0.088249 0.500000
O O17 0.500000 0.088017 0.270189
O O18 0.600592 0.181752 0.326596
O O19 0.639249 0.271899 0.500000
O O20 0.500000 0.275783 0.693586
#
# Coordination Sequence:
#
# PCOD9388193 Si02
#       7
#     8   8   8   8   4   8   8
#     4  11  24  40  56  75 105 143 179 221 276 331
#     4  11  20  30  51  82 108 136 178 225 269 315
#     4   8  15  29  49  77 115 151 178 210 258 315
#     4  11  21  36  60  86 109 138 176 223 274 323
#     4   9  20  38  58  81 110 140 171 217 280 337
#     4   9  18  33  52  75 108 147 178 207 253 314
#     4   9  17  29  46  70 105 145 175 204 250 307
#
# _framework density 18.992719999999998
#
# number of rings (size 3 to 8) (size 9 to 14) (size 15 to 20)
#    0.000    2.231    1.538    3.692    0.000    3.077 
#    0.000    3.462    0.000    7.385    0.000    8.615 
#    0.000    0.000    0.000    0.000    0.000    0.000 
#
# Total GULP energy -289643.294590 kJ/mol
# GULP energy per Si atom -5570.063358 kJ/mol
# Density = 1.894949 g / cm^3
# Si number density = 18.992720 Si / 1000 Ang^3
#
#
#
# Elastic Constant Matrix: (Units=GPa)
#
#
# Indices 1 2 3 4 5 6 
#
# 1 104.9785 37.5373 17.7789 0.0000 0.0000 0.0000
# 2 37.5373 78.7512 12.3094 0.0000 0.0000 0.0000
# 3 17.7789 12.3094 25.9866 0.0000 0.0000 0.0000
# 4 0.0000 0.0000 0.0000 207.2324 0.0000 0.0000
# 5 0.0000 0.0000 0.0000 0.0000 24.5907 0.0000
# 6 0.0000 0.0000 0.0000 0.0000 0.0000 25.6010
#
#
#
# Elastic Compliance Matrix: (Units=1/GPa)
#
#
# Indices 1 2 3 4 5 6 
#
# 1 0.012317 -0.004918 -0.006097 0.000000 0.000000 0.000000
# 2 -0.004918 0.015677 -0.004061 0.000000 0.000000 0.000000
# 3 -0.006097 -0.004061 0.044577 0.000000 0.000000 0.000000
# 4 0.000000 0.000000 0.000000 0.004826 0.000000 0.000000
# 5 0.000000 0.000000 0.000000 0.000000 0.040666 0.000000
# 6 0.000000 0.000000 0.000000 0.000000 0.000000 0.039061
#
#
# Mechanical properties :
#
#
# Convention : Reuss Voigt Hill
#
# Bulk Modulus (GPa) = 23.57503 38.32973 30.95238
# Shear Modulus (GPa) = 24.82439 60.95754 42.89096
#
# Velocity S-wave (km/s) = 3.61923 5.67141 4.75730
# Velocity P-wave (km/s) = 5.46852 7.94428 6.81969
#
# Compressibility (1/GPa) = 0.04241777
#
# Stress axis : x y z
#
# Youngs Moduli (GPa) = 81.18961 63.78701 22.43332
#
# Poissons Ratio (x) = 0.31370 0.13678
# Poissons Ratio (y) = 0.39928 0.09111
# Poissons Ratio (z) = 0.49502 0.25906
#
# Static dielectric constant tensor:
#      x y z
#    x 1.691440 0.000000 0.000000 
#    y 0.000000 1.692440 0.000000 
#    z 0.000000 0.000000 1.684740 
# 
# From -- ./inp_files/7050.got.cif
#   From: 2010.05.17/outbox.cif.g08.bks.cpg/sg47_4_cif.got.tgz:7050.got - 2010.06.03 20:15:42.
