data_PCOD9388126
_publ_section_title
;
Structure prediction by ZEFSAII (Michael W. Deem and Ramdas Pophale) SiO2 
 PCOD9388126
Probable space group: P M M M
;
_chemical_formula_sum "Si O2"
_cell_formula_units_Z 48
_cell_length_a 9.932574
_cell_length_b 30.519738
_cell_length_c 8.566936
_cell_angle_alpha 90.000000
_cell_angle_beta 90.000000
_cell_angle_gamma 90.000000
_cell_volume 2596.977177
_symmetry_space_group_name_H-M "P M M M"
_symmetry_group_IT_number 47
_symmetry_cell_setting 'orthorhombic'
loop_
_space_group_symop_operation_xyz
x,y,z
-x,-y,z
x,-y,-z
-x,y,-z
-x,-y,-z
x,y,-z
-x,y,z
x,-y,z
loop_
_atom_site_type_symbol
_atom_site_label
_atom_site_fract_x
_atom_site_fract_y
_atom_site_fract_z
Si Si1 0.500000 0.050345 0.185483
Si Si2 0.342538 0.278066 0.187426
Si Si3 0.842857 0.199657 0.310810
Si Si4 0.837012 0.452970 0.315889
Si Si5 0.249028 0.102656 0.314926
Si Si6 0.842084 0.356317 0.310272
Si Si7 0.000000 0.052125 0.182325
O O1 0.374359 0.079030 0.238080
O O2 0.500000 0.000000 0.247966
O O3 0.500000 0.046849 0.000000
O O4 0.500000 0.277399 0.238827
O O5 0.257131 0.236490 0.247072
O O6 0.259912 0.320110 0.248356
O O7 0.341902 0.278204 0.000000
O O8 0.842101 0.201570 0.500000
O O9 0.788185 0.151851 0.262415
O O10 0.000000 0.205305 0.262313
O O11 0.801412 0.453306 0.500000
O O12 0.790842 0.500000 0.248356
O O13 0.798950 0.405115 0.253975
O O14 0.000000 0.453028 0.309061
O O15 0.269348 0.104537 0.500000
O O16 0.126004 0.071974 0.270040
O O17 0.839856 0.356183 0.500000
O O18 0.000000 0.348372 0.266127
O O19 0.000000 0.000000 0.187948
O O20 0.000000 0.065332 0.000000
#
# Coordination Sequence:
#
# PCOD9388126 Si02
#       7
#     4   8   8   8   8   8   4
#     4  11  25  43  61  87 125 163 197 235 280 333
#     4  11  25  40  54  78 110 146 188 230 274 330
#     4  10  22  42  64  87 113 140 177 228 284 338
#     4   7  10  19  40  73 109 139 171 218 274 327
#     4  11  23  41  64  91 119 152 194 239 285 336
#     4   9  17  31  54  83 111 142 182 228 279 332
#     4  11  23  39  61  91 125 159 193 231 280 335
#
# _framework density 18.483028999999998
#
# number of rings (size 3 to 8) (size 9 to 14) (size 15 to 20)
#    0.000    2.167    0.833    4.000    1.167    8.667 
#    0.000    0.000    0.000    1.000    0.000    5.833 
#    0.000    0.000    0.000    0.000    0.000    0.000 
#
# Total GULP energy -267606.906449 kJ/mol
# GULP energy per Si atom -5575.143884 kJ/mol
# Density = 1.844096 g / cm^3
# Si number density = 18.483029 Si / 1000 Ang^3
#
#
#
# Elastic Constant Matrix: (Units=GPa)
#
#
# Indices 1 2 3 4 5 6 
#
# 1 156.2666 93.8822 27.0240 0.0000 0.0000 0.0000
# 2 93.8822 175.6807 35.3472 0.0000 0.0000 0.0000
# 3 27.0240 35.3472 21.8101 0.0000 0.0000 0.0000
# 4 0.0000 0.0000 0.0000 -666.1661 0.0000 0.0000
# 5 0.0000 0.0000 0.0000 0.0000 34.2367 0.0000
# 6 0.0000 0.0000 0.0000 0.0000 0.0000 16.3218
#
#
#
# Elastic Compliance Matrix: (Units=1/GPa)
#
#
# Indices 1 2 3 4 5 6 
#
# 1 0.009843 -0.004164 -0.005448 0.000000 0.000000 0.000000
# 2 -0.004164 0.010208 -0.011384 0.000000 0.000000 0.000000
# 3 -0.005448 -0.011384 0.071051 0.000000 0.000000 0.000000
# 4 0.000000 0.000000 0.000000 -0.001501 0.000000 0.000000
# 5 0.000000 0.000000 0.000000 0.000000 0.029208 0.000000
# 6 0.000000 0.000000 0.000000 0.000000 0.000000 0.061268
#
#
# Mechanical properties :
#
#
# Convention : Reuss Voigt Hill
#
# Bulk Modulus (GPa) = 20.36254 74.02934 47.19594
# Shear Modulus (GPa) = 20.96977 -109.95458 -44.49240
#
# Velocity S-wave (km/s) = 3.37195 -7.72131 -4.91165
# Velocity P-wave (km/s) = 5.11868 6.27311 2.56428
#
# Compressibility (1/GPa) = 0.04910978
#
# Stress axis : x y z
#
# Youngs Moduli (GPa) = 101.59465 97.96364 14.07444
#
# Poissons Ratio (x) = 0.40792 0.07667
# Poissons Ratio (y) = 0.42304 0.16023
# Poissons Ratio (z) = 0.55345 1.11525
#
# Static dielectric constant tensor:
#      x y z
#    x 1.621400 0.000000 0.000000 
#    y 0.000000 1.668010 0.000000 
#    z 0.000000 0.000000 1.631950 
# 
# From -- ./inp_files/2807.got.cif
#   From: 2010.05.17/outbox.cif.g08.bks.cpg/sg47_2_cif.got.tgz:2807.got - 2010.06.03 20:15:42.
