data_PCOD9388656
_publ_section_title
;
Structure prediction by ZEFSAII (Michael W. Deem and Ramdas Pophale) SiO2 
 PCOD9388656
Probable space group: P M M M
;
_chemical_formula_sum "Si O2"
_cell_formula_units_Z 40
_cell_length_a 8.417317
_cell_length_b 26.522949
_cell_length_c 9.391093
_cell_angle_alpha 90.000000
_cell_angle_beta 90.000000
_cell_angle_gamma 90.000000
_cell_volume 2096.580947
_symmetry_space_group_name_H-M "P M M M"
_symmetry_group_IT_number 47
_symmetry_cell_setting 'orthorhombic'
loop_
_space_group_symop_operation_xyz
x,y,z
-x,-y,z
x,-y,-z
-x,y,-z
-x,-y,-z
x,y,-z
-x,y,z
x,-y,z
loop_
_atom_site_type_symbol
_atom_site_label
_atom_site_fract_x
_atom_site_fract_y
_atom_site_fract_z
Si Si1 0.690046 0.096767 0.663899
Si Si2 0.809837 0.000000 0.163822
Si Si3 0.189746 0.193059 0.835971
Si Si4 0.694561 0.500000 0.836689
Si Si5 0.308119 0.710961 0.332837
Si Si6 0.306391 0.402375 0.664227
O O1 0.747782 0.095940 0.500000
O O2 0.500000 0.093798 0.660903
O O3 0.753720 0.049393 0.752363
O O4 0.739371 0.147993 0.742334
O O5 0.000000 0.000000 0.160110
O O6 0.751522 0.000000 0.000000
O O7 0.236055 0.245978 0.764823
O O8 0.000000 0.187811 0.835732
O O9 0.245445 0.190284 0.000000
O O10 0.500000 0.500000 0.832096
O O11 0.748096 0.550909 0.758411
O O12 0.743064 0.500000 0.000000
O O13 0.266956 0.718499 0.500000
O O14 0.500000 0.713592 0.323526
O O15 0.257872 0.654069 0.291645
O O16 0.259454 0.409902 0.500000
O O17 0.500000 0.402388 0.666964
#
# Coordination Sequence:
#
# PCOD9388656 Si02
#       6
#     8   4   8   4   8   8
#     4  11  24  41  62  88 115 145 185 228 268 315
#     4  11  24  41  62  90 122 153 186 223 264 314
#     4  11  24  39  55  79 110 143 180 221 268 323
#     4   9  15  21  33  59  94 129 166 207 252 306
#     4   9  18  33  53  77 103 134 176 222 267 319
#     4   8  14  25  41  62  92 129 166 207 257 311
#
# _framework density 19.078682000000001
#
# number of rings (size 3 to 8) (size 9 to 14) (size 15 to 20)
#    0.000    2.200    0.000    4.500    0.000   12.400 
#    0.000    2.000    0.000    0.000    0.000    0.700 
#    0.000    5.600    0.000    0.000    0.000    0.000 
#
# Total GULP energy -223363.816533 kJ/mol
# GULP energy per Si atom -5584.095413 kJ/mol
# Density = 1.903526 g / cm^3
# Si number density = 19.078682 Si / 1000 Ang^3
#
#
#
# Elastic Constant Matrix: (Units=GPa)
#
#
# Indices 1 2 3 4 5 6 
#
# 1 23.1486 23.1255 29.8193 0.0000 0.0000 0.0000
# 2 23.1255 188.8043 122.5779 0.0000 0.0000 0.0000
# 3 29.8193 122.5779 167.5702 0.0000 0.0000 0.0000
# 4 0.0000 0.0000 0.0000 26.5107 0.0000 0.0000
# 5 0.0000 0.0000 0.0000 0.0000 24.0200 0.0000
# 6 0.0000 0.0000 0.0000 0.0000 0.0000 1556.5782
#
#
#
# Elastic Compliance Matrix: (Units=1/GPa)
#
#
# Indices 1 2 3 4 5 6 
#
# 1 0.056101 -0.000743 -0.009440 0.000000 0.000000 0.000000
# 2 -0.000743 0.010097 -0.007254 0.000000 0.000000 0.000000
# 3 -0.009440 -0.007254 0.012954 0.000000 0.000000 0.000000
# 4 0.000000 0.000000 0.000000 0.037721 0.000000 0.000000
# 5 0.000000 0.000000 0.000000 0.000000 0.041632 0.000000
# 6 0.000000 0.000000 0.000000 0.000000 0.000000 0.000642
#
#
# Mechanical properties :
#
#
# Convention : Reuss Voigt Hill
#
# Bulk Modulus (GPa) = 22.58407 81.17429 51.87918
# Shear Modulus (GPa) = 23.94875 335.02179 179.48527
#
# Velocity S-wave (km/s) = 3.54681 13.26579 9.70982
# Velocity P-wave (km/s) = 5.35128 16.65176 12.36765
#
# Compressibility (1/GPa) = 0.04427899
#
# Stress axis : x y z
#
# Youngs Moduli (GPa) = 17.82485 99.04169 77.19905
#
# Poissons Ratio (x) = 0.07357 0.72875
# Poissons Ratio (y) = 0.01324 0.55997
# Poissons Ratio (z) = 0.16827 0.71841
#
# Static dielectric constant tensor:
#      x y z
#    x 1.656520 0.000000 0.000000 
#    y 0.000000 1.639640 0.000000 
#    z 0.000000 0.000000 1.648390 
# 
# From -- ./inp_files/1780.got.cif
#   From: 2010.05.17/outbox.cif.g08.bks.cpg/sg47_1_cif.got.tgz:1780.got - 2010.06.03 20:15:42.
