data_PCOD9388356
_publ_section_title
;
Structure prediction by ZEFSAII (Michael W. Deem and Ramdas Pophale) SiO2 
 PCOD9388356
Probable space group: P M M M
;
_chemical_formula_sum "Si O2"
_cell_formula_units_Z 32
_cell_length_a 13.232419
_cell_length_b 14.703938
_cell_length_c 8.842412
_cell_angle_alpha 90.000000
_cell_angle_beta 90.000000
_cell_angle_gamma 90.000000
_cell_volume 1720.456330
_symmetry_space_group_name_H-M "P M M M"
_symmetry_group_IT_number 47
_symmetry_cell_setting 'orthorhombic'
loop_
_space_group_symop_operation_xyz
x,y,z
-x,-y,z
x,-y,-z
-x,y,-z
-x,-y,-z
x,y,-z
-x,y,z
x,-y,z
loop_
_atom_site_type_symbol
_atom_site_label
_atom_site_fract_x
_atom_site_fract_y
_atom_site_fract_z
Si Si1 0.500000 0.608334 0.174962
Si Si2 0.686062 0.710569 0.318821
Si Si3 0.885828 0.605578 0.316007
Si Si4 0.290013 0.900104 0.820032
Si Si5 0.882540 0.000000 0.319136
O O1 0.500000 0.500000 0.179467
O O2 0.598879 0.646030 0.256942
O O3 0.500000 0.638395 0.000000
O O4 0.685302 0.711680 0.500000
O O5 0.795146 0.671208 0.266808
O O6 0.666164 0.811651 0.257250
O O7 0.886045 0.607067 0.500000
O O8 0.867013 0.500000 0.271966
O O9 0.000000 0.630527 0.267077
O O10 0.177091 0.915220 0.753405
O O11 0.338385 0.000000 0.786874
O O12 0.287970 0.889319 0.000000
O O13 0.869148 0.000000 0.500000
O O14 0.000000 0.000000 0.284436
#
# Coordination Sequence:
#
# PCOD9388356 Si02
#       5
#     4   8   8   8   4
#     4  11  25  43  62  85 118 159 199 244 301 360
#     4  11  21  35  60  89 117 149 196 250 296 351
#     4   8  15  29  50  79 114 147 180 227 290 351
#     4   9  20  36  54  77 113 154 191 234 290 357
#     4   9  17  31  53  80 111 150 199 251 294 337
#
# _framework density 18.599716000000001
#
# number of rings (size 3 to 8) (size 9 to 14) (size 15 to 20)
#    0.750    1.750    0.000    3.375    0.000    4.000 
#    0.000    3.125    0.000    6.000    0.000    8.750 
#    0.000    0.000    0.000    0.000    0.000    0.000 
#
# Total GULP energy -178247.767885 kJ/mol
# GULP energy per Si atom -5570.242746 kJ/mol
# Density = 1.855738 g / cm^3
# Si number density = 18.599716 Si / 1000 Ang^3
#
#
#
# Elastic Constant Matrix: (Units=GPa)
#
#
# Indices 1 2 3 4 5 6 
#
# 1 68.6400 42.2712 22.3427 0.0000 0.0000 0.0000
# 2 42.2712 94.8046 38.4216 0.0000 0.0000 0.0000
# 3 22.3427 38.4216 55.7612 0.0000 0.0000 0.0000
# 4 0.0000 0.0000 0.0000 -77.3727 0.0000 0.0000
# 5 0.0000 0.0000 0.0000 0.0000 -29.9745 0.0000
# 6 0.0000 0.0000 0.0000 0.0000 0.0000 16.1331
#
#
#
# Elastic Compliance Matrix: (Units=1/GPa)
#
#
# Indices 1 2 3 4 5 6 
#
# 1 0.020360 -0.008008 -0.002640 0.000000 0.000000 0.000000
# 2 -0.008008 0.017785 -0.009046 0.000000 0.000000 0.000000
# 3 -0.002640 -0.009046 0.025224 0.000000 0.000000 0.000000
# 4 0.000000 0.000000 0.000000 -0.012924 0.000000 0.000000
# 5 0.000000 0.000000 0.000000 0.000000 -0.033362 0.000000
# 6 0.000000 0.000000 0.000000 0.000000 0.000000 0.061984
#
#
# Mechanical properties :
#
#
# Convention : Reuss Voigt Hill
#
# Bulk Modulus (GPa) = 41.69918 47.25299 44.47609
# Shear Modulus (GPa) = 39.54212 -10.49813 14.52200
#
# Velocity S-wave (km/s) = 4.61581 -2.37834 2.79725
# Velocity P-wave (km/s) = 7.13271 4.23301 5.86489
#
# Compressibility (1/GPa) = 0.02398128
#
# Stress axis : x y z
#
# Youngs Moduli (GPa) = 49.11647 56.22872 39.64458
#
# Poissons Ratio (x) = 0.45028 0.10466
# Poissons Ratio (y) = 0.39333 0.35861
# Poissons Ratio (z) = 0.12967 0.50862
#
# Static dielectric constant tensor:
#      x y z
#    x 1.644380 0.000000 0.000000 
#    y 0.000000 1.925210 0.000000 
#    z 0.000000 0.000000 1.620650 
# 
# From -- ./inp_files/3372.got.cif
#   From: 2010.05.17/outbox.cif.g08.bks.cpg/sg47_2_cif.got.tgz:3372.got - 2010.06.03 20:15:42.
