data_PCOD9388596
_publ_section_title
;
Structure prediction by ZEFSAII (Michael W. Deem and Ramdas Pophale) SiO2 
 PCOD9388596
Probable space group: P M M M
;
_chemical_formula_sum "Si O2"
_cell_formula_units_Z 36
_cell_length_a 24.731611
_cell_length_b 7.966670
_cell_length_c 9.511789
_cell_angle_alpha 90.000000
_cell_angle_beta 90.000000
_cell_angle_gamma 90.000000
_cell_volume 1874.094312
_symmetry_space_group_name_H-M "P M M M"
_symmetry_group_IT_number 47
_symmetry_cell_setting 'orthorhombic'
loop_
_space_group_symop_operation_xyz
x,y,z
-x,-y,z
x,-y,-z
-x,y,-z
-x,-y,-z
x,y,-z
-x,y,z
x,-y,z
loop_
_atom_site_type_symbol
_atom_site_label
_atom_site_fract_x
_atom_site_fract_y
_atom_site_fract_z
Si Si1 0.279243 0.799869 0.841372
Si Si2 0.500000 0.694269 0.671284
Si Si3 0.382719 0.702713 0.660881
Si Si4 0.175465 0.297312 0.338519
Si Si5 0.058145 0.699232 0.329537
O O1 0.332877 0.746450 0.758664
O O2 0.225843 0.747887 0.756994
O O3 0.279511 0.000000 0.848212
O O4 0.278780 0.731222 0.000000
O O5 0.500000 0.500000 0.719266
O O6 0.500000 0.692507 0.500000
O O7 0.441655 0.768031 0.710940
O O8 0.373211 0.760550 0.500000
O O9 0.386885 0.500000 0.655520
O O10 0.183706 0.239327 0.500000
O O11 0.171918 0.500000 0.343640
O O12 0.116776 0.233871 0.284489
O O13 0.059034 0.711183 0.500000
O O14 0.057119 0.500000 0.296204
O O15 0.000000 0.770744 0.281934
#
# Coordination Sequence:
#
# PCOD9388596 Si02
#       5
#     8   4   8   8   8
#     4  11  24  37  46  62  94 134 170 201 235 275
#     4   7  12  26  50  79 104 120 140 181 234 283
#     4   9  17  32  56  81 100 120 151 191 235 284
#     4   9  17  30  51  77  98 119 154 197 239 285
#     4   7  10  19  39  69 100 121 139 176 233 288
#
# _framework density 19.209277
#
# number of rings (size 3 to 8) (size 9 to 14) (size 15 to 20)
#    0.000    3.222    0.000    4.667    0.000    5.333 
#    0.000    1.111    0.000    6.667    0.000    7.778 
#    0.000    0.000    0.000    0.000    0.000    0.000 
#
# Total GULP energy -200410.229483 kJ/mol
# GULP energy per Si atom -5566.950819 kJ/mol
# Density = 1.916556 g / cm^3
# Si number density = 19.209277 Si / 1000 Ang^3
#
#
#
# Elastic Constant Matrix: (Units=GPa)
#
#
# Indices 1 2 3 4 5 6 
#
# 1 260.7597 13.6532 96.3310 0.0000 0.0000 0.0000
# 2 13.6532 18.4815 8.2234 0.0000 0.0000 0.0000
# 3 96.3310 8.2234 81.2989 0.0000 0.0000 0.0000
# 4 0.0000 0.0000 0.0000 17.5843 0.0000 0.0000
# 5 0.0000 0.0000 0.0000 0.0000 -7.3471 0.0000
# 6 0.0000 0.0000 0.0000 0.0000 0.0000 -43.1664
#
#
#
# Elastic Compliance Matrix: (Units=1/GPa)
#
#
# Indices 1 2 3 4 5 6 
#
# 1 0.006861 -0.001520 -0.007976 0.000000 0.000000 0.000000
# 2 -0.001520 0.056995 -0.003964 0.000000 0.000000 0.000000
# 3 -0.007976 -0.003964 0.022152 0.000000 0.000000 0.000000
# 4 0.000000 0.000000 0.000000 0.056869 0.000000 0.000000
# 5 0.000000 0.000000 0.000000 0.000000 -0.136107 0.000000
# 6 0.000000 0.000000 0.000000 0.000000 0.000000 -0.023166
#
#
# Mechanical properties :
#
#
# Convention : Reuss Voigt Hill
#
# Bulk Modulus (GPa) = 16.92396 66.32837 41.62616
# Shear Modulus (GPa) = 165.46135 9.56966 87.51551
#
# Velocity S-wave (km/s) = 9.29103 2.23441 6.75706
# Velocity P-wave (km/s) = 11.13225 6.42348 9.08813
#
# Compressibility (1/GPa) = 0.05908784
#
# Stress axis : x y z
#
# Youngs Moduli (GPa) = 145.75137 17.54549 45.14291
#
# Poissons Ratio (x) = 0.02666 0.36005
# Poissons Ratio (y) = 0.22150 0.17896
# Poissons Ratio (z) = 1.16249 0.06956
#
# Static dielectric constant tensor:
#      x y z
#    x 1.733390 0.000000 0.000000 
#    y 0.000000 1.687760 0.000000 
#    z 0.000000 0.000000 1.640930 
# 
# From -- ./inp_files/12070.got.cif
#   From: 2010.05.17/outbox.cif.g08.bks.cpg/sg47_7_cif.got.tgz:12070.got - 2010.06.03 20:15:42.
