data_PCOD9388392
_publ_section_title
;
Structure prediction by ZEFSAII (Michael W. Deem and Ramdas Pophale) SiO2 
 PCOD9388392
Probable space group: P M M M
;
_chemical_formula_sum "Si O2"
_cell_formula_units_Z 64
_cell_length_a 18.850447
_cell_length_b 8.982062
_cell_length_c 25.969463
_cell_angle_alpha 90.000000
_cell_angle_beta 90.000000
_cell_angle_gamma 90.000000
_cell_volume 4397.042577
_symmetry_space_group_name_H-M "P M M M"
_symmetry_group_IT_number 47
_symmetry_cell_setting 'orthorhombic'
loop_
_space_group_symop_operation_xyz
x,y,z
-x,-y,z
x,-y,-z
-x,y,-z
-x,-y,-z
x,y,-z
-x,y,z
x,-y,z
loop_
_atom_site_type_symbol
_atom_site_label
_atom_site_fract_x
_atom_site_fract_y
_atom_site_fract_z
Si Si1 0.299917 0.828821 0.191110
Si Si2 0.700083 0.171179 0.691110
Si Si3 0.084066 0.176227 0.939984
Si Si4 0.915934 0.823772 0.439984
Si Si5 0.836057 0.676936 0.652832
Si Si6 0.583021 0.322245 0.750000
Si Si7 0.084859 0.177305 0.250000
Si Si8 0.163942 0.323064 0.847168
O O1 0.269753 0.829900 0.250000
O O2 0.375130 0.748446 0.201257
O O3 0.243676 0.740501 0.157553
O O4 0.308111 0.000000 0.174964
O O5 0.756324 0.259499 0.657553
O O6 0.624870 0.251554 0.701258
O O7 0.691889 0.000000 0.674964
O O8 0.128848 0.272283 0.900442
O O9 0.000000 0.202013 0.932077
O O10 0.096792 0.000000 0.930641
O O11 0.099727 0.206569 0.000000
O O12 0.900273 0.793431 0.500000
O O13 0.871151 0.727717 0.400442
O O14 0.000000 0.797986 0.432077
O O15 0.903209 0.000000 0.430641
O O16 0.835825 0.500000 0.658548
O O17 0.881264 0.749950 0.699179
O O18 0.500000 0.286870 0.750000
O O19 0.592254 0.500000 0.750000
O O20 0.118735 0.250050 0.199179
O O21 0.000000 0.199585 0.250000
O O22 0.098509 0.000000 0.250000
O O23 0.164174 0.500000 0.841452
#
# Coordination Sequence:
#
# PCOD9388392 Si02
#       8
#     8   8   8   8   8   8   8   8
#     4   9  18  30  45  63  88 123 157 185 215 262
#     4   9  18  30  45  63  88 123 157 185 215 262
#     4   9  19  36  54  68  85 116 158 199 239 285
#     4   9  19  36  54  68  85 116 158 199 239 285
#     4  12  22  31  46  67  93 119 148 191 240 282
#     4   9  16  27  44  67  97 127 152 183 224 269
#     4  11  22  33  44  59  83 117 154 187 224 277
#     4  12  22  31  46  67  93 119 148 191 240 282
#
# _framework density 14.555237999999999
#
# number of rings (size 3 to 8) (size 9 to 14) (size 15 to 20)
#    0.750    1.250    1.250    4.875    0.000    6.000 
#    0.000    1.250    0.000    0.000    0.000    0.000 
#    0.000    1.000    0.000   10.500    0.000    4.500 
#
# Total GULP energy -356622.235833 kJ/mol
# GULP energy per Si atom -5572.222435 kJ/mol
# Density = 1.452211 g / cm^3
# Si number density = 14.555238 Si / 1000 Ang^3
#
#
#
# Elastic Constant Matrix: (Units=GPa)
#
#
# Indices 1 2 3 4 5 6 
#
# 1 109.9792 78.5358 42.4421 0.0000 0.0000 0.0000
# 2 78.5358 126.2714 48.0665 0.0000 0.0000 0.0000
# 3 42.4421 48.0665 47.9967 0.0000 0.0000 0.0000
# 4 0.0000 0.0000 0.0000 14.4182 0.0000 0.0000
# 5 0.0000 0.0000 0.0000 0.0000 16.2161 0.0000
# 6 0.0000 0.0000 0.0000 0.0000 0.0000 24.7253
#
#
#
# Elastic Compliance Matrix: (Units=1/GPa)
#
#
# Indices 1 2 3 4 5 6 
#
# 1 0.017911 -0.008259 -0.007566 0.000000 0.000000 0.000000
# 2 -0.008259 0.016607 -0.009328 0.000000 0.000000 0.000000
# 3 -0.007566 -0.009328 0.036867 0.000000 0.000000 0.000000
# 4 0.000000 0.000000 0.000000 0.069357 0.000000 0.000000
# 5 0.000000 0.000000 0.000000 0.000000 0.061667 0.000000
# 6 0.000000 0.000000 0.000000 0.000000 0.000000 0.040444
#
#
# Mechanical properties :
#
#
# Convention : Reuss Voigt Hill
#
# Bulk Modulus (GPa) = 47.44401 69.14845 58.29623
# Shear Modulus (GPa) = 16.65633 18.75210 17.70422
#
# Velocity S-wave (km/s) = 3.38650 3.59324 3.49140
# Velocity P-wave (km/s) = 6.92515 8.05145 7.50945
#
# Compressibility (1/GPa) = 0.02107748
#
# Stress axis : x y z
#
# Youngs Moduli (GPa) = 55.83274 60.21472 27.12466
#
# Poissons Ratio (x) = 0.49734 0.20523
# Poissons Ratio (y) = 0.46115 0.25301
# Poissons Ratio (z) = 0.42245 0.56167
#
# Static dielectric constant tensor:
#      x y z
#    x 1.478590 0.000000 0.000000 
#    y 0.000000 1.484410 0.000000 
#    z 0.000000 0.000000 1.462160 
# 
# From -- ./inp_files/33833.got.cif
#   From: 2010.05.17/outbox.cif.g08.bks.cpg/sg47_17_cif.got.tgz:33833.got - 2010.06.03 20:15:42.
