data_PCOD9388523
_publ_section_title
;
Structure prediction by ZEFSAII (Michael W. Deem and Ramdas Pophale) SiO2 
 PCOD9388523
Probable space group: P M M M
;
_chemical_formula_sum "Si O2"
_cell_formula_units_Z 48
_cell_length_a 7.631942
_cell_length_b 37.008927
_cell_length_c 8.719812
_cell_angle_alpha 90.000000
_cell_angle_beta 90.000000
_cell_angle_gamma 90.000000
_cell_volume 2462.910763
_symmetry_space_group_name_H-M "P M M M"
_symmetry_group_IT_number 47
_symmetry_cell_setting 'orthorhombic'
loop_
_space_group_symop_operation_xyz
x,y,z
-x,-y,z
x,-y,-z
-x,y,-z
-x,-y,-z
x,y,-z
-x,y,z
x,-y,z
loop_
_atom_site_type_symbol
_atom_site_label
_atom_site_fract_x
_atom_site_fract_y
_atom_site_fract_z
Si Si1 0.212922 0.038778 0.180573
Si Si2 0.500000 0.252650 0.686922
Si Si3 0.205830 0.881843 0.185953
Si Si4 0.208821 0.385428 0.671120
Si Si5 0.289151 0.538754 0.176730
Si Si6 0.201925 0.692483 0.687837
Si Si7 0.500000 0.830439 0.684234
O O1 0.266003 0.078028 0.241132
O O2 0.000000 0.039049 0.186226
O O3 0.271404 0.000000 0.247100
O O4 0.260488 0.038354 0.000000
O O5 0.500000 0.252369 0.500000
O O6 0.670223 0.275469 0.735274
O O7 0.500000 0.211226 0.736989
O O8 0.330147 0.851540 0.254370
O O9 0.000000 0.877028 0.224420
O O10 0.218266 0.881664 0.000000
O O11 0.283276 0.388415 0.500000
O O12 0.237217 0.423512 0.750635
O O13 0.268525 0.347179 0.741202
O O14 0.000000 0.380493 0.660613
O O15 0.500000 0.538043 0.179570
O O16 0.228907 0.500000 0.245216
O O17 0.232208 0.539176 0.000000
O O18 0.203866 0.690713 0.500000
O O19 0.000000 0.698301 0.734276
O O20 0.500000 0.831045 0.500000
#
# Coordination Sequence:
#
# PCOD9388523 Si02
#       7
#     8   4   8   8   8   8   4
#     4   7  10  20  43  74 100 123 164 221 267 301
#     4   9  18  31  49  72  97 132 168 199 249 305
#     4   9  18  34  56  78 103 140 179 217 266 316
#     4   9  18  31  49  75 100 120 149 196 249 293
#     4   9  19  34  48  65  94 132 170 200 226 269
#     4   8  15  29  48  72 100 124 154 201 251 299
#     4  11  23  35  50  78 111 139 175 220 261 313
#
# _framework density 19.489135999999998
#
# number of rings (size 3 to 8) (size 9 to 14) (size 15 to 20)
#    0.000    3.333    0.000    3.250    1.167    2.333 
#    0.000    4.583    0.000    5.000    0.000    2.333 
#    0.000    0.000    0.000    0.000    0.000    0.000 
#
# Total GULP energy -267207.695196 kJ/mol
# GULP energy per Si atom -5566.826983 kJ/mol
# Density = 1.944478 g / cm^3
# Si number density = 19.489136 Si / 1000 Ang^3
#
#
#
# Elastic Constant Matrix: (Units=GPa)
#
#
# Indices 1 2 3 4 5 6 
#
# 1 81.1293 78.1349 15.6713 0.0000 0.0000 0.0000
# 2 78.1349 252.8962 34.2894 0.0000 0.0000 0.0000
# 3 15.6713 34.2894 8.8640 0.0000 0.0000 0.0000
# 4 0.0000 0.0000 0.0000 27.6964 0.0000 0.0000
# 5 0.0000 0.0000 0.0000 0.0000 19.4697 0.0000
# 6 0.0000 0.0000 0.0000 0.0000 0.0000 46.3810
#
#
#
# Elastic Compliance Matrix: (Units=1/GPa)
#
#
# Indices 1 2 3 4 5 6 
#
# 1 0.019657 -0.002863 -0.023679 0.000000 0.000000 0.000000
# 2 -0.002863 0.008733 -0.028721 0.000000 0.000000 0.000000
# 3 -0.023679 -0.028721 0.265786 0.000000 0.000000 0.000000
# 4 0.000000 0.000000 0.000000 0.036106 0.000000 0.000000
# 5 0.000000 0.000000 0.000000 0.000000 0.051362 0.000000
# 6 0.000000 0.000000 0.000000 0.000000 0.000000 0.021561
#
#
# Mechanical properties :
#
#
# Convention : Reuss Voigt Hill
#
# Bulk Modulus (GPa) = 5.44516 66.56453 36.00484
# Shear Modulus (GPa) = 8.69646 33.02900 20.86273
#
# Velocity S-wave (km/s) = 2.11469 4.12119 3.27537
# Velocity P-wave (km/s) = 2.96016 7.54151 5.72874
#
# Compressibility (1/GPa) = 0.18364950
#
# Stress axis : x y z
#
# Youngs Moduli (GPa) = 50.87250 114.51033 3.76243
#
# Poissons Ratio (x) = 0.32780 0.08909
# Poissons Ratio (y) = 0.14563 0.10806
# Poissons Ratio (z) = 1.20463 3.28886
#
# Static dielectric constant tensor:
#      x y z
#    x 1.701960 0.000000 0.000000 
#    y 0.000000 1.739710 0.000000 
#    z 0.000000 0.000000 1.681320 
# 
# From -- ./inp_files/2605.got.cif
#   From: 2010.05.17/outbox.cif.g08.bks.cpg/sg47_2_cif.got.tgz:2605.got - 2010.06.03 20:15:42.
