data_PCOD9388107
_publ_section_title
;
Structure prediction by ZEFSAII (Michael W. Deem and Ramdas Pophale) SiO2 
 PCOD9388107
Probable space group: P M M M
;
_chemical_formula_sum "Si O2"
_cell_formula_units_Z 40
_cell_length_a 7.676944
_cell_length_b 9.238331
_cell_length_c 28.742000
_cell_angle_alpha 90.000000
_cell_angle_beta 90.000000
_cell_angle_gamma 90.000000
_cell_volume 2038.444428
_symmetry_space_group_name_H-M "P M M M"
_symmetry_group_IT_number 47
_symmetry_cell_setting 'orthorhombic'
loop_
_space_group_symop_operation_xyz
x,y,z
-x,-y,z
x,-y,-z
-x,y,-z
-x,-y,-z
x,y,-z
-x,y,z
x,-y,z
loop_
_atom_site_type_symbol
_atom_site_label
_atom_site_fract_x
_atom_site_fract_y
_atom_site_fract_z
Si Si1 0.293330 0.665312 0.000000
Si Si2 0.791655 0.335830 0.899765
Si Si3 0.708072 0.327397 0.385608
Si Si4 0.000000 0.170883 0.555591
Si Si5 0.208904 0.835842 0.189368
Si Si6 0.708632 0.165786 0.291732
O O1 0.241399 0.732167 0.049430
O O2 0.218559 0.500000 0.000000
O O3 0.500000 0.656169 0.000000
O O4 0.721298 0.500000 0.900434
O O5 0.723210 0.251460 0.854943
O O6 0.000000 0.344457 0.894889
O O7 0.500000 0.299631 0.392388
O O8 0.734048 0.500000 0.387137
O O9 0.761584 0.263466 0.335189
O O10 0.829742 0.247409 0.422745
O O11 0.000000 0.185220 0.500000
O O12 0.000000 0.000000 0.567406
O O13 0.244869 0.775127 0.240728
O O14 0.000000 0.842796 0.184801
O O15 0.277779 0.000000 0.188900
O O16 0.500000 0.157818 0.293492
O O17 0.776981 0.000000 0.295709
#
# Coordination Sequence:
#
# PCOD9388107 Si02
#       6
#     4   8   8   4   8   8
#     4   9  17  29  46  67  88 114 154 203 254 308
#     4   9  17  30  47  66  89 120 159 203 253 312
#     4  10  22  40  62  91 126 161 199 248 304 356
#     4  11  25  43  65  93 123 161 209 252 293 348
#     4   9  18  31  47  70 100 133 169 212 262 317
#     4   9  18  33  53  77 107 146 187 225 272 333
#
# _framework density 19.622806000000001
#
# number of rings (size 3 to 8) (size 9 to 14) (size 15 to 20)
#    0.000    2.600    0.000    1.200    1.400    5.200 
#    0.000    2.500    0.000    3.000    0.000    0.000 
#    0.000    0.000    0.000    0.000    0.000    0.000 
#
# Total GULP energy -223038.104977 kJ/mol
# GULP energy per Si atom -5575.952624 kJ/mol
# Density = 1.957814 g / cm^3
# Si number density = 19.622806 Si / 1000 Ang^3
#
#
#
# Elastic Constant Matrix: (Units=GPa)
#
#
# Indices 1 2 3 4 5 6 
#
# 1 58.3154 34.9987 40.7644 0.0000 0.0000 0.0000
# 2 34.9987 80.3722 81.3921 0.0000 0.0000 0.0000
# 3 40.7644 81.3921 177.0988 0.0000 0.0000 0.0000
# 4 0.0000 0.0000 0.0000 31.9169 0.0000 0.0000
# 5 0.0000 0.0000 0.0000 0.0000 49.5994 0.0000
# 6 0.0000 0.0000 0.0000 0.0000 0.0000 15.1316
#
#
#
# Elastic Compliance Matrix: (Units=1/GPa)
#
#
# Indices 1 2 3 4 5 6 
#
# 1 0.023378 -0.008849 -0.001314 0.000000 0.000000 0.000000
# 2 -0.008849 0.026624 -0.010199 0.000000 0.000000 0.000000
# 3 -0.001314 -0.010199 0.010636 0.000000 0.000000 0.000000
# 4 0.000000 0.000000 0.000000 0.031331 0.000000 0.000000
# 5 0.000000 0.000000 0.000000 0.000000 0.020162 0.000000
# 6 0.000000 0.000000 0.000000 0.000000 0.000000 0.066087
#
#
# Mechanical properties :
#
#
# Convention : Reuss Voigt Hill
#
# Bulk Modulus (GPa) = 50.21768 70.01077 60.11422
# Shear Modulus (GPa) = 22.16501 29.90499 26.03500
#
# Velocity S-wave (km/s) = 3.36453 3.90807 3.64644
# Velocity P-wave (km/s) = 6.38282 7.49131 6.95917
#
# Compressibility (1/GPa) = 0.01991331
#
# Stress axis : x y z
#
# Youngs Moduli (GPa) = 42.77580 37.55978 94.01643
#
# Poissons Ratio (x) = 0.33238 0.12354
# Poissons Ratio (y) = 0.37854 0.95889
# Poissons Ratio (z) = 0.05621 0.38308
#
# Static dielectric constant tensor:
#      x y z
#    x 1.704700 0.000000 0.000000 
#    y 0.000000 1.691360 0.000000 
#    z 0.000000 0.000000 1.698700 
# 
# From -- ./inp_files/33027.got.cif
#   From: 2010.05.17/outbox.cif.g08.bks.cpg/sg47_17_cif.got.tgz:33027.got - 2010.06.03 20:15:42.
