data_PCOD9388248
_publ_section_title
;
Structure prediction by ZEFSAII (Michael W. Deem and Ramdas Pophale) SiO2 
 PCOD9388248
Probable space group: P M M M
;
_chemical_formula_sum "Si O2"
_cell_formula_units_Z 56
_cell_length_a 14.218612
_cell_length_b 7.841221
_cell_length_c 24.363919
_cell_angle_alpha 90.000000
_cell_angle_beta 90.000000
_cell_angle_gamma 90.000000
_cell_volume 2716.364491
_symmetry_space_group_name_H-M "P M M M"
_symmetry_group_IT_number 47
_symmetry_cell_setting 'orthorhombic'
loop_
_space_group_symop_operation_xyz
x,y,z
-x,-y,z
x,-y,-z
-x,y,-z
-x,-y,-z
x,y,-z
-x,y,z
x,-y,z
loop_
_atom_site_type_symbol
_atom_site_label
_atom_site_fract_x
_atom_site_fract_y
_atom_site_fract_z
Si Si1 0.604329 0.297769 0.235417
Si Si2 0.614770 0.696071 0.643323
Si Si3 0.892191 0.295715 0.383707
Si Si4 0.892312 0.202066 0.500000
Si Si5 0.107635 0.208672 0.937511
Si Si6 0.113392 0.700333 0.734864
Si Si7 0.614964 0.000000 0.563044
Si Si8 0.228328 0.804413 0.162314
O O1 0.500000 0.227690 0.224801
O O2 0.596464 0.500000 0.243204
O O3 0.639102 0.238363 0.295386
O O4 0.676139 0.269562 0.186543
O O5 0.500000 0.688547 0.643039
O O6 0.648986 0.500000 0.634795
O O7 0.642765 0.831451 0.597170
O O8 0.896994 0.500000 0.379076
O O9 0.847761 0.254910 0.442275
O O10 0.853280 0.236206 0.325141
O O11 0.000000 0.228694 0.386535
O O12 0.000000 0.276183 0.500000
O O13 0.898591 0.000000 0.500000
O O14 0.178845 0.272970 0.891240
O O15 0.000000 0.261212 0.925574
O O16 0.107719 0.000000 0.935916
O O17 0.130567 0.258479 0.000000
O O18 0.139767 0.500000 0.740277
O O19 0.155831 0.792733 0.786986
O O20 0.000000 0.710384 0.734913
O O21 0.500000 0.000000 0.561510
O O22 0.648569 0.000000 0.500000
O O23 0.247910 0.000000 0.149416
#
# Coordination Sequence:
#
# PCOD9388248 Si02
#       8
#     8   8   8   4   8   8   4   8
#     4   9  19  36  55  74 100 138 180 222 271 326
#     4   8  15  28  45  66  95 133 174 217 272 337
#     4   8  14  25  40  57  80 117 163 201 237 292
#     4   9  15  21  33  57  85 113 150 199 252 299
#     4   8  15  30  51  76 112 154 186 211 246 302
#     4   9  18  32  48  68 100 139 171 204 251 307
#     4   9  16  24  40  70 102 132 168 217 276 336
#     4  11  21  30  50  84 109 132 171 220 270 314
#
# _framework density 20.615791000000002
#
# number of rings (size 3 to 8) (size 9 to 14) (size 15 to 20)
#    0.000    3.143    0.000    3.214    1.000    2.857 
#    0.000    2.857    0.000    2.143    1.857    8.000 
#    0.000    0.000    0.000    0.000    0.000    0.143 
#
# Total GULP energy -312366.277007 kJ/mol
# GULP energy per Si atom -5577.969232 kJ/mol
# Density = 2.056887 g / cm^3
# Si number density = 20.615791 Si / 1000 Ang^3
#
#
#
# Elastic Constant Matrix: (Units=GPa)
#
#
# Indices 1 2 3 4 5 6 
#
# 1 86.9863 11.0043 70.6257 0.0000 0.0000 0.0000
# 2 11.0043 44.6342 26.7427 0.0000 0.0000 0.0000
# 3 70.6257 26.7427 173.3978 0.0000 0.0000 0.0000
# 4 0.0000 0.0000 0.0000 28.7266 0.0000 0.0000
# 5 0.0000 0.0000 0.0000 0.0000 -73.7279 0.0000
# 6 0.0000 0.0000 0.0000 0.0000 0.0000 19.1447
#
#
#
# Elastic Compliance Matrix: (Units=1/GPa)
#
#
# Indices 1 2 3 4 5 6 
#
# 1 0.017176 -0.000047 -0.006989 0.000000 0.000000 0.000000
# 2 -0.000047 0.024686 -0.003788 0.000000 0.000000 0.000000
# 3 -0.006989 -0.003788 0.009198 0.000000 0.000000 0.000000
# 4 0.000000 0.000000 0.000000 0.034811 0.000000 0.000000
# 5 0.000000 0.000000 0.000000 0.000000 -0.013563 0.000000
# 6 0.000000 0.000000 0.000000 0.000000 0.000000 0.052234
#
#
# Mechanical properties :
#
#
# Convention : Reuss Voigt Hill
#
# Bulk Modulus (GPa) = 34.00006 57.97375 45.98690
# Shear Modulus (GPa) = 32.05274 7.93838 19.99556
#
# Velocity S-wave (km/s) = 3.94733 1.96443 3.11772
# Velocity P-wave (km/s) = 6.10764 5.77299 5.94267
#
# Compressibility (1/GPa) = 0.02941172
#
# Stress axis : x y z
#
# Youngs Moduli (GPa) = 58.21980 40.50948 108.72166
#
# Poissons Ratio (x) = 0.00192 0.75982
# Poissons Ratio (y) = 0.00276 0.41182
# Poissons Ratio (z) = 0.40688 0.15345
#
# Static dielectric constant tensor:
#      x y z
#    x 1.794590 0.000000 0.000000 
#    y 0.000000 1.809410 0.000000 
#    z 0.000000 0.000000 1.749750 
# 
# From -- ./inp_files/31056.got.cif
#   From: 2010.05.17/outbox.cif.g08.bks.cpg/sg47_16_cif.got.tgz:31056.got - 2010.06.03 20:15:42.
