data_PCOD9388863
_publ_section_title
;
Structure prediction by ZEFSAII (Michael W. Deem and Ramdas Pophale) SiO2 
 PCOD9388863
Probable space group: P M M M
;
_chemical_formula_sum "Si O2"
_cell_formula_units_Z 44
_cell_length_a 7.351062
_cell_length_b 9.498246
_cell_length_c 30.010739
_cell_angle_alpha 90.000000
_cell_angle_beta 90.000000
_cell_angle_gamma 90.000000
_cell_volume 2095.415678
_symmetry_space_group_name_H-M "P M M M"
_symmetry_group_IT_number 47
_symmetry_cell_setting 'orthorhombic'
loop_
_space_group_symop_operation_xyz
x,y,z
-x,-y,z
x,-y,-z
-x,y,-z
-x,-y,-z
x,y,-z
-x,y,z
x,-y,z
loop_
_atom_site_type_symbol
_atom_site_label
_atom_site_fract_x
_atom_site_fract_y
_atom_site_fract_z
Si Si1 0.778228 0.162414 0.000000
Si Si2 0.280625 0.331699 0.452066
Si Si3 0.777669 0.337942 0.913212
Si Si4 0.282382 0.160023 0.270911
Si Si5 0.722269 0.663553 0.355133
Si Si6 0.783531 0.160858 0.828843
O O1 0.721810 0.246551 0.955909
O O2 0.000000 0.160641 0.000000
O O3 0.719177 0.000000 0.000000
O O4 0.213883 0.276097 0.500000
O O5 0.500000 0.316386 0.452537
O O6 0.244515 0.500000 0.451746
O O7 0.218318 0.279074 0.403706
O O8 0.719429 0.500000 0.915990
O O9 0.716117 0.261166 0.868012
O O10 0.000000 0.339368 0.913142
O O11 0.500000 0.153914 0.275462
O O12 0.214479 0.250688 0.312304
O O13 0.246751 0.215714 0.221223
O O14 0.212236 0.000000 0.272475
O O15 0.500000 0.665921 0.355370
O O16 0.774938 0.500000 0.351570
O O17 0.000000 0.151301 0.834936
O O18 0.711775 0.000000 0.831527
#
# Coordination Sequence:
#
# PCOD9388863 Si02
#       6
#     4   8   8   8   8   8
#     4   9  15  23  37  57  82 111 138 161 190 234
#     4   7   9  14  26  45  68  93 121 152 185 223
#     4   9  16  25  38  58  83 107 131 163 201 234
#     4   9  17  28  41  57  78 104 132 162 196 232
#     4   8  13  21  34  52  73  98 128 159 190 228
#     4   9  17  29  43  58  78 105 135 163 192 230
#
# _framework density 20.998218999999999
#
# number of rings (size 3 to 8) (size 9 to 14) (size 15 to 20)
#    0.000    3.545    0.000    2.455    0.000    4.000 
#    0.000    0.000    0.000    0.545    0.000    4.455 
#    0.000    5.818    0.000    9.091    0.000    8.364 
#
# Total GULP energy -245272.953774 kJ/mol
# GULP energy per Si atom -5574.385313 kJ/mol
# Density = 2.095043 g / cm^3
# Si number density = 20.998219 Si / 1000 Ang^3
#
#
#
# Elastic Constant Matrix: (Units=GPa)
#
#
# Indices 1 2 3 4 5 6 
#
# 1 76.9870 4.5400 2.6952 0.0000 0.0000 0.0000
# 2 4.5400 101.4224 118.5274 0.0000 0.0000 0.0000
# 3 2.6952 118.5274 277.3953 0.0000 0.0000 0.0000
# 4 0.0000 0.0000 0.0000 81.6687 0.0000 0.0000
# 5 0.0000 0.0000 0.0000 0.0000 9.3239 0.0000
# 6 0.0000 0.0000 0.0000 0.0000 0.0000 -10.9933
#
#
#
# Elastic Compliance Matrix: (Units=1/GPa)
#
#
# Indices 1 2 3 4 5 6 
#
# 1 0.013032 -0.000870 0.000245 0.000000 0.000000 0.000000
# 2 -0.000870 0.019752 -0.008431 0.000000 0.000000 0.000000
# 3 0.000245 -0.008431 0.007205 0.000000 0.000000 0.000000
# 4 0.000000 0.000000 0.000000 0.012245 0.000000 0.000000
# 5 0.000000 0.000000 0.000000 0.000000 0.107251 0.000000
# 6 0.000000 0.000000 0.000000 0.000000 0.000000 -0.090965
#
#
# Mechanical properties :
#
#
# Convention : Reuss Voigt Hill
#
# Bulk Modulus (GPa) = 45.70993 78.59223 62.15108
# Shear Modulus (GPa) = 53.23438 38.00266 45.61852
#
# Velocity S-wave (km/s) = 5.04052 4.25879 4.66606
# Velocity P-wave (km/s) = 7.46268 7.85445 7.66107
#
# Compressibility (1/GPa) = 0.02187709
#
# Stress axis : x y z
#
# Youngs Moduli (GPa) = 76.73467 50.62797 138.78925
#
# Poissons Ratio (x) = 0.04403 -0.03400
# Poissons Ratio (y) = 0.06673 1.17017
# Poissons Ratio (z) = -0.01880 0.42686
#
# Static dielectric constant tensor:
#      x y z
#    x 1.865730 0.000000 0.000000 
#    y 0.000000 1.709540 0.000000 
#    z 0.000000 0.000000 1.767410 
# 
# From -- ./inp_files/31862.got.cif
#   From: 2010.05.17/outbox.cif.g08.bks.cpg/sg47_16_cif.got.tgz:31862.got - 2010.06.03 20:15:42.
