data_PCOD9388102
_publ_section_title
;
Structure prediction by ZEFSAII (Michael W. Deem and Ramdas Pophale) SiO2 
 PCOD9388102
Probable space group: P M M M
;
_chemical_formula_sum "Si O2"
_cell_formula_units_Z 48
_cell_length_a 36.134870
_cell_length_b 7.857821
_cell_length_c 8.304271
_cell_angle_alpha 90.000000
_cell_angle_beta 90.000000
_cell_angle_gamma 90.000000
_cell_volume 2357.925838
_symmetry_space_group_name_H-M "P M M M"
_symmetry_group_IT_number 47
_symmetry_cell_setting 'orthorhombic'
loop_
_space_group_symop_operation_xyz
x,y,z
-x,-y,z
x,-y,-z
-x,y,-z
-x,-y,-z
x,y,-z
-x,y,z
x,-y,z
loop_
_atom_site_type_symbol
_atom_site_label
_atom_site_fract_x
_atom_site_fract_y
_atom_site_fract_z
Si Si1 0.175695 0.206607 0.688193
Si Si2 0.042395 0.500000 0.807175
Si Si3 0.905666 0.802597 0.304802
Si Si4 0.746400 0.196016 0.809423
Si Si5 0.458697 0.200848 0.000000
Si Si6 0.413067 0.698372 0.316805
Si Si7 0.669529 0.194612 0.307610
O O1 0.176795 0.248533 0.500000
O O2 0.135311 0.256695 0.752938
O O3 0.214006 0.271872 0.761409
O O4 0.175610 0.000000 0.703993
O O5 0.063912 0.668416 0.749523
O O6 0.000000 0.500000 0.748838
O O7 0.042209 0.500000 0.000000
O O8 0.904348 0.803846 0.500000
O O9 0.912042 0.000000 0.254373
O O10 0.707752 0.275507 0.753128
O O11 0.746111 0.000000 0.743203
O O12 0.745471 0.187331 0.000000
O O13 0.437255 0.241419 0.834022
O O14 0.500000 0.278603 0.000000
O O15 0.462284 0.000000 0.000000
O O16 0.418541 0.773606 0.500000
O O17 0.420612 0.500000 0.331671
O O18 0.369835 0.722411 0.271844
O O19 0.672391 0.189677 0.500000
O O20 0.667643 0.000000 0.244694
#
# Coordination Sequence:
#
# PCOD9388102 Si02
#       7
#     8   4   8   8   4   8   8
#     4   8  14  27  48  74 105 140 180 228 282 338
#     4  11  25  41  57  83 119 155 189 233 295 365
#     4   9  19  37  62  88 112 146 194 245 294 347
#     4   9  16  24  40  72 109 144 185 232 278 330
#     4  11  25  43  65  93 121 151 193 247 301 355
#     4  10  22  40  62  88 120 159 198 239 293 358
#     4   9  17  30  50  76 107 147 194 240 285 334
#
# _framework density 20.356874999999999
#
# number of rings (size 3 to 8) (size 9 to 14) (size 15 to 20)
#    0.000    2.667    0.000    2.500    1.167    6.000 
#    0.000    5.000    1.833    0.000    0.000    0.000 
#    0.000    0.000    0.000    0.000    0.000    0.000 
#
# Total GULP energy -267453.894439 kJ/mol
# GULP energy per Si atom -5571.956134 kJ/mol
# Density = 2.031054 g / cm^3
# Si number density = 20.356875 Si / 1000 Ang^3
#
#
#
# Elastic Constant Matrix: (Units=GPa)
#
#
# Indices 1 2 3 4 5 6 
#
# 1 208.7804 46.9390 84.0794 0.0000 0.0000 0.0000
# 2 46.9390 59.5297 28.1351 0.0000 0.0000 0.0000
# 3 84.0794 28.1351 61.7503 0.0000 0.0000 0.0000
# 4 0.0000 0.0000 0.0000 10.2220 0.0000 0.0000
# 5 0.0000 0.0000 0.0000 0.0000 -69.9763 0.0000
# 6 0.0000 0.0000 0.0000 0.0000 0.0000 65.7044
#
#
#
# Elastic Compliance Matrix: (Units=1/GPa)
#
#
# Indices 1 2 3 4 5 6 
#
# 1 0.010787 -0.001993 -0.013780 0.000000 0.000000 0.000000
# 2 -0.001993 0.021777 -0.007208 0.000000 0.000000 0.000000
# 3 -0.013780 -0.007208 0.038241 0.000000 0.000000 0.000000
# 4 0.000000 0.000000 0.000000 0.097828 0.000000 0.000000
# 5 0.000000 0.000000 0.000000 0.000000 -0.014291 0.000000
# 6 0.000000 0.000000 0.000000 0.000000 0.000000 0.015220
#
#
# Mechanical properties :
#
#
# Convention : Reuss Voigt Hill
#
# Bulk Modulus (GPa) = 40.25324 72.04083 56.14703
# Shear Modulus (GPa) = 22.34087 12.58381 17.46234
#
# Velocity S-wave (km/s) = 3.31639 2.48898 2.93202
# Velocity P-wave (km/s) = 5.87208 6.61255 6.25328
#
# Compressibility (1/GPa) = 0.02484272
#
# Stress axis : x y z
#
# Youngs Moduli (GPa) = 92.70301 45.92075 26.14988
#
# Poissons Ratio (x) = 0.09152 0.36034
# Poissons Ratio (y) = 0.18476 0.18850
# Poissons Ratio (z) = 1.27742 0.33101
#
# Static dielectric constant tensor:
#      x y z
#    x 1.760860 0.000000 0.000000 
#    y 0.000000 1.750160 0.000000 
#    z 0.000000 0.000000 1.724860 
# 
# From -- ./inp_files/13878.got.cif
#   From: 2010.05.17/outbox.cif.g08.bks.cpg/sg47_7_cif.got.tgz:13878.got - 2010.06.03 20:15:42.
