data_PCOD9388184
_publ_section_title
;
Structure prediction by ZEFSAII (Michael W. Deem and Ramdas Pophale) SiO2 
 PCOD9388184
Probable space group: P M M M
;
_chemical_formula_sum "Si O2"
_cell_formula_units_Z 64
_cell_length_a 7.969777
_cell_length_b 20.658008
_cell_length_c 20.774337
_cell_angle_alpha 90.000000
_cell_angle_beta 90.000000
_cell_angle_gamma 90.000000
_cell_volume 3420.280965
_symmetry_space_group_name_H-M "P M M M"
_symmetry_group_IT_number 47
_symmetry_cell_setting 'orthorhombic'
loop_
_space_group_symop_operation_xyz
x,y,z
-x,-y,z
x,-y,-z
-x,y,-z
-x,-y,-z
x,y,-z
-x,y,z
x,-y,z
loop_
_atom_site_type_symbol
_atom_site_label
_atom_site_fract_x
_atom_site_fract_y
_atom_site_fract_z
Si Si1 0.193779 0.668812 0.682696
Si Si2 0.801395 0.898035 0.068721
Si Si3 0.301859 0.244634 0.100554
Si Si4 0.795104 0.788636 0.755244
Si Si5 0.299404 0.427863 0.572586
Si Si6 0.197182 0.387919 0.929470
Si Si7 0.303208 0.427690 0.210098
Si Si8 0.795009 0.070169 0.211459
O O1 0.264744 0.739649 0.700039
O O2 0.263768 0.626806 0.624528
O O3 0.212010 0.625909 0.747440
O O4 0.000000 0.678327 0.668071
O O5 0.776467 0.820707 0.072318
O O6 0.736118 0.923920 0.136922
O O7 0.000000 0.912454 0.068470
O O8 0.731027 0.920833 0.000000
O O9 0.500000 0.246057 0.087025
O O10 0.271411 0.238762 0.176998
O O11 0.221116 0.310485 0.075502
O O12 0.743795 0.863991 0.752623
O O13 0.000000 0.786531 0.758131
O O14 0.236724 0.414158 0.500000
O O15 0.500000 0.432181 0.568866
O O16 0.237219 0.500000 0.591842
O O17 0.282607 0.416393 0.866036
O O18 0.000000 0.403348 0.925653
O O19 0.260010 0.409151 0.000000
O O20 0.500000 0.423324 0.226361
O O21 0.243290 0.500000 0.225958
O O22 0.000000 0.071158 0.210255
O O23 0.742717 0.000000 0.237149
#
# Coordination Sequence:
#
# PCOD9388184 Si02
#       8
#     8   8   8   8   8   8   8   8
#     4  11  21  33  54  80 107 138 171 209 249 293
#     4   9  17  28  42  61  87 117 150 194 250 309
#     4  11  20  30  47  68  89 117 156 201 250 305
#     4   9  18  32  49  71  99 127 160 204 251 294
#     4   9  19  36  56  79 111 148 179 208 245 290
#     4  11  23  37  52  68  89 119 157 206 264 318
#     4  11  24  39  54  73  97 126 164 209 253 302
#     4   8  14  26  45  67  91 121 159 203 249 300
#
# _framework density 18.711912000000002
#
# number of rings (size 3 to 8) (size 9 to 14) (size 15 to 20)
#    0.000    2.125    1.250    4.125    0.000    6.750 
#    0.000    3.125    0.000    6.000    0.000    3.500 
#    0.000    0.500    0.000    6.250    0.000    1.000 
#
# Total GULP energy -357097.637568 kJ/mol
# GULP energy per Si atom -5579.650587 kJ/mol
# Density = 1.866932 g / cm^3
# Si number density = 18.711912 Si / 1000 Ang^3
#
#
#
# Elastic Constant Matrix: (Units=GPa)
#
#
# Indices 1 2 3 4 5 6 
#
# 1 20.4610 1.0198 3.6311 0.0000 0.0000 0.0000
# 2 1.0198 127.9799 54.5931 0.0000 0.0000 0.0000
# 3 3.6311 54.5931 86.9376 0.0000 0.0000 0.0000
# 4 0.0000 0.0000 0.0000 6.4378 0.0000 0.0000
# 5 0.0000 0.0000 0.0000 0.0000 19.1290 0.0000
# 6 0.0000 0.0000 0.0000 0.0000 0.0000 21.2639
#
#
#
# Elastic Compliance Matrix: (Units=1/GPa)
#
#
# Indices 1 2 3 4 5 6 
#
# 1 0.049280 0.000663 -0.002475 0.000000 0.000000 0.000000
# 2 0.000663 0.010682 -0.006735 0.000000 0.000000 0.000000
# 3 -0.002475 -0.006735 0.015835 0.000000 0.000000 0.000000
# 4 0.000000 0.000000 0.000000 0.155333 0.000000 0.000000
# 5 0.000000 0.000000 0.000000 0.000000 0.052277 0.000000
# 6 0.000000 0.000000 0.000000 0.000000 0.000000 0.047028
#
#
# Mechanical properties :
#
#
# Convention : Reuss Voigt Hill
#
# Bulk Modulus (GPa) = 17.03502 39.31852 28.17677
# Shear Modulus (GPa) = 13.62045 21.10843 17.36444
#
# Velocity S-wave (km/s) = 2.70089 3.36233 3.04960
# Velocity P-wave (km/s) = 4.34166 6.01098 5.24318
#
# Compressibility (1/GPa) = 0.05870259
#
# Stress axis : x y z
#
# Youngs Moduli (GPa) = 20.29241 93.61952 63.15008
#
# Poissons Ratio (x) = -0.06206 0.15627
# Poissons Ratio (y) = -0.01345 0.42533
# Poissons Ratio (z) = 0.05021 0.63055
#
# Static dielectric constant tensor:
#      x y z
#    x 1.661650 0.000000 0.000000 
#    y 0.000000 1.686270 0.000000 
#    z 0.000000 0.000000 1.647000 
# 
# From -- ./inp_files/30126.got.cif
#   From: 2010.05.17/outbox.cif.g08.bks.cpg/sg47_16_cif.got.tgz:30126.got - 2010.06.03 20:15:42.
