data_PCOD9388966
_publ_section_title
;
Structure prediction by ZEFSAII (Michael W. Deem and Ramdas Pophale) SiO2 
 PCOD9388966
Probable space group: P M M M
;
_chemical_formula_sum "Si O2"
_cell_formula_units_Z 48
_cell_length_a 7.630653
_cell_length_b 36.304161
_cell_length_c 9.643016
_cell_angle_alpha 90.000000
_cell_angle_beta 90.000000
_cell_angle_gamma 90.000000
_cell_volume 2671.351252
_symmetry_space_group_name_H-M "P M M M"
_symmetry_group_IT_number 47
_symmetry_cell_setting 'orthorhombic'
loop_
_space_group_symop_operation_xyz
x,y,z
-x,-y,z
x,-y,-z
-x,y,-z
-x,-y,-z
x,y,-z
-x,y,z
x,-y,z
loop_
_atom_site_type_symbol
_atom_site_label
_atom_site_fract_x
_atom_site_fract_y
_atom_site_fract_z
Si Si1 0.209997 0.108861 0.157625
Si Si2 0.710190 0.190565 0.158478
Si Si3 0.000000 0.402977 0.330258
Si Si4 0.214024 0.040902 0.660426
Si Si5 0.701124 0.541451 0.668710
Si Si6 0.000000 0.681143 0.668230
Si Si7 0.707149 0.261076 0.665623
O O1 0.245568 0.149857 0.213033
O O2 0.277171 0.075049 0.248723
O O3 0.000000 0.105006 0.151114
O O4 0.278812 0.107414 0.000000
O O5 0.500000 0.192624 0.152567
O O6 0.766915 0.224471 0.253454
O O7 0.777924 0.193419 0.000000
O O8 0.831227 0.426570 0.285775
O O9 0.000000 0.360862 0.281890
O O10 0.000000 0.402333 0.500000
O O11 0.266158 0.044920 0.500000
O O12 0.000000 0.041339 0.662640
O O13 0.267547 0.000000 0.709036
O O14 0.703359 0.541562 0.500000
O O15 0.500000 0.547243 0.711436
O O16 0.755905 0.500000 0.710617
O O17 0.828437 0.704631 0.707630
O O18 0.000000 0.679534 0.500000
O O19 0.726582 0.255515 0.500000
O O20 0.500000 0.267507 0.692664
#
# Coordination Sequence:
#
# PCOD9388966 Si02
#       7
#     8   8   4   8   8   4   8
#     4   9  17  27  41  64  87 105 132 172 213 251
#     4   9  18  32  48  65  86 112 141 176 219 265
#     4   9  15  22  33  49  71 101 138 181 227 266
#     4   8  14  25  40  59  85 114 141 169 203 246
#     4   8  13  20  30  46  69  99 138 183 226 265
#     4   9  18  29  41  60  83 111 149 189 228 272
#     4   9  18  32  47  63  86 115 146 182 224 269
#
# _framework density 17.968434999999999
#
# number of rings (size 3 to 8) (size 9 to 14) (size 15 to 20)
#    0.000    3.333    0.000    1.250    1.167    2.667 
#    0.000    5.000    0.000    0.500    0.000    3.500 
#    0.000    0.000    0.000    0.000    0.000    6.667 
#
# Total GULP energy -267332.873674 kJ/mol
# GULP energy per Si atom -5569.434868 kJ/mol
# Density = 1.792754 g / cm^3
# Si number density = 17.968435 Si / 1000 Ang^3
#
#
#
# Elastic Constant Matrix: (Units=GPa)
#
#
# Indices 1 2 3 4 5 6 
#
# 1 62.3271 66.6886 21.0565 0.0000 0.0000 0.0000
# 2 66.6886 218.8899 53.3667 0.0000 0.0000 0.0000
# 3 21.0565 53.3667 21.2532 0.0000 0.0000 0.0000
# 4 0.0000 0.0000 0.0000 -9.0518 0.0000 0.0000
# 5 0.0000 0.0000 0.0000 0.0000 4.1156 0.0000
# 6 0.0000 0.0000 0.0000 0.0000 0.0000 12.8044
#
#
#
# Elastic Compliance Matrix: (Units=1/GPa)
#
#
# Indices 1 2 3 4 5 6 
#
# 1 0.025499 -0.004150 -0.014842 0.000000 0.000000 0.000000
# 2 -0.004150 0.012456 -0.027165 0.000000 0.000000 0.000000
# 3 -0.014842 -0.027165 0.129968 0.000000 0.000000 0.000000
# 4 0.000000 0.000000 0.000000 -0.110475 0.000000 0.000000
# 5 0.000000 0.000000 0.000000 0.000000 0.242975 0.000000
# 6 0.000000 0.000000 0.000000 0.000000 0.000000 0.078098
#
#
# Mechanical properties :
#
#
# Convention : Reuss Voigt Hill
#
# Bulk Modulus (GPa) = 13.22608 64.96600 39.09604
# Shear Modulus (GPa) = 10.07984 12.33086 11.20535
#
# Velocity S-wave (km/s) = 2.37106 2.62248 2.49993
# Velocity P-wave (km/s) = 3.85650 6.73825 5.48984
#
# Compressibility (1/GPa) = 0.07560820
#
# Stress axis : x y z
#
# Youngs Moduli (GPa) = 39.21680 80.28306 7.69420
#
# Poissons Ratio (x) = 0.33319 0.11420
# Poissons Ratio (y) = 0.16276 0.20901
# Poissons Ratio (z) = 0.58207 2.18089
#
# Static dielectric constant tensor:
#      x y z
#    x 1.657670 0.000000 0.000000 
#    y 0.000000 1.608980 0.000000 
#    z 0.000000 0.000000 1.601400 
# 
# From -- ./inp_files/2620.got.cif
#   From: 2010.05.17/outbox.cif.g08.bks.cpg/sg47_2_cif.got.tgz:2620.got - 2010.06.03 20:15:42.
