data_PCOD9388619
_publ_section_title
;
Structure prediction by ZEFSAII (Michael W. Deem and Ramdas Pophale) SiO2 
 PCOD9388619
Probable space group: P M M M
;
_chemical_formula_sum "Si O2"
_cell_formula_units_Z 44
_cell_length_a 10.063100
_cell_length_b 7.626171
_cell_length_c 29.025893
_cell_angle_alpha 90.000000
_cell_angle_beta 90.000000
_cell_angle_gamma 90.000000
_cell_volume 2227.531825
_symmetry_space_group_name_H-M "P M M M"
_symmetry_group_IT_number 47
_symmetry_cell_setting 'orthorhombic'
loop_
_space_group_symop_operation_xyz
x,y,z
-x,-y,z
x,-y,-z
-x,y,-z
-x,-y,-z
x,y,-z
-x,y,z
x,-y,z
loop_
_atom_site_type_symbol
_atom_site_label
_atom_site_fract_x
_atom_site_fract_y
_atom_site_fract_z
Si Si1 0.348710 0.210683 0.765081
Si Si2 0.848036 0.214211 0.685987
Si Si3 0.149745 0.789747 0.581802
Si Si4 0.348581 0.710524 0.868510
Si Si5 0.847384 0.714169 0.052037
Si Si6 0.649862 0.707011 0.500000
O O1 0.500000 0.277716 0.760934
O O2 0.253398 0.276877 0.724757
O O3 0.300854 0.250592 0.816752
O O4 0.353812 0.000000 0.760951
O O5 0.817459 0.271511 0.633659
O O6 0.000000 0.264700 0.696192
O O7 0.844172 0.000000 0.686121
O O8 0.261744 0.751131 0.544576
O O9 0.000000 0.726048 0.569404
O O10 0.140785 0.000000 0.583995
O O11 0.500000 0.777797 0.872696
O O12 0.354106 0.500000 0.872960
O O13 0.251889 0.776638 0.908461
O O14 0.846154 0.500000 0.052626
O O15 0.000000 0.767567 0.060319
O O16 0.809713 0.767140 0.000000
O O17 0.635824 0.500000 0.500000
O O18 0.500000 0.783789 0.500000
#
# Coordination Sequence:
#
# PCOD9388619 Si02
#       6
#     8   8   8   8   8   4
#     4   9  17  29  45  65  90 120 150 178 214 263
#     4   8  15  29  49  72  94 115 146 189 228 263
#     4   9  18  34  56  78  97 121 158 201 240 279
#     4   9  17  28  42  62  87 113 143 180 219 258
#     4   8  14  25  41  61  84 109 139 178 222 263
#     4  11  24  37  48  70 104 135 162 193 232 280
#
# _framework density 19.752804000000001
#
# number of rings (size 3 to 8) (size 9 to 14) (size 15 to 20)
#    0.000    3.182    0.000    2.182    0.000    4.000 
#    0.000    4.545    0.000    3.818    0.000    3.818 
#    0.000    0.000    0.000    0.000    0.000    0.000 
#
# Total GULP energy -245319.512206 kJ/mol
# GULP energy per Si atom -5575.443459 kJ/mol
# Density = 1.970785 g / cm^3
# Si number density = 19.752804 Si / 1000 Ang^3
#
#
#
# Elastic Constant Matrix: (Units=GPa)
#
#
# Indices 1 2 3 4 5 6 
#
# 1 138.9664 6.4554 144.5651 0.0000 0.0000 0.0000
# 2 6.4554 38.4908 5.3636 0.0000 0.0000 0.0000
# 3 144.5651 5.3636 203.7514 0.0000 0.0000 0.0000
# 4 0.0000 0.0000 0.0000 18.9377 0.0000 0.0000
# 5 0.0000 0.0000 0.0000 0.0000 72.4066 0.0000
# 6 0.0000 0.0000 0.0000 0.0000 0.000095805.3094
#
#
#
# Elastic Compliance Matrix: (Units=1/GPa)
#
#
# Indices 1 2 3 4 5 6 
#
# 1 0.027615 -0.001908 -0.019543 0.000000 0.000000 0.000000
# 2 -0.001908 0.026208 0.000664 0.000000 0.000000 0.000000
# 3 -0.019543 0.000664 0.018757 0.000000 0.000000 0.000000
# 4 0.000000 0.000000 0.000000 0.052805 0.000000 0.000000
# 5 0.000000 0.000000 0.000000 0.000000 0.013811 0.000000
# 6 0.000000 0.000000 0.000000 0.000000 0.000000 0.000010
#
#
# Mechanical properties :
#
#
# Convention : Reuss Voigt Hill
#
# Bulk Modulus (GPa) = 32.25299 77.10851 54.68075
# Shear Modulus (GPa) = 26.16220 19194.31905 9610.24063
#
# Velocity S-wave (km/s) = 3.64329 98.68312 69.82704
# Velocity P-wave (km/s) = 5.83625 114.12098 80.80118
#
# Compressibility (1/GPa) = 0.03100488
#
# Stress axis : x y z
#
# Youngs Moduli (GPa) = 36.21194 38.15666 53.31426
#
# Poissons Ratio (x) = 0.07281 1.04193
# Poissons Ratio (y) = 0.06910 -0.03540
# Poissons Ratio (z) = 0.70770 -0.02533
#
# Static dielectric constant tensor:
#      x y z
#    x 1.695990 0.000000 0.000000 
#    y 0.000000 1.753420 0.000000 
#    z 0.000000 0.000000 1.680230 
# 
# From -- ./inp_files/13584.got.cif
#   From: 2010.05.17/outbox.cif.g08.bks.cpg/sg47_7_cif.got.tgz:13584.got - 2010.06.03 20:15:42.
