data_PCOD9388721
_publ_section_title
;
Structure prediction by ZEFSAII (Michael W. Deem and Ramdas Pophale) SiO2 
 PCOD9388721
Probable space group: P M M M
;
_chemical_formula_sum "Si O2"
_cell_formula_units_Z 40
_cell_length_a 30.395953
_cell_length_b 7.356523
_cell_length_c 7.369201
_cell_angle_alpha 90.000000
_cell_angle_beta 90.000000
_cell_angle_gamma 90.000000
_cell_volume 1647.816183
_symmetry_space_group_name_H-M "P M M M"
_symmetry_group_IT_number 47
_symmetry_cell_setting 'orthorhombic'
loop_
_space_group_symop_operation_xyz
x,y,z
-x,-y,z
x,-y,-z
-x,y,-z
-x,-y,-z
x,y,-z
-x,y,z
x,-y,z
loop_
_atom_site_type_symbol
_atom_site_label
_atom_site_fract_x
_atom_site_fract_y
_atom_site_fract_z
Si Si1 0.000000 0.722589 0.213394
Si Si2 0.189613 0.291341 0.717149
Si Si3 0.379373 0.290968 0.721863
Si Si4 0.094156 0.291175 0.782741
Si Si5 0.283625 0.722080 0.712548
Si Si6 0.449821 0.000000 0.278516
O O1 0.952537 0.783879 0.286529
O O2 0.000000 0.500000 0.224426
O O3 0.000000 0.770670 0.000000
O O4 0.194153 0.298700 0.500000
O O5 0.186851 0.500000 0.785912
O O6 0.141871 0.206000 0.749416
O O7 0.236260 0.215749 0.786261
O O8 0.377904 0.286352 0.500000
O O9 0.384305 0.500000 0.775306
O O10 0.331277 0.223251 0.785794
O O11 0.420593 0.171793 0.778148
O O12 0.096748 0.500000 0.714459
O O13 0.089903 0.298047 0.000000
O O14 0.284301 0.772713 0.500000
O O15 0.282990 0.500000 0.721325
O O16 0.500000 0.000000 0.216271
O O17 0.450993 0.000000 0.500000
#
# Coordination Sequence:
#
# PCOD9388721 Si02
#       6
#     4   8   8   8   8   4
#     4   7  10  16  23  29  41  67 101 130 159 206
#     4   8  12  17  25  37  51  67  95 137 175 206
#     4   8  13  21  31  41  56  81 112 145 181 220
#     4   8  12  17  24  33  47  70 100 133 170 211
#     4   7  10  17  28  39  50  68  97 132 169 210
#     4   9  16  22  28  42  62  84 115 152 183 212
#
# _framework density 24.274552
#
# number of rings (size 3 to 8) (size 9 to 14) (size 15 to 20)
#    0.000    4.200    0.000    3.600    0.000    0.400 
#    0.000    2.500    0.000    3.000    0.000    0.000 
#    0.000    0.000    0.000    0.900    0.000    6.200 
#
# Total GULP energy -222845.396914 kJ/mol
# GULP energy per Si atom -5571.134923 kJ/mol
# Density = 2.421930 g / cm^3
# Si number density = 24.274552 Si / 1000 Ang^3
#
#
#
# Elastic Constant Matrix: (Units=GPa)
#
#
# Indices 1 2 3 4 5 6 
#
# 1 367.7639 71.1713 12.3777 0.0000 0.0000 0.0000
# 2 71.1713 98.9899 -1.1135 0.0000 0.0000 0.0000
# 3 12.3777 -1.1135 86.8678 0.0000 0.0000 0.0000
# 4 0.0000 0.0000 0.0000 -13.1213 0.0000 0.0000
# 5 0.0000 0.0000 0.0000 0.0000 17.1437 0.0000
# 6 0.0000 0.0000 0.0000 0.0000 0.0000 162.2218
#
#
#
# Elastic Compliance Matrix: (Units=1/GPa)
#
#
# Indices 1 2 3 4 5 6 
#
# 1 0.003179 -0.002291 -0.000482 0.000000 0.000000 0.000000
# 2 -0.002291 0.011754 0.000477 0.000000 0.000000 0.000000
# 3 -0.000482 0.000477 0.011587 0.000000 0.000000 0.000000
# 4 0.000000 0.000000 0.000000 -0.076212 0.000000 0.000000
# 5 0.000000 0.000000 0.000000 0.000000 0.058331 0.000000
# 6 0.000000 0.000000 0.000000 0.000000 0.000000 0.006164
#
#
# Mechanical properties :
#
#
# Convention : Reuss Voigt Hill
#
# Bulk Modulus (GPa) = 45.60448 79.83252 62.71850
# Shear Modulus (GPa) = 187.23620 64.66125 125.94872
#
# Velocity S-wave (km/s) = 8.79205 5.16675 7.21094
# Velocity P-wave (km/s) = 11.04059 8.27964 9.75825
#
# Compressibility (1/GPa) = 0.02192767
#
# Stress axis : x y z
#
# Youngs Moduli (GPa) = 314.59400 85.07411 86.30677
#
# Poissons Ratio (x) = 0.19489 0.04163
# Poissons Ratio (y) = 0.72068 -0.04118
# Poissons Ratio (z) = 0.15173 -0.04059
#
# Static dielectric constant tensor:
#      x y z
#    x 1.978790 0.000000 0.000000 
#    y 0.000000 1.723810 0.000000 
#    z 0.000000 0.000000 1.985740 
# 
# From -- ./inp_files/19735.got.cif
#   From: 2010.05.17/outbox.cif.g08.bks.cpg/sg47_10_cif.got.tgz:19735.got - 2010.06.03 20:15:42.
