data_PCOD9388055
_publ_section_title
;
Structure prediction by ZEFSAII (Michael W. Deem and Ramdas Pophale) SiO2 
 PCOD9388055
Probable space group: P M M M
;
_chemical_formula_sum "Si O2"
_cell_formula_units_Z 48
_cell_length_a 8.873036
_cell_length_b 15.327337
_cell_length_c 17.862607
_cell_angle_alpha 90.000000
_cell_angle_beta 90.000000
_cell_angle_gamma 90.000000
_cell_volume 2429.314784
_symmetry_space_group_name_H-M "P M M M"
_symmetry_group_IT_number 47
_symmetry_cell_setting 'orthorhombic'
loop_
_space_group_symop_operation_xyz
x,y,z
-x,-y,z
x,-y,-z
-x,y,-z
-x,-y,-z
x,y,-z
-x,y,z
x,-y,z
loop_
_atom_site_type_symbol
_atom_site_label
_atom_site_fract_x
_atom_site_fract_y
_atom_site_fract_z
Si Si1 0.817827 0.405696 0.244174
Si Si2 0.319475 0.722203 0.359333
Si Si3 0.173699 0.000000 0.908138
Si Si4 0.668671 0.825027 0.089799
Si Si5 0.819961 0.357761 0.917192
Si Si6 0.683171 0.398810 0.500000
Si Si7 0.819194 0.901730 0.589216
O O1 0.776232 0.500000 0.278181
O O2 0.743603 0.325368 0.286214
O O3 0.769985 0.406196 0.157238
O O4 0.000000 0.397750 0.246924
O O5 0.500000 0.725080 0.358111
O O6 0.271206 0.658276 0.427851
O O7 0.256960 0.819440 0.371253
O O8 0.257988 0.913536 0.881161
O O9 0.000000 0.000000 0.885481
O O10 0.175157 0.000000 0.000000
O O11 0.500000 0.809472 0.119191
O O12 0.775566 0.742260 0.098139
O O13 0.655972 0.836579 0.000000
O O14 0.000000 0.367102 0.921029
O O15 0.759656 0.382104 0.000000
O O16 0.735763 0.500000 0.500000
O O17 0.500000 0.401891 0.500000
O O18 0.787677 0.894770 0.500000
O O19 0.000000 0.896103 0.598434
O O20 0.772376 0.000000 0.613021
#
# Coordination Sequence:
#
# PCOD9388055 Si02
#       7
#     8   8   4   8   8   4   8
#     4  10  22  39  58  82 113 149 191 240 294 352
#     4  11  21  35  57  85 119 158 197 241 288 336
#     4   9  15  23  39  65  97 131 167 206 253 316
#     4   9  16  26  43  69  99 129 163 208 263 322
#     4   9  18  34  56  79 104 138 182 233 290 351
#     4   9  18  32  50  77 114 154 195 235 276 327
#     4   9  18  34  58  88 122 159 196 236 284 338
#
# _framework density 19.758659000000002
#
# number of rings (size 3 to 8) (size 9 to 14) (size 15 to 20)
#    0.000    2.500    0.833    2.250    0.000    5.333 
#    0.000    2.500    1.833    2.000    0.000    3.500 
#    0.000    0.000    0.000    0.000    0.000    0.000 
#
# Total GULP energy -267602.354068 kJ/mol
# GULP energy per Si atom -5575.049043 kJ/mol
# Density = 1.971369 g / cm^3
# Si number density = 19.758659 Si / 1000 Ang^3
#
#
#
# Elastic Constant Matrix: (Units=GPa)
#
#
# Indices 1 2 3 4 5 6 
#
# 1 16.0611 29.0193 25.5340 0.0000 0.0000 0.0000
# 2 29.0193 167.0350 59.0273 0.0000 0.0000 0.0000
# 3 25.5340 59.0273 80.2904 0.0000 0.0000 0.0000
# 4 0.0000 0.0000 0.0000 -157.5503 0.0000 0.0000
# 5 0.0000 0.0000 0.0000 0.0000 13.3775 0.0000
# 6 0.0000 0.0000 0.0000 0.0000 0.0000 6.3681
#
#
#
# Elastic Compliance Matrix: (Units=1/GPa)
#
#
# Indices 1 2 3 4 5 6 
#
# 1 0.141015 -0.011687 -0.036253 0.000000 0.000000 0.000000
# 2 -0.011687 0.009057 -0.002941 0.000000 0.000000 0.000000
# 3 -0.036253 -0.002941 0.026147 0.000000 0.000000 0.000000
# 4 0.000000 0.000000 0.000000 -0.006347 0.000000 0.000000
# 5 0.000000 0.000000 0.000000 0.000000 0.074753 0.000000
# 6 0.000000 0.000000 0.000000 0.000000 0.000000 0.157032
#
#
# Mechanical properties :
#
#
# Convention : Reuss Voigt Hill
#
# Bulk Modulus (GPa) = 13.43115 54.50531 33.96823
# Shear Modulus (GPa) = 9.46542 -17.57387 -4.05422
#
# Velocity S-wave (km/s) = 2.19110 -2.98556 -1.43399
# Velocity P-wave (km/s) = 3.63505 3.96997 3.80619
#
# Compressibility (1/GPa) = 0.07445381
#
# Stress axis : x y z
#
# Youngs Moduli (GPa) = 7.09144 110.41583 38.24595
#
# Poissons Ratio (x) = 1.29048 1.38655
# Poissons Ratio (y) = 0.08288 0.11250
# Poissons Ratio (z) = 0.25709 0.32477
#
# Static dielectric constant tensor:
#      x y z
#    x 1.670860 0.000000 0.000000 
#    y 0.000000 1.690820 0.000000 
#    z 0.000000 0.000000 1.729710 
# 
# From -- ./inp_files/26498.got.cif
#   From: 2010.05.17/outbox.cif.g08.bks.cpg/sg47_14_cif.got.tgz:26498.got - 2010.06.03 20:15:42.
