data_PCOD9388303
_publ_section_title
;
Structure prediction by ZEFSAII (Michael W. Deem and Ramdas Pophale) SiO2 
 PCOD9388303
Probable space group: P M M M
;
_chemical_formula_sum "Si O2"
_cell_formula_units_Z 32
_cell_length_a 7.949653
_cell_length_b 13.351807
_cell_length_c 14.748005
_cell_angle_alpha 90.000000
_cell_angle_beta 90.000000
_cell_angle_gamma 90.000000
_cell_volume 1565.386177
_symmetry_space_group_name_H-M "P M M M"
_symmetry_group_IT_number 47
_symmetry_cell_setting 'orthorhombic'
loop_
_space_group_symop_operation_xyz
x,y,z
-x,-y,z
x,-y,-z
-x,y,-z
-x,-y,-z
x,y,-z
-x,y,z
x,-y,z
loop_
_atom_site_type_symbol
_atom_site_label
_atom_site_fract_x
_atom_site_fract_y
_atom_site_fract_z
Si Si1 0.804571 0.621624 0.000000
Si Si2 0.804074 0.879810 0.100339
Si Si3 0.309966 0.193274 0.711784
Si Si4 0.705533 0.000000 0.393883
Si Si5 0.201154 0.612799 0.200436
O O1 0.732837 0.645830 0.100040
O O2 0.805662 0.500000 0.000000
O O3 0.000000 0.654610 0.000000
O O4 0.697102 0.847031 0.185322
O O5 0.000000 0.851013 0.116391
O O6 0.799966 0.000000 0.097162
O O7 0.754435 0.843233 0.000000
O O8 0.500000 0.205722 0.679528
O O9 0.231475 0.102668 0.653209
O O10 0.235326 0.304027 0.723662
O O11 0.500000 0.000000 0.382387
O O12 0.742911 0.000000 0.500000
O O13 0.263250 0.500000 0.220155
O O14 0.000000 0.606676 0.190385
#
# Coordination Sequence:
#
# PCOD9388303 Si02
#       5
#     4   8   8   4   8
#     4   7  12  26  47  68  93 136 188 218 233 277
#     4   9  18  32  49  70 102 145 183 210 246 310
#     4  11  21  33  53  80 107 135 174 226 273 310
#     4   9  20  40  60  77 102 138 175 213 270 337
#     4   9  18  33  52  74 105 146 187 219 252 306
#
# _framework density 20.442240000000002
#
# number of rings (size 3 to 8) (size 9 to 14) (size 15 to 20)
#    0.000    2.750    1.250    3.000    1.750    1.000 
#    0.000    1.250    0.000    9.000    0.000    5.250 
#    0.000    0.000    0.000    0.000    0.000    0.000 
#
# Total GULP energy -178332.598710 kJ/mol
# GULP energy per Si atom -5572.893710 kJ/mol
# Density = 2.039571 g / cm^3
# Si number density = 20.442240 Si / 1000 Ang^3
#
#
#
# Elastic Constant Matrix: (Units=GPa)
#
#
# Indices 1 2 3 4 5 6 
#
# 1 14.5918 11.4590 2.3797 0.0000 0.0000 0.0000
# 2 11.4590 166.2826 65.1317 0.0000 0.0000 0.0000
# 3 2.3797 65.1317 82.4783 0.0000 0.0000 0.0000
# 4 0.0000 0.0000 0.0000 21.2235 0.0000 0.0000
# 5 0.0000 0.0000 0.0000 0.0000 18.3909 0.0000
# 6 0.0000 0.0000 0.0000 0.0000 0.0000 25.9909
#
#
#
# Elastic Compliance Matrix: (Units=1/GPa)
#
#
# Indices 1 2 3 4 5 6 
#
# 1 0.072864 -0.006078 0.002697 0.000000 0.000000 0.000000
# 2 -0.006078 0.009214 -0.007101 0.000000 0.000000 0.000000
# 3 0.002697 -0.007101 0.017654 0.000000 0.000000 0.000000
# 4 0.000000 0.000000 0.000000 0.047118 0.000000 0.000000
# 5 0.000000 0.000000 0.000000 0.000000 0.054375 0.000000
# 6 0.000000 0.000000 0.000000 0.000000 0.000000 0.038475
#
#
# Mechanical properties :
#
#
# Convention : Reuss Voigt Hill
#
# Bulk Modulus (GPa) = 12.69523 46.81037 29.75280
# Shear Modulus (GPa) = 17.42651 25.41321 21.41986
#
# Velocity S-wave (km/s) = 2.92289 3.52969 3.24052
# Velocity P-wave (km/s) = 4.19700 6.28969 5.34673
#
# Compressibility (1/GPa) = 0.07876974
#
# Stress axis : x y z
#
# Youngs Moduli (GPa) = 13.72411 108.53030 56.64456
#
# Poissons Ratio (x) = 0.65962 -0.15278
# Poissons Ratio (y) = 0.08341 0.40222
# Poissons Ratio (z) = -0.03702 0.77065
#
# Static dielectric constant tensor:
#      x y z
#    x 1.769300 0.000000 0.000000 
#    y 0.000000 1.829350 0.000000 
#    z 0.000000 0.000000 1.700550 
# 
# From -- ./inp_files/20489.got.cif
#   From: 2010.05.17/outbox.cif.g08.bks.cpg/sg47_11_cif.got.tgz:20489.got - 2010.06.03 20:15:42.
