data_PCOD9388481
_publ_section_title
;
Structure prediction by ZEFSAII (Michael W. Deem and Ramdas Pophale) SiO2 
 PCOD9388481
Probable space group: P M M M
;
_chemical_formula_sum "Si O2"
_cell_formula_units_Z 33
_cell_length_a 11.852216
_cell_length_b 20.111752
_cell_length_c 7.587742
_cell_angle_alpha 90.000000
_cell_angle_beta 90.000000
_cell_angle_gamma 90.000000
_cell_volume 1808.681174
_symmetry_space_group_name_H-M "P M M M"
_symmetry_group_IT_number 47
_symmetry_cell_setting 'orthorhombic'
loop_
_space_group_symop_operation_xyz
x,y,z
-x,-y,z
x,-y,-z
-x,y,-z
-x,-y,-z
x,y,-z
-x,y,z
x,-y,z
loop_
_atom_site_type_symbol
_atom_site_label
_atom_site_fract_x
_atom_site_fract_y
_atom_site_fract_z
Si Si1 0.632943 0.572730 0.712066
Si Si2 0.633113 0.182611 0.788495
Si Si3 0.215869 0.306662 0.199207
Si Si4 0.000000 0.614577 0.692297
Si Si5 0.000000 0.500000 0.000000
Si Si6 0.363947 0.075048 0.500000
O O1 0.645924 0.577756 0.500000
O O2 0.500000 0.574870 0.749658
O O3 0.677217 0.500000 0.766737
O O4 0.695879 0.632794 0.800170
O O5 0.500000 0.198677 0.754036
O O6 0.715017 0.242965 0.733437
O O7 0.663928 0.118234 0.673276
O O8 0.642958 0.172589 0.000000
O O9 0.108205 0.337150 0.294156
O O10 0.180513 0.290954 0.000000
O O11 0.000000 0.582215 0.500000
O O12 0.000000 0.559367 0.845357
O O13 0.500000 0.070260 0.500000
O O14 0.318439 0.000000 0.500000
#
# Coordination Sequence:
#
# PCOD9388481 Si02
#       6
#     8   8   8   4   1   4
#     4   9  19  33  49  73 103 139 183 229 281 337
#     4   9  19  34  55  85 120 156 189 229 281 335
#     4  11  22  38  55  79 111 144 192 240 286 346
#     4  12  27  43  63  84 109 148 193 247 308 342
#     4  12  26  52  60  82 110 144 204 252 296 368
#     4   9  18  32  54  87 122 157 192 223 269 337
#
# _framework density 18.245339000000001
#
# number of rings (size 3 to 8) (size 9 to 14) (size 15 to 20)
#    0.000    2.061    1.212    2.364    5.091    2.424 
#    0.000    3.636    0.000    0.000    0.000    1.697 
#    0.000    3.879    0.000    0.000    0.000    0.000 
#
# Total GULP energy -183836.539231 kJ/mol
# GULP energy per Si atom -5570.804219 kJ/mol
# Density = 1.820381 g / cm^3
# Si number density = 18.245339 Si / 1000 Ang^3
#
#
#
# Elastic Constant Matrix: (Units=GPa)
#
#
# Indices 1 2 3 4 5 6 
#
# 1 55.8381 55.2643 33.7994 0.0000 0.0000 0.0000
# 2 55.2643 159.0987 54.3496 0.0000 0.0000 0.0000
# 3 33.7994 54.3496 98.4442 0.0000 0.0000 0.0000
# 4 0.0000 0.0000 0.0000 25.6665 0.0000 0.0000
# 5 0.0000 0.0000 0.0000 0.0000 18.7807 0.0000
# 6 0.0000 0.0000 0.0000 0.0000 0.0000 51.3394
#
#
#
# Elastic Compliance Matrix: (Units=1/GPa)
#
#
# Indices 1 2 3 4 5 6 
#
# 1 0.029538 -0.008376 -0.005518 0.000000 0.000000 0.000000
# 2 -0.008376 0.010121 -0.002712 0.000000 0.000000 0.000000
# 3 -0.005518 -0.002712 0.013550 0.000000 0.000000 0.000000
# 4 0.000000 0.000000 0.000000 0.038961 0.000000 0.000000
# 5 0.000000 0.000000 0.000000 0.000000 0.053246 0.000000
# 6 0.000000 0.000000 0.000000 0.000000 0.000000 0.019478
#
#
# Mechanical properties :
#
#
# Convention : Reuss Voigt Hill
#
# Bulk Modulus (GPa) = 50.00308 66.68974 58.34641
# Shear Modulus (GPa) = 24.41748 30.48851 27.45300
#
# Velocity S-wave (km/s) = 3.66223 4.09226 3.88320
# Velocity P-wave (km/s) = 6.73409 7.67853 7.22176
#
# Compressibility (1/GPa) = 0.01999877
#
# Stress axis : x y z
#
# Youngs Moduli (GPa) = 33.85449 98.80238 73.80210
#
# Poissons Ratio (x) = 0.82752 0.40720
# Poissons Ratio (y) = 0.28355 0.20016
# Poissons Ratio (z) = 0.18679 0.26797
#
# Static dielectric constant tensor:
#      x y z
#    x 1.479470 0.000000 0.000000 
#    y 0.000000 1.607180 0.000000 
#    z 0.000000 0.000000 1.675630 
# 
# From -- ./inp_files/3683.got.cif
#   From: 2010.05.17/outbox.cif.g08.bks.cpg/sg47_2_cif.got.tgz:3683.got - 2010.06.03 20:15:42.
