data_PCOD9388747
_publ_section_title
;
Structure prediction by ZEFSAII (Michael W. Deem and Ramdas Pophale) SiO2 
 PCOD9388747
Probable space group: P M M M
;
_chemical_formula_sum "Si O2"
_cell_formula_units_Z 44
_cell_length_a 19.308153
_cell_length_b 14.183384
_cell_length_c 7.430204
_cell_angle_alpha 90.000000
_cell_angle_beta 90.000000
_cell_angle_gamma 90.000000
_cell_volume 2034.798132
_symmetry_space_group_name_H-M "P M M M"
_symmetry_group_IT_number 47
_symmetry_cell_setting 'orthorhombic'
loop_
_space_group_symop_operation_xyz
x,y,z
-x,-y,z
x,-y,-z
-x,y,-z
-x,-y,-z
x,y,-z
-x,y,z
x,-y,z
loop_
_atom_site_type_symbol
_atom_site_label
_atom_site_fract_x
_atom_site_fract_y
_atom_site_fract_z
Si Si1 0.649611 0.102975 0.289663
Si Si2 0.421313 0.705085 0.282011
Si Si3 0.286323 0.602263 0.210654
Si Si4 0.078966 0.708381 0.779740
Si Si5 0.084184 0.500000 0.793640
Si Si6 0.215922 0.793704 0.782348
O O1 0.631103 0.099422 0.500000
O O2 0.609484 0.194323 0.215782
O O3 0.731551 0.125654 0.277782
O O4 0.634371 0.000000 0.211518
O O5 0.420479 0.706603 0.500000
O O6 0.500000 0.691904 0.223086
O O7 0.367817 0.624495 0.225267
O O8 0.268952 0.500000 0.287892
O O9 0.249508 0.695226 0.284277
O O10 0.267955 0.599747 0.000000
O O11 0.101778 0.602929 0.717987
O O12 0.135860 0.785616 0.727841
O O13 0.000000 0.725787 0.722518
O O14 0.078163 0.703893 0.000000
O O15 0.000000 0.500000 0.797553
O O16 0.109505 0.500000 0.000000
O O17 0.218034 0.795594 0.000000
#
# Coordination Sequence:
#
# PCOD9388747 Si02
#       6
#     8   8   8   8   4   8
#     4   9  18  33  51  68  87 112 142 179 226 276
#     4   9  18  32  49  69  90 111 142 184 224 263
#     4   9  18  30  43  63  93 127 156 179 209 253
#     4   8  13  21  36  61  91 119 147 182 222 257
#     4   7  10  16  28  52  85 115 140 169 208 250
#     4   9  17  28  45  68  92 118 149 186 221 258
#
# _framework density 21.623768999999999
#
# number of rings (size 3 to 8) (size 9 to 14) (size 15 to 20)
#    0.000    3.364    0.000    1.091    1.273    1.818 
#    0.000    3.636    0.000    1.091    0.000    8.909 
#    0.000    2.182    0.000    0.000    0.000    0.000 
#
# Total GULP energy -245274.792230 kJ/mol
# GULP energy per Si atom -5574.427096 kJ/mol
# Density = 2.157455 g / cm^3
# Si number density = 21.623769 Si / 1000 Ang^3
#
#
#
# Elastic Constant Matrix: (Units=GPa)
#
#
# Indices 1 2 3 4 5 6 
#
# 1 68.4128 -19.3685 -12.0077 0.0000 0.0000 0.0000
# 2 -19.3685 44.8767 -1.0413 0.0000 0.0000 0.0000
# 3 -12.0077 -1.0413 67.3368 0.0000 0.0000 0.0000
# 4 0.0000 0.0000 0.0000 8.9170 0.0000 0.0000
# 5 0.0000 0.0000 0.0000 0.0000 19.0195 0.0000
# 6 0.0000 0.0000 0.0000 0.0000 0.0000 15.6673
#
#
#
# Elastic Compliance Matrix: (Units=1/GPa)
#
#
# Indices 1 2 3 4 5 6 
#
# 1 0.017317 0.007548 0.003205 0.000000 0.000000 0.000000
# 2 0.007548 0.025581 0.001742 0.000000 0.000000 0.000000
# 3 0.003205 0.001742 0.015449 0.000000 0.000000 0.000000
# 4 0.000000 0.000000 0.000000 0.112145 0.000000 0.000000
# 5 0.000000 0.000000 0.000000 0.000000 0.052578 0.000000
# 6 0.000000 0.000000 0.000000 0.000000 0.000000 0.063827
#
#
# Mechanical properties :
#
#
# Convention : Reuss Voigt Hill
#
# Bulk Modulus (GPa) = 11.99967 12.86572 12.43270
# Shear Modulus (GPa) = 17.26001 22.92367 20.09184
#
# Velocity S-wave (km/s) = 2.82830 3.25947 3.05151
# Velocity P-wave (km/s) = 4.02828 4.48645 4.26353
#
# Compressibility (1/GPa) = 0.08333560
#
# Stress axis : x y z
#
# Youngs Moduli (GPa) = 57.74819 39.09095 64.72863
#
# Poissons Ratio (x) = -0.29506 -0.20743
# Poissons Ratio (y) = -0.43589 -0.11273
# Poissons Ratio (z) = -0.18506 -0.06808
#
# Static dielectric constant tensor:
#      x y z
#    x 1.809610 0.000000 0.000000 
#    y 0.000000 1.776090 0.000000 
#    z 0.000000 0.000000 1.860400 
# 
# From -- ./inp_files/10868.got.cif
#   From: 2010.05.17/outbox.cif.g08.bks.cpg/sg47_6_cif.got.tgz:10868.got - 2010.06.03 20:15:42.
