data_PCOD9388485
_publ_section_title
;
Structure prediction by ZEFSAII (Michael W. Deem and Ramdas Pophale) SiO2 
 PCOD9388485
Probable space group: P M M M
;
_chemical_formula_sum "Si O2"
_cell_formula_units_Z 48
_cell_length_a 8.977111
_cell_length_b 30.263924
_cell_length_c 10.331005
_cell_angle_alpha 90.000000
_cell_angle_beta 90.000000
_cell_angle_gamma 90.000000
_cell_volume 2806.754351
_symmetry_space_group_name_H-M "P M M M"
_symmetry_group_IT_number 47
_symmetry_cell_setting 'orthorhombic'
loop_
_space_group_symop_operation_xyz
x,y,z
-x,-y,z
x,-y,-z
-x,y,-z
-x,-y,-z
x,y,-z
-x,y,z
x,-y,z
loop_
_atom_site_type_symbol
_atom_site_label
_atom_site_fract_x
_atom_site_fract_y
_atom_site_fract_z
Si Si1 0.819550 0.619373 0.349069
Si Si2 0.321460 0.807876 0.650515
Si Si3 0.824734 0.052941 0.500000
Si Si4 0.320716 0.448425 0.851167
Si Si5 0.320430 0.097422 0.250211
Si Si6 0.821406 0.947597 0.000000
Si Si7 0.171599 0.717605 0.657215
O O1 0.776332 0.612303 0.500000
O O2 0.754712 0.583017 0.253419
O O3 0.770875 0.668906 0.306826
O O4 0.000000 0.619002 0.345466
O O5 0.273129 0.814452 0.500000
O O6 0.500000 0.805434 0.649421
O O7 0.278917 0.850946 0.732017
O O8 0.258496 0.761237 0.698689
O O9 0.743465 0.072347 0.625136
O O10 0.000000 0.065019 0.500000
O O11 0.815051 0.000000 0.500000
O O12 0.500000 0.444700 0.841865
O O13 0.282469 0.500000 0.829294
O O14 0.278836 0.437413 0.000000
O O15 0.500000 0.094266 0.246870
O O16 0.249080 0.075399 0.125007
O O17 0.000000 0.942628 0.000000
O O18 0.788260 0.000000 0.000000
O O19 0.173772 0.717418 0.500000
O O20 0.000000 0.721372 0.698253
#
# Coordination Sequence:
#
# PCOD9388485 Si02
#       7
#     8   8   4   8   8   4   8
#     4   9  18  32  50  76 108 136 169 215 261 308
#     4   9  17  31  51  79 110 135 168 215 260 305
#     4  11  23  37  55  83 115 143 177 223 268 313
#     4   9  19  35  52  71  99 136 178 221 263 311
#     4  11  22  38  59  83 110 142 180 222 269 321
#     4  11  25  43  59  79 109 143 181 223 268 323
#     4   8  15  28  47  73 104 137 170 206 254 310
#
# _framework density 17.101603999999998
#
# number of rings (size 3 to 8) (size 9 to 14) (size 15 to 20)
#    0.000    2.500    0.833    3.000    0.000    6.667 
#    0.000    4.167    1.833    0.000    0.000    0.000 
#    0.000    0.000    0.000    0.000    0.000    0.000 
#
# Total GULP energy -267624.832906 kJ/mol
# GULP energy per Si atom -5575.517352 kJ/mol
# Density = 1.706268 g / cm^3
# Si number density = 17.101604 Si / 1000 Ang^3
#
#
#
# Elastic Constant Matrix: (Units=GPa)
#
#
# Indices 1 2 3 4 5 6 
#
# 1 42.2766 60.2987 44.8553 0.0000 0.0000 0.0000
# 2 60.2987 167.0906 92.4620 0.0000 0.0000 0.0000
# 3 44.8553 92.4620 118.2030 0.0000 0.0000 0.0000
# 4 0.0000 0.0000 0.0000 26.1638 0.0000 0.0000
# 5 0.0000 0.0000 0.0000 0.0000 26.8960 0.0000
# 6 0.0000 0.0000 0.0000 0.0000 0.0000 36.3172
#
#
#
# Elastic Compliance Matrix: (Units=1/GPa)
#
#
# Indices 1 2 3 4 5 6 
#
# 1 0.053915 -0.014344 -0.009239 0.000000 0.000000 0.000000
# 2 -0.014344 0.014369 -0.005796 0.000000 0.000000 0.000000
# 3 -0.009239 -0.005796 0.016500 0.000000 0.000000 0.000000
# 4 0.000000 0.000000 0.000000 0.038221 0.000000 0.000000
# 5 0.000000 0.000000 0.000000 0.000000 0.037180 0.000000
# 6 0.000000 0.000000 0.000000 0.000000 0.000000 0.027535
#
#
# Mechanical properties :
#
#
# Convention : Reuss Voigt Hill
#
# Bulk Modulus (GPa) = 38.42489 80.31135 59.36812
# Shear Modulus (GPa) = 19.59596 26.53900 23.06748
#
# Velocity S-wave (km/s) = 3.38872 3.94362 3.67665
# Velocity P-wave (km/s) = 6.15050 8.23404 7.26732
#
# Compressibility (1/GPa) = 0.02602480
#
# Stress axis : x y z
#
# Youngs Moduli (GPa) = 18.54766 69.59591 60.60505
#
# Poissons Ratio (x) = 0.99828 0.55995
# Poissons Ratio (y) = 0.26605 0.35129
# Poissons Ratio (z) = 0.17137 0.40341
#
# Static dielectric constant tensor:
#      x y z
#    x 1.574670 0.000000 0.000000 
#    y 0.000000 1.585170 0.000000 
#    z 0.000000 0.000000 1.504040 
# 
# From -- ./inp_files/2738.got.cif
#   From: 2010.05.17/outbox.cif.g08.bks.cpg/sg47_2_cif.got.tgz:2738.got - 2010.06.03 20:15:42.
