data_PCOD9388461
_publ_section_title
;
Structure prediction by ZEFSAII (Michael W. Deem and Ramdas Pophale) SiO2 
 PCOD9388461
Probable space group: P M M M
;
_chemical_formula_sum "Si O2"
_cell_formula_units_Z 48
_cell_length_a 19.109202
_cell_length_b 9.952404
_cell_length_c 14.140221
_cell_angle_alpha 90.000000
_cell_angle_beta 90.000000
_cell_angle_gamma 90.000000
_cell_volume 2689.222558
_symmetry_space_group_name_H-M "P M M M"
_symmetry_group_IT_number 47
_symmetry_cell_setting 'orthorhombic'
loop_
_space_group_symop_operation_xyz
x,y,z
-x,-y,z
x,-y,-z
-x,y,-z
-x,-y,-z
x,y,-z
-x,y,z
x,-y,z
loop_
_atom_site_type_symbol
_atom_site_label
_atom_site_fract_x
_atom_site_fract_y
_atom_site_fract_z
Si Si1 0.288046 0.658213 0.607948
Si Si2 0.416903 0.500000 0.891432
Si Si3 0.416774 0.000000 0.113897
Si Si4 0.661190 0.745196 0.198363
Si Si5 0.919296 0.157858 0.221449
Si Si6 0.119262 0.654844 0.610363
Si Si7 0.190191 0.342627 0.886756
O O1 0.305311 0.695815 0.500000
O O2 0.305072 0.500000 0.621066
O O3 0.325758 0.741642 0.689356
O O4 0.203767 0.667538 0.618581
O O5 0.500000 0.500000 0.895565
O O6 0.388531 0.626211 0.835487
O O7 0.389747 0.500000 0.000000
O O8 0.376060 0.125060 0.157724
O O9 0.500000 0.000000 0.135775
O O10 0.410673 0.000000 0.000000
O O11 0.736601 0.713718 0.152261
O O12 0.913283 0.233310 0.322358
O O13 0.870157 0.247210 0.154252
O O14 0.000000 0.162571 0.190273
O O15 0.898368 0.000000 0.226280
O O16 0.101106 0.672345 0.500000
O O17 0.100856 0.500000 0.636623
O O18 0.182621 0.500000 0.857015
O O19 0.190231 0.339342 0.000000
#
# Coordination Sequence:
#
# PCOD9388461 Si02
#       7
#     8   4   4   8   8   8   8
#     4   9  17  33  60  93 122 151 195 252 306 354
#     4  11  22  36  59  91 124 158 200 247 299 357
#     4  11  26  44  61  89 132 172 202 241 303 371
#     4  12  21  38  64  92 123 161 203 251 302 356
#     4  11  25  41  57  82 121 164 202 248 305 365
#     4   9  18  35  60  88 118 155 201 252 306 360
#     4  11  23  39  62  91 118 150 201 259 309 361
#
# _framework density 17.849025000000001
#
# number of rings (size 3 to 8) (size 9 to 14) (size 15 to 20)
#    0.000    1.500    3.333    3.500    1.167    4.000 
#    0.000    3.750    0.000    3.000    0.000    0.000 
#    0.000    0.000    0.000    0.000    0.000    0.000 
#
# Total GULP energy -267994.061867 kJ/mol
# GULP energy per Si atom -5583.209622 kJ/mol
# Density = 1.780840 g / cm^3
# Si number density = 17.849025 Si / 1000 Ang^3
#
#
#
# Elastic Constant Matrix: (Units=GPa)
#
#
# Indices 1 2 3 4 5 6 
#
# 1 93.8972 70.7613 55.9955 0.0000 0.0000 0.0000
# 2 70.7613 161.6790 64.0671 0.0000 0.0000 0.0000
# 3 55.9955 64.0671 108.0937 0.0000 0.0000 0.0000
# 4 0.0000 0.0000 0.0000 15.0352 0.0000 0.0000
# 5 0.0000 0.0000 0.0000 0.0000 46.8649 0.0000
# 6 0.0000 0.0000 0.0000 0.0000 0.0000 28.8502
#
#
#
# Elastic Compliance Matrix: (Units=1/GPa)
#
#
# Indices 1 2 3 4 5 6 
#
# 1 0.018699 -0.005679 -0.006321 0.000000 0.000000 0.000000
# 2 -0.005679 0.009809 -0.002871 0.000000 0.000000 0.000000
# 3 -0.006321 -0.002871 0.014227 0.000000 0.000000 0.000000
# 4 0.000000 0.000000 0.000000 0.066511 0.000000 0.000000
# 5 0.000000 0.000000 0.000000 0.000000 0.021338 0.000000
# 6 0.000000 0.000000 0.000000 0.000000 0.000000 0.034662
#
#
# Mechanical properties :
#
#
# Convention : Reuss Voigt Hill
#
# Bulk Modulus (GPa) = 76.96820 82.81308 79.89064
# Shear Modulus (GPa) = 25.08538 29.67311 27.37925
#
# Velocity S-wave (km/s) = 3.75296 4.08174 3.92080
# Velocity P-wave (km/s) = 7.87369 8.28923 8.08413
#
# Compressibility (1/GPa) = 0.01299238
#
# Stress axis : x y z
#
# Youngs Moduli (GPa) = 53.47816 101.95092 70.28712
#
# Poissons Ratio (x) = 0.57902 0.44425
# Poissons Ratio (y) = 0.30373 0.20183
# Poissons Ratio (z) = 0.33801 0.29275
#
# Static dielectric constant tensor:
#      x y z
#    x 1.598270 0.000000 0.000000 
#    y 0.000000 1.579130 0.000000 
#    z 0.000000 0.000000 1.621520 
# 
# From -- ./inp_files/6463.got.cif
#   From: 2010.05.17/outbox.cif.g08.bks.cpg/sg47_4_cif.got.tgz:6463.got - 2010.06.03 20:15:42.
