data_PCOD9388304
_publ_section_title
;
Structure prediction by ZEFSAII (Michael W. Deem and Ramdas Pophale) SiO2 
 PCOD9388304
Probable space group: P M M M
;
_chemical_formula_sum "Si O2"
_cell_formula_units_Z 52
_cell_length_a 25.303108
_cell_length_b 14.727605
_cell_length_c 8.356364
_cell_angle_alpha 90.000000
_cell_angle_beta 90.000000
_cell_angle_gamma 90.000000
_cell_volume 3114.033973
_symmetry_space_group_name_H-M "P M M M"
_symmetry_group_IT_number 47
_symmetry_cell_setting 'orthorhombic'
loop_
_space_group_symop_operation_xyz
x,y,z
-x,-y,z
x,-y,-z
-x,y,-z
-x,-y,-z
x,y,-z
-x,y,z
x,-y,z
loop_
_atom_site_type_symbol
_atom_site_label
_atom_site_fract_x
_atom_site_fract_y
_atom_site_fract_z
Si Si1 0.939404 0.610096 0.000000
Si Si2 0.760723 0.710391 0.311179
Si Si3 0.558117 0.287827 0.309653
Si Si4 0.340864 0.602410 0.809655
Si Si5 0.870891 0.390570 0.312616
Si Si6 0.726530 0.101392 0.192825
Si Si7 0.602972 0.102247 0.806749
O O1 0.910212 0.635630 0.833051
O O2 0.939977 0.500000 0.000000
O O3 0.000000 0.641968 0.000000
O O4 0.752574 0.708603 0.500000
O O5 0.710923 0.659254 0.235149
O O6 0.815260 0.658405 0.277976
O O7 0.760005 0.814651 0.255502
O O8 0.558040 0.296398 0.500000
O O9 0.500000 0.314533 0.247777
O O10 0.606209 0.347367 0.245266
O O11 0.569490 0.183368 0.265040
O O12 0.337644 0.500000 0.743407
O O13 0.342613 0.597666 0.000000
O O14 0.886240 0.369714 0.500000
O O15 0.864256 0.500000 0.305919
O O16 0.664789 0.114470 0.238922
O O17 0.742552 0.000000 0.245967
O O18 0.727854 0.102610 0.000000
O O19 0.586959 0.000000 0.759968
O O20 0.600390 0.107598 0.000000
#
# Coordination Sequence:
#
# PCOD9388304 Si02
#       7
#     4   8   8   8   8   8   8
#     4   9  18  32  52  78 109 151 196 232 266 305
#     4  11  21  33  53  80 109 139 171 212 263 315
#     4  11  24  39  54  74  99 126 160 207 260 314
#     4  11  24  39  56  76  96 127 169 211 259 313
#     4   9  19  33  49  76 113 150 187 227 269 312
#     4   9  18  32  51  76 105 136 169 206 253 312
#     4   9  18  34  55  76  98 126 161 201 249 308
#
# _framework density 16.698596999999999
#
# number of rings (size 3 to 8) (size 9 to 14) (size 15 to 20)
#    0.000    2.077    1.538    2.769    2.154    4.615 
#    0.000    6.154    0.000    0.000    0.000    0.000 
#    0.000    1.231    0.000    3.385    0.000    0.154 
#
# Total GULP energy -290043.076154 kJ/mol
# GULP energy per Si atom -5577.751464 kJ/mol
# Density = 1.666059 g / cm^3
# Si number density = 16.698597 Si / 1000 Ang^3
#
#
#
# Elastic Constant Matrix: (Units=GPa)
#
#
# Indices 1 2 3 4 5 6 
#
# 1 103.1352 49.7886 63.7268 0.0000 0.0000 0.0000
# 2 49.7886 87.4014 33.2143 0.0000 0.0000 0.0000
# 3 63.7268 33.2143 65.6043 0.0000 0.0000 0.0000
# 4 0.0000 0.0000 0.0000 243.3259 0.0000 0.0000
# 5 0.0000 0.0000 0.0000 0.0000 25.7947 0.0000
# 6 0.0000 0.0000 0.0000 0.0000 0.0000 90.7597
#
#
#
# Elastic Compliance Matrix: (Units=1/GPa)
#
#
# Indices 1 2 3 4 5 6 
#
# 1 0.027114 -0.006732 -0.022930 0.000000 0.000000 0.000000
# 2 -0.006732 0.015839 -0.001480 0.000000 0.000000 0.000000
# 3 -0.022930 -0.001480 0.038266 0.000000 0.000000 0.000000
# 4 0.000000 0.000000 0.000000 0.004110 0.000000 0.000000
# 5 0.000000 0.000000 0.000000 0.000000 0.038768 0.000000
# 6 0.000000 0.000000 0.000000 0.000000 0.000000 0.011018
#
#
# Mechanical properties :
#
#
# Convention : Reuss Voigt Hill
#
# Bulk Modulus (GPa) = 52.81044 61.06667 56.93856
# Shear Modulus (GPa) = 24.54489 79.27015 51.90752
#
# Velocity S-wave (km/s) = 3.83806 6.89741 5.58144
# Velocity P-wave (km/s) = 7.16486 10.00408 8.70106
#
# Compressibility (1/GPa) = 0.01893565
#
# Stress axis : x y z
#
# Youngs Moduli (GPa) = 36.88120 63.13708 26.13306
#
# Poissons Ratio (x) = 0.42503 0.59923
# Poissons Ratio (y) = 0.24828 0.03867
# Poissons Ratio (z) = 0.84568 0.09342
#
# Static dielectric constant tensor:
#      x y z
#    x 1.555500 0.000000 0.000000 
#    y 0.000000 1.586040 0.000000 
#    z 0.000000 0.000000 1.577880 
# 
# From -- ./inp_files/11003.got.cif
#   From: 2010.05.17/outbox.cif.g08.bks.cpg/sg47_6_cif.got.tgz:11003.got - 2010.06.03 20:15:42.
