data_PCOD9388185
_publ_section_title
;
Structure prediction by ZEFSAII (Michael W. Deem and Ramdas Pophale) SiO2 
 PCOD9388185
Probable space group: P M M M
;
_chemical_formula_sum "Si O2"
_cell_formula_units_Z 52
_cell_length_a 18.401054
_cell_length_b 8.793135
_cell_length_c 18.332323
_cell_angle_alpha 90.000000
_cell_angle_beta 90.000000
_cell_angle_gamma 90.000000
_cell_volume 2966.223978
_symmetry_space_group_name_H-M "P M M M"
_symmetry_group_IT_number 47
_symmetry_cell_setting 'orthorhombic'
loop_
_space_group_symop_operation_xyz
x,y,z
-x,-y,z
x,-y,-z
-x,y,-z
-x,-y,-z
x,y,-z
-x,y,z
x,-y,z
loop_
_atom_site_type_symbol
_atom_site_label
_atom_site_fract_x
_atom_site_fract_y
_atom_site_fract_z
Si Si1 0.577593 0.318798 0.118191
Si Si2 0.914637 0.818284 0.500000
Si Si3 0.260392 0.683689 0.918999
Si Si4 0.343182 0.816296 0.418690
Si Si5 0.388003 0.825616 0.266590
Si Si6 0.783984 0.826026 0.228390
Si Si7 0.813765 0.680984 0.622734
O O1 0.500000 0.259536 0.089264
O O2 0.577654 0.500000 0.107043
O O3 0.654870 0.263424 0.087347
O O4 0.579979 0.279474 0.204033
O O5 0.874884 0.749947 0.570600
O O6 0.000000 0.783656 0.500000
O O7 0.904841 0.000000 0.500000
O O8 0.260546 0.500000 0.911833
O O9 0.216115 0.752862 0.851734
O O10 0.233860 0.722969 0.000000
O O11 0.369331 0.778751 0.500000
O O12 0.394274 0.774263 0.350398
O O13 0.264150 0.742714 0.406060
O O14 0.334406 0.000000 0.414127
O O15 0.301339 0.826783 0.251130
O O16 0.413711 0.000000 0.258566
O O17 0.821941 0.734933 0.293568
O O18 0.809125 0.000000 0.226762
O O19 0.813733 0.500000 0.618632
#
# Coordination Sequence:
#
# PCOD9388185 Si02
#       7
#     8   4   8   8   8   8   8
#     4   9  17  28  41  57  79 112 150 185 228 285
#     4  11  23  37  51  69 101 143 176 199 226 261
#     4   9  17  29  45  67  94 119 147 192 245 291
#     4   9  16  27  44  63  86 112 142 184 233 283
#     4   8  15  26  40  59  78 103 140 184 231 275
#     4   9  17  30  47  65  89 122 156 191 233 283
#     4  11  20  30  47  71  97 125 161 199 233 271
#
# _framework density 17.530707
#
# number of rings (size 3 to 8) (size 9 to 14) (size 15 to 20)
#    0.000    2.692    0.769    3.000    0.000    5.231 
#    0.000    1.538    0.000    0.462    0.000    7.538 
#    0.000    0.615    0.000    6.462    0.000    2.769 
#
# Total GULP energy -289721.561376 kJ/mol
# GULP energy per Si atom -5571.568488 kJ/mol
# Density = 1.749081 g / cm^3
# Si number density = 17.530707 Si / 1000 Ang^3
#
#
#
# Elastic Constant Matrix: (Units=GPa)
#
#
# Indices 1 2 3 4 5 6 
#
# 1 35.1951 14.8121 17.2796 0.0000 0.0000 0.0000
# 2 14.8121 30.5948 23.1229 0.0000 0.0000 0.0000
# 3 17.2796 23.1229 142.6683 0.0000 0.0000 0.0000
# 4 0.0000 0.0000 0.0000 22.3295 0.0000 0.0000
# 5 0.0000 0.0000 0.0000 0.0000 -79.1672 0.0000
# 6 0.0000 0.0000 0.0000 0.0000 0.0000 10.3232
#
#
#
# Elastic Compliance Matrix: (Units=1/GPa)
#
#
# Indices 1 2 3 4 5 6 
#
# 1 0.036064 -0.016135 -0.001753 0.000000 0.000000 0.000000
# 2 -0.016135 0.044467 -0.005253 0.000000 0.000000 0.000000
# 3 -0.001753 -0.005253 0.008073 0.000000 0.000000 0.000000
# 4 0.000000 0.000000 0.000000 0.044784 0.000000 0.000000
# 5 0.000000 0.000000 0.000000 0.000000 -0.012631 0.000000
# 6 0.000000 0.000000 0.000000 0.000000 0.000000 0.096869
#
#
# Mechanical properties :
#
#
# Convention : Reuss Voigt Hill
#
# Bulk Modulus (GPa) = 23.62821 35.43194 29.53007
# Shear Modulus (GPa) = 17.98469 0.91335 9.44902
#
# Velocity S-wave (km/s) = 3.20644 0.72259 2.32415
# Velocity P-wave (km/s) = 5.21687 4.57727 4.90750
#
# Compressibility (1/GPa) = 0.04232230
#
# Stress axis : x y z
#
# Youngs Moduli (GPa) = 27.72826 22.48869 123.87125
#
# Poissons Ratio (x) = 0.36286 0.21713
# Poissons Ratio (y) = 0.44740 0.65066
# Poissons Ratio (z) = 0.04860 0.11813
#
# Static dielectric constant tensor:
#      x y z
#    x 1.591050 0.000000 0.000000 
#    y 0.000000 1.593370 0.000000 
#    z 0.000000 0.000000 1.639450 
# 
# From -- ./inp_files/28489.got.cif
#   From: 2010.05.17/outbox.cif.g08.bks.cpg/sg47_15_cif.got.tgz:28489.got - 2010.06.03 20:15:42.
