data_PCOD9388456
_publ_section_title
;
Structure prediction by ZEFSAII (Michael W. Deem and Ramdas Pophale) SiO2 
 PCOD9388456
Probable space group: P M M M
;
_chemical_formula_sum "Si O2"
_cell_formula_units_Z 52
_cell_length_a 8.879909
_cell_length_b 21.812559
_cell_length_c 13.969992
_cell_angle_alpha 90.000000
_cell_angle_beta 90.000000
_cell_angle_gamma 90.000000
_cell_volume 2705.897190
_symmetry_space_group_name_H-M "P M M M"
_symmetry_group_IT_number 47
_symmetry_cell_setting 'orthorhombic'
loop_
_space_group_symop_operation_xyz
x,y,z
-x,-y,z
x,-y,-z
-x,y,-z
-x,-y,-z
x,y,-z
-x,y,z
x,-y,z
loop_
_atom_site_type_symbol
_atom_site_label
_atom_site_fract_x
_atom_site_fract_y
_atom_site_fract_z
Si Si1 0.329556 0.000000 0.613931
Si Si2 0.320582 0.072785 0.890403
Si Si3 0.681843 0.430971 0.192141
Si Si4 0.181913 0.745174 0.692128
Si Si5 0.181398 0.310533 0.105956
Si Si6 0.318594 0.375159 0.393988
Si Si7 0.179288 0.881136 0.703612
O O1 0.249810 0.061432 0.649420
O O2 0.500000 0.000000 0.652096
O O3 0.332057 0.000000 0.500000
O O4 0.500000 0.081709 0.878428
O O5 0.229820 0.111072 0.813395
O O6 0.291028 0.000000 0.875395
O O7 0.281426 0.087321 0.000000
O O8 0.500000 0.426496 0.185440
O O9 0.726124 0.500000 0.166095
O O10 0.754803 0.378065 0.128381
O O11 0.724840 0.416711 0.302936
O O12 0.225855 0.730611 0.802690
O O13 0.254005 0.692227 0.628144
O O14 0.228032 0.814258 0.667035
O O15 0.000000 0.741049 0.685579
O O16 0.000000 0.312942 0.106313
O O17 0.230672 0.289897 0.000000
O O18 0.270673 0.396037 0.500000
O O19 0.500000 0.372408 0.393491
O O20 0.000000 0.884377 0.696908
#
# Coordination Sequence:
#
# PCOD9388456 Si02
#       7
#     4   8   8   8   8   8   8
#     4  11  25  43  60  77 102 139 177 214 262 321
#     4   9  18  33  53  77 107 140 169 201 247 306
#     4   9  18  32  50  75 107 139 171 212 261 307
#     4   9  20  36  53  76 105 136 170 212 262 311
#     4   9  18  34  54  74 102 141 179 213 249 295
#     4   9  18  33  53  76 101 132 173 217 258 307
#     4  11  22  36  57  83 108 135 171 219 269 314
#
# _framework density 19.217286000000001
#
# number of rings (size 3 to 8) (size 9 to 14) (size 15 to 20)
#    0.000    2.538    0.769    1.154    0.000    4.923 
#    0.000    8.462    0.000    0.000    0.000    4.308 
#    0.000    0.000    0.000    0.000    0.000    0.000 
#
# Total GULP energy -290105.842994 kJ/mol
# GULP energy per Si atom -5578.958519 kJ/mol
# Density = 1.917355 g / cm^3
# Si number density = 19.217286 Si / 1000 Ang^3
#
#
#
# Elastic Constant Matrix: (Units=GPa)
#
#
# Indices 1 2 3 4 5 6 
#
# 1 9.7053 6.7225 -1.5047 0.0000 0.0000 0.0000
# 2 6.7225 67.0993 -17.5387 0.0000 0.0000 0.0000
# 3 -1.5047 -17.5387 45.3144 0.0000 0.0000 0.0000
# 4 0.0000 0.0000 0.0000 4.3022 0.0000 0.0000
# 5 0.0000 0.0000 0.0000 0.0000 44.8449 0.0000
# 6 0.0000 0.0000 0.0000 0.0000 0.0000 1.8755
#
#
#
# Elastic Compliance Matrix: (Units=1/GPa)
#
#
# Indices 1 2 3 4 5 6 
#
# 1 0.110739 -0.011274 -0.000686 0.000000 0.000000 0.000000
# 2 -0.011274 0.017728 0.006487 0.000000 0.000000 0.000000
# 3 -0.000686 0.006487 0.024556 0.000000 0.000000 0.000000
# 4 0.000000 0.000000 0.000000 0.232438 0.000000 0.000000
# 5 0.000000 0.000000 0.000000 0.000000 0.022299 0.000000
# 6 0.000000 0.000000 0.000000 0.000000 0.000000 0.533194
#
#
# Mechanical properties :
#
#
# Convention : Reuss Voigt Hill
#
# Bulk Modulus (GPa) = 7.03842 10.83080 8.93461
# Shear Modulus (GPa) = 5.00371 19.16718 12.08544
#
# Velocity S-wave (km/s) = 1.61537 3.16158 2.51048
# Velocity P-wave (km/s) = 2.67389 4.35610 3.61423
#
# Compressibility (1/GPa) = 0.14207727
#
# Stress axis : x y z
#
# Youngs Moduli (GPa) = 9.03027 56.40638 40.72300
#
# Poissons Ratio (x) = 0.63592 0.02795
# Poissons Ratio (y) = 0.10181 -0.26418
# Poissons Ratio (z) = 0.00620 -0.36593
#
# Static dielectric constant tensor:
#      x y z
#    x 1.643730 0.000000 0.000000 
#    y 0.000000 1.658420 0.000000 
#    z 0.000000 0.000000 1.691070 
# 
# From -- ./inp_files/11027.got.cif
#   From: 2010.05.17/outbox.cif.g08.bks.cpg/sg47_6_cif.got.tgz:11027.got - 2010.06.03 20:15:42.
