data_PCOD9388499
_publ_section_title
;
Structure prediction by ZEFSAII (Michael W. Deem and Ramdas Pophale) SiO2 
 PCOD9388499
Probable space group: P M M M
;
_chemical_formula_sum "Si O2"
_cell_formula_units_Z 48
_cell_length_a 29.808683
_cell_length_b 8.611578
_cell_length_c 10.249124
_cell_angle_alpha 90.000000
_cell_angle_beta 90.000000
_cell_angle_gamma 90.000000
_cell_volume 2630.948068
_symmetry_space_group_name_H-M "P M M M"
_symmetry_group_IT_number 47
_symmetry_cell_setting 'orthorhombic'
loop_
_space_group_symop_operation_xyz
x,y,z
-x,-y,z
x,-y,-z
-x,y,-z
-x,-y,-z
x,y,-z
-x,y,z
x,-y,z
loop_
_atom_site_type_symbol
_atom_site_label
_atom_site_fract_x
_atom_site_fract_y
_atom_site_fract_z
Si Si1 0.449464 0.188760 0.000000
Si Si2 0.299960 0.686224 0.846923
Si Si3 0.050889 0.687235 0.149851
Si Si4 0.122442 0.812922 0.352546
Si Si5 0.773656 0.187686 0.349769
Si Si6 0.552509 0.313681 0.500000
Si Si7 0.393801 0.813200 0.252437
O O1 0.422778 0.236069 0.872610
O O2 0.500000 0.247061 0.000000
O O3 0.450822 0.000000 0.000000
O O4 0.301772 0.500000 0.847074
O O5 0.257876 0.741631 0.760870
O O6 0.343993 0.751858 0.774686
O O7 0.298606 0.737707 0.000000
O O8 0.051630 0.500000 0.152424
O O9 0.087938 0.749370 0.247728
O O10 0.000000 0.736636 0.184485
O O11 0.059477 0.735797 0.000000
O O12 0.110663 0.762527 0.500000
O O13 0.174280 0.767852 0.328467
O O14 0.121190 0.000000 0.349885
O O15 0.761500 0.232265 0.500000
O O16 0.770675 0.000000 0.343712
O O17 0.552417 0.500000 0.500000
O O18 0.500000 0.261711 0.500000
O O19 0.580118 0.252304 0.376341
O O20 0.392387 0.000000 0.260689
#
# Coordination Sequence:
#
# PCOD9388499 Si02
#       7
#     4   8   8   8   8   4   8
#     4   9  18  34  59  89 115 141 183 235 278 321
#     4  11  24  40  58  84 119 152 186 231 286 344
#     4   9  19  35  53  76 110 151 192 233 278 333
#     4   9  19  36  56  81 112 144 183 235 288 338
#     4   9  20  39  61  83 110 146 189 234 283 340
#     4  11  25  43  61  87 123 157 189 229 280 337
#     4  11  22  39  63  88 116 151 192 236 280 331
#
# _framework density 18.244374000000001
#
# number of rings (size 3 to 8) (size 9 to 14) (size 15 to 20)
#    0.000    2.167    0.833    3.250    1.167    5.333 
#    0.000    7.500    0.000    2.000    0.000    0.000 
#    0.000    0.000    0.000    0.000    0.000    0.000 
#
# Total GULP energy -267886.860332 kJ/mol
# GULP energy per Si atom -5580.976257 kJ/mol
# Density = 1.820285 g / cm^3
# Si number density = 18.244374 Si / 1000 Ang^3
#
#
#
# Elastic Constant Matrix: (Units=GPa)
#
#
# Indices 1 2 3 4 5 6 
#
# 1 157.7586 40.4799 120.1280 0.0000 0.0000 0.0000
# 2 40.4799 36.9531 43.5707 0.0000 0.0000 0.0000
# 3 120.1280 43.5707 176.6921 0.0000 0.0000 0.0000
# 4 0.0000 0.0000 0.0000 30.1367 0.0000 0.0000
# 5 0.0000 0.0000 0.0000 0.0000 41.7475 0.0000
# 6 0.0000 0.0000 0.0000 0.0000 0.0000 20.1725
#
#
#
# Elastic Compliance Matrix: (Units=1/GPa)
#
#
# Indices 1 2 3 4 5 6 
#
# 1 0.013969 -0.005787 -0.008070 0.000000 0.000000 0.000000
# 2 -0.005787 0.040552 -0.006066 0.000000 0.000000 0.000000
# 3 -0.008070 -0.006066 0.012642 0.000000 0.000000 0.000000
# 4 0.000000 0.000000 0.000000 0.033182 0.000000 0.000000
# 5 0.000000 0.000000 0.000000 0.000000 0.023954 0.000000
# 6 0.000000 0.000000 0.000000 0.000000 0.000000 0.049572
#
#
# Mechanical properties :
#
#
# Convention : Reuss Voigt Hill
#
# Bulk Modulus (GPa) = 36.60568 86.64013 61.62290
# Shear Modulus (GPa) = 22.43953 29.55970 25.99962
#
# Velocity S-wave (km/s) = 3.51086 4.02955 3.77911
# Velocity P-wave (km/s) = 6.04504 8.32115 7.27269
#
# Compressibility (1/GPa) = 0.02731817
#
# Stress axis : x y z
#
# Youngs Moduli (GPa) = 71.58906 24.65959 79.10270
#
# Poissons Ratio (x) = 0.14270 0.63835
# Poissons Ratio (y) = 0.41427 0.47980
# Poissons Ratio (z) = 0.57772 0.14957
#
# Static dielectric constant tensor:
#      x y z
#    x 1.614150 0.000000 0.000000 
#    y 0.000000 1.621920 0.000000 
#    z 0.000000 0.000000 1.615220 
# 
# From -- ./inp_files/2563.got.cif
#   From: 2010.05.17/outbox.cif.g08.bks.cpg/sg47_2_cif.got.tgz:2563.got - 2010.06.03 20:15:42.
