data_PCOD9388089
_publ_section_title
;
Structure prediction by ZEFSAII (Michael W. Deem and Ramdas Pophale) SiO2 
 PCOD9388089
Probable space group: P M M M
;
_chemical_formula_sum "Si O2"
_cell_formula_units_Z 40
_cell_length_a 7.667244
_cell_length_b 30.823338
_cell_length_c 8.836122
_cell_angle_alpha 90.000000
_cell_angle_beta 90.000000
_cell_angle_gamma 90.000000
_cell_volume 2088.241184
_symmetry_space_group_name_H-M "P M M M"
_symmetry_group_IT_number 47
_symmetry_cell_setting 'orthorhombic'
loop_
_space_group_symop_operation_xyz
x,y,z
-x,-y,z
x,-y,-z
-x,y,-z
-x,-y,-z
x,y,-z
-x,y,z
x,-y,z
loop_
_atom_site_type_symbol
_atom_site_label
_atom_site_fract_x
_atom_site_fract_y
_atom_site_fract_z
Si Si1 0.500000 0.756260 0.318087
Si Si2 0.500000 0.656384 0.315706
Si Si3 0.706333 0.000000 0.672226
Si Si4 0.212306 0.500000 0.173899
Si Si5 0.792036 0.093646 0.327465
Si Si6 0.206097 0.183651 0.819583
Si Si7 0.201930 0.590776 0.682470
O O1 0.500000 0.757621 0.500000
O O2 0.500000 0.706170 0.266808
O O3 0.329630 0.781091 0.257394
O O4 0.500000 0.656770 0.500000
O O5 0.670423 0.629264 0.268087
O O6 0.755460 0.953729 0.741738
O O7 0.500000 0.000000 0.660583
O O8 0.783044 0.000000 0.500000
O O9 0.265227 0.455532 0.254705
O O10 0.000000 0.500000 0.178647
O O11 0.267775 0.500000 0.000000
O O12 0.720518 0.094536 0.500000
O O13 0.734790 0.135913 0.236665
O O14 0.000000 0.096875 0.337312
O O15 0.000000 0.189325 0.781154
O O16 0.222495 0.186061 0.000000
O O17 0.205039 0.588636 0.500000
O O18 0.000000 0.597611 0.728972
#
# Coordination Sequence:
#
# PCOD9388089 Si02
#       7
#     4   4   4   4   8   8   8
#     4  11  23  39  62  87 112 142 184 240 292 339
#     4   9  20  36  54  81 107 133 176 226 275 325
#     4   9  17  27  44  75 110 140 174 217 267 321
#     4   9  17  30  49  76 109 143 180 219 257 302
#     4   9  17  31  52  77 105 140 181 223 268 321
#     4  10  22  40  60  83 113 149 187 229 281 339
#     4   9  17  32  54  77 105 141 177 215 262 316
#
# _framework density 19.154876000000002
#
# number of rings (size 3 to 8) (size 9 to 14) (size 15 to 20)
#    0.000    2.600    0.000    1.500    1.400    4.800 
#    0.000    7.000    0.000    5.400    0.000    0.000 
#    0.000    0.000    0.000    0.000    0.000    0.000 
#
# Total GULP energy -223087.409037 kJ/mol
# GULP energy per Si atom -5577.185226 kJ/mol
# Density = 1.911128 g / cm^3
# Si number density = 19.154876 Si / 1000 Ang^3
#
#
#
# Elastic Constant Matrix: (Units=GPa)
#
#
# Indices 1 2 3 4 5 6 
#
# 1 90.2724 83.1479 34.2871 0.0000 0.0000 0.0000
# 2 83.1479 220.9658 48.2473 0.0000 0.0000 0.0000
# 3 34.2871 48.2473 36.7829 0.0000 0.0000 0.0000
# 4 0.0000 0.0000 0.0000 -27.4376 0.0000 0.0000
# 5 0.0000 0.0000 0.0000 0.0000 16.5006 0.0000
# 6 0.0000 0.0000 0.0000 0.0000 0.0000 38.6006
#
#
#
# Elastic Compliance Matrix: (Units=1/GPa)
#
#
# Indices 1 2 3 4 5 6 
#
# 1 0.020379 -0.004934 -0.012525 0.000000 0.000000 0.000000
# 2 -0.004934 0.007536 -0.005286 0.000000 0.000000 0.000000
# 3 -0.012525 -0.005286 0.045796 0.000000 0.000000 0.000000
# 4 0.000000 0.000000 0.000000 -0.036446 0.000000 0.000000
# 5 0.000000 0.000000 0.000000 0.000000 0.060604 0.000000
# 6 0.000000 0.000000 0.000000 0.000000 0.000000 0.025906
#
#
# Mechanical properties :
#
#
# Convention : Reuss Voigt Hill
#
# Bulk Modulus (GPa) = 35.43439 75.48730 55.46084
# Shear Modulus (GPa) = 27.98422 17.68864 22.83643
#
# Velocity S-wave (km/s) = 3.82638 3.04213 3.45657
# Velocity P-wave (km/s) = 6.16933 7.19958 6.70427
#
# Compressibility (1/GPa) = 0.02822118
#
# Stress axis : x y z
#
# Youngs Moduli (GPa) = 49.06978 132.68994 21.83614
#
# Poissons Ratio (x) = 0.65466 0.27350
# Poissons Ratio (y) = 0.24210 0.11543
# Poissons Ratio (z) = 0.61460 0.70144
#
# Static dielectric constant tensor:
#      x y z
#    x 1.682420 0.000000 0.000000 
#    y 0.000000 1.662450 0.000000 
#    z 0.000000 0.000000 1.651380 
# 
# From -- ./inp_files/1900.got.cif
#   From: 2010.05.17/outbox.cif.g08.bks.cpg/sg47_1_cif.got.tgz:1900.got - 2010.06.03 20:15:42.
