data_PCOD9388498
_publ_section_title
;
Structure prediction by ZEFSAII (Michael W. Deem and Ramdas Pophale) SiO2 
 PCOD9388498
Probable space group: P M M M
;
_chemical_formula_sum "Si O2"
_cell_formula_units_Z 48
_cell_length_a 8.170752
_cell_length_b 30.043668
_cell_length_c 10.316079
_cell_angle_alpha 90.000000
_cell_angle_beta 90.000000
_cell_angle_gamma 90.000000
_cell_volume 2532.384475
_symmetry_space_group_name_H-M "P M M M"
_symmetry_group_IT_number 47
_symmetry_cell_setting 'orthorhombic'
loop_
_space_group_symop_operation_xyz
x,y,z
-x,-y,z
x,-y,-z
-x,y,-z
-x,-y,-z
x,y,-z
-x,y,z
x,-y,z
loop_
_atom_site_type_symbol
_atom_site_label
_atom_site_fract_x
_atom_site_fract_y
_atom_site_fract_z
Si Si1 0.300227 0.876470 0.646986
Si Si2 0.697571 0.774424 0.352524
Si Si3 0.805046 0.700408 0.850335
Si Si4 0.194978 0.448732 0.500000
Si Si5 0.695820 0.394722 0.751656
Si Si6 0.700149 0.449372 0.000000
Si Si7 0.300158 0.050503 0.148560
O O1 0.251804 0.888161 0.500000
O O2 0.500000 0.876654 0.650003
O O3 0.249608 0.825469 0.672179
O O4 0.242322 0.912152 0.751720
O O5 0.751580 0.761991 0.500000
O O6 0.500000 0.773964 0.354419
O O7 0.752657 0.741612 0.239377
O O8 0.752329 0.655500 0.776431
O O9 0.000000 0.700528 0.858684
O O10 0.740521 0.701217 0.000000
O O11 0.259842 0.500000 0.500000
O O12 0.248333 0.420239 0.376027
O O13 0.000000 0.451677 0.500000
O O14 0.500000 0.394301 0.751794
O O15 0.755760 0.423408 0.873622
O O16 0.755103 0.500000 0.000000
O O17 0.500000 0.449402 0.000000
O O18 0.500000 0.051013 0.150427
O O19 0.250421 0.000000 0.182662
O O20 0.250730 0.059423 0.000000
#
# Coordination Sequence:
#
# PCOD9388498 Si02
#       7
#     8   8   8   4   8   4   8
#     4   8  14  25  40  61  90 124 165 214 262 310
#     4   9  19  35  55  78 104 136 179 227 273 324
#     4  11  24  40  57  80 112 144 178 222 276 335
#     4  11  25  43  61  87 123 157 187 221 266 319
#     4  11  22  39  63  88 115 147 186 229 270 317
#     4   9  18  34  59  89 115 139 175 223 268 309
#     4   8  13  20  31  52  86 127 168 208 254 310
#
# _framework density 18.954467999999999
#
# number of rings (size 3 to 8) (size 9 to 14) (size 15 to 20)
#    0.000    2.500    0.833    3.250    1.167    3.667 
#    0.000    3.333    0.000    2.000    0.000    0.000 
#    0.000    0.667    0.000    7.333    0.000   12.000 
#
# Total GULP energy -267740.642129 kJ/mol
# GULP energy per Si atom -5577.930044 kJ/mol
# Density = 1.891133 g / cm^3
# Si number density = 18.954468 Si / 1000 Ang^3
#
#
#
# Elastic Constant Matrix: (Units=GPa)
#
#
# Indices 1 2 3 4 5 6 
#
# 1 22.2794 18.4587 20.4201 0.0000 0.0000 0.0000
# 2 18.4587 175.4039 133.4345 0.0000 0.0000 0.0000
# 3 20.4201 133.4345 186.5342 0.0000 0.0000 0.0000
# 4 0.0000 0.0000 0.0000 42.6811 0.0000 0.0000
# 5 0.0000 0.0000 0.0000 0.0000 14.8069 0.0000
# 6 0.0000 0.0000 0.0000 0.0000 0.0000 -9.0274
#
#
#
# Elastic Compliance Matrix: (Units=1/GPa)
#
#
# Indices 1 2 3 4 5 6 
#
# 1 0.050356 -0.002426 -0.003777 0.000000 0.000000 0.000000
# 2 -0.002426 0.012624 -0.008765 0.000000 0.000000 0.000000
# 3 -0.003777 -0.008765 0.012044 0.000000 0.000000 0.000000
# 4 0.000000 0.000000 0.000000 0.023430 0.000000 0.000000
# 5 0.000000 0.000000 0.000000 0.000000 0.067536 0.000000
# 6 0.000000 0.000000 0.000000 0.000000 0.000000 -0.110774
#
#
# Mechanical properties :
#
#
# Convention : Reuss Voigt Hill
#
# Bulk Modulus (GPa) = 22.17846 80.98266 51.58056
# Shear Modulus (GPa) = 49.90896 23.81907 36.86401
#
# Velocity S-wave (km/s) = 5.13694 3.54877 4.41485
# Velocity P-wave (km/s) = 6.84912 7.72070 7.29794
#
# Compressibility (1/GPa) = 0.04508880
#
# Stress axis : x y z
#
# Youngs Moduli (GPa) = 19.85845 79.21351 83.02669
#
# Poissons Ratio (x) = 0.19215 0.31362
# Poissons Ratio (y) = 0.04817 0.72772
# Poissons Ratio (z) = 0.07501 0.69430
#
# Static dielectric constant tensor:
#      x y z
#    x 1.663140 0.000000 0.000000 
#    y 0.000000 1.647820 0.000000 
#    z 0.000000 0.000000 1.650030 
# 
# From -- ./inp_files/2564.got.cif
#   From: 2010.05.17/outbox.cif.g08.bks.cpg/sg47_2_cif.got.tgz:2564.got - 2010.06.03 20:15:42.
