data_PCOD9388103
_publ_section_title
;
Structure prediction by ZEFSAII (Michael W. Deem and Ramdas Pophale) SiO2 
 PCOD9388103
Probable space group: P M M M
;
_chemical_formula_sum "Si O2"
_cell_formula_units_Z 48
_cell_length_a 9.157828
_cell_length_b 15.358037
_cell_length_c 17.859506
_cell_angle_alpha 90.000000
_cell_angle_beta 90.000000
_cell_angle_gamma 90.000000
_cell_volume 2511.872747
_symmetry_space_group_name_H-M "P M M M"
_symmetry_group_IT_number 47
_symmetry_cell_setting 'orthorhombic'
loop_
_space_group_symop_operation_xyz
x,y,z
-x,-y,z
x,-y,-z
-x,y,-z
-x,-y,-z
x,y,-z
-x,y,z
x,-y,z
loop_
_atom_site_type_symbol
_atom_site_label
_atom_site_fract_x
_atom_site_fract_y
_atom_site_fract_z
Si Si1 0.826585 0.248550 0.910913
Si Si2 0.162279 0.351828 0.500000
Si Si3 0.335965 0.395736 0.649136
Si Si4 0.673631 0.104117 0.813287
Si Si5 0.833456 0.103665 0.337757
Si Si6 0.323001 0.602660 0.815450
Si Si7 0.834320 0.145234 0.500000
O O1 0.753334 0.163252 0.874426
O O2 0.752609 0.333249 0.873644
O O3 0.000000 0.248344 0.895715
O O4 0.804500 0.249237 0.000000
O O5 0.243170 0.376651 0.576143
O O6 0.154291 0.248189 0.500000
O O7 0.000000 0.389379 0.500000
O O8 0.500000 0.360292 0.638940
O O9 0.346851 0.500000 0.654961
O O10 0.278995 0.368658 0.730859
O O11 0.500000 0.117924 0.815613
O O12 0.737303 0.132358 0.732323
O O13 0.700434 0.000000 0.823286
O O14 0.768020 0.120435 0.420095
O O15 0.000000 0.140314 0.334997
O O16 0.845207 0.000000 0.330688
O O17 0.500000 0.609599 0.819153
O O18 0.286998 0.500000 0.826408
O O19 0.000000 0.106669 0.500000
#
# Coordination Sequence:
#
# PCOD9388103 Si02
#       7
#     8   4   8   8   8   8   4
#     4  11  25  42  62  90 122 155 191 236 292 354
#     4  11  22  31  45  77 116 149 188 237 281 328
#     4   9  19  37  57  76 104 145 191 236 282 334
#     4  10  22  40  62  89 120 154 195 244 296 349
#     4   9  17  33  57  80 107 149 195 236 282 337
#     4   9  20  40  65  91 119 155 198 242 291 348
#     4   9  19  32  47  76 114 149 188 233 278 329
#
# _framework density 19.109248999999998
#
# number of rings (size 3 to 8) (size 9 to 14) (size 15 to 20)
#    0.000    2.333    0.000    2.750    2.333    6.333 
#    0.000    6.250    0.000    2.000    0.000    0.000 
#    0.000    0.000    0.000    0.000    0.000    0.000 
#
# Total GULP energy -267743.541773 kJ/mol
# GULP energy per Si atom -5577.990454 kJ/mol
# Density = 1.906576 g / cm^3
# Si number density = 19.109249 Si / 1000 Ang^3
#
#
#
# Elastic Constant Matrix: (Units=GPa)
#
#
# Indices 1 2 3 4 5 6 
#
# 1 81.5029 45.5693 86.9933 0.0000 0.0000 0.0000
# 2 45.5693 69.5762 61.7193 0.0000 0.0000 0.0000
# 3 86.9933 61.7193 170.6582 0.0000 0.0000 0.0000
# 4 0.0000 0.0000 0.0000 37.6661 0.0000 0.0000
# 5 0.0000 0.0000 0.0000 0.0000 27.3629 0.0000
# 6 0.0000 0.0000 0.0000 0.0000 0.0000 24.1154
#
#
#
# Elastic Compliance Matrix: (Units=1/GPa)
#
#
# Indices 1 2 3 4 5 6 
#
# 1 0.030353 -0.009062 -0.012195 0.000000 0.000000 0.000000
# 2 -0.009062 0.023867 -0.004012 0.000000 0.000000 0.000000
# 3 -0.012195 -0.004012 0.013527 0.000000 0.000000 0.000000
# 4 0.000000 0.000000 0.000000 0.026549 0.000000 0.000000
# 5 0.000000 0.000000 0.000000 0.000000 0.036546 0.000000
# 6 0.000000 0.000000 0.000000 0.000000 0.000000 0.041467
#
#
# Mechanical properties :
#
#
# Convention : Reuss Voigt Hill
#
# Bulk Modulus (GPa) = 58.11072 78.92235 68.51653
# Shear Modulus (GPa) = 21.87385 26.32591 24.09988
#
# Velocity S-wave (km/s) = 3.38697 3.71570 3.55514
# Velocity P-wave (km/s) = 6.76544 7.73297 7.26533
#
# Compressibility (1/GPa) = 0.01720853
#
# Stress axis : x y z
#
# Youngs Moduli (GPa) = 32.94611 41.89883 73.92482
#
# Poissons Ratio (x) = 0.37967 0.90152
# Poissons Ratio (y) = 0.29855 0.29662
# Poissons Ratio (z) = 0.40178 0.16812
#
# Static dielectric constant tensor:
#      x y z
#    x 1.701650 0.000000 0.000000 
#    y 0.000000 1.665380 0.000000 
#    z 0.000000 0.000000 1.680500 
# 
# From -- ./inp_files/26517.got.cif
#   From: 2010.05.17/outbox.cif.g08.bks.cpg/sg47_14_cif.got.tgz:26517.got - 2010.06.03 20:15:42.
