data_PCOD9388067
_publ_section_title
;
Structure prediction by ZEFSAII (Michael W. Deem and Ramdas Pophale) SiO2 
 PCOD9388067
Probable space group: P M M M
;
_chemical_formula_sum "Si O2"
_cell_formula_units_Z 44
_cell_length_a 15.559416
_cell_length_b 18.172139
_cell_length_c 7.849825
_cell_angle_alpha 90.000000
_cell_angle_beta 90.000000
_cell_angle_gamma 90.000000
_cell_volume 2219.521301
_symmetry_space_group_name_H-M "P M M M"
_symmetry_group_IT_number 47
_symmetry_cell_setting 'orthorhombic'
loop_
_space_group_symop_operation_xyz
x,y,z
-x,-y,z
x,-y,-z
-x,y,-z
-x,-y,-z
x,y,-z
-x,y,z
x,-y,z
loop_
_atom_site_type_symbol
_atom_site_label
_atom_site_fract_x
_atom_site_fract_y
_atom_site_fract_z
Si Si1 0.403783 0.273192 0.000000
Si Si2 0.899707 0.214078 0.798243
Si Si3 0.772259 0.917410 0.295256
Si Si4 0.677732 0.588584 0.000000
Si Si5 0.602477 0.169959 0.699368
Si Si6 0.908313 0.500000 0.295391
Si Si7 0.797185 0.641126 0.302636
O O1 0.369857 0.235512 0.172879
O O2 0.500000 0.245989 0.000000
O O3 0.405838 0.360865 0.000000
O O4 0.842741 0.141031 0.768368
O O5 0.846958 0.282026 0.717893
O O6 0.000000 0.208893 0.738982
O O7 0.902222 0.227965 0.000000
O O8 0.780158 0.918075 0.500000
O O9 0.673568 0.892311 0.260870
O O10 0.787125 0.000000 0.230434
O O11 0.724515 0.621850 0.833770
O O12 0.673360 0.500000 0.000000
O O13 0.613244 0.190753 0.500000
O O14 0.500000 0.150573 0.717878
O O15 0.914678 0.500000 0.500000
O O16 0.862021 0.575328 0.256453
O O17 0.000000 0.500000 0.212296
O O18 0.769373 0.633664 0.500000
#
# Coordination Sequence:
#
# PCOD9388067 Si02
#       7
#     4   8   8   4   8   4   8
#     4  10  22  39  61  88 119 158 202 241 291 358
#     4  11  24  40  59  85 118 161 212 260 306 358
#     4  10  22  39  60  88 121 161 206 250 303 365
#     4  12  24  39  60  89 122 159 201 246 301 360
#     4   9  19  38  64  94 125 155 193 246 305 364
#     4   9  18  33  55  83 114 148 184 232 296 355
#     4  11  22  39  61  87 118 153 198 250 304 360
#
# _framework density 19.824095
#
# number of rings (size 3 to 8) (size 9 to 14) (size 15 to 20)
#    0.000    1.727    1.818    2.182    1.273    5.636 
#    0.000    4.091    0.000    1.636    0.000    3.818 
#    0.000    0.000    0.000    0.000    0.000    0.000 
#
# Total GULP energy -245032.732258 kJ/mol
# GULP energy per Si atom -5568.925733 kJ/mol
# Density = 1.977897 g / cm^3
# Si number density = 19.824095 Si / 1000 Ang^3
#
#
#
# Elastic Constant Matrix: (Units=GPa)
#
#
# Indices 1 2 3 4 5 6 
#
# 1 65.0056 41.8186 31.7920 0.0000 0.0000 0.0000
# 2 41.8186 157.0319 33.4285 0.0000 0.0000 0.0000
# 3 31.7920 33.4285 80.0872 0.0000 0.0000 0.0000
# 4 0.0000 0.0000 0.0000 27.7203 0.0000 0.0000
# 5 0.0000 0.0000 0.0000 0.0000 -48.0929 0.0000
# 6 0.0000 0.0000 0.0000 0.0000 0.0000 58.2581
#
#
#
# Elastic Compliance Matrix: (Units=1/GPa)
#
#
# Indices 1 2 3 4 5 6 
#
# 1 0.021418 -0.004274 -0.006719 0.000000 0.000000 0.000000
# 2 -0.004274 0.007842 -0.001577 0.000000 0.000000 0.000000
# 3 -0.006719 -0.001577 0.015812 0.000000 0.000000 0.000000
# 4 0.000000 0.000000 0.000000 0.036075 0.000000 0.000000
# 5 0.000000 0.000000 0.000000 0.000000 -0.020793 0.000000
# 6 0.000000 0.000000 0.000000 0.000000 0.000000 0.017165
#
#
# Mechanical properties :
#
#
# Convention : Reuss Voigt Hill
#
# Bulk Modulus (GPa) = 50.16561 57.35588 53.76075
# Shear Modulus (GPa) = 45.74531 20.58281 33.16406
#
# Velocity S-wave (km/s) = 4.80892 3.22572 4.09457
# Velocity P-wave (km/s) = 7.49630 6.54743 7.03788
#
# Compressibility (1/GPa) = 0.01993397
#
# Stress axis : x y z
#
# Youngs Moduli (GPa) = 46.68895 127.52062 63.24478
#
# Poissons Ratio (x) = 0.54497 0.42492
# Poissons Ratio (y) = 0.19953 0.09972
# Poissons Ratio (z) = 0.31368 0.20107
#
# Static dielectric constant tensor:
#      x y z
#    x 1.731470 0.000000 0.000000 
#    y 0.000000 1.575930 0.000000 
#    z 0.000000 0.000000 1.749450 
# 
# From -- ./inp_files/6274.got.cif
#   From: 2010.05.17/outbox.cif.g08.bks.cpg/sg47_4_cif.got.tgz:6274.got - 2010.06.03 20:15:42.
