data_PCOD9388997
_publ_section_title
;
Structure prediction by ZEFSAII (Michael W. Deem and Ramdas Pophale) SiO2 
 PCOD9388997
Probable space group: P M M M
;
_chemical_formula_sum "Si O2"
_cell_formula_units_Z 44
_cell_length_a 29.267072
_cell_length_b 7.339504
_cell_length_c 9.592389
_cell_angle_alpha 90.000000
_cell_angle_beta 90.000000
_cell_angle_gamma 90.000000
_cell_volume 2060.500716
_symmetry_space_group_name_H-M "P M M M"
_symmetry_group_IT_number 47
_symmetry_cell_setting 'orthorhombic'
loop_
_space_group_symop_operation_xyz
x,y,z
-x,-y,z
x,-y,-z
-x,y,-z
-x,-y,-z
x,y,-z
-x,y,z
x,-y,z
loop_
_atom_site_type_symbol
_atom_site_label
_atom_site_fract_x
_atom_site_fract_y
_atom_site_fract_z
Si Si1 0.088153 0.777401 0.839444
Si Si2 0.362292 0.722892 0.840184
Si Si3 0.000000 0.222044 0.661080
Si Si4 0.722949 0.717572 0.341545
Si Si5 0.448718 0.721726 0.660652
Si Si6 0.826611 0.216974 0.341012
O O1 0.134583 0.716114 0.763529
O O2 0.044964 0.721818 0.745996
O O3 0.088123 0.000000 0.841539
O O4 0.084831 0.718741 0.000000
O O5 0.362283 0.500000 0.839372
O O6 0.317119 0.784178 0.758100
O O7 0.407911 0.781650 0.759594
O O8 0.362058 0.780572 0.000000
O O9 0.000000 0.281396 0.500000
O O10 0.000000 0.000000 0.658636
O O11 0.718765 0.788371 0.500000
O O12 0.717651 0.500000 0.349056
O O13 0.774677 0.751856 0.293221
O O14 0.440807 0.776010 0.500000
O O15 0.500000 0.778705 0.701569
O O16 0.448564 0.500000 0.661995
O O17 0.831071 0.288308 0.500000
O O18 0.832889 0.000000 0.349721
#
# Coordination Sequence:
#
# PCOD9388997 Si02
#       6
#     8   8   4   8   8   8
#     4   9  16  25  38  58  84 111 137 167 205 247
#     4   9  16  24  35  53  77 104 134 169 206 242
#     4   9  15  23  37  57  82 111 140 169 202 242
#     4   9  17  29  44  60  80 109 142 172 203 242
#     4   8  13  21  33  49  71 101 134 165 200 244
#     4   9  17  29  44  62  84 109 138 172 207 241
#
# _framework density 21.354032
#
# number of rings (size 3 to 8) (size 9 to 14) (size 15 to 20)
#    0.000    3.182    0.000    1.909    0.000    6.545 
#    0.000    1.818    0.000    0.000    0.000    0.636 
#    0.000    5.818    0.000    8.364    0.000   10.727 
#
# Total GULP energy -245673.120839 kJ/mol
# GULP energy per Si atom -5583.480019 kJ/mol
# Density = 2.130543 g / cm^3
# Si number density = 21.354032 Si / 1000 Ang^3
#
#
#
# Elastic Constant Matrix: (Units=GPa)
#
#
# Indices 1 2 3 4 5 6 
#
# 1 249.4348 1.8475 171.1675 0.0000 0.0000 0.0000
# 2 1.8475 81.8040 6.4955 0.0000 0.0000 0.0000
# 3 171.1675 6.4955 185.0208 0.0000 0.0000 0.0000
# 4 0.0000 0.0000 0.0000 -9.4641 0.0000 0.0000
# 5 0.0000 0.0000 0.0000 0.0000 60.2004 0.0000
# 6 0.0000 0.0000 0.0000 0.0000 0.0000 10.7061
#
#
#
# Elastic Compliance Matrix: (Units=1/GPa)
#
#
# Indices 1 2 3 4 5 6 
#
# 1 0.011005 0.000561 -0.010200 0.000000 0.000000 0.000000
# 2 0.000561 0.012287 -0.000951 0.000000 0.000000 0.000000
# 3 -0.010200 -0.000951 0.014875 0.000000 0.000000 0.000000
# 4 0.000000 0.000000 0.000000 -0.105663 0.000000 0.000000
# 5 0.000000 0.000000 0.000000 0.000000 0.016611 0.000000
# 6 0.000000 0.000000 0.000000 0.000000 0.000000 0.093405
#
#
# Mechanical properties :
#
#
# Convention : Reuss Voigt Hill
#
# Bulk Modulus (GPa) = 58.86791 97.25340 78.06065
# Shear Modulus (GPa) = 72.08617 34.73843 53.41230
#
# Velocity S-wave (km/s) = 5.81644 4.03772 5.00670
# Velocity P-wave (km/s) = 8.52850 8.20852 8.37004
#
# Compressibility (1/GPa) = 0.01698718
#
# Stress axis : x y z
#
# Youngs Moduli (GPa) = 90.87103 81.38579 67.22787
#
# Poissons Ratio (x) = -0.04569 0.68575
# Poissons Ratio (y) = -0.05102 0.06392
# Poissons Ratio (z) = 0.92692 0.07738
#
# Static dielectric constant tensor:
#      x y z
#    x 1.731940 0.000000 0.000000 
#    y 0.000000 1.882930 0.000000 
#    z 0.000000 0.000000 1.720680 
# 
# From -- ./inp_files/2066.got.cif
#   From: 2010.05.17/outbox.cif.g08.bks.cpg/sg47_2_cif.got.tgz:2066.got - 2010.06.03 20:15:42.
