data_PCOD9388214
_publ_section_title
;
Structure prediction by ZEFSAII (Michael W. Deem and Ramdas Pophale) SiO2 
 PCOD9388214
Probable space group: P M M M
;
_chemical_formula_sum "Si O2"
_cell_formula_units_Z 52
_cell_length_a 8.266378
_cell_length_b 15.590830
_cell_length_c 20.760259
_cell_angle_alpha 90.000000
_cell_angle_beta 90.000000
_cell_angle_gamma 90.000000
_cell_volume 2675.575830
_symmetry_space_group_name_H-M "P M M M"
_symmetry_group_IT_number 47
_symmetry_cell_setting 'orthorhombic'
loop_
_space_group_symop_operation_xyz
x,y,z
-x,-y,z
x,-y,-z
-x,y,-z
-x,-y,-z
x,y,-z
-x,y,z
x,-y,z
loop_
_atom_site_type_symbol
_atom_site_label
_atom_site_fract_x
_atom_site_fract_y
_atom_site_fract_z
Si Si1 0.302746 0.593479 0.709152
Si Si2 0.809269 0.098131 0.775902
Si Si3 0.311444 0.836023 0.638958
Si Si4 0.195348 0.596955 0.074587
Si Si5 0.182468 0.000000 0.575231
Si Si6 0.302688 0.659915 0.426879
Si Si7 0.308124 0.725963 0.816856
O O1 0.500000 0.595796 0.710155
O O2 0.251585 0.500000 0.734255
O O3 0.254485 0.602040 0.634168
O O4 0.245975 0.672145 0.753957
O O5 0.771145 0.136667 0.705411
O O6 0.749653 0.175851 0.820871
O O7 0.000000 0.091529 0.783862
O O8 0.742272 0.000000 0.781769
O O9 0.500000 0.820703 0.653651
O O10 0.253118 0.753977 0.598821
O O11 0.282331 0.917634 0.595158
O O12 0.248388 0.500000 0.092468
O O13 0.261963 0.668251 0.122251
O O14 0.000000 0.598499 0.077603
O O15 0.241577 0.611388 0.000000
O O16 0.162976 0.000000 0.500000
O O17 0.000000 0.000000 0.605116
O O18 0.245923 0.641985 0.500000
O O19 0.500000 0.657468 0.429816
O O20 0.500000 0.729112 0.810462
#
# Coordination Sequence:
#
# PCOD9388214 Si02
#       7
#     8   8   8   8   4   8   8
#     4   9  17  29  46  73 108 142 180 228 279 330
#     4  11  23  38  57  80 108 144 188 236 291 353
#     4  11  20  33  52  73  99 132 178 235 292 346
#     4   9  19  37  61  91 128 166 199 230 271 329
#     4  11  23  35  47  69 101 135 174 223 288 363
#     4   9  17  29  45  68  99 135 178 228 282 336
#     4  11  21  35  57  86 119 153 190 236 288 338
#
# _framework density 19.43507
#
# number of rings (size 3 to 8) (size 9 to 14) (size 15 to 20)
#    0.000    1.923    2.308    3.000    0.000    3.692 
#    0.000    2.308    0.000    0.462    0.000    3.231 
#    0.000    1.231    0.000    0.000    0.000    0.000 
#
# Total GULP energy -289926.444891 kJ/mol
# GULP energy per Si atom -5575.508556 kJ/mol
# Density = 1.939083 g / cm^3
# Si number density = 19.435070 Si / 1000 Ang^3
#
#
#
# Elastic Constant Matrix: (Units=GPa)
#
#
# Indices 1 2 3 4 5 6 
#
# 1 20.5933 20.1624 14.6357 0.0000 0.0000 0.0000
# 2 20.1624 138.6633 55.3691 0.0000 0.0000 0.0000
# 3 14.6357 55.3691 89.0193 0.0000 0.0000 0.0000
# 4 0.0000 0.0000 0.0000 26.7001 0.0000 0.0000
# 5 0.0000 0.0000 0.0000 0.0000 21.5120 0.0000
# 6 0.0000 0.0000 0.0000 0.0000 0.0000 20.9082
#
#
#
# Elastic Compliance Matrix: (Units=1/GPa)
#
#
# Indices 1 2 3 4 5 6 
#
# 1 0.058777 -0.006237 -0.005784 0.000000 0.000000 0.000000
# 2 -0.006237 0.010256 -0.005354 0.000000 0.000000 0.000000
# 3 -0.005784 -0.005354 0.015515 0.000000 0.000000 0.000000
# 4 0.000000 0.000000 0.000000 0.037453 0.000000 0.000000
# 5 0.000000 0.000000 0.000000 0.000000 0.046486 0.000000
# 6 0.000000 0.000000 0.000000 0.000000 0.000000 0.047828
#
#
# Mechanical properties :
#
#
# Convention : Reuss Voigt Hill
#
# Bulk Modulus (GPa) = 20.08130 47.62336 33.85233
# Shear Modulus (GPa) = 18.68015 24.36465 21.52240
#
# Velocity S-wave (km/s) = 3.10362 3.54452 3.33137
# Velocity P-wave (km/s) = 4.81645 6.42717 5.67921
#
# Compressibility (1/GPa) = 0.04979758
#
# Stress axis : x y z
#
# Youngs Moduli (GPa) = 17.01359 97.49960 64.45515
#
# Poissons Ratio (x) = 0.60808 0.37283
# Poissons Ratio (y) = 0.10611 0.34509
# Poissons Ratio (z) = 0.09841 0.52202
#
# Static dielectric constant tensor:
#      x y z
#    x 1.726810 0.000000 0.000000 
#    y 0.000000 1.713410 0.000000 
#    z 0.000000 0.000000 1.684580 
# 
# From -- ./inp_files/29588.got.cif
#   From: 2010.05.17/outbox.cif.g08.bks.cpg/sg47_15_cif.got.tgz:29588.got - 2010.06.03 20:15:42.
