data_PCOD9388491
_publ_section_title
;
Structure prediction by ZEFSAII (Michael W. Deem and Ramdas Pophale) SiO2 
 PCOD9388491
Probable space group: P M M M
;
_chemical_formula_sum "Si O2"
_cell_formula_units_Z 40
_cell_length_a 8.908225
_cell_length_b 12.028100
_cell_length_c 20.578975
_cell_angle_alpha 90.000000
_cell_angle_beta 90.000000
_cell_angle_gamma 90.000000
_cell_volume 2205.017027
_symmetry_space_group_name_H-M "P M M M"
_symmetry_group_IT_number 47
_symmetry_cell_setting 'orthorhombic'
loop_
_space_group_symop_operation_xyz
x,y,z
-x,-y,z
x,-y,-z
-x,y,-z
-x,-y,-z
x,y,-z
-x,y,z
x,-y,z
loop_
_atom_site_type_symbol
_atom_site_label
_atom_site_fract_x
_atom_site_fract_y
_atom_site_fract_z
Si Si1 0.820958 0.267894 0.924954
Si Si2 0.678227 0.500000 0.117699
Si Si3 0.679045 0.129765 0.423721
Si Si4 0.678300 0.867971 0.809234
Si Si5 0.178663 0.267137 0.690158
Si Si6 0.322043 0.500000 0.726206
O O1 0.753465 0.389633 0.910851
O O2 0.744906 0.183120 0.875083
O O3 0.000000 0.270465 0.914177
O O4 0.792909 0.238203 0.000000
O O5 0.500000 0.500000 0.104529
O O6 0.699597 0.500000 0.195669
O O7 0.708835 0.149587 0.500000
O O8 0.500000 0.144136 0.413115
O O9 0.768978 0.209314 0.376283
O O10 0.713675 0.000000 0.409942
O O11 0.500000 0.845807 0.806444
O O12 0.756421 0.806712 0.749098
O O13 0.702156 0.000000 0.805864
O O14 0.247977 0.389419 0.697720
O O15 0.000000 0.272220 0.694463
O O16 0.500000 0.500000 0.713867
#
# Coordination Sequence:
#
# PCOD9388491 Si02
#       6
#     8   4   8   8   8   4
#     4  11  24  40  60  87 119 153 191 242 303 360
#     4  11  22  38  63  89 114 151 198 245 292 349
#     4   9  19  38  64  92 124 164 205 242 284 340
#     4  11  24  41  61  85 115 155 202 246 290 349
#     4  12  24  38  61  92 124 156 194 245 301 351
#     4  11  23  40  63  88 117 155 199 245 294 349
#
# _framework density 18.140450000000001
#
# number of rings (size 3 to 8) (size 9 to 14) (size 15 to 20)
#    0.000    1.200    2.000    5.100    0.000    8.800 
#    0.000    3.500    0.000    3.000    0.000    0.000 
#    0.000    0.000    0.000    0.000    0.000    0.000 
#
# Total GULP energy -223736.224041 kJ/mol
# GULP energy per Si atom -5593.405601 kJ/mol
# Density = 1.809916 g / cm^3
# Si number density = 18.140450 Si / 1000 Ang^3
#
#
#
# Elastic Constant Matrix: (Units=GPa)
#
#
# Indices 1 2 3 4 5 6 
#
# 1 129.6970 95.4800 85.7807 0.0000 0.0000 0.0000
# 2 95.4800 123.8035 81.5382 0.0000 0.0000 0.0000
# 3 85.7807 81.5382 103.1401 0.0000 0.0000 0.0000
# 4 0.0000 0.0000 0.0000 27.6360 0.0000 0.0000
# 5 0.0000 0.0000 0.0000 0.0000 43.7848 0.0000
# 6 0.0000 0.0000 0.0000 0.0000 0.0000 103.5167
#
#
#
# Elastic Compliance Matrix: (Units=1/GPa)
#
#
# Indices 1 2 3 4 5 6 
#
# 1 0.021999 -0.010256 -0.010189 0.000000 0.000000 0.000000
# 2 -0.010256 0.021632 -0.008572 0.000000 0.000000 0.000000
# 3 -0.010189 -0.008572 0.024946 0.000000 0.000000 0.000000
# 4 0.000000 0.000000 0.000000 0.036185 0.000000 0.000000
# 5 0.000000 0.000000 0.000000 0.000000 0.022839 0.000000
# 6 0.000000 0.000000 0.000000 0.000000 0.000000 0.009660
#
#
# Mechanical properties :
#
#
# Convention : Reuss Voigt Hill
#
# Bulk Modulus (GPa) = 94.83518 98.02649 96.43084
# Shear Modulus (GPa) = 25.14974 41.24361 33.19668
#
# Velocity S-wave (km/s) = 3.72747 4.77337 4.28247
# Velocity P-wave (km/s) = 8.42123 9.19429 8.81624
#
# Compressibility (1/GPa) = 0.01054461
#
# Stress axis : x y z
#
# Youngs Moduli (GPa) = 45.45641 46.22680 40.08674
#
# Poissons Ratio (x) = 0.47410 0.40843
# Poissons Ratio (y) = 0.46620 0.34362
# Poissons Ratio (z) = 0.46314 0.39625
#
# Static dielectric constant tensor:
#      x y z
#    x 1.602080 0.000000 0.000000 
#    y 0.000000 1.589520 0.000000 
#    z 0.000000 0.000000 1.604530 
# 
# From -- ./inp_files/29338.got.cif
#   From: 2010.05.17/outbox.cif.g08.bks.cpg/sg47_15_cif.got.tgz:29338.got - 2010.06.03 20:15:42.
