data_PCOD9388990
_publ_section_title
;
Structure prediction by ZEFSAII (Michael W. Deem and Ramdas Pophale) SiO2 
 PCOD9388990
Probable space group: P M M M
;
_chemical_formula_sum "Si O2"
_cell_formula_units_Z 44
_cell_length_a 31.240804
_cell_length_b 9.766805
_cell_length_c 7.437189
_cell_angle_alpha 90.000000
_cell_angle_beta 90.000000
_cell_angle_gamma 90.000000
_cell_volume 2269.256235
_symmetry_space_group_name_H-M "P M M M"
_symmetry_group_IT_number 47
_symmetry_cell_setting 'orthorhombic'
loop_
_space_group_symop_operation_xyz
x,y,z
-x,-y,z
x,-y,-z
-x,y,-z
-x,-y,-z
x,y,-z
-x,y,z
x,-y,z
loop_
_atom_site_type_symbol
_atom_site_label
_atom_site_fract_x
_atom_site_fract_y
_atom_site_fract_z
Si Si1 0.205051 0.655637 0.786142
Si Si2 0.618386 0.837672 0.286459
Si Si3 0.548550 0.833865 0.000000
Si Si4 0.048541 0.343350 0.218985
Si Si5 0.301770 0.655964 0.284441
Si Si6 0.127263 0.842808 0.779755
O O1 0.201386 0.500000 0.713890
O O2 0.253709 0.703699 0.757748
O O3 0.168859 0.758158 0.718613
O O4 0.198567 0.646337 0.000000
O O5 0.612100 0.816638 0.500000
O O6 0.659959 0.753520 0.224242
O O7 0.625485 0.000000 0.257796
O O8 0.576762 0.795512 0.173423
O O9 0.500000 0.781737 0.000000
O O10 0.546182 0.000000 0.000000
O O11 0.058318 0.500000 0.273040
O O12 0.084707 0.238064 0.277625
O O13 0.000000 0.310360 0.275568
O O14 0.048629 0.342526 0.000000
O O15 0.304736 0.650923 0.500000
O O16 0.306139 0.500000 0.215967
O O17 0.127826 0.000000 0.721816
O O18 0.127366 0.843455 0.000000
#
# Coordination Sequence:
#
# PCOD9388990 Si02
#       6
#     8   8   4   8   8   8
#     4   9  17  28  42  60  83 114 148 180 220 273
#     4   9  18  32  50  73 100 130 164 204 249 292
#     4   9  18  32  51  77 105 133 169 209 246 289
#     4   8  13  21  33  48  69 103 144 181 220 270
#     4   9  18  32  49  69  93 122 156 194 235 280
#     4   9  16  24  34  52  79 108 140 181 227 271
#
# _framework density 19.389612
#
# number of rings (size 3 to 8) (size 9 to 14) (size 15 to 20)
#    0.000    3.182    0.000    1.091    1.273    3.636 
#    0.000    3.636    0.000    1.091    0.000    2.545 
#    0.000    0.727    0.000    8.364    0.000   10.727 
#
# Total GULP energy -245390.779115 kJ/mol
# GULP energy per Si atom -5577.063162 kJ/mol
# Density = 1.934548 g / cm^3
# Si number density = 19.389612 Si / 1000 Ang^3
#
#
#
# Elastic Constant Matrix: (Units=GPa)
#
#
# Indices 1 2 3 4 5 6 
#
# 1 216.1707 119.6116 30.4816 0.0000 0.0000 0.0000
# 2 119.6116 97.9153 24.6293 0.0000 0.0000 0.0000
# 3 30.4816 24.6293 63.5483 0.0000 0.0000 0.0000
# 4 0.0000 0.0000 0.0000 -1.9613 0.0000 0.0000
# 5 0.0000 0.0000 0.0000 0.0000 168.2493 0.0000
# 6 0.0000 0.0000 0.0000 0.0000 0.0000 33.0314
#
#
#
# Elastic Compliance Matrix: (Units=1/GPa)
#
#
# Indices 1 2 3 4 5 6 
#
# 1 0.014275 -0.017413 -0.000098 0.000000 0.000000 0.000000
# 2 -0.017413 0.032558 -0.004266 0.000000 0.000000 0.000000
# 3 -0.000098 -0.004266 0.017437 0.000000 0.000000 0.000000
# 4 0.000000 0.000000 0.000000 -0.509868 0.000000 0.000000
# 5 0.000000 0.000000 0.000000 0.000000 0.005944 0.000000
# 6 0.000000 0.000000 0.000000 0.000000 0.000000 0.030274
#
#
# Mechanical properties :
#
#
# Convention : Reuss Voigt Hill
#
# Bulk Modulus (GPa) = 48.27589 80.78659 64.53124
# Shear Modulus (GPa) = -13.93062 53.39133 19.73036
#
# Velocity S-wave (km/s) = -2.68331 5.25317 3.19340
# Velocity P-wave (km/s) = 3.91812 8.86283 6.85206
#
# Compressibility (1/GPa) = 0.02071427
#
# Stress axis : x y z
#
# Youngs Moduli (GPa) = 70.05259 30.71462 57.35090
#
# Poissons Ratio (x) = 0.53484 0.00564
# Poissons Ratio (y) = 1.21985 0.24465
# Poissons Ratio (z) = 0.00688 0.13102
#
# Static dielectric constant tensor:
#      x y z
#    x 1.651880 0.000000 0.000000 
#    y 0.000000 1.658130 0.000000 
#    z 0.000000 0.000000 1.800610 
# 
# From -- ./inp_files/2102.got.cif
#   From: 2010.05.17/outbox.cif.g08.bks.cpg/sg47_2_cif.got.tgz:2102.got - 2010.06.03 20:15:42.
