data_PCOD9388755
_publ_section_title
;
Structure prediction by ZEFSAII (Michael W. Deem and Ramdas Pophale) SiO2 
 PCOD9388755
Probable space group: P M M M
;
_chemical_formula_sum "Si O2"
_cell_formula_units_Z 32
_cell_length_a 7.353824
_cell_length_b 18.251782
_cell_length_c 10.763800
_cell_angle_alpha 90.000000
_cell_angle_beta 90.000000
_cell_angle_gamma 90.000000
_cell_volume 1444.721461
_symmetry_space_group_name_H-M "P M M M"
_symmetry_group_IT_number 47
_symmetry_cell_setting 'orthorhombic'
loop_
_space_group_symop_operation_xyz
x,y,z
-x,-y,z
x,-y,-z
-x,y,-z
-x,-y,-z
x,y,-z
-x,y,z
x,-y,z
loop_
_atom_site_type_symbol
_atom_site_label
_atom_site_fract_x
_atom_site_fract_y
_atom_site_fract_z
Si Si1 0.783592 0.414191 0.000000
Si Si2 0.277672 0.266313 0.364630
Si Si3 0.706618 0.000000 0.150319
Si Si4 0.709775 0.582859 0.724644
Si Si5 0.277348 0.161629 0.142660
O O1 0.713978 0.388278 0.132520
O O2 0.733164 0.500000 0.000000
O O3 0.000000 0.407081 0.000000
O O4 0.226848 0.236493 0.500000
O O5 0.500000 0.267893 0.359886
O O6 0.212307 0.350232 0.352546
O O7 0.218736 0.218989 0.246597
O O8 0.785478 0.920418 0.179630
O O9 0.500000 0.000000 0.199599
O O10 0.697520 0.000000 0.000000
O O11 0.500000 0.575469 0.687845
O O12 0.788634 0.500000 0.719450
O O13 0.500000 0.160011 0.141192
O O14 0.222249 0.178200 0.000000
#
# Coordination Sequence:
#
# PCOD9388755 Si02
#       5
#     4   8   4   8   8
#     4   9  17  29  45  65  87 108 137 182 226 257
#     4   9  17  26  36  55  83 111 142 180 216 250
#     4   7  10  18  31  47  67  97 139 176 205 248
#     4   9  17  28  43  62  85 114 146 177 212 255
#     4   8  13  21  34  50  71 103 141 177 212 252
#
# _framework density 22.1496
#
# number of rings (size 3 to 8) (size 9 to 14) (size 15 to 20)
#    0.000    3.500    0.000    1.875    1.750    2.000 
#    0.000    3.125    0.000    4.500    0.000    3.500 
#    0.000    0.000    0.000    2.250    0.000    5.500 
#
# Total GULP energy -178291.717658 kJ/mol
# GULP energy per Si atom -5571.616177 kJ/mol
# Density = 2.209919 g / cm^3
# Si number density = 22.149600 Si / 1000 Ang^3
#
#
#
# Elastic Constant Matrix: (Units=GPa)
#
#
# Indices 1 2 3 4 5 6 
#
# 1 74.9840 2.2617 5.2436 0.0000 0.0000 0.0000
# 2 2.2617 149.9690 95.3396 0.0000 0.0000 0.0000
# 3 5.2436 95.3396 133.0323 0.0000 0.0000 0.0000
# 4 0.0000 0.0000 0.0000 -19.8840 0.0000 0.0000
# 5 0.0000 0.0000 0.0000 0.0000 -69.5664 0.0000
# 6 0.0000 0.0000 0.0000 0.0000 0.0000 -18.2717
#
#
#
# Elastic Compliance Matrix: (Units=1/GPa)
#
#
# Indices 1 2 3 4 5 6 
#
# 1 0.013378 0.000245 -0.000703 0.000000 0.000000 0.000000
# 2 0.000245 0.012253 -0.008791 0.000000 0.000000 0.000000
# 3 -0.000703 -0.008791 0.013845 0.000000 0.000000 0.000000
# 4 0.000000 0.000000 0.000000 -0.050292 0.000000 0.000000
# 5 0.000000 0.000000 0.000000 0.000000 -0.014375 0.000000
# 6 0.000000 0.000000 0.000000 0.000000 0.000000 -0.054729
#
#
# Mechanical properties :
#
#
# Convention : Reuss Voigt Hill
#
# Bulk Modulus (GPa) = 47.66854 62.63059 55.14957
# Shear Modulus (GPa) = -91.86184 -4.53507 -48.19846
#
# Velocity S-wave (km/s) = -6.44697 -1.43245 -4.66987
# Velocity P-wave (km/s) = 5.81807 5.05981 2.03080
#
# Compressibility (1/GPa) = 0.02097819
#
# Stress axis : x y z
#
# Youngs Moduli (GPa) = 74.74991 81.61249 72.22892
#
# Poissons Ratio (x) = -0.02001 0.05078
# Poissons Ratio (y) = -0.01833 0.63496
# Poissons Ratio (z) = 0.05255 0.71745
#
# Static dielectric constant tensor:
#      x y z
#    x 1.815410 0.000000 0.000000 
#    y 0.000000 1.838780 0.000000 
#    z 0.000000 0.000000 1.802110 
# 
# From -- ./inp_files/14822.got.cif
#   From: 2010.05.17/outbox.cif.g08.bks.cpg/sg47_8_cif.got.tgz:14822.got - 2010.06.03 20:15:42.
