data_PCOD9388017
_publ_section_title
;
Structure prediction by ZEFSAII (Michael W. Deem and Ramdas Pophale) SiO2 
 PCOD9388017
Probable space group: P M M M
;
_chemical_formula_sum "Si O2"
_cell_formula_units_Z 48
_cell_length_a 15.242742
_cell_length_b 7.888856
_cell_length_c 20.115260
_cell_angle_alpha 90.000000
_cell_angle_beta 90.000000
_cell_angle_gamma 90.000000
_cell_volume 2418.815695
_symmetry_space_group_name_H-M "P M M M"
_symmetry_group_IT_number 47
_symmetry_cell_setting 'orthorhombic'
loop_
_space_group_symop_operation_xyz
x,y,z
-x,-y,z
x,-y,-z
-x,y,-z
-x,-y,-z
x,y,-z
-x,y,z
x,-y,z
loop_
_atom_site_type_symbol
_atom_site_label
_atom_site_fract_x
_atom_site_fract_y
_atom_site_fract_z
Si Si1 0.601629 0.294656 0.847721
Si Si2 0.100315 0.000000 0.722074
Si Si3 0.773665 0.799498 0.924209
Si Si4 0.142663 0.000000 0.571969
Si Si5 0.105791 0.313168 0.194032
Si Si6 0.599920 0.705905 0.697860
Si Si7 0.281177 0.699549 0.573884
O O1 0.500000 0.244007 0.860379
O O2 0.603615 0.500000 0.849725
O O3 0.674899 0.229036 0.897762
O O4 0.626120 0.240289 0.772281
O O5 0.138030 0.169648 0.754792
O O6 0.097966 0.000000 0.643193
O O7 0.000000 0.000000 0.745034
O O8 0.841649 0.712141 0.874128
O O9 0.792291 0.000000 0.922407
O O10 0.781743 0.739387 0.000000
O O11 0.201183 0.829738 0.572921
O O12 0.096600 0.000000 0.500000
O O13 0.124985 0.500000 0.221263
O O14 0.000000 0.303300 0.183596
O O15 0.500000 0.762308 0.687571
O O16 0.599563 0.500000 0.698959
O O17 0.658866 0.754003 0.635584
O O18 0.323661 0.712413 0.500000
O O19 0.257168 0.500000 0.582223
#
# Coordination Sequence:
#
# PCOD9388017 Si02
#       7
#     8   4   8   4   8   8   8
#     4   9  19  36  56  79 110 150 200 254 299 346
#     4  10  22  41  63  89 119 149 191 240 286 343
#     4  11  24  39  58  86 119 158 201 244 297 360
#     4  10  22  37  55  83 117 152 190 231 281 342
#     4  10  22  41  65  93 123 155 194 243 300 359
#     4   8  15  29  49  73 101 138 185 234 287 340
#     4   9  18  32  51  77 109 146 187 232 283 338
#
# _framework density 19.844422999999999
#
# number of rings (size 3 to 8) (size 9 to 14) (size 15 to 20)
#    0.000    2.500    0.833    1.500    2.333    3.500 
#    0.000    5.417    0.000    1.500    0.000    4.667 
#    0.000    0.000    0.000    0.000    0.000    0.000 
#
# Total GULP energy -267602.118041 kJ/mol
# GULP energy per Si atom -5575.044126 kJ/mol
# Density = 1.979926 g / cm^3
# Si number density = 19.844423 Si / 1000 Ang^3
#
#
#
# Elastic Constant Matrix: (Units=GPa)
#
#
# Indices 1 2 3 4 5 6 
#
# 1 37.5928 28.7934 28.2136 0.0000 0.0000 0.0000
# 2 28.7934 82.7740 49.7520 0.0000 0.0000 0.0000
# 3 28.2136 49.7520 122.3385 0.0000 0.0000 0.0000
# 4 0.0000 0.0000 0.0000 17.1671 0.0000 0.0000
# 5 0.0000 0.0000 0.0000 0.0000 98.7565 0.0000
# 6 0.0000 0.0000 0.0000 0.0000 0.0000 10.7436
#
#
#
# Elastic Compliance Matrix: (Units=1/GPa)
#
#
# Indices 1 2 3 4 5 6 
#
# 1 0.038038 -0.010534 -0.004488 0.000000 0.000000 0.000000
# 2 -0.010534 0.018907 -0.005260 0.000000 0.000000 0.000000
# 3 -0.004488 -0.005260 0.011348 0.000000 0.000000 0.000000
# 4 0.000000 0.000000 0.000000 0.058251 0.000000 0.000000
# 5 0.000000 0.000000 0.000000 0.000000 0.010126 0.000000
# 6 0.000000 0.000000 0.000000 0.000000 0.000000 0.093079
#
#
# Mechanical properties :
#
#
# Convention : Reuss Voigt Hill
#
# Bulk Modulus (GPa) = 36.06359 50.69149 43.37754
# Shear Modulus (GPa) = 17.88560 34.39651 26.14105
#
# Velocity S-wave (km/s) = 3.00541 4.16782 3.63340
# Velocity P-wave (km/s) = 5.50054 6.98290 6.28557
#
# Compressibility (1/GPa) = 0.02772880
#
# Stress axis : x y z
#
# Youngs Moduli (GPa) = 26.28979 52.89143 88.12075
#
# Poissons Ratio (x) = 0.55715 0.39552
# Poissons Ratio (y) = 0.27693 0.46348
# Poissons Ratio (z) = 0.11800 0.27819
#
# Static dielectric constant tensor:
#      x y z
#    x 1.687050 0.000000 0.000000 
#    y 0.000000 1.723710 0.000000 
#    z 0.000000 0.000000 1.697490 
# 
# From -- ./inp_files/28055.got.cif
#   From: 2010.05.17/outbox.cif.g08.bks.cpg/sg47_15_cif.got.tgz:28055.got - 2010.06.03 20:15:42.
