data_PCOD9388687
_publ_section_title
;
Structure prediction by ZEFSAII (Michael W. Deem and Ramdas Pophale) SiO2 
 PCOD9388687
Probable space group: P M M M
;
_chemical_formula_sum "Si O2"
_cell_formula_units_Z 28
_cell_length_a 9.825852
_cell_length_b 7.274519
_cell_length_c 20.319703
_cell_angle_alpha 90.000000
_cell_angle_beta 90.000000
_cell_angle_gamma 90.000000
_cell_volume 1452.418783
_symmetry_space_group_name_H-M "P M M M"
_symmetry_group_IT_number 47
_symmetry_cell_setting 'orthorhombic'
loop_
_space_group_symop_operation_xyz
x,y,z
-x,-y,z
x,-y,-z
-x,y,-z
-x,-y,-z
x,y,-z
-x,y,z
x,-y,z
loop_
_atom_site_type_symbol
_atom_site_label
_atom_site_fract_x
_atom_site_fract_y
_atom_site_fract_z
Si Si1 0.655209 0.223467 0.807868
Si Si2 0.157357 0.776291 0.073057
Si Si3 0.160250 0.500000 0.421254
Si Si4 0.660418 0.220073 0.342440
O O1 0.500000 0.280529 0.819993
O O2 0.753066 0.286829 0.865862
O O3 0.692319 0.274654 0.733231
O O4 0.656451 0.000000 0.808409
O O5 0.000000 0.722077 0.080217
O O6 0.160016 0.000000 0.073705
O O7 0.204951 0.720213 0.000000
O O8 0.170694 0.500000 0.500000
O O9 0.239986 0.673500 0.390779
O O10 0.000000 0.500000 0.403735
O O11 0.500000 0.262900 0.353908
O O12 0.674933 0.000000 0.348200
#
# Coordination Sequence:
#
# PCOD9388687 Si02
#       4
#     8   8   4   8
#     4   8  14  25  42  66  95 127 168 217 263 307
#     4   8  13  20  31  53  89 131 172 212 254 303
#     4  11  25  41  57  83 116 145 176 217 267 326
#     4   9  19  37  60  84 110 143 184 227 270 320
#
# _framework density 19.278186999999999
#
# number of rings (size 3 to 8) (size 9 to 14) (size 15 to 20)
#    0.000    3.286    0.000    3.000    0.000    4.000 
#    0.000    8.571    0.000    0.000    0.000    1.000 
#    0.000    8.000    0.000    0.857    0.000    0.000 
#
# Total GULP energy -156204.085665 kJ/mol
# GULP energy per Si atom -5578.717345 kJ/mol
# Density = 1.923431 g / cm^3
# Si number density = 19.278187 Si / 1000 Ang^3
#
#
#
# Elastic Constant Matrix: (Units=GPa)
#
#
# Indices 1 2 3 4 5 6 
#
# 1 117.6857 39.6367 114.4427 0.0000 0.0000 0.0000
# 2 39.6367 94.6579 39.2311 0.0000 0.0000 0.0000
# 3 114.4427 39.2311 153.7325 0.0000 0.0000 0.0000
# 4 0.0000 0.0000 0.0000 61.1872 0.0000 0.0000
# 5 0.0000 0.0000 0.0000 0.0000 43.7264 0.0000
# 6 0.0000 0.0000 0.0000 0.0000 0.0000 6.0110
#
#
#
# Elastic Compliance Matrix: (Units=1/GPa)
#
#
# Indices 1 2 3 4 5 6 
#
# 1 0.032045 -0.003949 -0.022848 0.000000 0.000000 0.000000
# 2 -0.003949 0.012301 -0.000199 0.000000 0.000000 0.000000
# 3 -0.022848 -0.000199 0.023564 0.000000 0.000000 0.000000
# 4 0.000000 0.000000 0.000000 0.016343 0.000000 0.000000
# 5 0.000000 0.000000 0.000000 0.000000 0.022869 0.000000
# 6 0.000000 0.000000 0.000000 0.000000 0.000000 0.166361
#
#
# Mechanical properties :
#
#
# Convention : Reuss Voigt Hill
#
# Bulk Modulus (GPa) = 71.84933 83.63301 77.74117
# Shear Modulus (GPa) = 15.05503 33.70264 24.37884
#
# Velocity S-wave (km/s) = 2.79756 4.18572 3.55995
# Velocity P-wave (km/s) = 6.91272 8.17537 7.57042
#
# Compressibility (1/GPa) = 0.01391801
#
# Stress axis : x y z
#
# Youngs Moduli (GPa) = 31.20576 81.29710 42.43765
#
# Poissons Ratio (x) = 0.32107 0.96960
# Poissons Ratio (y) = 0.12324 0.00845
# Poissons Ratio (z) = 0.71298 0.01618
#
# Static dielectric constant tensor:
#      x y z
#    x 1.631000 0.000000 0.000000 
#    y 0.000000 1.771740 0.000000 
#    z 0.000000 0.000000 1.649380 
# 
# From -- ./inp_files/819.got.cif
#   From: 2010.05.17/outbox.cif.g08.bks.cpg/sg47_1_cif.got.tgz:819.got - 2010.06.03 20:15:42.
