data_PCOD9388293
_publ_section_title
;
Structure prediction by ZEFSAII (Michael W. Deem and Ramdas Pophale) SiO2 
 PCOD9388293
Probable space group: P M M M
;
_chemical_formula_sum "Si O2"
_cell_formula_units_Z 36
_cell_length_a 8.062476
_cell_length_b 22.934912
_cell_length_c 12.118731
_cell_angle_alpha 90.000000
_cell_angle_beta 90.000000
_cell_angle_gamma 90.000000
_cell_volume 2240.900938
_symmetry_space_group_name_H-M "P M M M"
_symmetry_group_IT_number 47
_symmetry_cell_setting 'orthorhombic'
loop_
_space_group_symop_operation_xyz
x,y,z
-x,-y,z
x,-y,-z
-x,y,-z
-x,-y,-z
x,y,-z
-x,y,z
x,-y,z
loop_
_atom_site_type_symbol
_atom_site_label
_atom_site_fract_x
_atom_site_fract_y
_atom_site_fract_z
Si Si1 0.802563 0.611626 0.235516
Si Si2 0.691005 0.853993 0.366021
Si Si3 0.000000 0.932591 0.365391
Si Si4 0.302683 0.566826 0.000000
Si Si5 0.203153 0.500000 0.626769
Si Si6 0.300839 0.722053 0.374752
O O1 0.738826 0.557577 0.309419
O O2 0.749787 0.672035 0.290658
O O3 0.000000 0.609270 0.238813
O O4 0.749385 0.600152 0.110461
O O5 0.685282 0.856056 0.500000
O O6 0.500000 0.864484 0.328503
O O7 0.745189 0.787699 0.339466
O O8 0.832376 0.899101 0.329645
O O9 0.000000 0.931344 0.500000
O O10 0.000000 0.000000 0.331411
O O11 0.234620 0.500000 0.000000
O O12 0.500000 0.562727 0.000000
O O13 0.256028 0.500000 0.500000
O O14 0.000000 0.500000 0.627659
O O15 0.236954 0.710842 0.500000
O O16 0.500000 0.722539 0.381268
#
# Coordination Sequence:
#
# PCOD9388293 Si02
#       6
#     8   8   4   4   4   8
#     4  11  21  33  52  72  92 120 157 201 245 291
#     4   8  15  27  41  59  89 127 162 200 242 283
#     4   9  16  24  38  62  90 124 167 204 232 276
#     4  11  23  39  55  67  89 123 159 196 245 306
#     4   9  18  31  45  68  98 119 144 189 244 291
#     4   9  18  32  48  69  97 127 161 199 243 294
#
# _framework density 16.064966999999999
#
# number of rings (size 3 to 8) (size 9 to 14) (size 15 to 20)
#    0.000    2.556    1.111    3.000    1.556    2.222 
#    0.000    2.222    0.000    2.667    0.000    0.000 
#    0.000    0.000    0.000    2.000    0.000   12.889 
#
# Total GULP energy -200636.918388 kJ/mol
# GULP energy per Si atom -5573.247733 kJ/mol
# Density = 1.602840 g / cm^3
# Si number density = 16.064967 Si / 1000 Ang^3
#
#
#
# Elastic Constant Matrix: (Units=GPa)
#
#
# Indices 1 2 3 4 5 6 
#
# 1 55.4446 64.9144 21.1264 0.0000 0.0000 0.0000
# 2 64.9144 158.0772 63.3302 0.0000 0.0000 0.0000
# 3 21.1264 63.3302 84.9251 0.0000 0.0000 0.0000
# 4 0.0000 0.0000 0.0000 1.1214 0.0000 0.0000
# 5 0.0000 0.0000 0.0000 0.0000 10.4729 0.0000
# 6 0.0000 0.0000 0.0000 0.0000 0.0000 20.0666
#
#
#
# Elastic Compliance Matrix: (Units=1/GPa)
#
#
# Indices 1 2 3 4 5 6 
#
# 1 0.035227 -0.015622 0.002887 0.000000 0.000000 0.000000
# 2 -0.015622 0.015949 -0.008007 0.000000 0.000000 0.000000
# 3 0.002887 -0.008007 0.017028 0.000000 0.000000 0.000000
# 4 0.000000 0.000000 0.000000 0.891727 0.000000 0.000000
# 5 0.000000 0.000000 0.000000 0.000000 0.095484 0.000000
# 6 0.000000 0.000000 0.000000 0.000000 0.000000 0.049834
#
#
# Mechanical properties :
#
#
# Convention : Reuss Voigt Hill
#
# Bulk Modulus (GPa) = 37.42776 66.35432 51.89104
# Shear Modulus (GPa) = 4.32660 16.27059 10.29859
#
# Velocity S-wave (km/s) = 1.64287 3.18590 2.53466
# Velocity P-wave (km/s) = 5.19105 7.41126 6.39819
#
# Compressibility (1/GPa) = 0.02671813
#
# Stress axis : x y z
#
# Youngs Moduli (GPa) = 28.38755 62.69854 58.72595
#
# Poissons Ratio (x) = 0.97950 -0.16952
# Poissons Ratio (y) = 0.44348 0.47024
# Poissons Ratio (z) = -0.08195 0.50205
#
# Static dielectric constant tensor:
#      x y z
#    x 1.563800 0.000000 0.000000 
#    y 0.000000 1.553330 0.000000 
#    z 0.000000 0.000000 1.489560 
# 
# From -- ./inp_files/10605.got.cif
#   From: 2010.05.17/outbox.cif.g08.bks.cpg/sg47_6_cif.got.tgz:10605.got - 2010.06.03 20:15:42.
