data_PCOD9388642
_publ_section_title
;
Structure prediction by ZEFSAII (Michael W. Deem and Ramdas Pophale) SiO2 
 PCOD9388642
Probable space group: P M M M
;
_chemical_formula_sum "Si O2"
_cell_formula_units_Z 40
_cell_length_a 29.763007
_cell_length_b 9.587962
_cell_length_c 7.615503
_cell_angle_alpha 90.000000
_cell_angle_beta 90.000000
_cell_angle_gamma 90.000000
_cell_volume 2173.210047
_symmetry_space_group_name_H-M "P M M M"
_symmetry_group_IT_number 47
_symmetry_cell_setting 'orthorhombic'
loop_
_space_group_symop_operation_xyz
x,y,z
-x,-y,z
x,-y,-z
-x,y,-z
-x,-y,-z
x,y,-z
-x,y,z
x,-y,z
loop_
_atom_site_type_symbol
_atom_site_label
_atom_site_fract_x
_atom_site_fract_y
_atom_site_fract_z
Si Si1 0.865190 0.344383 0.790573
Si Si2 0.396537 0.836286 0.500000
Si Si3 0.289096 0.165238 0.500000
Si Si4 0.553201 0.663621 0.793085
Si Si5 0.049113 0.840810 0.289024
Si Si6 0.235655 0.667908 0.790544
O O1 0.873371 0.500000 0.719579
O O2 0.907549 0.248065 0.756146
O O3 0.815669 0.296538 0.733083
O O4 0.860867 0.355065 0.000000
O O5 0.342855 0.821746 0.500000
O O6 0.417754 0.760864 0.331051
O O7 0.407715 0.000000 0.500000
O O8 0.268742 0.243492 0.330089
O O9 0.277802 0.000000 0.500000
O O10 0.500000 0.685847 0.760734
O O11 0.562449 0.500000 0.757016
O O12 0.561404 0.687887 0.000000
O O13 0.047404 0.845112 0.500000
O O14 0.000000 0.787324 0.228077
O O15 0.053847 0.000000 0.225802
O O16 0.240991 0.500000 0.765718
O O17 0.241050 0.694878 0.000000
#
# Coordination Sequence:
#
# PCOD9388642 Si02
#       6
#     8   4   4   8   8   8
#     4   9  19  35  54  77 102 128 164 214 268 318
#     4  11  24  38  53  82 122 157 191 234 285 340
#     4  11  25  40  56  83 117 153 190 232 287 341
#     4   9  19  37  61  88 117 152 196 242 284 328
#     4   9  19  34  49  70 103 138 170 205 248 306
#     4   9  20  40  62  83 109 142 185 236 285 338
#
# _framework density 18.405951000000002
#
# number of rings (size 3 to 8) (size 9 to 14) (size 15 to 20)
#    0.000    2.600    0.000    3.300    1.400    7.200 
#    0.000   10.000    0.000    0.000    0.000    0.000 
#    0.000    0.000    0.000    0.000    0.000    0.000 
#
# Total GULP energy -223098.812879 kJ/mol
# GULP energy per Si atom -5577.470322 kJ/mol
# Density = 1.836406 g / cm^3
# Si number density = 18.405951 Si / 1000 Ang^3
#
#
#
# Elastic Constant Matrix: (Units=GPa)
#
#
# Indices 1 2 3 4 5 6 
#
# 1 125.7038 98.2015 66.6134 0.0000 0.0000 0.0000
# 2 98.2015 104.1527 63.0726 0.0000 0.0000 0.0000
# 3 66.6134 63.0726 84.6497 0.0000 0.0000 0.0000
# 4 0.0000 0.0000 0.0000 9.4939 0.0000 0.0000
# 5 0.0000 0.0000 0.0000 0.0000 96.1409 0.0000
# 6 0.0000 0.0000 0.0000 0.0000 0.0000 37.0151
#
#
#
# Elastic Compliance Matrix: (Units=1/GPa)
#
#
# Indices 1 2 3 4 5 6 
#
# 1 0.031236 -0.026542 -0.004804 0.000000 0.000000 0.000000
# 2 -0.026542 0.040049 -0.008954 0.000000 0.000000 0.000000
# 3 -0.004804 -0.008954 0.022265 0.000000 0.000000 0.000000
# 4 0.000000 0.000000 0.000000 0.105330 0.000000 0.000000
# 5 0.000000 0.000000 0.000000 0.000000 0.010401 0.000000
# 6 0.000000 0.000000 0.000000 0.000000 0.000000 0.027016
#
#
# Mechanical properties :
#
#
# Convention : Reuss Voigt Hill
#
# Bulk Modulus (GPa) = 77.21690 85.58677 81.40184
# Shear Modulus (GPa) = 15.56595 34.30457 24.93526
#
# Velocity S-wave (km/s) = 2.91125 4.32183 3.68467
# Velocity P-wave (km/s) = 7.30368 8.45605 7.90090
#
# Compressibility (1/GPa) = 0.01295053
#
# Stress axis : x y z
#
# Youngs Moduli (GPa) = 32.01458 24.96959 44.91273
#
# Poissons Ratio (x) = 0.66274 0.21576
# Poissons Ratio (y) = 0.84972 0.40214
# Poissons Ratio (z) = 0.15380 0.22357
#
# Static dielectric constant tensor:
#      x y z
#    x 1.634550 0.000000 0.000000 
#    y 0.000000 1.622640 0.000000 
#    z 0.000000 0.000000 1.652160 
# 
# From -- ./inp_files/13007.got.cif
#   From: 2010.05.17/outbox.cif.g08.bks.cpg/sg47_7_cif.got.tgz:13007.got - 2010.06.03 20:15:42.
