data_PCOD9388602
_publ_section_title
;
Structure prediction by ZEFSAII (Michael W. Deem and Ramdas Pophale) SiO2 
 PCOD9388602
Probable space group: P M M M
;
_chemical_formula_sum "Si O2"
_cell_formula_units_Z 40
_cell_length_a 7.834650
_cell_length_b 26.701326
_cell_length_c 9.736092
_cell_angle_alpha 90.000000
_cell_angle_beta 90.000000
_cell_angle_gamma 90.000000
_cell_volume 2036.747060
_symmetry_space_group_name_H-M "P M M M"
_symmetry_group_IT_number 47
_symmetry_cell_setting 'orthorhombic'
loop_
_space_group_symop_operation_xyz
x,y,z
-x,-y,z
x,-y,-z
-x,y,-z
-x,-y,-z
x,y,-z
-x,y,z
x,-y,z
loop_
_atom_site_type_symbol
_atom_site_label
_atom_site_fract_x
_atom_site_fract_y
_atom_site_fract_z
Si Si1 0.208250 0.407479 0.342369
Si Si2 0.790736 0.500000 0.157709
Si Si3 0.205189 0.108499 0.343809
Si Si4 0.794248 0.294357 0.656022
Si Si5 0.702573 0.201608 0.845393
Si Si6 0.196760 0.000000 0.667209
O O1 0.258257 0.418276 0.500000
O O2 0.265617 0.450459 0.239180
O O3 0.263378 0.350800 0.308361
O O4 0.000000 0.407635 0.340107
O O5 0.000000 0.500000 0.158838
O O6 0.736225 0.500000 0.000000
O O7 0.266554 0.118718 0.500000
O O8 0.240646 0.153840 0.242754
O O9 0.273251 0.054025 0.295581
O O10 0.000000 0.103290 0.352524
O O11 0.735319 0.282788 0.500000
O O12 0.744440 0.252058 0.762858
O O13 0.000000 0.295439 0.651727
O O14 0.500000 0.198608 0.855251
O O15 0.774973 0.201858 0.000000
O O16 0.193307 0.000000 0.500000
O O17 0.000000 0.000000 0.716526
#
# Coordination Sequence:
#
# PCOD9388602 Si02
#       6
#     8   4   8   8   8   4
#     4   8  14  25  41  62  90 121 151 188 236 285
#     4   9  15  21  33  59  94 127 156 185 222 274
#     4   9  17  32  56  81 101 124 158 199 241 286
#     4   9  18  33  53  75  95 120 161 208 249 290
#     4  11  24  37  47  66  99 135 167 199 240 290
#     4   7  12  26  50  79 104 122 148 193 242 283
#
# _framework density 19.63916
#
# number of rings (size 3 to 8) (size 9 to 14) (size 15 to 20)
#    0.000    3.000    0.000    3.900    0.000    6.800 
#    0.000    3.000    0.000    4.800    0.000    0.700 
#    0.000    5.600    0.000    0.000    0.000    0.000 
#
# Total GULP energy -222999.126812 kJ/mol
# GULP energy per Si atom -5574.978170 kJ/mol
# Density = 1.959446 g / cm^3
# Si number density = 19.639160 Si / 1000 Ang^3
#
#
#
# Elastic Constant Matrix: (Units=GPa)
#
#
# Indices 1 2 3 4 5 6 
#
# 1 23.6415 9.1592 8.4726 0.0000 0.0000 0.0000
# 2 9.1592 208.6071 142.7858 0.0000 0.0000 0.0000
# 3 8.4726 142.7858 153.0474 0.0000 0.0000 0.0000
# 4 0.0000 0.0000 0.0000 -6.6782 0.0000 0.0000
# 5 0.0000 0.0000 0.0000 0.0000 18.0417 0.0000
# 6 0.0000 0.0000 0.0000 0.0000 0.0000 -57.7741
#
#
#
# Elastic Compliance Matrix: (Units=1/GPa)
#
#
# Indices 1 2 3 4 5 6 
#
# 1 0.043194 -0.000719 -0.001721 0.000000 0.000000 0.000000
# 2 -0.000719 0.013275 -0.012346 0.000000 0.000000 0.000000
# 3 -0.001721 -0.012346 0.018147 0.000000 0.000000 0.000000
# 4 0.000000 0.000000 0.000000 -0.149742 0.000000 0.000000
# 5 0.000000 0.000000 0.000000 0.000000 0.055427 0.000000
# 6 0.000000 0.000000 0.000000 0.000000 0.000000 -0.017309
#
#
# Mechanical properties :
#
#
# Convention : Reuss Voigt Hill
#
# Bulk Modulus (GPa) = 22.19943 78.45903 50.32923
# Shear Modulus (GPa) = 659.80905 5.70978 332.75942
#
# Velocity S-wave (km/s) = 18.34926 1.70694 13.03091
# Velocity P-wave (km/s) = 21.45356 6.62736 15.87730
#
# Compressibility (1/GPa) = 0.04504620
#
# Stress axis : x y z
#
# Youngs Moduli (GPa) = 23.15156 75.32696 55.10554
#
# Poissons Ratio (x) = 0.05414 0.09482
# Poissons Ratio (y) = 0.01664 0.68031
# Poissons Ratio (z) = 0.03984 0.92995
#
# Static dielectric constant tensor:
#      x y z
#    x 1.713940 0.000000 0.000000 
#    y 0.000000 1.704530 0.000000 
#    z 0.000000 0.000000 1.649750 
# 
# From -- ./inp_files/1757.got.cif
#   From: 2010.05.17/outbox.cif.g08.bks.cpg/sg47_1_cif.got.tgz:1757.got - 2010.06.03 20:15:42.
