data_PCOD9388019
_publ_section_title
;
Structure prediction by ZEFSAII (Michael W. Deem and Ramdas Pophale) SiO2 
 PCOD9388019
Probable space group: P M M M
;
_chemical_formula_sum "Si O2"
_cell_formula_units_Z 33
_cell_length_a 9.904486
_cell_length_b 7.655711
_cell_length_c 20.888119
_cell_angle_alpha 90.000000
_cell_angle_beta 90.000000
_cell_angle_gamma 90.000000
_cell_volume 1583.860055
_symmetry_space_group_name_H-M "P M M M"
_symmetry_group_IT_number 47
_symmetry_cell_setting 'orthorhombic'
loop_
_space_group_symop_operation_xyz
x,y,z
-x,-y,z
x,-y,-z
-x,y,-z
-x,-y,-z
x,y,-z
-x,y,z
x,-y,z
loop_
_atom_site_type_symbol
_atom_site_label
_atom_site_fract_x
_atom_site_fract_y
_atom_site_fract_z
Si Si1 0.345671 0.208201 0.500000
Si Si2 0.151929 0.293275 0.249584
Si Si3 0.647887 0.208657 0.860975
Si Si4 0.760905 0.209343 0.000000
Si Si5 0.654242 0.292118 0.360130
Si Si6 0.000000 0.500000 0.000000
O O1 0.500000 0.278580 0.500000
O O2 0.288355 0.264217 0.568357
O O3 0.349915 0.000000 0.500000
O O4 0.139698 0.500000 0.262017
O O5 0.231419 0.274920 0.183158
O O6 0.247468 0.219446 0.305670
O O7 0.000000 0.220692 0.247284
O O8 0.500000 0.277971 0.841759
O O9 0.676615 0.241581 0.935371
O O10 0.645537 0.000000 0.852604
O O11 0.883307 0.344718 0.000000
O O12 0.798527 0.000000 0.000000
O O13 0.500000 0.220999 0.357009
O O14 0.643682 0.500000 0.350452
#
# Coordination Sequence:
#
# PCOD9388019 Si02
#       6
#     4   8   8   4   8   1
#     4   9  17  29  50  79 106 134 178 235 284 335
#     4  10  22  37  56  83 117 150 191 240 290 351
#     4  10  22  41  63  86 117 157 197 246 302 352
#     4  10  24  43  65  93 128 163 206 254 302 362
#     4   9  17  32  53  77 106 144 185 230 285 344
#     4  12  26  40  66  98 128 168 204 242 312 370
#
# _framework density 20.835173999999999
#
# number of rings (size 3 to 8) (size 9 to 14) (size 15 to 20)
#    0.000    2.303    0.000    1.636    3.394    5.818 
#    0.000    3.636    0.000    3.636    0.000    0.000 
#    0.000    0.000    0.000    0.000    0.000    0.000 
#
# Total GULP energy -183849.552364 kJ/mol
# GULP energy per Si atom -5571.198556 kJ/mol
# Density = 2.078775 g / cm^3
# Si number density = 20.835174 Si / 1000 Ang^3
#
#
#
# Elastic Constant Matrix: (Units=GPa)
#
#
# Indices 1 2 3 4 5 6 
#
# 1 147.1306 22.5021 70.2337 0.0000 0.0000 0.0000
# 2 22.5021 49.6707 -2.5169 0.0000 0.0000 0.0000
# 3 70.2337 -2.5169 148.3100 0.0000 0.0000 0.0000
# 4 0.0000 0.0000 0.0000 25.6921 0.0000 0.0000
# 5 0.0000 0.0000 0.0000 0.0000 67.8026 0.0000
# 6 0.0000 0.0000 0.0000 0.0000 0.0000 16.0907
#
#
#
# Elastic Compliance Matrix: (Units=1/GPa)
#
#
# Indices 1 2 3 4 5 6 
#
# 1 0.009751 -0.004655 -0.004696 0.000000 0.000000 0.000000
# 2 -0.004655 0.022372 0.002584 0.000000 0.000000 0.000000
# 3 -0.004696 0.002584 0.009011 0.000000 0.000000 0.000000
# 4 0.000000 0.000000 0.000000 0.038922 0.000000 0.000000
# 5 0.000000 0.000000 0.000000 0.000000 0.014749 0.000000
# 6 0.000000 0.000000 0.000000 0.000000 0.000000 0.062148
#
#
# Mechanical properties :
#
#
# Convention : Reuss Voigt Hill
#
# Bulk Modulus (GPa) = 36.23374 58.39434 47.31404
# Shear Modulus (GPa) = 27.82615 38.90991 33.36803
#
# Velocity S-wave (km/s) = 3.65847 4.32616 4.00625
# Velocity P-wave (km/s) = 5.93921 7.28298 6.64515
#
# Compressibility (1/GPa) = 0.02759858
#
# Stress axis : x y z
#
# Youngs Moduli (GPa) = 102.55846 44.69780 110.98108
#
# Poissons Ratio (x) = 0.20808 0.52122
# Poissons Ratio (y) = 0.47743 -0.28680
# Poissons Ratio (z) = 0.48166 -0.11551
#
# Static dielectric constant tensor:
#      x y z
#    x 1.759900 0.000000 0.000000 
#    y 0.000000 1.768790 0.000000 
#    z 0.000000 0.000000 1.746590 
# 
# From -- ./inp_files/1123.got.cif
#   From: 2010.05.17/outbox.cif.g08.bks.cpg/sg47_1_cif.got.tgz:1123.got - 2010.06.03 20:15:42.
