data_PCOD9388435
_publ_section_title
;
Structure prediction by ZEFSAII (Michael W. Deem and Ramdas Pophale) SiO2 
 PCOD9388435
Probable space group: P M M M
;
_chemical_formula_sum "Si O2"
_cell_formula_units_Z 52
_cell_length_a 10.959038
_cell_length_b 29.093705
_cell_length_c 10.328948
_cell_angle_alpha 90.000000
_cell_angle_beta 90.000000
_cell_angle_gamma 90.000000
_cell_volume 3293.271644
_symmetry_space_group_name_H-M "P M M M"
_symmetry_group_IT_number 47
_symmetry_cell_setting 'orthorhombic'
loop_
_space_group_symop_operation_xyz
x,y,z
-x,-y,z
x,-y,-z
-x,y,-z
-x,-y,-z
x,y,-z
-x,y,z
x,-y,z
loop_
_atom_site_type_symbol
_atom_site_label
_atom_site_fract_x
_atom_site_fract_y
_atom_site_fract_z
Si Si1 0.000000 0.554804 0.347076
Si Si2 0.354196 0.552923 0.000000
Si Si3 0.754247 0.400895 0.747052
Si Si4 0.356836 0.447607 0.500000
Si Si5 0.860813 0.203933 0.843237
Si Si6 0.352417 0.052251 0.646870
Si Si7 0.644840 0.133264 0.844761
Si Si8 0.855404 0.690031 0.154183
O O1 0.884020 0.575507 0.276531
O O2 0.000000 0.500000 0.340078
O O3 0.000000 0.567717 0.500000
O O4 0.306278 0.578693 0.874433
O O5 0.312005 0.500000 0.000000
O O6 0.500000 0.552885 0.000000
O O7 0.679523 0.418309 0.624317
O O8 0.777373 0.346869 0.767058
O O9 0.301101 0.500000 0.500000
O O10 0.500000 0.453493 0.500000
O O11 0.746032 0.171725 0.808732
O O12 0.837165 0.256989 0.806101
O O13 0.000000 0.191052 0.799697
O O14 0.865638 0.203583 0.000000
O O15 0.312775 0.064979 0.500000
O O16 0.500000 0.050760 0.643722
O O17 0.323078 0.088818 0.757954
O O18 0.310249 0.000000 0.673674
O O19 0.500000 0.145020 0.821145
O O20 0.654717 0.124688 0.000000
O O21 0.000000 0.680145 0.169792
O O22 0.828705 0.685747 0.000000
#
# Coordination Sequence:
#
# PCOD9388435 Si02
#       8
#     4   4   8   4   8   8   8   8
#     4  11  22  35  53  81 107 127 157 203 258 305
#     4  11  24  39  53  75 107 138 169 203 242 297
#     4  12  21  36  58  79 102 129 164 209 251 298
#     4  11  24  41  57  71  97 142 177 193 230 301
#     4   8  15  29  50  70  96 133 167 195 241 306
#     4   8  14  25  42  65  96 135 170 196 238 300
#     4   9  16  26  44  73 100 121 158 214 254 275
#     4   9  17  32  52  78 103 127 156 198 252 304
#
# _framework density 15.789769
#
# number of rings (size 3 to 8) (size 9 to 14) (size 15 to 20)
#    0.000    2.385    2.308    3.231    0.000    1.846 
#    0.000    3.846    1.692    0.923    0.000    3.231 
#    0.000    0.000    0.000    0.000    0.000    0.000 
#
# Total GULP energy -289473.545577 kJ/mol
# GULP energy per Si atom -5566.798953 kJ/mol
# Density = 1.575383 g / cm^3
# Si number density = 15.789769 Si / 1000 Ang^3
#
#
#
# Elastic Constant Matrix: (Units=GPa)
#
#
# Indices 1 2 3 4 5 6 
#
# 1 77.7359 56.7618 38.0270 0.0000 0.0000 0.0000
# 2 56.7618 125.9349 57.6208 0.0000 0.0000 0.0000
# 3 38.0270 57.6208 86.6835 0.0000 0.0000 0.0000
# 4 0.0000 0.0000 0.0000 17.4364 0.0000 0.0000
# 5 0.0000 0.0000 0.0000 0.0000 7.4454 0.0000
# 6 0.0000 0.0000 0.0000 0.0000 0.0000 28.0394
#
#
#
# Elastic Compliance Matrix: (Units=1/GPa)
#
#
# Indices 1 2 3 4 5 6 
#
# 1 0.020104 -0.007223 -0.004018 0.000000 0.000000 0.000000
# 2 -0.007223 0.014006 -0.006142 0.000000 0.000000 0.000000
# 3 -0.004018 -0.006142 0.017382 0.000000 0.000000 0.000000
# 4 0.000000 0.000000 0.000000 0.057351 0.000000 0.000000
# 5 0.000000 0.000000 0.000000 0.000000 0.134312 0.000000
# 6 0.000000 0.000000 0.000000 0.000000 0.000000 0.035664
#
#
# Mechanical properties :
#
#
# Convention : Reuss Voigt Hill
#
# Bulk Modulus (GPa) = 59.78657 66.13039 62.95848
# Shear Modulus (GPa) = 15.66618 19.78054 17.72336
#
# Velocity S-wave (km/s) = 3.15329 3.54325 3.35395
# Velocity P-wave (km/s) = 7.15570 7.66239 7.41337
#
# Compressibility (1/GPa) = 0.01672616
#
# Stress axis : x y z
#
# Youngs Moduli (GPa) = 49.74234 71.39697 57.53237
#
# Poissons Ratio (x) = 0.51568 0.23117
# Poissons Ratio (y) = 0.35927 0.35335
# Poissons Ratio (z) = 0.19987 0.43850
#
# Static dielectric constant tensor:
#      x y z
#    x 1.584930 0.000000 0.000000 
#    y 0.000000 1.526810 0.000000 
#    z 0.000000 0.000000 1.476180 
# 
# From -- ./inp_files/4852.got.cif
#   From: 2010.05.17/outbox.cif.g08.bks.cpg/sg47_3_cif.got.tgz:4852.got - 2010.06.03 20:15:42.
