data_PCOD9388918
_publ_section_title
;
Structure prediction by ZEFSAII (Michael W. Deem and Ramdas Pophale) SiO2 
 PCOD9388918
Probable space group: P M M M
;
_chemical_formula_sum "Si O2"
_cell_formula_units_Z 52
_cell_length_a 35.647798
_cell_length_b 8.999664
_cell_length_c 7.268457
_cell_angle_alpha 90.000000
_cell_angle_beta 90.000000
_cell_angle_gamma 90.000000
_cell_volume 2331.853323
_symmetry_space_group_name_H-M "P M M M"
_symmetry_group_IT_number 47
_symmetry_cell_setting 'orthorhombic'
loop_
_space_group_symop_operation_xyz
x,y,z
-x,-y,z
x,-y,-z
-x,y,-z
-x,-y,-z
x,y,-z
-x,y,z
x,-y,z
loop_
_atom_site_type_symbol
_atom_site_label
_atom_site_fract_x
_atom_site_fract_y
_atom_site_fract_z
Si Si1 0.192836 0.169820 0.724255
Si Si2 0.657953 0.831661 0.279323
Si Si3 0.731734 0.669167 0.724175
Si Si4 0.883127 0.670340 0.275666
Si Si5 0.455299 0.500000 0.216252
Si Si6 0.959064 0.826827 0.723562
Si Si7 0.570895 0.827548 0.790772
O O1 0.193103 0.176080 0.500000
O O2 0.232244 0.238397 0.784780
O O3 0.155360 0.253365 0.784484
O O4 0.190462 0.000000 0.778975
O O5 0.654538 0.815786 0.500000
O O6 0.691191 0.726663 0.214129
O O7 0.616024 0.812857 0.206812
O O8 0.670011 0.000000 0.239853
O O9 0.730936 0.677489 0.500000
O O10 0.737236 0.500000 0.776661
O O11 0.883239 0.677454 0.500000
O O12 0.882890 0.500000 0.221998
O O13 0.921612 0.746142 0.213322
O O14 0.500000 0.500000 0.230102
O O15 0.442524 0.665650 0.287729
O O16 0.443673 0.500000 0.000000
O O17 0.958849 0.820600 0.500000
O O18 0.000000 0.767764 0.781925
O O19 0.957151 0.000000 0.773961
O O20 0.563502 0.000000 0.717088
O O21 0.556136 0.831368 0.000000
#
# Coordination Sequence:
#
# PCOD9388918 Si02
#       7
#     8   8   8   8   4   8   8
#     4   9  15  22  31  41  57  82 110 141 179 226
#     4   9  17  29  45  65  89 118 150 182 219 264
#     4   9  16  24  35  53  75  98 126 161 199 240
#     4   9  15  20  26  36  49  66  91 126 170 219
#     4   9  18  32  51  75  99 123 155 193 229 267
#     4   8  13  20  27  33  42  58  83 117 160 214
#     4   9  18  32  50  72  97 124 154 189 227 266
#
# _framework density 22.299859999999999
#
# number of rings (size 3 to 8) (size 9 to 14) (size 15 to 20)
#    0.000    3.154    0.000    1.846    1.077    6.154 
#    0.000    3.077    0.000    0.923    0.000    2.154 
#    0.000    0.000    0.000    0.000    0.000    0.000 
#
# Total GULP energy -289983.210073 kJ/mol
# GULP energy per Si atom -5576.600194 kJ/mol
# Density = 2.224910 g / cm^3
# Si number density = 22.299860 Si / 1000 Ang^3
#
#
#
# Elastic Constant Matrix: (Units=GPa)
#
#
# Indices 1 2 3 4 5 6 
#
# 1 93.6670 73.3281 2.5086 0.0000 0.0000 0.0000
# 2 73.3281 163.5690 10.0988 0.0000 0.0000 0.0000
# 3 2.5086 10.0988 91.5200 0.0000 0.0000 0.0000
# 4 0.0000 0.0000 0.0000 -16.4471 0.0000 0.0000
# 5 0.0000 0.0000 0.0000 0.0000 -9.4646 0.0000
# 6 0.0000 0.0000 0.0000 0.0000 0.0000 59.9622
#
#
#
# Elastic Compliance Matrix: (Units=1/GPa)
#
#
# Indices 1 2 3 4 5 6 
#
# 1 0.016461 -0.007402 0.000366 0.000000 0.000000 0.000000
# 2 -0.007402 0.009484 -0.000844 0.000000 0.000000 0.000000
# 3 0.000366 -0.000844 0.011010 0.000000 0.000000 0.000000
# 4 0.000000 0.000000 0.000000 -0.060801 0.000000 0.000000
# 5 0.000000 0.000000 0.000000 0.000000 -0.105657 0.000000
# 6 0.000000 0.000000 0.000000 0.000000 0.000000 0.016677
#
#
# Mechanical properties :
#
#
# Convention : Reuss Voigt Hill
#
# Bulk Modulus (GPa) = 47.18191 57.84744 52.51467
# Shear Modulus (GPa) = -55.55482 24.33148 -15.61167
#
# Velocity S-wave (km/s) = -4.99667 3.30677 -2.64877
# Velocity P-wave (km/s) = 3.47636 6.36998 3.77436
#
# Compressibility (1/GPa) = 0.02119456
#
# Stress axis : x y z
#
# Youngs Moduli (GPa) = 60.74911 105.43977 90.82943
#
# Poissons Ratio (x) = 0.78048 -0.03321
# Poissons Ratio (y) = 0.44967 0.07663
# Poissons Ratio (z) = -0.02221 0.08895
#
# Static dielectric constant tensor:
#      x y z
#    x 1.759820 0.000000 0.000000 
#    y 0.000000 1.792650 0.000000 
#    z 0.000000 0.000000 1.644210 
# 
# From -- ./inp_files/19794.got.cif
#   From: 2010.05.17/outbox.cif.g08.bks.cpg/sg47_10_cif.got.tgz:19794.got - 2010.06.03 20:15:42.
