data_PCOD9388497
_publ_section_title
;
Structure prediction by ZEFSAII (Michael W. Deem and Ramdas Pophale) SiO2 
 PCOD9388497
Probable space group: P M M M
;
_chemical_formula_sum "Si O2"
_cell_formula_units_Z 40
_cell_length_a 25.515370
_cell_length_b 8.306209
_cell_length_c 10.181210
_cell_angle_alpha 90.000000
_cell_angle_beta 90.000000
_cell_angle_gamma 90.000000
_cell_volume 2157.764881
_symmetry_space_group_name_H-M "P M M M"
_symmetry_group_IT_number 47
_symmetry_cell_setting 'orthorhombic'
loop_
_space_group_symop_operation_xyz
x,y,z
-x,-y,z
x,-y,-z
-x,y,-z
-x,-y,-z
x,y,-z
-x,y,z
x,-y,z
loop_
_atom_site_type_symbol
_atom_site_label
_atom_site_fract_x
_atom_site_fract_y
_atom_site_fract_z
Si Si1 0.440734 0.303599 0.000000
Si Si2 0.374391 0.306863 0.750675
Si Si3 0.056279 0.310291 0.659065
Si Si4 0.828596 0.695122 0.652690
Si Si5 0.737608 0.192397 0.847253
Si Si6 0.439246 0.807489 0.500000
O O1 0.409214 0.251499 0.873214
O O2 0.441802 0.500000 0.000000
O O3 0.500000 0.245895 0.000000
O O4 0.371744 0.500000 0.749089
O O5 0.316100 0.243535 0.775671
O O6 0.405679 0.250039 0.623882
O O7 0.056299 0.304316 0.500000
O O8 0.055814 0.500000 0.694895
O O9 0.113370 0.244515 0.695824
O O10 0.000000 0.240327 0.703481
O O11 0.818383 0.745875 0.500000
O O12 0.830427 0.500000 0.650025
O O13 0.785178 0.747089 0.756739
O O14 0.739668 0.000000 0.852138
O O15 0.738513 0.251913 0.000000
O O16 0.500000 0.747561 0.500000
O O17 0.441462 0.000000 0.500000
#
# Coordination Sequence:
#
# PCOD9388497 Si02
#       6
#     4   8   8   8   8   4
#     4   9  18  34  59  89 113 133 170 225 276 319
#     4  11  22  39  63  87 112 144 185 231 275 323
#     4   7  10  20  42  74 109 139 169 215 274 328
#     4   9  18  32  54  84 112 140 181 229 277 332
#     4  11  24  40  56  76 109 150 190 231 280 335
#     4  11  25  43  61  87 123 155 180 213 266 329
#
# _framework density 18.537700999999998
#
# number of rings (size 3 to 8) (size 9 to 14) (size 15 to 20)
#    0.000    2.400    1.000    3.900    1.400    3.200 
#    0.000    0.000    0.000    3.600    0.000    7.000 
#    0.000    0.000    0.000    0.000    0.000    0.000 
#
# Total GULP energy -222908.796924 kJ/mol
# GULP energy per Si atom -5572.719923 kJ/mol
# Density = 1.849551 g / cm^3
# Si number density = 18.537701 Si / 1000 Ang^3
#
#
#
# Elastic Constant Matrix: (Units=GPa)
#
#
# Indices 1 2 3 4 5 6 
#
# 1 232.2031 24.0416 97.6935 0.0000 0.0000 0.0000
# 2 24.0416 26.8516 19.5535 0.0000 0.0000 0.0000
# 3 97.6935 19.5535 134.3900 0.0000 0.0000 0.0000
# 4 0.0000 0.0000 0.0000 17.2834 0.0000 0.0000
# 5 0.0000 0.0000 0.0000 0.0000 29.5630 0.0000
# 6 0.0000 0.0000 0.0000 0.0000 0.0000 -3.9547
#
#
#
# Elastic Compliance Matrix: (Units=1/GPa)
#
#
# Indices 1 2 3 4 5 6 
#
# 1 0.006363 -0.002605 -0.004246 0.000000 0.000000 0.000000
# 2 -0.002605 0.042722 -0.004322 0.000000 0.000000 0.000000
# 3 -0.004246 -0.004322 0.011157 0.000000 0.000000 0.000000
# 4 0.000000 0.000000 0.000000 0.057859 0.000000 0.000000
# 5 0.000000 0.000000 0.000000 0.000000 0.033826 0.000000
# 6 0.000000 0.000000 0.000000 0.000000 0.000000 -0.252863
#
#
# Mechanical properties :
#
#
# Convention : Reuss Voigt Hill
#
# Bulk Modulus (GPa) = 26.38935 75.11355 50.75145
# Shear Modulus (GPa) = -75.80557 25.38875 -25.20841
#
# Velocity S-wave (km/s) = -6.40167 3.70479 -3.69161
# Velocity P-wave (km/s) = 6.35417 7.67515 3.04405
#
# Compressibility (1/GPa) = 0.03789408
#
# Stress axis : x y z
#
# Youngs Moduli (GPa) = 157.16275 23.40738 89.63115
#
# Poissons Ratio (x) = 0.06097 0.38061
# Poissons Ratio (y) = 0.40936 0.38743
# Poissons Ratio (z) = 0.66738 0.10118
#
# Static dielectric constant tensor:
#      x y z
#    x 1.673660 0.000000 0.000000 
#    y 0.000000 1.642380 0.000000 
#    z 0.000000 0.000000 1.595920 
# 
# From -- ./inp_files/12987.got.cif
#   From: 2010.05.17/outbox.cif.g08.bks.cpg/sg47_7_cif.got.tgz:12987.got - 2010.06.03 20:15:42.
