data_PCOD9388511
_publ_section_title
;
Structure prediction by ZEFSAII (Michael W. Deem and Ramdas Pophale) SiO2 
 PCOD9388511
Probable space group: P M M M
;
_chemical_formula_sum "Si O2"
_cell_formula_units_Z 60
_cell_length_a 24.180942
_cell_length_b 18.880881
_cell_length_c 9.129702
_cell_angle_alpha 90.000000
_cell_angle_beta 90.000000
_cell_angle_gamma 90.000000
_cell_volume 4168.233815
_symmetry_space_group_name_H-M "P M M M"
_symmetry_group_IT_number 47
_symmetry_cell_setting 'orthorhombic'
loop_
_space_group_symop_operation_xyz
x,y,z
-x,-y,z
x,-y,-z
-x,y,-z
-x,-y,-z
x,y,-z
-x,y,z
x,-y,z
loop_
_atom_site_type_symbol
_atom_site_label
_atom_site_fract_x
_atom_site_fract_y
_atom_site_fract_z
Si Si1 0.229742 0.790623 0.825330
Si Si2 0.062428 0.417196 0.323870
Si Si3 0.604857 0.154288 0.325209
Si Si4 0.164764 0.343463 0.825500
Si Si5 0.500000 0.083093 0.824617
Si Si6 0.332200 0.709598 0.675307
Si Si7 0.723325 0.082691 0.325139
Si Si8 0.718449 0.417092 0.824124
O O1 0.178043 0.739152 0.795795
O O2 0.280386 0.750676 0.746296
O O3 0.232687 0.868971 0.760087
O O4 0.238531 0.791531 0.000000
O O5 0.065142 0.412724 0.500000
O O6 0.069988 0.500000 0.284224
O O7 0.111003 0.371931 0.254213
O O8 0.000000 0.396383 0.279138
O O9 0.595710 0.147503 0.500000
O O10 0.554030 0.121291 0.239479
O O11 0.616828 0.237392 0.293085
O O12 0.661545 0.111584 0.290545
O O13 0.220182 0.387910 0.783646
O O14 0.158346 0.352229 0.000000
O O15 0.500000 0.000000 0.782119
O O16 0.500000 0.087105 0.000000
O O17 0.326263 0.706093 0.500000
O O18 0.326990 0.631971 0.744925
O O19 0.730553 0.092164 0.500000
O O20 0.727213 0.000000 0.290275
O O21 0.713955 0.500000 0.789138
O O22 0.713394 0.408174 0.000000
#
# Coordination Sequence:
#
# PCOD9388511 Si02
#       8
#     8   8   8   8   4   8   8   8
#     4   9  17  28  41  59  84 112 140 171 209 251
#     4   9  18  30  41  56  80 109 142 179 215 248
#     4   9  18  32  47  61  82 114 144 170 204 244
#     4   9  17  28  41  58  82 112 144 175 205 242
#     4  11  23  33  43  65  90 109 138 177 207 238
#     4   9  17  29  44  62  83 109 143 176 207 248
#     4   9  17  29  45  65  87 111 141 173 204 244
#     4   9  17  28  42  63  90 115 139 171 212 254
#
# _framework density 14.394584999999999
#
# number of rings (size 3 to 8) (size 9 to 14) (size 15 to 20)
#    0.000    2.867    0.000    3.800    0.000    8.000 
#    0.000    0.667    0.000    0.000    0.000    0.467 
#    0.000    4.267    0.000    5.867    0.000    4.267 
#
# Total GULP energy -334039.327081 kJ/mol
# GULP energy per Si atom -5567.322118 kJ/mol
# Density = 1.436182 g / cm^3
# Si number density = 14.394585 Si / 1000 Ang^3
#
#
#
# Elastic Constant Matrix: (Units=GPa)
#
#
# Indices 1 2 3 4 5 6 
#
# 1 79.7774 63.0076 42.2175 0.0000 0.0000 0.0000
# 2 63.0076 131.6938 52.9974 0.0000 0.0000 0.0000
# 3 42.2175 52.9974 37.5742 0.0000 0.0000 0.0000
# 4 0.0000 0.0000 0.0000 27.2399 0.0000 0.0000
# 5 0.0000 0.0000 0.0000 0.0000 30.4946 0.0000
# 6 0.0000 0.0000 0.0000 0.0000 0.0000 24.4740
#
#
#
# Elastic Compliance Matrix: (Units=1/GPa)
#
#
# Indices 1 2 3 4 5 6 
#
# 1 0.031121 -0.001892 -0.032299 0.000000 0.000000 0.000000
# 2 -0.001892 0.017677 -0.022807 0.000000 0.000000 0.000000
# 3 -0.032299 -0.022807 0.095073 0.000000 0.000000 0.000000
# 4 0.000000 0.000000 0.000000 0.036711 0.000000 0.000000
# 5 0.000000 0.000000 0.000000 0.000000 0.032793 0.000000
# 6 0.000000 0.000000 0.000000 0.000000 0.000000 0.040860
#
#
# Mechanical properties :
#
#
# Convention : Reuss Voigt Hill
#
# Bulk Modulus (GPa) = 33.47212 62.83227 48.15220
# Shear Modulus (GPa) = 13.22094 22.49656 17.85875
#
# Velocity S-wave (km/s) = 3.03391 3.95758 3.52612
# Velocity P-wave (km/s) = 5.96461 8.03915 7.07829
#
# Compressibility (1/GPa) = 0.02987561
#
# Stress axis : x y z
#
# Youngs Moduli (GPa) = 32.13243 56.57213 10.51822
#
# Poissons Ratio (x) = 0.10701 0.33973
# Poissons Ratio (y) = 0.06078 0.23989
# Poissons Ratio (z) = 1.03785 1.29024
#
# Static dielectric constant tensor:
#      x y z
#    x 1.454240 0.000000 0.000000 
#    y 0.000000 1.506630 0.000000 
#    z 0.000000 0.000000 1.479000 
# 
# From -- ./inp_files/12870.got.cif
#   From: 2010.05.17/outbox.cif.g08.bks.cpg/sg47_7_cif.got.tgz:12870.got - 2010.06.03 20:15:42.
