data_PCOD9388018
_publ_section_title
;
Structure prediction by ZEFSAII (Michael W. Deem and Ramdas Pophale) SiO2 
 PCOD9388018
Probable space group: P M M M
;
_chemical_formula_sum "Si O2"
_cell_formula_units_Z 33
_cell_length_a 7.746573
_cell_length_b 10.250706
_cell_length_c 20.598998
_cell_angle_alpha 90.000000
_cell_angle_beta 90.000000
_cell_angle_gamma 90.000000
_cell_volume 1635.721985
_symmetry_space_group_name_H-M "P M M M"
_symmetry_group_IT_number 47
_symmetry_cell_setting 'orthorhombic'
loop_
_space_group_symop_operation_xyz
x,y,z
-x,-y,z
x,-y,-z
-x,y,-z
-x,-y,-z
x,y,-z
-x,y,z
x,-y,z
loop_
_atom_site_type_symbol
_atom_site_label
_atom_site_fract_x
_atom_site_fract_y
_atom_site_fract_z
Si Si1 0.288064 0.150590 0.500000
Si Si2 0.204014 0.354376 0.246333
Si Si3 0.706338 0.144288 0.861631
Si Si4 0.708397 0.271668 0.000000
Si Si5 0.702892 0.352904 0.392785
Si Si6 0.000000 0.500000 0.000000
O O1 0.500000 0.145112 0.500000
O O2 0.230137 0.237051 0.561847
O O3 0.229802 0.000000 0.500000
O O4 0.266982 0.500000 0.227602
O O5 0.236922 0.251066 0.190371
O O6 0.280403 0.321549 0.316660
O O7 0.000000 0.361528 0.256047
O O8 0.500000 0.137696 0.856094
O O9 0.777895 0.000000 0.848823
O O10 0.742193 0.189650 0.934763
O O11 0.845546 0.387994 0.000000
O O12 0.500000 0.306928 0.000000
O O13 0.500000 0.362285 0.408065
O O14 0.776215 0.500000 0.403321
#
# Coordination Sequence:
#
# PCOD9388018 Si02
#       6
#     4   8   8   4   8   1
#     4   9  17  29  50  79 106 134 178 235 284 335
#     4  10  22  37  56  83 117 150 191 240 290 348
#     4  10  22  41  63  86 117 157 197 243 297 354
#     4  10  24  43  65  93 126 161 204 254 306 362
#     4   9  17  32  53  77 105 142 184 228 282 342
#     4  12  26  40  66  98 128 160 204 250 312 362
#
# _framework density 20.174576999999999
#
# number of rings (size 3 to 8) (size 9 to 14) (size 15 to 20)
#    0.000    2.303    0.000    1.636    3.394    5.818 
#    0.000    3.636    0.000    3.636    0.000    0.000 
#    0.000    0.000    0.000    0.000    0.000    0.000 
#
# Total GULP energy -183826.319812 kJ/mol
# GULP energy per Si atom -5570.494540 kJ/mol
# Density = 2.012866 g / cm^3
# Si number density = 20.174577 Si / 1000 Ang^3
#
#
#
# Elastic Constant Matrix: (Units=GPa)
#
#
# Indices 1 2 3 4 5 6 
#
# 1 39.4682 28.8614 10.6550 0.0000 0.0000 0.0000
# 2 28.8614 176.2055 114.7011 0.0000 0.0000 0.0000
# 3 10.6550 114.7011 133.6349 0.0000 0.0000 0.0000
# 4 0.0000 0.0000 0.0000 -15.7309 0.0000 0.0000
# 5 0.0000 0.0000 0.0000 0.0000 8268.2214 0.0000
# 6 0.0000 0.0000 0.0000 0.0000 0.0000 -24.2323
#
#
#
# Elastic Compliance Matrix: (Units=1/GPa)
#
#
# Indices 1 2 3 4 5 6 
#
# 1 0.029745 -0.007542 0.004102 0.000000 0.000000 0.000000
# 2 -0.007542 0.014773 -0.012079 0.000000 0.000000 0.000000
# 3 0.004102 -0.012079 0.017523 0.000000 0.000000 0.000000
# 4 0.000000 0.000000 0.000000 -0.063569 0.000000 0.000000
# 5 0.000000 0.000000 0.000000 0.000000 0.000121 0.000000
# 6 0.000000 0.000000 0.000000 0.000000 0.000000 -0.041267
#
#
# Mechanical properties :
#
#
# Convention : Reuss Voigt Hill
#
# Bulk Modulus (GPa) = 32.25450 73.08264 52.66857
# Shear Modulus (GPa) = -3841.73873 1658.65771 -1091.54051
#
# Velocity S-wave (km/s) = -43.68502 28.70431 -23.28566
# Velocity P-wave (km/s) = 50.28405 33.68808 26.39696
#
# Compressibility (1/GPa) = 0.03100342
#
# Stress axis : x y z
#
# Youngs Moduli (GPa) = 33.61941 67.69001 57.06650
#
# Poissons Ratio (x) = 0.51053 -0.23409
# Poissons Ratio (y) = 0.25356 0.68929
# Poissons Ratio (z) = -0.13791 0.81761
#
# Static dielectric constant tensor:
#      x y z
#    x 1.735590 0.000000 0.000000 
#    y 0.000000 1.657270 0.000000 
#    z 0.000000 0.000000 1.707780 
# 
# From -- ./inp_files/1124.got.cif
#   From: 2010.05.17/outbox.cif.g08.bks.cpg/sg47_1_cif.got.tgz:1124.got - 2010.06.03 20:15:42.
