data_PCOD9388745
_publ_section_title
;
Structure prediction by ZEFSAII (Michael W. Deem and Ramdas Pophale) SiO2 
 PCOD9388745
Probable space group: P M M M
;
_chemical_formula_sum "Si O2"
_cell_formula_units_Z 52
_cell_length_a 27.785237
_cell_length_b 14.213875
_cell_length_c 7.490956
_cell_angle_alpha 90.000000
_cell_angle_beta 90.000000
_cell_angle_gamma 90.000000
_cell_volume 2958.447342
_symmetry_space_group_name_H-M "P M M M"
_symmetry_group_IT_number 47
_symmetry_cell_setting 'orthorhombic'
loop_
_space_group_symop_operation_xyz
x,y,z
-x,-y,z
x,-y,-z
-x,y,-z
-x,-y,-z
x,y,-z
-x,y,z
x,-y,z
loop_
_atom_site_type_symbol
_atom_site_label
_atom_site_fract_x
_atom_site_fract_y
_atom_site_fract_z
Si Si1 0.245388 0.893972 0.214771
Si Si2 0.202722 0.605898 0.285261
Si Si3 0.149045 0.790506 0.212674
Si Si4 0.053805 0.890773 0.782310
Si Si5 0.700961 0.290880 0.287454
Si Si6 0.500000 0.385726 0.708013
Si Si7 0.605041 0.390440 0.718742
O O1 0.194738 0.850491 0.282090
O O2 0.286392 0.817973 0.257195
O O3 0.253122 0.000000 0.279817
O O4 0.242215 0.897716 0.000000
O O5 0.205994 0.602106 0.500000
O O6 0.194933 0.500000 0.219995
O O7 0.161678 0.681722 0.243106
O O8 0.253317 0.649390 0.217739
O O9 0.098014 0.827352 0.281431
O O10 0.148255 0.805468 0.000000
O O11 0.000000 0.863298 0.723548
O O12 0.061892 0.000000 0.733230
O O13 0.053359 0.887978 0.000000
O O14 0.700043 0.306041 0.500000
O O15 0.649990 0.328457 0.219795
O O16 0.500000 0.500000 0.712107
O O17 0.500000 0.357183 0.500000
O O18 0.552129 0.358137 0.782591
O O19 0.603495 0.388673 0.500000
O O20 0.612409 0.500000 0.767849
#
# Coordination Sequence:
#
# PCOD9388745 Si02
#       7
#     8   8   8   8   8   4   8
#     4   9  17  28  40  55  78 105 128 152 187 230
#     4   9  17  28  40  55  78 107 134 157 185 223
#     4   9  16  26  42  62  80  99 126 158 189 223
#     4   8  13  22  39  63  85 101 120 151 192 234
#     4   9  16  25  39  59  79 100 128 160 190 220
#     4   7  10  16  28  50  78 103 124 148 183 227
#     4   8  12  19  33  54  80 105 126 151 186 227
#
# _framework density 17.576789000000002
#
# number of rings (size 3 to 8) (size 9 to 14) (size 15 to 20)
#    0.000    3.462    0.000    2.308    0.000    4.308 
#    0.000    0.000    0.000    3.692    0.000    5.385 
#    0.000    6.154    0.000    0.000    0.000    0.000 
#
# Total GULP energy -289646.875205 kJ/mol
# GULP energy per Si atom -5570.132215 kJ/mol
# Density = 1.753678 g / cm^3
# Si number density = 17.576789 Si / 1000 Ang^3
#
#
#
# Elastic Constant Matrix: (Units=GPa)
#
#
# Indices 1 2 3 4 5 6 
#
# 1 176.4645 103.5493 7.7318 0.0000 0.0000 0.0000
# 2 103.5493 127.2560 -3.2382 0.0000 0.0000 0.0000
# 3 7.7318 -3.2382 46.4675 0.0000 0.0000 0.0000
# 4 0.0000 0.0000 0.0000 13.6590 0.0000 0.0000
# 5 0.0000 0.0000 0.0000 0.0000 8.0226 0.0000
# 6 0.0000 0.0000 0.0000 0.0000 0.0000 27.0023
#
#
#
# Elastic Compliance Matrix: (Units=1/GPa)
#
#
# Indices 1 2 3 4 5 6 
#
# 1 0.011125 -0.009116 -0.002486 0.000000 0.000000 0.000000
# 2 -0.009116 0.015342 0.002586 0.000000 0.000000 0.000000
# 3 -0.002486 0.002586 0.022114 0.000000 0.000000 0.000000
# 4 0.000000 0.000000 0.000000 0.073212 0.000000 0.000000
# 5 0.000000 0.000000 0.000000 0.000000 0.124648 0.000000
# 6 0.000000 0.000000 0.000000 0.000000 0.000000 0.037034
#
#
# Mechanical properties :
#
#
# Convention : Reuss Voigt Hill
#
# Bulk Modulus (GPa) = 32.73488 62.91930 47.82709
# Shear Modulus (GPa) = 16.04158 25.87978 20.96068
#
# Velocity S-wave (km/s) = 3.02430 3.84133 3.45704
# Velocity P-wave (km/s) = 5.55514 7.45312 6.57299
#
# Compressibility (1/GPa) = 0.03054845
#
# Stress axis : x y z
#
# Youngs Moduli (GPa) = 89.88852 65.18266 45.21951
#
# Poissons Ratio (x) = 0.59419 0.11243
# Poissons Ratio (y) = 0.81940 -0.11693
# Poissons Ratio (z) = 0.22349 -0.16856
#
# Static dielectric constant tensor:
#      x y z
#    x 1.619630 0.000000 0.000000 
#    y 0.000000 1.574120 0.000000 
#    z 0.000000 0.000000 1.690080 
# 
# From -- ./inp_files/8031.got.cif
#   From: 2010.05.17/outbox.cif.g08.bks.cpg/sg47_5_cif.got.tgz:8031.got - 2010.06.03 20:15:42.
