data_PCOD9388181
_publ_section_title
;
Structure prediction by ZEFSAII (Michael W. Deem and Ramdas Pophale) SiO2 
 PCOD9388181
Probable space group: P M M M
;
_chemical_formula_sum "Si O2"
_cell_formula_units_Z 36
_cell_length_a 13.193774
_cell_length_b 8.100664
_cell_length_c 20.732136
_cell_angle_alpha 90.000000
_cell_angle_beta 90.000000
_cell_angle_gamma 90.000000
_cell_volume 2215.816074
_symmetry_space_group_name_H-M "P M M M"
_symmetry_group_IT_number 47
_symmetry_cell_setting 'orthorhombic'
loop_
_space_group_symop_operation_xyz
x,y,z
-x,-y,z
x,-y,-z
-x,y,-z
-x,-y,-z
x,y,-z
-x,y,z
x,-y,z
loop_
_atom_site_type_symbol
_atom_site_label
_atom_site_fract_x
_atom_site_fract_y
_atom_site_fract_z
Si Si1 0.616602 0.301051 0.290664
Si Si2 0.305052 0.196259 0.844383
Si Si3 0.500000 0.202111 0.074564
Si Si4 0.622751 0.303888 0.569405
Si Si5 0.114887 0.300896 0.926641
O O1 0.500000 0.242766 0.280683
O O2 0.612642 0.500000 0.295006
O O3 0.681286 0.255628 0.228647
O O4 0.655225 0.238308 0.360542
O O5 0.399771 0.259143 0.887461
O O6 0.200137 0.244644 0.877480
O O7 0.312558 0.000000 0.843939
O O8 0.500000 0.000000 0.074571
O O9 0.500000 0.254673 0.000000
O O10 0.657017 0.233534 0.500000
O O11 0.500000 0.291571 0.570537
O O12 0.646220 0.500000 0.568141
O O13 0.114319 0.500000 0.927221
O O14 0.000000 0.246125 0.911248
O O15 0.138740 0.245301 0.000000
#
# Coordination Sequence:
#
# PCOD9388181 Si02
#       5
#     8   8   4   8   8
#     4   9  16  26  41  61  88 120 152 185 220 260
#     4  11  20  30  45  65  92 122 150 182 218 264
#     4   9  18  30  41  57  84 117 148 178 213 251
#     4   7  10  18  34  56  80 109 147 186 218 249
#     4   9  19  36  54  69  86 109 141 186 235 274
#
# _framework density 16.246835000000001
#
# number of rings (size 3 to 8) (size 9 to 14) (size 15 to 20)
#    0.000    3.000    1.111    4.000    0.000    1.778 
#    0.000    1.111    0.000    3.333    0.000    3.111 
#    0.000    0.889    0.000   10.222    0.000    3.333 
#
# Total GULP energy -200427.539872 kJ/mol
# GULP energy per Si atom -5567.431663 kJ/mol
# Density = 1.620986 g / cm^3
# Si number density = 16.246835 Si / 1000 Ang^3
#
#
#
# Elastic Constant Matrix: (Units=GPa)
#
#
# Indices 1 2 3 4 5 6 
#
# 1 72.6904 7.9026 77.7177 0.0000 0.0000 0.0000
# 2 7.9026 11.3187 14.6317 0.0000 0.0000 0.0000
# 3 77.7177 14.6317 197.0961 0.0000 0.0000 0.0000
# 4 0.0000 0.0000 0.0000 -0.8919 0.0000 0.0000
# 5 0.0000 0.0000 0.0000 0.0000 14.2684 0.0000
# 6 0.0000 0.0000 0.0000 0.0000 0.0000 11.7072
#
#
#
# Elastic Compliance Matrix: (Units=1/GPa)
#
#
# Indices 1 2 3 4 5 6 
#
# 1 0.024038 -0.005011 -0.009107 0.000000 0.000000 0.000000
# 2 -0.005011 0.098773 -0.005357 0.000000 0.000000 0.000000
# 3 -0.009107 -0.005357 0.009062 0.000000 0.000000 0.000000
# 4 0.000000 0.000000 0.000000 -1.121164 0.000000 0.000000
# 5 0.000000 0.000000 0.000000 0.000000 0.070085 0.000000
# 6 0.000000 0.000000 0.000000 0.000000 0.000000 0.085418
#
#
# Mechanical properties :
#
#
# Convention : Reuss Voigt Hill
#
# Bulk Modulus (GPa) = 10.76143 53.51213 32.13678
# Shear Modulus (GPa) = -6.54565 17.07361 5.26398
#
# Velocity S-wave (km/s) = -2.00938 3.24526 1.80195
# Velocity P-wave (km/s) = 1.12008 6.85935 4.91453
#
# Compressibility (1/GPa) = 0.09292446
#
# Stress axis : x y z
#
# Youngs Moduli (GPa) = 41.60058 10.12427 110.34892
#
# Poissons Ratio (x) = 0.05073 1.00490
# Poissons Ratio (y) = 0.20846 0.59110
# Poissons Ratio (z) = 0.37884 0.05423
#
# Static dielectric constant tensor:
#      x y z
#    x 1.517490 0.000000 0.000000 
#    y 0.000000 1.575490 0.000000 
#    z 0.000000 0.000000 1.596940 
# 
# From -- ./inp_files/3935.got.cif
#   From: 2010.05.17/outbox.cif.g08.bks.cpg/sg47_2_cif.got.tgz:3935.got - 2010.06.03 20:15:42.
