data_PCOD9388096
_publ_section_title
;
Structure prediction by ZEFSAII (Michael W. Deem and Ramdas Pophale) SiO2 
 PCOD9388096
Probable space group: P M M M
;
_chemical_formula_sum "Si O2"
_cell_formula_units_Z 32
_cell_length_a 7.639646
_cell_length_b 24.000813
_cell_length_c 8.636008
_cell_angle_alpha 90.000000
_cell_angle_beta 90.000000
_cell_angle_gamma 90.000000
_cell_volume 1583.478694
_symmetry_space_group_name_H-M "P M M M"
_symmetry_group_IT_number 47
_symmetry_cell_setting 'orthorhombic'
loop_
_space_group_symop_operation_xyz
x,y,z
-x,-y,z
x,-y,-z
-x,y,-z
-x,-y,-z
x,y,-z
-x,y,z
x,-y,z
loop_
_atom_site_type_symbol
_atom_site_label
_atom_site_fract_x
_atom_site_fract_y
_atom_site_fract_z
Si Si1 0.209496 0.739681 0.676745
Si Si2 0.293006 0.500000 0.689390
Si Si3 0.500000 0.064015 0.314733
Si Si4 0.796007 0.856964 0.184628
Si Si5 0.710228 0.380621 0.321488
O O1 0.279447 0.740882 0.500000
O O2 0.265995 0.795328 0.763746
O O3 0.250908 0.679478 0.750141
O O4 0.000000 0.742254 0.669177
O O5 0.500000 0.500000 0.726914
O O6 0.279985 0.500000 0.500000
O O7 0.222725 0.439861 0.743217
O O8 0.500000 0.064530 0.500000
O O9 0.329867 0.096989 0.256124
O O10 0.500000 0.000000 0.260745
O O11 0.000000 0.863828 0.232886
O O12 0.788999 0.860365 0.000000
O O13 0.775366 0.377264 0.500000
O O14 0.500000 0.385144 0.327433
#
# Coordination Sequence:
#
# PCOD9388096 Si02
#       5
#     8   4   4   8   8
#     4   9  17  29  46  71 102 135 176 227 278 327
#     4   7  10  18  31  51  84 123 164 212 268 327
#     4  11  25  43  65  93 121 150 187 230 275 329
#     4  10  22  40  61  86 119 157 193 232 279 331
#     4   8  13  21  36  59  88 126 170 217 271 327
#
# _framework density 20.208670999999999
#
# number of rings (size 3 to 8) (size 9 to 14) (size 15 to 20)
#    0.000    3.000    0.000    2.625    1.750    3.000 
#    0.000    3.125    0.000    3.750    0.000    0.875 
#    0.000    7.000    0.000    0.000    0.000    0.000 
#
# Total GULP energy -178263.605173 kJ/mol
# GULP energy per Si atom -5570.737662 kJ/mol
# Density = 2.016268 g / cm^3
# Si number density = 20.208671 Si / 1000 Ang^3
#
#
#
# Elastic Constant Matrix: (Units=GPa)
#
#
# Indices 1 2 3 4 5 6 
#
# 1 68.7489 64.6902 20.6224 0.0000 0.0000 0.0000
# 2 64.6902 251.0797 40.3156 0.0000 0.0000 0.0000
# 3 20.6224 40.3156 21.3489 0.0000 0.0000 0.0000
# 4 0.0000 0.0000 0.0000 -20.6760 0.0000 0.0000
# 5 0.0000 0.0000 0.0000 0.0000 15.5323 0.0000
# 6 0.0000 0.0000 0.0000 0.0000 0.0000 51.6336
#
#
#
# Elastic Compliance Matrix: (Units=1/GPa)
#
#
# Indices 1 2 3 4 5 6 
#
# 1 0.022203 -0.003268 -0.015277 0.000000 0.000000 0.000000
# 2 -0.003268 0.006197 -0.008546 0.000000 0.000000 0.000000
# 3 -0.015277 -0.008546 0.077736 0.000000 0.000000 0.000000
# 4 0.000000 0.000000 0.000000 -0.048365 0.000000 0.000000
# 5 0.000000 0.000000 0.000000 0.000000 0.064382 0.000000
# 6 0.000000 0.000000 0.000000 0.000000 0.000000 0.019367
#
#
# Mechanical properties :
#
#
# Convention : Reuss Voigt Hill
#
# Bulk Modulus (GPa) = 19.24738 65.82596 42.53667
# Shear Modulus (GPa) = 23.47215 23.66794 23.57004
#
# Velocity S-wave (km/s) = 3.41176 3.42596 3.41887
# Velocity P-wave (km/s) = 5.00651 6.94935 6.05634
#
# Compressibility (1/GPa) = 0.05195513
#
# Stress axis : x y z
#
# Youngs Moduli (GPa) = 45.03924 161.37140 12.86407
#
# Poissons Ratio (x) = 0.52729 0.19652
# Poissons Ratio (y) = 0.14717 0.10994
# Poissons Ratio (z) = 0.68805 1.37907
#
# Static dielectric constant tensor:
#      x y z
#    x 1.733900 0.000000 0.000000 
#    y 0.000000 1.768280 0.000000 
#    z 0.000000 0.000000 1.689820 
# 
# From -- ./inp_files/1285.got.cif
#   From: 2010.05.17/outbox.cif.g08.bks.cpg/sg47_1_cif.got.tgz:1285.got - 2010.06.03 20:15:42.
