data_PCOD9388978
_publ_section_title
;
Structure prediction by ZEFSAII (Michael W. Deem and Ramdas Pophale) SiO2 
 PCOD9388978
Probable space group: P M M M
;
_chemical_formula_sum "Si O2"
_cell_formula_units_Z 52
_cell_length_a 7.330002
_cell_length_b 34.868693
_cell_length_c 9.681510
_cell_angle_alpha 90.000000
_cell_angle_beta 90.000000
_cell_angle_gamma 90.000000
_cell_volume 2474.473803
_symmetry_space_group_name_H-M "P M M M"
_symmetry_group_IT_number 47
_symmetry_cell_setting 'orthorhombic'
loop_
_space_group_symop_operation_xyz
x,y,z
-x,-y,z
x,-y,-z
-x,y,-z
-x,-y,-z
x,y,-z
-x,y,z
x,-y,z
loop_
_atom_site_type_symbol
_atom_site_label
_atom_site_fract_x
_atom_site_fract_y
_atom_site_fract_z
Si Si1 0.717779 0.198312 0.656880
Si Si2 0.217639 0.886971 0.342913
Si Si3 0.277593 0.500000 0.839906
Si Si4 0.722624 0.573421 0.659587
Si Si5 0.722299 0.731589 0.158801
Si Si6 0.222326 0.957340 0.840371
Si Si7 0.722051 0.645329 0.840414
O O1 0.789289 0.199047 0.500000
O O2 0.500000 0.202720 0.649493
O O3 0.750391 0.155701 0.714865
O O4 0.787075 0.233737 0.746324
O O5 0.289206 0.887880 0.500000
O O6 0.287069 0.922073 0.251804
O O7 0.000000 0.891541 0.350684
O O8 0.500000 0.500000 0.842749
O O9 0.221448 0.462493 0.754026
O O10 0.218541 0.500000 0.000000
O O11 0.780920 0.570564 0.500000
O O12 0.500000 0.573311 0.657908
O O13 0.781148 0.612452 0.735495
O O14 0.500000 0.731738 0.161708
O O15 0.778284 0.688486 0.199408
O O16 0.776044 0.737544 0.000000
O O17 0.000000 0.956892 0.838766
O O18 0.277419 0.000000 0.792766
O O19 0.276824 0.952883 0.000000
O O20 0.500000 0.644865 0.840787
O O21 0.777079 0.638054 0.000000
#
# Coordination Sequence:
#
# PCOD9388978 Si02
#       7
#     8   8   4   8   8   8   8
#     4   9  17  28  41  57  78 103 129 158 193 231
#     4   9  17  28  42  61  83 105 130 160 192 227
#     4   9  15  21  27  33  45  69  99 131 172 221
#     4   9  15  20  26  37  52  70  96 133 175 217
#     4   8  14  24  37  52  69  90 118 151 185 223
#     4   8  14  25  41  61  83 104 127 158 194 227
#     4   8  13  21  31  42  57  77 102 134 173 215
#
# _framework density 21.014567
#
# number of rings (size 3 to 8) (size 9 to 14) (size 15 to 20)
#    0.000    3.462    0.000    2.077    0.000    4.308 
#    0.000    4.615    0.000    0.462    0.000    3.231 
#    0.000    0.000    0.000    0.000    0.000    0.000 
#
# Total GULP energy -290108.262816 kJ/mol
# GULP energy per Si atom -5579.005054 kJ/mol
# Density = 2.096674 g / cm^3
# Si number density = 21.014567 Si / 1000 Ang^3
#
#
#
# Elastic Constant Matrix: (Units=GPa)
#
#
# Indices 1 2 3 4 5 6 
#
# 1 82.5072 3.8926 4.3056 0.0000 0.0000 0.0000
# 2 3.8926 247.3479 142.1115 0.0000 0.0000 0.0000
# 3 4.3056 142.1115 135.2586 0.0000 0.0000 0.0000
# 4 0.0000 0.0000 0.0000 66.4432 0.0000 0.0000
# 5 0.0000 0.0000 0.0000 0.0000 -11.1896 0.0000
# 6 0.0000 0.0000 0.0000 0.0000 0.0000 7.2867
#
#
#
# Elastic Compliance Matrix: (Units=1/GPa)
#
#
# Indices 1 2 3 4 5 6 
#
# 1 0.012141 0.000078 -0.000469 0.000000 0.000000 0.000000
# 2 0.000078 0.010201 -0.010720 0.000000 0.000000 0.000000
# 3 -0.000469 -0.010720 0.018671 0.000000 0.000000 0.000000
# 4 0.000000 0.000000 0.000000 0.015050 0.000000 0.000000
# 5 0.000000 0.000000 0.000000 0.000000 -0.089368 0.000000
# 6 0.000000 0.000000 0.000000 0.000000 0.000000 0.137236
#
#
# Mechanical properties :
#
#
# Convention : Reuss Voigt Hill
#
# Bulk Modulus (GPa) = 53.21405 85.08146 69.14776
# Shear Modulus (GPa) = 37.75955 33.49497 35.62726
#
# Velocity S-wave (km/s) = 4.24350 3.99669 4.12194
# Velocity P-wave (km/s) = 7.02760 7.86593 7.45855
#
# Compressibility (1/GPa) = 0.01879203
#
# Stress axis : x y z
#
# Youngs Moduli (GPa) = 82.36605 98.03145 53.55781
#
# Poissons Ratio (x) = -0.00766 0.02510
# Poissons Ratio (y) = -0.00644 0.57415
# Poissons Ratio (z) = 0.03860 1.05091
#
# Static dielectric constant tensor:
#      x y z
#    x 1.905470 0.000000 0.000000 
#    y 0.000000 1.732440 0.000000 
#    z 0.000000 0.000000 1.712850 
# 
# From -- ./inp_files/4835.got.cif
#   From: 2010.05.17/outbox.cif.g08.bks.cpg/sg47_3_cif.got.tgz:4835.got - 2010.06.03 20:15:42.
