data_PCOD9388810
_publ_section_title
;
Structure prediction by ZEFSAII (Michael W. Deem and Ramdas Pophale) SiO2 
 PCOD9388810
Probable space group: P M M M
;
_chemical_formula_sum "Si O2"
_cell_formula_units_Z 52
_cell_length_a 10.328675
_cell_length_b 33.099449
_cell_length_c 7.369979
_cell_angle_alpha 90.000000
_cell_angle_beta 90.000000
_cell_angle_gamma 90.000000
_cell_volume 2519.600157
_symmetry_space_group_name_H-M "P M M M"
_symmetry_group_IT_number 47
_symmetry_cell_setting 'orthorhombic'
loop_
_space_group_symop_operation_xyz
x,y,z
-x,-y,z
x,-y,-z
-x,y,-z
-x,-y,-z
x,y,-z
-x,y,z
x,-y,z
loop_
_atom_site_type_symbol
_atom_site_label
_atom_site_fract_x
_atom_site_fract_y
_atom_site_fract_z
Si Si1 0.747924 0.596423 0.721091
Si Si2 0.000000 0.547076 0.721772
Si Si3 0.852003 0.752090 0.721125
Si Si4 0.646220 0.912541 0.216351
Si Si5 0.144443 0.843953 0.717121
Si Si6 0.500000 0.545814 0.721291
Si Si7 0.349038 0.683977 0.278422
Si Si8 0.657658 0.000000 0.208514
O O1 0.751555 0.597282 0.500000
O O2 0.626164 0.569805 0.777690
O O3 0.720287 0.642281 0.778071
O O4 0.875698 0.572887 0.779559
O O5 0.000000 0.500000 0.779503
O O6 0.000000 0.545928 0.500000
O O7 0.850940 0.751487 0.500000
O O8 0.826938 0.798261 0.780191
O O9 0.740940 0.721237 0.780304
O O10 0.000000 0.741228 0.774542
O O11 0.500000 0.903828 0.283562
O O12 0.746265 0.876590 0.243637
O O13 0.692626 0.956342 0.288974
O O14 0.635462 0.917930 0.000000
O O15 0.137499 0.841419 0.500000
O O16 0.000000 0.855378 0.782580
O O17 0.500000 0.500000 0.782901
O O18 0.500000 0.545387 0.500000
O O19 0.351543 0.684077 0.500000
O O20 0.500000 0.685551 0.221332
O O21 0.500000 0.000000 0.206792
O O22 0.704639 0.000000 0.000000
#
# Coordination Sequence:
#
# PCOD9388810 Si02
#       8
#     8   4   8   8   8   4   8   4
#     4   9  15  21  27  37  51  69  97 136 182 233
#     4   9  16  22  26  34  48  68  98 136 179 230
#     4   8  15  26  39  52  69  97 129 161 202 251
#     4   9  17  30  50  73  94 119 154 192 228 267
#     4   9  18  32  46  64  92 123 153 186 228 277
#     4   9  14  20  28  34  46  70  96 128 179 236
#     4   9  15  22  31  45  62  79 107 149 195 243
#     4   7  12  26  46  67  92 120 150 187 226 263
#
# _framework density 20.638197000000002
#
# number of rings (size 3 to 8) (size 9 to 14) (size 15 to 20)
#    0.000    3.308    0.769    2.308    1.077    3.077 
#    0.000    2.308    0.000    3.692    0.000    0.000 
#    0.000    0.000    0.000    0.000    0.000    0.000 
#
# Total GULP energy -289953.273592 kJ/mol
# GULP energy per Si atom -5576.024492 kJ/mol
# Density = 2.059122 g / cm^3
# Si number density = 20.638197 Si / 1000 Ang^3
#
#
#
# Elastic Constant Matrix: (Units=GPa)
#
#
# Indices 1 2 3 4 5 6 
#
# 1 194.5712 146.8872 4.7660 0.0000 0.0000 0.0000
# 2 146.8872 214.5172 6.4352 0.0000 0.0000 0.0000
# 3 4.7660 6.4352 72.3419 0.0000 0.0000 0.0000
# 4 0.0000 0.0000 0.0000 2.2093 0.0000 0.0000
# 5 0.0000 0.0000 0.0000 0.0000 4.0906 0.0000
# 6 0.0000 0.0000 0.0000 0.0000 0.0000 39.2153
#
#
#
# Elastic Compliance Matrix: (Units=1/GPa)
#
#
# Indices 1 2 3 4 5 6 
#
# 1 0.010639 -0.007284 -0.000053 0.000000 0.000000 0.000000
# 2 -0.007284 0.009660 -0.000379 0.000000 0.000000 0.000000
# 3 -0.000053 -0.000379 0.013861 0.000000 0.000000 0.000000
# 4 0.000000 0.000000 0.000000 0.452632 0.000000 0.000000
# 5 0.000000 0.000000 0.000000 0.000000 0.244464 0.000000
# 6 0.000000 0.000000 0.000000 0.000000 0.000000 0.025500
#
#
# Mechanical properties :
#
#
# Convention : Reuss Voigt Hill
#
# Bulk Modulus (GPa) = 53.39583 88.62303 71.00943
# Shear Modulus (GPa) = 6.42318 30.65917 18.54117
#
# Velocity S-wave (km/s) = 1.76608 3.85847 3.00057
# Velocity P-wave (km/s) = 5.48518 7.93000 6.81807
#
# Compressibility (1/GPa) = 0.01872805
#
# Stress axis : x y z
#
# Youngs Moduli (GPa) = 93.99077 103.51652 72.14745
#
# Poissons Ratio (x) = 0.75397 0.00383
# Poissons Ratio (y) = 0.68458 0.02738
# Poissons Ratio (z) = 0.00498 0.03928
#
# Static dielectric constant tensor:
#      x y z
#    x 1.701340 0.000000 0.000000 
#    y 0.000000 1.727910 0.000000 
#    z 0.000000 0.000000 1.848600 
# 
# From -- ./inp_files/15697.got.cif
#   From: 2010.05.17/outbox.cif.g08.bks.cpg/sg47_8_cif.got.tgz:15697.got - 2010.06.03 20:15:42.
