data_PCOD9388703
_publ_section_title
;
Structure prediction by ZEFSAII (Michael W. Deem and Ramdas Pophale) SiO2 
 PCOD9388703
Probable space group: P M M M
;
_chemical_formula_sum "Si O2"
_cell_formula_units_Z 52
_cell_length_a 8.254351
_cell_length_b 15.100552
_cell_length_c 20.915667
_cell_angle_alpha 90.000000
_cell_angle_beta 90.000000
_cell_angle_gamma 90.000000
_cell_volume 2607.038678
_symmetry_space_group_name_H-M "P M M M"
_symmetry_group_IT_number 47
_symmetry_cell_setting 'orthorhombic'
loop_
_space_group_symop_operation_xyz
x,y,z
-x,-y,z
x,-y,-z
-x,y,-z
-x,-y,-z
x,y,-z
-x,y,z
x,-y,z
loop_
_atom_site_type_symbol
_atom_site_label
_atom_site_fract_x
_atom_site_fract_y
_atom_site_fract_z
Si Si1 0.310285 0.280975 0.617259
Si Si2 0.803309 0.897546 0.810399
Si Si3 0.807771 0.600613 0.500000
Si Si4 0.198395 0.216545 0.930275
Si Si5 0.195251 0.899404 0.665372
Si Si6 0.197351 0.597857 0.119342
Si Si7 0.804734 0.398776 0.732109
O O1 0.500000 0.277133 0.607998
O O2 0.237672 0.500000 0.713669
O O3 0.239611 0.343070 0.562042
O O4 0.269098 0.328494 0.684249
O O5 0.744246 0.837184 0.868345
O O6 0.747824 0.877846 0.738109
O O7 0.000000 0.889253 0.809062
O O8 0.765630 0.000000 0.823381
O O9 0.739236 0.500000 0.500000
O O10 0.000000 0.592611 0.500000
O O11 0.248717 0.318546 0.921705
O O12 0.000000 0.214099 0.929042
O O13 0.248715 0.182433 0.000000
O O14 0.245780 0.819373 0.620015
O O15 0.000000 0.901406 0.666961
O O16 0.249501 0.000000 0.649614
O O17 0.253602 0.500000 0.099795
O O18 0.241462 0.613113 0.193734
O O19 0.000000 0.596040 0.117665
O O20 0.000000 0.390901 0.728790
#
# Coordination Sequence:
#
# PCOD9388703 Si02
#       7
#     8   8   4   8   8   8   8
#     4  12  24  36  55  84 117 145 168 210 270 317
#     4   8  14  25  42  64  89 121 165 214 258 302
#     4  11  25  45  66  85 110 149 191 218 238 285
#     4   9  15  20  29  51  87 129 165 200 252 316
#     4   9  18  35  59  81 102 137 185 227 261 308
#     4   8  14  24  38  57  82 117 165 216 258 300
#     4   9  17  31  52  74  97 133 181 224 261 311
#
# _framework density 19.946003999999999
#
# number of rings (size 3 to 8) (size 9 to 14) (size 15 to 20)
#    0.000    2.692    0.000    4.846    0.000    6.154 
#    0.000    3.462    0.000    2.308    0.000    0.000 
#    0.000    9.846    0.000   27.077    0.000   27.077 
#
# Total GULP energy -290043.860931 kJ/mol
# GULP energy per Si atom -5577.766556 kJ/mol
# Density = 1.990061 g / cm^3
# Si number density = 19.946004 Si / 1000 Ang^3
#
#
#
# Elastic Constant Matrix: (Units=GPa)
#
#
# Indices 1 2 3 4 5 6 
#
# 1 20.2526 20.6815 10.6225 0.0000 0.0000 0.0000
# 2 20.6815 133.6802 68.3653 0.0000 0.0000 0.0000
# 3 10.6225 68.3653 55.5615 0.0000 0.0000 0.0000
# 4 0.0000 0.0000 0.0000 23.9401 0.0000 0.0000
# 5 0.0000 0.0000 0.0000 0.0000 239.5113 0.0000
# 6 0.0000 0.0000 0.0000 0.0000 0.0000 -16.8717
#
#
#
# Elastic Compliance Matrix: (Units=1/GPa)
#
#
# Indices 1 2 3 4 5 6 
#
# 1 0.058641 -0.009006 -0.000130 0.000000 0.000000 0.000000
# 2 -0.009006 0.021560 -0.024807 0.000000 0.000000 0.000000
# 3 -0.000130 -0.024807 0.048547 0.000000 0.000000 0.000000
# 4 0.000000 0.000000 0.000000 0.041771 0.000000 0.000000
# 5 0.000000 0.000000 0.000000 0.000000 0.004175 0.000000
# 6 0.000000 0.000000 0.000000 0.000000 0.000000 -0.059271
#
#
# Mechanical properties :
#
#
# Convention : Reuss Voigt Hill
#
# Bulk Modulus (GPa) = 16.43066 45.42588 30.92827
# Shear Modulus (GPa) = 24.55843 56.63762 40.59802
#
# Velocity S-wave (km/s) = 3.51272 5.33452 4.51643
# Velocity P-wave (km/s) = 4.97068 7.79530 6.53737
#
# Compressibility (1/GPa) = 0.06086184
#
# Stress axis : x y z
#
# Youngs Moduli (GPa) = 17.05294 46.38163 20.59881
#
# Poissons Ratio (x) = 0.41769 0.00269
# Poissons Ratio (y) = 0.15357 0.51099
# Poissons Ratio (z) = 0.00222 1.15059
#
# Static dielectric constant tensor:
#      x y z
#    x 1.692600 0.000000 0.000000 
#    y 0.000000 1.724470 0.000000 
#    z 0.000000 0.000000 1.692650 
# 
# From -- ./inp_files/12566.got.cif
#   From: 2010.05.17/outbox.cif.g08.bks.cpg/sg47_7_cif.got.tgz:12566.got - 2010.06.03 20:15:42.
