data_PCOD9388505
_publ_section_title
;
Structure prediction by ZEFSAII (Michael W. Deem and Ramdas Pophale) SiO2 
 PCOD9388505
Probable space group: P M M M
;
_chemical_formula_sum "Si O2"
_cell_formula_units_Z 32
_cell_length_a 10.305955
_cell_length_b 14.288101
_cell_length_c 11.531930
_cell_angle_alpha 90.000000
_cell_angle_beta 90.000000
_cell_angle_gamma 90.000000
_cell_volume 1698.105821
_symmetry_space_group_name_H-M "P M M M"
_symmetry_group_IT_number 47
_symmetry_cell_setting 'orthorhombic'
loop_
_space_group_symop_operation_xyz
x,y,z
-x,-y,z
x,-y,-z
-x,y,-z
-x,-y,-z
x,y,-z
-x,y,z
x,-y,z
loop_
_atom_site_type_symbol
_atom_site_label
_atom_site_fract_x
_atom_site_fract_y
_atom_site_fract_z
Si Si1 0.500000 0.893288 0.240519
Si Si2 0.500000 0.168039 0.500000
Si Si3 0.000000 0.212877 0.500000
Si Si4 0.750661 0.208871 0.138013
Si Si5 0.344575 0.607240 0.749453
Si Si6 0.727646 0.679919 0.500000
Si Si7 0.000000 0.112891 0.253648
O O1 0.500000 0.887607 0.380098
O O2 0.374269 0.841978 0.191568
O O3 0.500000 0.000000 0.202336
O O4 0.373592 0.234008 0.500000
O O5 0.128200 0.277658 0.500000
O O6 0.000000 0.148071 0.613745
O O7 0.734223 0.316723 0.176845
O O8 0.875077 0.158278 0.192187
O O9 0.752197 0.201483 0.000000
O O10 0.500000 0.625814 0.758210
O O11 0.322178 0.500000 0.784341
O O12 0.302591 0.622334 0.616078
O O13 0.000000 0.000000 0.246090
#
# Coordination Sequence:
#
# PCOD9388505 Si02
#       7
#     4   2   2   8   8   4   4
#     4  12  24  40  65  95 127 165 215 275 331 382
#     4  12  19  40  65  88 130 166 207 266 339 388
#     4  12  23  40  71  96 130 164 209 278 335 376
#     4  12  25  44  65  93 133 174 219 268 316 382
#     4  11  22  40  69 101 131 171 217 267 328 388
#     4  12  19  39  65  95 131 169 206 269 331 384
#     4  12  26  46  69  95 129 175 219 265 329 394
#
# _framework density 18.844525999999998
#
# number of rings (size 3 to 8) (size 9 to 14) (size 15 to 20)
#    0.000    0.250    7.500    2.250    0.000    4.500 
#    0.000    8.125    0.000    1.500    0.000    0.000 
#    0.000    0.000    0.000    0.000    0.000    0.000 
#
# Total GULP energy -178996.012161 kJ/mol
# GULP energy per Si atom -5593.625380 kJ/mol
# Density = 1.880164 g / cm^3
# Si number density = 18.844526 Si / 1000 Ang^3
#
#
#
# Elastic Constant Matrix: (Units=GPa)
#
#
# Indices 1 2 3 4 5 6 
#
# 1 156.2528 69.5639 42.9898 0.0000 0.0000 0.0000
# 2 69.5639 157.6675 47.4322 0.0000 0.0000 0.0000
# 3 42.9898 47.4322 154.9296 0.0000 0.0000 0.0000
# 4 0.0000 0.0000 0.0000 -11.4305 0.0000 0.0000
# 5 0.0000 0.0000 0.0000 0.0000 26.7811 0.0000
# 6 0.0000 0.0000 0.0000 0.0000 0.0000 23.6227
#
#
#
# Elastic Compliance Matrix: (Units=1/GPa)
#
#
# Indices 1 2 3 4 5 6 
#
# 1 0.008190 -0.003227 -0.001285 0.000000 0.000000 0.000000
# 2 -0.003227 0.008257 -0.001633 0.000000 0.000000 0.000000
# 3 -0.001285 -0.001633 0.007311 0.000000 0.000000 0.000000
# 4 0.000000 0.000000 0.000000 -0.087485 0.000000 0.000000
# 5 0.000000 0.000000 0.000000 0.000000 0.037340 0.000000
# 6 0.000000 0.000000 0.000000 0.000000 0.000000 0.042332
#
#
# Mechanical properties :
#
#
# Convention : Reuss Voigt Hill
#
# Bulk Modulus (GPa) = 87.18563 87.64685 87.41624
# Shear Modulus (GPa) = 155.97414 28.38560 92.17987
#
# Velocity S-wave (km/s) = 9.10761 3.88532 7.00158
# Velocity P-wave (km/s) = 12.52854 8.16940 10.57600
#
# Compressibility (1/GPa) = 0.01146978
#
# Stress axis : x y z
#
# Youngs Moduli (GPa) = 122.10029 121.10365 136.78368
#
# Poissons Ratio (x) = 0.39080 0.17571
# Poissons Ratio (y) = 0.39402 0.22331
# Poissons Ratio (z) = 0.15685 0.19771
#
# Static dielectric constant tensor:
#      x y z
#    x 1.628350 0.000000 0.000000 
#    y 0.000000 1.642330 0.000000 
#    z 0.000000 0.000000 1.639560 
# 
# From -- ./inp_files/14746.got.cif
#   From: 2010.05.17/outbox.cif.g08.bks.cpg/sg47_8_cif.got.tgz:14746.got - 2010.06.03 20:15:42.
