data_PCOD9388946
_publ_section_title
;
Structure prediction by ZEFSAII (Michael W. Deem and Ramdas Pophale) SiO2 
 PCOD9388946
Probable space group: P M M M
;
_chemical_formula_sum "Si O2"
_cell_formula_units_Z 36
_cell_length_a 7.296898
_cell_length_b 26.120779
_cell_length_c 9.452761
_cell_angle_alpha 90.000000
_cell_angle_beta 90.000000
_cell_angle_gamma 90.000000
_cell_volume 1801.702486
_symmetry_space_group_name_H-M "P M M M"
_symmetry_group_IT_number 47
_symmetry_cell_setting 'orthorhombic'
loop_
_space_group_symop_operation_xyz
x,y,z
-x,-y,z
x,-y,-z
-x,y,-z
-x,-y,-z
x,y,-z
-x,y,z
x,-y,z
loop_
_atom_site_type_symbol
_atom_site_label
_atom_site_fract_x
_atom_site_fract_y
_atom_site_fract_z
Si Si1 0.276790 0.244482 0.337292
Si Si2 0.723733 0.655902 0.837466
Si Si3 0.717745 0.143510 0.167011
Si Si4 0.000000 0.057935 0.828461
Si Si5 0.722939 0.557426 0.663331
O O1 0.217844 0.245374 0.500000
O O2 0.500000 0.245006 0.337000
O O3 0.218087 0.294840 0.252440
O O4 0.222992 0.192699 0.256856
O O5 0.500000 0.655862 0.836672
O O6 0.783249 0.603336 0.763255
O O7 0.781209 0.659258 0.000000
O O8 0.500000 0.136797 0.183408
O O9 0.825280 0.092498 0.210424
O O10 0.753791 0.153058 0.000000
O O11 0.000000 0.000000 0.773690
O O12 0.000000 0.054707 0.000000
O O13 0.776913 0.566160 0.500000
O O14 0.500000 0.557592 0.664974
O O15 0.780303 0.500000 0.704988
#
# Coordination Sequence:
#
# PCOD9388946 Si02
#       5
#     8   8   8   4   8
#     4   9  16  26  41  60  83 113 150 192 239 290
#     4   9  15  21  31  49  73 102 141 190 240 290
#     4   9  17  30  49  72  98 128 162 200 240 283
#     4   9  18  32  51  77 105 131 162 199 238 281
#     4   8  13  20  28  39  61  98 143 188 235 288
#
# _framework density 19.981100000000001
#
# number of rings (size 3 to 8) (size 9 to 14) (size 15 to 20)
#    0.000    3.222    0.000    2.000    0.000    6.222 
#    0.000    5.000    0.000    1.333    0.000    3.111 
#    0.000    0.000    0.000    1.000    0.000   21.778 
#
# Total GULP energy -200950.062577 kJ/mol
# GULP energy per Si atom -5581.946183 kJ/mol
# Density = 1.993562 g / cm^3
# Si number density = 19.981100 Si / 1000 Ang^3
#
#
#
# Elastic Constant Matrix: (Units=GPa)
#
#
# Indices 1 2 3 4 5 6 
#
# 1 82.4958 37.9516 28.0824 0.0000 0.0000 0.0000
# 2 37.9516 238.3011 127.3708 0.0000 0.0000 0.0000
# 3 28.0824 127.3708 133.1234 0.0000 0.0000 0.0000
# 4 0.0000 0.0000 0.0000 -12.6850 0.0000 0.0000
# 5 0.0000 0.0000 0.0000 0.0000 -8.4349 0.0000
# 6 0.0000 0.0000 0.0000 0.0000 0.0000 269.9949
#
#
#
# Elastic Compliance Matrix: (Units=1/GPa)
#
#
# Indices 1 2 3 4 5 6 
#
# 1 0.013242 -0.001260 -0.001587 0.000000 0.000000 0.000000
# 2 -0.001260 0.008709 -0.008066 0.000000 0.000000 0.000000
# 3 -0.001587 -0.008066 0.015564 0.000000 0.000000 0.000000
# 4 0.000000 0.000000 0.000000 -0.078833 0.000000 0.000000
# 5 0.000000 0.000000 0.000000 0.000000 -0.118555 0.000000
# 6 0.000000 0.000000 0.000000 0.000000 0.000000 0.003704
#
#
# Mechanical properties :
#
#
# Convention : Reuss Voigt Hill
#
# Bulk Modulus (GPa) = 63.74852 93.41443 78.58148
# Shear Modulus (GPa) = -38.72617 67.14270 14.20826
#
# Velocity S-wave (km/s) = -4.40721 5.80311 2.66951
# Velocity P-wave (km/s) = 2.46489 9.57885 6.99393
#
# Compressibility (1/GPa) = 0.01568664
#
# Stress axis : x y z
#
# Youngs Moduli (GPa) = 75.51695 114.83030 64.24904
#
# Poissons Ratio (x) = 0.14474 0.10199
# Poissons Ratio (y) = 0.09518 0.51825
# Poissons Ratio (z) = 0.11988 0.92626
#
# Static dielectric constant tensor:
#      x y z
#    x 1.829240 0.000000 0.000000 
#    y 0.000000 1.664180 0.000000 
#    z 0.000000 0.000000 1.663120 
# 
# From -- ./inp_files/1424.got.cif
#   From: 2010.05.17/outbox.cif.g08.bks.cpg/sg47_1_cif.got.tgz:1424.got - 2010.06.03 20:15:42.
