data_PCOD9388308
_publ_section_title
;
Structure prediction by ZEFSAII (Michael W. Deem and Ramdas Pophale) SiO2 
 PCOD9388308
Probable space group: P M M M
;
_chemical_formula_sum "Si O2"
_cell_formula_units_Z 48
_cell_length_a 19.373357
_cell_length_b 8.059981
_cell_length_c 14.642054
_cell_angle_alpha 90.000000
_cell_angle_beta 90.000000
_cell_angle_gamma 90.000000
_cell_volume 2286.340470
_symmetry_space_group_name_H-M "P M M M"
_symmetry_group_IT_number 47
_symmetry_cell_setting 'orthorhombic'
loop_
_space_group_symop_operation_xyz
x,y,z
-x,-y,z
x,-y,-z
-x,y,-z
-x,-y,-z
x,y,-z
-x,y,z
x,-y,z
loop_
_atom_site_type_symbol
_atom_site_label
_atom_site_fract_x
_atom_site_fract_y
_atom_site_fract_z
Si Si1 0.922607 0.797305 0.893271
Si Si2 0.710081 0.303923 0.600611
Si Si3 0.420792 0.799067 0.702427
Si Si4 0.819553 0.184526 0.253055
Si Si5 0.917824 0.308437 0.395526
Si Si6 0.583757 0.804068 0.901973
O O1 0.857919 0.734221 0.833873
O O2 0.000000 0.743364 0.862391
O O3 0.922183 0.000000 0.886479
O O4 0.916011 0.755543 0.000000
O O5 0.729122 0.233803 0.500000
O O6 0.715601 0.500000 0.594352
O O7 0.632216 0.255649 0.625906
O O8 0.757536 0.253745 0.686211
O O9 0.500000 0.745543 0.687847
O O10 0.395708 0.736731 0.802881
O O11 0.421155 0.000000 0.706412
O O12 0.881783 0.187619 0.326015
O O13 0.798256 0.000000 0.225432
O O14 0.897490 0.276349 0.500000
O O15 0.897828 0.500000 0.374364
O O16 0.000000 0.298009 0.390299
O O17 0.500000 0.795949 0.901310
O O18 0.601682 0.000000 0.903071
O O19 0.607122 0.732384 0.000000
#
# Coordination Sequence:
#
# PCOD9388308 Si02
#       6
#     8   8   8   8   8   8
#     4   8  15  30  53  82 115 146 175 212 261 315
#     4  11  25  42  56  71  99 143 186 221 270 338
#     4   9  18  34  58  86 110 133 170 224 279 325
#     4  11  21  33  54  81 105 133 175 225 269 306
#     4   9  18  32  49  71 103 142 176 205 248 309
#     4   7  10  20  43  76 109 134 155 186 236 300
#
# _framework density 20.994247999999999
#
# number of rings (size 3 to 8) (size 9 to 14) (size 15 to 20)
#    0.000    2.833    0.000    4.500    0.000    5.333 
#    0.000    3.333    0.000    7.500    0.000    8.167 
#    0.000    0.000    0.000    0.000    0.000    0.000 
#
# Total GULP energy -267352.785338 kJ/mol
# GULP energy per Si atom -5569.849695 kJ/mol
# Density = 2.094646 g / cm^3
# Si number density = 20.994248 Si / 1000 Ang^3
#
#
#
# Elastic Constant Matrix: (Units=GPa)
#
#
# Indices 1 2 3 4 5 6 
#
# 1 93.0331 8.8603 58.3563 0.0000 0.0000 0.0000
# 2 8.8603 11.4003 9.3382 0.0000 0.0000 0.0000
# 3 58.3563 9.3382 92.2123 0.0000 0.0000 0.0000
# 4 0.0000 0.0000 0.0000 46.0974 0.0000 0.0000
# 5 0.0000 0.0000 0.0000 0.0000 46.7298 0.0000
# 6 0.0000 0.0000 0.0000 0.0000 0.0000 32.7092
#
#
#
# Elastic Compliance Matrix: (Units=1/GPa)
#
#
# Indices 1 2 3 4 5 6 
#
# 1 0.018093 -0.005107 -0.010933 0.000000 0.000000 0.000000
# 2 -0.005107 0.097093 -0.006601 0.000000 0.000000 0.000000
# 3 -0.010933 -0.006601 0.018432 0.000000 0.000000 0.000000
# 4 0.000000 0.000000 0.000000 0.021693 0.000000 0.000000
# 5 0.000000 0.000000 0.000000 0.000000 0.021400 0.000000
# 6 0.000000 0.000000 0.000000 0.000000 0.000000 0.030572
#
#
# Mechanical properties :
#
#
# Convention : Reuss Voigt Hill
#
# Bulk Modulus (GPa) = 11.32028 38.86173 25.09100
# Shear Modulus (GPa) = 17.72989 33.11332 25.42161
#
# Velocity S-wave (km/s) = 2.90920 3.97578 3.48355
# Velocity P-wave (km/s) = 4.08514 6.29497 5.30636
#
# Compressibility (1/GPa) = 0.08833703
#
# Stress axis : x y z
#
# Youngs Moduli (GPa) = 55.26966 10.29943 54.25359
#
# Poissons Ratio (x) = 0.05259 0.59316
# Poissons Ratio (y) = 0.28223 0.35812
# Poissons Ratio (z) = 0.60427 0.06798
#
# Static dielectric constant tensor:
#      x y z
#    x 1.763930 0.000000 0.000000 
#    y 0.000000 1.788620 0.000000 
#    z 0.000000 0.000000 1.807410 
# 
# From -- ./inp_files/24427.got.cif
#   From: 2010.05.17/outbox.cif.g08.bks.cpg/sg47_13_cif.got.tgz:24427.got - 2010.06.03 20:15:42.
