data_PCOD9388947
_publ_section_title
;
Structure prediction by ZEFSAII (Michael W. Deem and Ramdas Pophale) SiO2 
 PCOD9388947
Probable space group: P M M M
;
_chemical_formula_sum "Si O2"
_cell_formula_units_Z 36
_cell_length_a 7.627440
_cell_length_b 27.197524
_cell_length_c 7.402571
_cell_angle_alpha 90.000000
_cell_angle_beta 90.000000
_cell_angle_gamma 90.000000
_cell_volume 1535.644718
_symmetry_space_group_name_H-M "P M M M"
_symmetry_group_IT_number 47
_symmetry_cell_setting 'orthorhombic'
loop_
_space_group_symop_operation_xyz
x,y,z
-x,-y,z
x,-y,-z
-x,y,-z
-x,-y,-z
x,y,-z
-x,y,z
x,-y,z
loop_
_atom_site_type_symbol
_atom_site_label
_atom_site_fract_x
_atom_site_fract_y
_atom_site_fract_z
Si Si1 0.800730 0.628633 0.714402
Si Si2 0.789940 0.158886 0.207071
Si Si3 0.797934 0.263226 0.782644
Si Si4 0.500000 0.443451 0.721529
Si Si5 0.289402 0.052827 0.210788
O O1 0.814084 0.621699 0.500000
O O2 0.722339 0.683418 0.741066
O O3 0.670647 0.586858 0.782568
O O4 0.000000 0.626956 0.788488
O O5 0.723025 0.210939 0.283691
O O6 0.758325 0.105590 0.292022
O O7 0.000000 0.164575 0.199549
O O8 0.722096 0.155300 0.000000
O O9 0.000000 0.266477 0.717431
O O10 0.800438 0.258924 0.000000
O O11 0.500000 0.500000 0.777596
O O12 0.500000 0.442914 0.500000
O O13 0.500000 0.051532 0.211766
O O14 0.228403 0.000000 0.286316
O O15 0.230335 0.053560 0.000000
#
# Coordination Sequence:
#
# PCOD9388947 Si02
#       5
#     8   8   8   4   8
#     4   9  17  30  49  70  91 118 149 179 215 258
#     4   8  13  21  33  49  70  98 132 168 206 249
#     4   8  14  26  43  62  87 116 143 176 218 260
#     4   9  18  32  49  71  97 119 144 183 220 250
#     4   8  13  20  28  40  64  97 129 164 206 248
#
# _framework density 23.442924999999999
#
# number of rings (size 3 to 8) (size 9 to 14) (size 15 to 20)
#    0.000    3.667    0.000    2.000    0.000    0.889 
#    2.000    5.000    0.000    1.333    0.000    3.111 
#    0.000    0.889    0.000   11.111    0.000   12.889 
#
# Total GULP energy -200537.969888 kJ/mol
# GULP energy per Si atom -5570.499164 kJ/mol
# Density = 2.338957 g / cm^3
# Si number density = 23.442925 Si / 1000 Ang^3
#
#
#
# Elastic Constant Matrix: (Units=GPa)
#
#
# Indices 1 2 3 4 5 6 
#
# 1 75.8268 72.5106 3.7394 0.0000 0.0000 0.0000
# 2 72.5106 312.3976 8.9786 0.0000 0.0000 0.0000
# 3 3.7394 8.9786 78.9309 0.0000 0.0000 0.0000
# 4 0.0000 0.0000 0.0000 18.3890 0.0000 0.0000
# 5 0.0000 0.0000 0.0000 0.0000 8.3167 0.0000
# 6 0.0000 0.0000 0.0000 0.0000 0.0000 39.1103
#
#
#
# Elastic Compliance Matrix: (Units=1/GPa)
#
#
# Indices 1 2 3 4 5 6 
#
# 1 0.016960 -0.003926 -0.000357 0.000000 0.000000 0.000000
# 2 -0.003926 0.004121 -0.000283 0.000000 0.000000 0.000000
# 3 -0.000357 -0.000283 0.012718 0.000000 0.000000 0.000000
# 4 0.000000 0.000000 0.000000 0.054380 0.000000 0.000000
# 5 0.000000 0.000000 0.000000 0.000000 0.120241 0.000000
# 6 0.000000 0.000000 0.000000 0.000000 0.000000 0.025569
#
#
# Mechanical properties :
#
#
# Convention : Reuss Voigt Hill
#
# Bulk Modulus (GPa) = 40.53966 70.84582 55.69274
# Shear Modulus (GPa) = 19.89313 38.62498 29.25905
#
# Velocity S-wave (km/s) = 2.91620 4.06349 3.53667
# Velocity P-wave (km/s) = 5.35438 7.23202 6.36284
#
# Compressibility (1/GPa) = 0.02466720
#
# Stress axis : x y z
#
# Youngs Moduli (GPa) = 58.96158 242.68761 78.62644
#
# Poissons Ratio (x) = 0.95288 0.02806
# Poissons Ratio (y) = 0.23151 0.02223
# Poissons Ratio (z) = 0.02104 0.06861
#
# Static dielectric constant tensor:
#      x y z
#    x 1.878680 0.000000 0.000000 
#    y 0.000000 1.938130 0.000000 
#    z 0.000000 0.000000 1.965570 
# 
# From -- ./inp_files/1453.got.cif
#   From: 2010.05.17/outbox.cif.g08.bks.cpg/sg47_1_cif.got.tgz:1453.got - 2010.06.03 20:15:42.
