data_PCOD9388751
_publ_section_title
;
Structure prediction by ZEFSAII (Michael W. Deem and Ramdas Pophale) SiO2 
 PCOD9388751
Probable space group: P M M M
;
_chemical_formula_sum "Si O2"
_cell_formula_units_Z 52
_cell_length_a 9.930762
_cell_length_b 7.338060
_cell_length_c 35.108895
_cell_angle_alpha 90.000000
_cell_angle_beta 90.000000
_cell_angle_gamma 90.000000
_cell_volume 2558.473913
_symmetry_space_group_name_H-M "P M M M"
_symmetry_group_IT_number 47
_symmetry_cell_setting 'orthorhombic'
loop_
_space_group_symop_operation_xyz
x,y,z
-x,-y,z
x,-y,-z
-x,y,-z
-x,-y,-z
x,y,-z
-x,y,z
x,-y,z
loop_
_atom_site_type_symbol
_atom_site_label
_atom_site_fract_x
_atom_site_fract_y
_atom_site_fract_z
Si Si1 0.163638 0.212543 0.305400
Si Si2 0.347213 0.218150 0.845353
Si Si3 0.346784 0.283623 0.067663
Si Si4 0.155969 0.223047 0.388589
Si Si5 0.655253 0.221869 0.457279
Si Si6 0.155058 0.723110 0.000000
Si Si7 0.844206 0.223216 0.222211
O O1 0.204329 0.286285 0.346696
O O2 0.204558 0.285991 0.264104
O O3 0.000000 0.219782 0.305374
O O4 0.202908 0.000000 0.305429
O O5 0.500000 0.287547 0.841123
O O6 0.303849 0.255257 0.888668
O O7 0.247951 0.284742 0.812571
O O8 0.352269 0.000000 0.841460
O O9 0.500000 0.211159 0.063116
O O10 0.355867 0.500000 0.061606
O O11 0.239636 0.216434 0.036973
O O12 0.248235 0.282866 0.423444
O O13 0.000000 0.275852 0.393765
O O14 0.157577 0.000000 0.387741
O O15 0.696389 0.278099 0.500000
O O16 0.500000 0.276151 0.451338
O O17 0.657372 0.000000 0.457006
O O18 0.152359 0.500000 0.000000
O O19 0.000000 0.782269 0.000000
O O20 0.000000 0.276559 0.217103
O O21 0.843194 0.000000 0.223031
#
# Coordination Sequence:
#
# PCOD9388751 Si02
#       7
#     8   8   8   8   8   4   8
#     4   7  10  17  28  41  56  74  98 128 161 199
#     4   9  17  28  41  59  82 103 125 157 191 218
#     4   9  17  30  47  63  80 106 135 156 181 224
#     4   8  12  17  25  35  45  59  84 119 154 189
#     4   8  13  19  23  27  39  59  81 109 151 201
#     4   9  17  29  46  67  86 102 126 163 196 216
#     4   8  13  22  36  51  68  93 120 142 172 219
#
# _framework density 20.324618000000001
#
# number of rings (size 3 to 8) (size 9 to 14) (size 15 to 20)
#    0.000    3.769    0.000    2.538    0.000    1.846 
#    0.000    2.692    0.000    6.923    0.000    0.000 
#    0.000    0.000    0.000    0.000    0.000    0.000 
#
# Total GULP energy -289760.932896 kJ/mol
# GULP energy per Si atom -5572.325633 kJ/mol
# Density = 2.027836 g / cm^3
# Si number density = 20.324618 Si / 1000 Ang^3
#
#
#
# Elastic Constant Matrix: (Units=GPa)
#
#
# Indices 1 2 3 4 5 6 
#
# 1 97.5273 5.1141 135.6918 0.0000 0.0000 0.0000
# 2 5.1141 76.8722 5.5000 0.0000 0.0000 0.0000
# 3 135.6918 5.5000 259.6720 0.0000 0.0000 0.0000
# 4 0.0000 0.0000 0.0000 13.3766 0.0000 0.0000
# 5 0.0000 0.0000 0.0000 0.0000 105.1221 0.0000
# 6 0.0000 0.0000 0.0000 0.0000 0.0000 -9.9357
#
#
#
# Elastic Compliance Matrix: (Units=1/GPa)
#
#
# Indices 1 2 3 4 5 6 
#
# 1 0.037656 -0.001099 -0.019654 0.000000 0.000000 0.000000
# 2 -0.001099 0.013060 0.000298 0.000000 0.000000 0.000000
# 3 -0.019654 0.000298 0.014115 0.000000 0.000000 0.000000
# 4 0.000000 0.000000 0.000000 0.074757 0.000000 0.000000
# 5 0.000000 0.000000 0.000000 0.000000 0.009513 0.000000
# 6 0.000000 0.000000 0.000000 0.000000 0.000000 -0.100647
#
#
# Mechanical properties :
#
#
# Convention : Reuss Voigt Hill
#
# Bulk Modulus (GPa) = 41.80447 80.74259 61.27353
# Shear Modulus (GPa) = 51.36698 40.89698 46.13198
#
# Velocity S-wave (km/s) = 5.03271 4.49061 4.76937
# Velocity P-wave (km/s) = 7.37454 8.16702 7.78088
#
# Compressibility (1/GPa) = 0.02392089
#
# Stress axis : x y z
#
# Youngs Moduli (GPa) = 26.55608 76.56720 70.84706
#
# Poissons Ratio (x) = 0.08414 1.39243
# Poissons Ratio (y) = 0.02918 -0.02109
# Poissons Ratio (z) = 0.52193 -0.02279
#
# Static dielectric constant tensor:
#      x y z
#    x 1.676790 0.000000 0.000000 
#    y 0.000000 1.840000 0.000000 
#    z 0.000000 0.000000 1.727150 
# 
# From -- ./inp_files/34304.got.cif
#   From: 2010.05.17/outbox.cif.g08.bks.cpg/sg47_18_cif.got.tgz:34304.got - 2010.06.03 20:15:42.
