data_PCOD9388471
_publ_section_title
;
Structure prediction by ZEFSAII (Michael W. Deem and Ramdas Pophale) SiO2 
 PCOD9388471
Probable space group: P M M M
;
_chemical_formula_sum "Si O2"
_cell_formula_units_Z 38
_cell_length_a 12.097908
_cell_length_b 19.784386
_cell_length_c 7.367734
_cell_angle_alpha 90.000000
_cell_angle_beta 90.000000
_cell_angle_gamma 90.000000
_cell_volume 1763.464787
_symmetry_space_group_name_H-M "P M M M"
_symmetry_group_IT_number 47
_symmetry_cell_setting 'orthorhombic'
loop_
_space_group_symop_operation_xyz
x,y,z
-x,-y,z
x,-y,-z
-x,y,-z
-x,-y,-z
x,y,-z
-x,y,z
x,-y,z
loop_
_atom_site_type_symbol
_atom_site_label
_atom_site_fract_x
_atom_site_fract_y
_atom_site_fract_z
Si Si1 0.123850 0.578061 0.720617
Si Si2 0.300450 0.687901 0.292453
Si Si3 0.000000 0.921972 0.222018
Si Si4 0.628397 0.925901 0.281059
Si Si5 0.808631 0.822910 0.796159
Si Si6 0.500000 0.704144 0.000000
O O1 0.123334 0.579589 0.500000
O O2 0.139560 0.500000 0.775080
O O3 0.224002 0.626119 0.775511
O O4 0.000000 0.599539 0.778642
O O5 0.337466 0.674681 0.500000
O O6 0.219282 0.752981 0.297507
O O7 0.401915 0.702169 0.158932
O O8 0.895351 0.877095 0.280680
O O9 0.000000 0.000000 0.283581
O O10 0.000000 0.925041 0.000000
O O11 0.634798 0.922080 0.500000
O O12 0.500000 0.922394 0.231605
O O13 0.695498 0.865042 0.200375
O O14 0.671802 0.000000 0.225886
O O15 0.845550 0.806585 0.000000
#
# Coordination Sequence:
#
# PCOD9388471 Si02
#       6
#     8   8   4   8   8   2
#     4   8  16  36  68 103 137 174 218 269 327 390
#     4  11  24  42  67  97 133 173 221 274 327 387
#     4   9  20  38  59  85 124 172 214 258 325 402
#     4   9  19  35  54  78 109 149 201 258 313 370
#     4  11  22  37  58  87 121 163 210 265 319 388
#     4  12  26  48  63  94 131 182 224 270 326 392
#
# _framework density 21.548489
#
# number of rings (size 3 to 8) (size 9 to 14) (size 15 to 20)
#    0.000    2.211    1.053    2.842    2.947    1.684 
#    0.000    4.737    0.000    7.579    0.000    0.000 
#    0.000    0.000    0.000    0.000    0.000    0.000 
#
# Total GULP energy -211661.759152 kJ/mol
# GULP energy per Si atom -5570.046293 kJ/mol
# Density = 2.149944 g / cm^3
# Si number density = 21.548489 Si / 1000 Ang^3
#
#
#
# Elastic Constant Matrix: (Units=GPa)
#
#
# Indices 1 2 3 4 5 6 
#
# 1 100.7772 59.3650 28.2250 0.0000 0.0000 0.0000
# 2 59.3650 99.9706 13.9285 0.0000 0.0000 0.0000
# 3 28.2250 13.9285 109.7944 0.0000 0.0000 0.0000
# 4 0.0000 0.0000 0.0000 20.8317 0.0000 0.0000
# 5 0.0000 0.0000 0.0000 0.0000 35.9352 0.0000
# 6 0.0000 0.0000 0.0000 0.0000 0.0000 -35.3121
#
#
#
# Elastic Compliance Matrix: (Units=1/GPa)
#
#
# Indices 1 2 3 4 5 6 
#
# 1 0.016173 -0.009187 -0.002992 0.000000 0.000000 0.000000
# 2 -0.009187 0.015401 0.000408 0.000000 0.000000 0.000000
# 3 -0.002992 0.000408 0.009825 0.000000 0.000000 0.000000
# 4 0.000000 0.000000 0.000000 0.048004 0.000000 0.000000
# 5 0.000000 0.000000 0.000000 0.000000 0.027828 0.000000
# 6 0.000000 0.000000 0.000000 0.000000 0.000000 -0.028319
#
#
# Mechanical properties :
#
#
# Convention : Reuss Voigt Hill
#
# Bulk Modulus (GPa) = 55.99937 57.06434 56.53186
# Shear Modulus (GPa) = 42.22738 18.22586 30.22662
#
# Velocity S-wave (km/s) = 4.43159 2.91143 3.74936
# Velocity P-wave (km/s) = 7.22699 6.15152 6.71083
#
# Compressibility (1/GPa) = 0.01785734
#
# Stress axis : x y z
#
# Youngs Moduli (GPa) = 61.83320 64.92891 101.77733
#
# Poissons Ratio (x) = 0.59649 0.30452
# Poissons Ratio (y) = 0.56805 -0.04151
# Poissons Ratio (z) = 0.18501 -0.02648
#
# Static dielectric constant tensor:
#      x y z
#    x 1.782130 0.000000 0.000000 
#    y 0.000000 1.780500 0.000000 
#    z 0.000000 0.000000 1.847180 
# 
# From -- ./inp_files/3754.got.cif
#   From: 2010.05.17/outbox.cif.g08.bks.cpg/sg47_2_cif.got.tgz:3754.got - 2010.06.03 20:15:42.
