data_PCOD9388860
_publ_section_title
;
Structure prediction by ZEFSAII (Michael W. Deem and Ramdas Pophale) SiO2 
 PCOD9388860
Probable space group: P M M M
;
_chemical_formula_sum "Si O2"
_cell_formula_units_Z 48
_cell_length_a 9.419930
_cell_length_b 7.349854
_cell_length_c 32.985453
_cell_angle_alpha 90.000000
_cell_angle_beta 90.000000
_cell_angle_gamma 90.000000
_cell_volume 2283.751473
_symmetry_space_group_name_H-M "P M M M"
_symmetry_group_IT_number 47
_symmetry_cell_setting 'orthorhombic'
loop_
_space_group_symop_operation_xyz
x,y,z
-x,-y,z
x,-y,-z
-x,y,-z
-x,-y,-z
x,y,-z
-x,y,z
x,-y,z
loop_
_atom_site_type_symbol
_atom_site_label
_atom_site_fract_x
_atom_site_fract_y
_atom_site_fract_z
Si Si1 0.161906 0.284429 0.219690
Si Si2 0.163810 0.781754 0.869313
Si Si3 0.829310 0.219037 0.043680
Si Si4 0.162908 0.277883 0.623640
Si Si5 0.663017 0.722465 0.702955
Si Si6 0.664085 0.278510 0.454621
O O1 0.150228 0.500000 0.225839
O O2 0.226117 0.260163 0.174678
O O3 0.256965 0.215145 0.256429
O O4 0.000000 0.210554 0.220342
O O5 0.225889 0.716528 0.912441
O O6 0.000000 0.715631 0.867419
O O7 0.159168 0.000000 0.871976
O O8 0.000000 0.251167 0.044357
O O9 0.811071 0.000000 0.042866
O O10 0.775826 0.287945 0.000000
O O11 0.163625 0.500000 0.623449
O O12 0.251993 0.221329 0.662903
O O13 0.237318 0.218068 0.582065
O O14 0.000000 0.220237 0.626266
O O15 0.500000 0.780512 0.701836
O O16 0.662607 0.500000 0.703167
O O17 0.707210 0.221438 0.500000
O O18 0.500000 0.225049 0.448121
O O19 0.665993 0.500000 0.454467
#
# Coordination Sequence:
#
# PCOD9388860 Si02
#       6
#     8   8   8   8   8   8
#     4   9  16  25  37  53  73  95 120 153 190 223
#     4   8  13  21  34  52  73  98 126 152 181 221
#     4   7   9  14  26  45  68  93 121 150 176 207
#     4   9  15  21  30  44  61  81 109 148 189 224
#     4   9  16  25  36  48  63  86 117 150 183 222
#     4   8  13  20  28  38  55  81 112 145 182 224
#
# _framework density 21.018048
#
# number of rings (size 3 to 8) (size 9 to 14) (size 15 to 20)
#    0.000    3.667    0.000    3.000    0.000    4.333 
#    0.000    1.667    0.000    1.000    0.000    3.500 
#    0.000    0.667    0.000    8.333    0.000    8.500 
#
# Total GULP energy -267436.984640 kJ/mol
# GULP energy per Si atom -5571.603847 kJ/mol
# Density = 2.097021 g / cm^3
# Si number density = 21.018048 Si / 1000 Ang^3
#
#
#
# Elastic Constant Matrix: (Units=GPa)
#
#
# Indices 1 2 3 4 5 6 
#
# 1 96.5227 4.8385 114.8818 0.0000 0.0000 0.0000
# 2 4.8385 77.0662 5.1924 0.0000 0.0000 0.0000
# 3 114.8818 5.1924 276.9636 0.0000 0.0000 0.0000
# 4 0.0000 0.0000 0.0000 7.5602 0.0000 0.0000
# 5 0.0000 0.0000 0.0000 0.0000 -14.6974 0.0000
# 6 0.0000 0.0000 0.0000 0.0000 0.0000 -7.5942
#
#
#
# Elastic Compliance Matrix: (Units=1/GPa)
#
#
# Indices 1 2 3 4 5 6 
#
# 1 0.020501 -0.000715 -0.008490 0.000000 0.000000 0.000000
# 2 -0.000715 0.013017 0.000053 0.000000 0.000000 0.000000
# 3 -0.008490 0.000053 0.007131 0.000000 0.000000 0.000000
# 4 0.000000 0.000000 0.000000 0.132271 0.000000 0.000000
# 5 0.000000 0.000000 0.000000 0.000000 -0.068039 0.000000
# 6 0.000000 0.000000 0.000000 0.000000 0.000000 -0.131680
#
#
# Mechanical properties :
#
#
# Convention : Reuss Voigt Hill
#
# Bulk Modulus (GPa) = 44.75452 77.81976 61.28714
# Shear Modulus (GPa) = -4788.91141 18.76304 -2385.07418
#
# Velocity S-wave (km/s) = -47.78517 2.99107 -33.72296
# Velocity P-wave (km/s) = 54.98385 7.00245 38.56286
#
# Compressibility (1/GPa) = 0.02234411
#
# Stress axis : x y z
#
# Youngs Moduli (GPa) = 48.77719 76.82141 140.22653
#
# Poissons Ratio (x) = 0.05494 1.19057
# Poissons Ratio (y) = 0.03488 -0.00737
# Poissons Ratio (z) = 0.41414 -0.00404
#
# Static dielectric constant tensor:
#      x y z
#    x 1.695970 0.000000 0.000000 
#    y 0.000000 1.879780 0.000000 
#    z 0.000000 0.000000 1.791420 
# 
# From -- ./inp_files/14064.got.cif
#   From: 2010.05.17/outbox.cif.g08.bks.cpg/sg47_8_cif.got.tgz:14064.got - 2010.06.03 20:15:42.
