data_PCOD9388246
_publ_section_title
;
Structure prediction by ZEFSAII (Michael W. Deem and Ramdas Pophale) SiO2 
 PCOD9388246
Probable space group: P M M M
;
_chemical_formula_sum "Si O2"
_cell_formula_units_Z 44
_cell_length_a 19.365205
_cell_length_b 7.740758
_cell_length_c 14.521978
_cell_angle_alpha 90.000000
_cell_angle_beta 90.000000
_cell_angle_gamma 90.000000
_cell_volume 2176.864332
_symmetry_space_group_name_H-M "P M M M"
_symmetry_group_IT_number 47
_symmetry_cell_setting 'orthorhombic'
loop_
_space_group_symop_operation_xyz
x,y,z
-x,-y,z
x,-y,-z
-x,y,-z
-x,-y,-z
x,y,-z
-x,y,z
x,-y,z
loop_
_atom_site_type_symbol
_atom_site_label
_atom_site_fract_x
_atom_site_fract_y
_atom_site_fract_z
Si Si1 0.776392 0.212408 0.105056
Si Si2 0.850027 0.291604 0.393518
Si Si3 0.926956 0.795289 0.888074
Si Si4 0.000000 0.295693 0.612551
Si Si5 0.575977 0.293336 0.604207
Si Si6 0.288833 0.795825 0.283350
O O1 0.852305 0.273425 0.139092
O O2 0.721593 0.272519 0.179839
O O3 0.778679 0.000000 0.103493
O O4 0.764948 0.267219 0.000000
O O5 0.843049 0.234145 0.500000
O O6 0.854504 0.500000 0.394571
O O7 0.781064 0.245201 0.339289
O O8 0.924919 0.225470 0.356915
O O9 0.000000 0.720024 0.854497
O O10 0.927738 0.000000 0.867403
O O11 0.926964 0.781841 0.000000
O O12 0.000000 0.500000 0.633727
O O13 0.000000 0.281518 0.500000
O O14 0.587529 0.227147 0.500000
O O15 0.500000 0.230538 0.635687
O O16 0.571706 0.500000 0.598334
O O17 0.641617 0.258199 0.666668
O O18 0.292092 0.000000 0.276270
#
# Coordination Sequence:
#
# PCOD9388246 Si02
#       6
#     8   8   8   4   8   8
#     4   8  15  28  42  59  91 133 170 201 237 286
#     4   9  17  31  50  68  91 129 172 207 240 287
#     4   7   9  16  33  53  73 107 157 203 236 268
#     4   7  12  26  47  65  82 119 176 216 233 269
#     4   9  19  37  59  79  99 127 161 193 231 288
#     4  11  21  30  46  77 107 129 157 198 250 298
#
# _framework density 20.212558999999999
#
# number of rings (size 3 to 8) (size 9 to 14) (size 15 to 20)
#    0.000    3.364    0.000    4.364    0.000    3.273 
#    1.636    1.364    0.000    4.364    0.000    3.818 
#    0.000    2.182    0.000    0.000    0.000    0.000 
#
# Total GULP energy -245187.167937 kJ/mol
# GULP energy per Si atom -5572.435635 kJ/mol
# Density = 2.016655 g / cm^3
# Si number density = 20.212559 Si / 1000 Ang^3
#
#
#
# Elastic Constant Matrix: (Units=GPa)
#
#
# Indices 1 2 3 4 5 6 
#
# 1 205.0767 12.9132 103.7520 0.0000 0.0000 0.0000
# 2 12.9132 30.4295 6.5964 0.0000 0.0000 0.0000
# 3 103.7520 6.5964 96.1923 0.0000 0.0000 0.0000
# 4 0.0000 0.0000 0.0000 16.1396 0.0000 0.0000
# 5 0.0000 0.0000 0.0000 0.0000 48.7685 0.0000
# 6 0.0000 0.0000 0.0000 0.0000 0.0000 -29.0691
#
#
#
# Elastic Compliance Matrix: (Units=1/GPa)
#
#
# Indices 1 2 3 4 5 6 
#
# 1 0.010864 -0.002101 -0.011573 0.000000 0.000000 0.000000
# 2 -0.002101 0.033765 -0.000049 0.000000 0.000000 0.000000
# 3 -0.011573 -0.000049 0.022882 0.000000 0.000000 0.000000
# 4 0.000000 0.000000 0.000000 0.061959 0.000000 0.000000
# 5 0.000000 0.000000 0.000000 0.000000 0.020505 0.000000
# 6 0.000000 0.000000 0.000000 0.000000 0.000000 -0.034401
#
#
# Mechanical properties :
#
#
# Convention : Reuss Voigt Hill
#
# Bulk Modulus (GPa) = 24.96032 64.24686 44.60359
# Shear Modulus (GPa) = 31.97407 21.06361 26.51884
#
# Velocity S-wave (km/s) = 3.98161 3.23167 3.62608
# Velocity P-wave (km/s) = 5.78908 6.76606 6.29654
#
# Compressibility (1/GPa) = 0.04006358
#
# Stress axis : x y z
#
# Youngs Moduli (GPa) = 92.04930 29.61634 43.70215
#
# Poissons Ratio (x) = 0.06223 0.50578
# Poissons Ratio (y) = 0.19343 0.00214
# Poissons Ratio (z) = 1.06533 0.00145
#
# Static dielectric constant tensor:
#      x y z
#    x 1.810480 0.000000 0.000000 
#    y 0.000000 1.756860 0.000000 
#    z 0.000000 0.000000 1.758410 
# 
# From -- ./inp_files/24287.got.cif
#   From: 2010.05.17/outbox.cif.g08.bks.cpg/sg47_13_cif.got.tgz:24287.got - 2010.06.03 20:15:42.
