data_PCOD9388686
_publ_section_title
;
Structure prediction by ZEFSAII (Michael W. Deem and Ramdas Pophale) SiO2 
 PCOD9388686
Probable space group: P M M M
;
_chemical_formula_sum "Si O2"
_cell_formula_units_Z 24
_cell_length_a 17.533729
_cell_length_b 7.301500
_cell_length_c 9.707217
_cell_angle_alpha 90.000000
_cell_angle_beta 90.000000
_cell_angle_gamma 90.000000
_cell_volume 1242.742405
_symmetry_space_group_name_H-M "P M M M"
_symmetry_group_IT_number 47
_symmetry_cell_setting 'orthorhombic'
loop_
_space_group_symop_operation_xyz
x,y,z
-x,-y,z
x,-y,-z
-x,y,-z
-x,-y,-z
x,y,-z
-x,y,z
x,-y,z
loop_
_atom_site_type_symbol
_atom_site_label
_atom_site_fract_x
_atom_site_fract_y
_atom_site_fract_z
Si Si1 0.000000 0.223747 0.657821
Si Si2 0.684643 0.781103 0.162012
Si Si3 0.859314 0.222578 0.843242
Si Si4 0.591026 0.500000 0.662627
O O1 0.924354 0.282916 0.738903
O O2 0.000000 0.281871 0.500000
O O3 0.000000 0.000000 0.659050
O O4 0.772529 0.725900 0.191280
O O5 0.628193 0.673385 0.260619
O O6 0.678398 0.000000 0.179176
O O7 0.670467 0.740589 0.000000
O O8 0.860006 0.000000 0.843894
O O9 0.876130 0.280267 0.000000
O O10 0.500000 0.500000 0.678585
O O11 0.608743 0.500000 0.500000
#
# Coordination Sequence:
#
# PCOD9388686 Si02
#       4
#     4   8   8   4
#     4   9  15  21  35  66 105 142 180 217 255 308
#     4   9  19  37  61  86 110 142 187 234 277 323
#     4   8  14  26  45  70 101 137 177 221 268 314
#     4  11  25  41  57  82 115 148 179 217 276 345
#
# _framework density 19.312125999999999
#
# number of rings (size 3 to 8) (size 9 to 14) (size 15 to 20)
#    0.000    3.000    0.000    3.000    0.000    6.000 
#    0.000    6.667    0.000    1.000    0.000    7.000 
#    0.000    0.000    0.000    0.000    0.000    0.000 
#
# Total GULP energy -133995.544917 kJ/mol
# GULP energy per Si atom -5583.147705 kJ/mol
# Density = 1.926817 g / cm^3
# Si number density = 19.312126 Si / 1000 Ang^3
#
#
#
# Elastic Constant Matrix: (Units=GPa)
#
#
# Indices 1 2 3 4 5 6 
#
# 1 149.4361 46.2057 134.9366 0.0000 0.0000 0.0000
# 2 46.2057 92.9988 52.0267 0.0000 0.0000 0.0000
# 3 134.9366 52.0267 162.2206 0.0000 0.0000 0.0000
# 4 0.0000 0.0000 0.0000 11.6336 0.0000 0.0000
# 5 0.0000 0.0000 0.0000 0.0000 177.2163 0.0000
# 6 0.0000 0.0000 0.0000 0.0000 0.0000 41.4851
#
#
#
# Elastic Compliance Matrix: (Units=1/GPa)
#
#
# Indices 1 2 3 4 5 6 
#
# 1 0.026967 -0.001035 -0.022100 0.000000 0.000000 0.000000
# 2 -0.001035 0.013144 -0.003354 0.000000 0.000000 0.000000
# 3 -0.022100 -0.003354 0.025623 0.000000 0.000000 0.000000
# 4 0.000000 0.000000 0.000000 0.085958 0.000000 0.000000
# 5 0.000000 0.000000 0.000000 0.000000 0.005643 0.000000
# 6 0.000000 0.000000 0.000000 0.000000 0.000000 0.024105
#
#
# Mechanical properties :
#
#
# Convention : Reuss Voigt Hill
#
# Bulk Modulus (GPa) = 78.39693 96.77704 87.58698
# Shear Modulus (GPa) = 20.94949 57.49943 39.22446
#
# Velocity S-wave (km/s) = 3.29718 5.46245 4.51164
# Velocity P-wave (km/s) = 7.42819 9.48712 8.52007
#
# Compressibility (1/GPa) = 0.01275560
#
# Stress axis : x y z
#
# Youngs Moduli (GPa) = 37.08214 76.08226 39.02770
#
# Poissons Ratio (x) = 0.07876 0.86249
# Poissons Ratio (y) = 0.03839 0.13091
# Poissons Ratio (z) = 0.81950 0.25520
#
# Static dielectric constant tensor:
#      x y z
#    x 1.640450 0.000000 0.000000 
#    y 0.000000 1.745470 0.000000 
#    z 0.000000 0.000000 1.630630 
# 
# From -- ./inp_files/8364.got.cif
#   From: 2010.05.17/outbox.cif.g08.bks.cpg/sg47_5_cif.got.tgz:8364.got - 2010.06.03 20:15:42.
