data_PCOD9388319
_publ_section_title
;
Structure prediction by ZEFSAII (Michael W. Deem and Ramdas Pophale) SiO2 
 PCOD9388319
Probable space group: P M M M
;
_chemical_formula_sum "Si O2"
_cell_formula_units_Z 36
_cell_length_a 21.350440
_cell_length_b 11.926452
_cell_length_c 9.021892
_cell_angle_alpha 90.000000
_cell_angle_beta 90.000000
_cell_angle_gamma 90.000000
_cell_volume 2297.289450
_symmetry_space_group_name_H-M "P M M M"
_symmetry_group_IT_number 47
_symmetry_cell_setting 'orthorhombic'
loop_
_space_group_symop_operation_xyz
x,y,z
-x,-y,z
x,-y,-z
-x,y,-z
-x,-y,-z
x,y,-z
-x,y,z
x,-y,z
loop_
_atom_site_type_symbol
_atom_site_label
_atom_site_fract_x
_atom_site_fract_y
_atom_site_fract_z
Si Si1 0.925104 0.500000 0.678256
Si Si2 0.373821 0.136187 0.329499
Si Si3 0.500000 0.136580 0.170550
Si Si4 0.121272 0.729240 0.821003
Si Si5 0.766606 0.867602 0.320321
Si Si6 0.000000 0.126394 0.820496
O O1 0.918771 0.500000 0.500000
O O2 0.893024 0.390737 0.748869
O O3 0.000000 0.500000 0.712982
O O4 0.378909 0.171585 0.500000
O O5 0.435360 0.175504 0.244406
O O6 0.304314 0.165494 0.274312
O O7 0.374724 0.000000 0.327933
O O8 0.500000 0.000000 0.181275
O O9 0.500000 0.167149 0.000000
O O10 0.182657 0.789686 0.757474
O O11 0.062138 0.807156 0.778160
O O12 0.123999 0.720731 0.000000
O O13 0.770126 0.858440 0.500000
O O14 0.776443 0.000000 0.284443
O O15 0.000000 0.000000 0.762751
O O16 0.000000 0.121615 0.000000
#
# Coordination Sequence:
#
# PCOD9388319 Si02
#       6
#     4   8   4   8   8   4
#     4  11  23  39  57  73  93 120 157 202 249 293
#     4   8  14  25  40  57  84 125 164 194 229 278
#     4   9  15  21  33  57  87 118 157 202 237 271
#     4  11  21  34  53  73  97 125 159 200 243 292
#     4   9  18  32  48  69  99 132 165 200 240 288
#     4   9  18  31  47  70  98 125 152 185 230 285
#
# _framework density 15.670642000000001
#
# number of rings (size 3 to 8) (size 9 to 14) (size 15 to 20)
#    0.000    2.556    1.111    3.333    0.000    4.000 
#    0.000    2.222    0.000    2.667    0.000    0.000 
#    0.000    0.889    0.000    9.333    0.000    7.111 
#
# Total GULP energy -200578.700918 kJ/mol
# GULP energy per Si atom -5571.630581 kJ/mol
# Density = 1.563498 g / cm^3
# Si number density = 15.670642 Si / 1000 Ang^3
#
#
#
# Elastic Constant Matrix: (Units=GPa)
#
#
# Indices 1 2 3 4 5 6 
#
# 1 185.2522 69.5831 73.0902 0.0000 0.0000 0.0000
# 2 69.5831 94.8550 41.0264 0.0000 0.0000 0.0000
# 3 73.0902 41.0264 60.8842 0.0000 0.0000 0.0000
# 4 0.0000 0.0000 0.0000 16.3855 0.0000 0.0000
# 5 0.0000 0.0000 0.0000 0.0000 26.1754 0.0000
# 6 0.0000 0.0000 0.0000 0.0000 0.0000 -1.1452
#
#
#
# Elastic Compliance Matrix: (Units=1/GPa)
#
#
# Indices 1 2 3 4 5 6 
#
# 1 0.010946 -0.003311 -0.010909 0.000000 0.000000 0.000000
# 2 -0.003311 0.015881 -0.006726 0.000000 0.000000 0.000000
# 3 -0.010909 -0.006726 0.034053 0.000000 0.000000 0.000000
# 4 0.000000 0.000000 0.000000 0.061030 0.000000 0.000000
# 5 0.000000 0.000000 0.000000 0.000000 0.038204 0.000000
# 6 0.000000 0.000000 0.000000 0.000000 0.000000 -0.873244
#
#
# Mechanical properties :
#
#
# Convention : Reuss Voigt Hill
#
# Bulk Modulus (GPa) = 52.66779 78.71010 65.68895
# Shear Modulus (GPa) = -7.51981 18.76927 5.62473
#
# Velocity S-wave (km/s) = -2.19296 3.46458 1.89661
# Velocity P-wave (km/s) = 5.22208 8.14501 6.84147
#
# Compressibility (1/GPa) = 0.01898694
#
# Stress axis : x y z
#
# Youngs Moduli (GPa) = 91.35825 62.97023 29.36608
#
# Poissons Ratio (x) = 0.20851 0.32036
# Poissons Ratio (y) = 0.30251 0.19751
# Poissons Ratio (z) = 0.99663 0.42353
#
# Static dielectric constant tensor:
#      x y z
#    x 1.532570 0.000000 0.000000 
#    y 0.000000 1.495980 0.000000 
#    z 0.000000 0.000000 1.522670 
# 
# From -- ./inp_files/10606.got.cif
#   From: 2010.05.17/outbox.cif.g08.bks.cpg/sg47_6_cif.got.tgz:10606.got - 2010.06.03 20:15:42.
