data_PCOD9388088
_publ_section_title
;
Structure prediction by ZEFSAII (Michael W. Deem and Ramdas Pophale) SiO2 
 PCOD9388088
Probable space group: P M M M
;
_chemical_formula_sum "Si O2"
_cell_formula_units_Z 56
_cell_length_a 21.687903
_cell_length_b 8.099162
_cell_length_c 15.031602
_cell_angle_alpha 90.000000
_cell_angle_beta 90.000000
_cell_angle_gamma 90.000000
_cell_volume 2640.358610
_symmetry_space_group_name_H-M "P M M M"
_symmetry_group_IT_number 47
_symmetry_cell_setting 'orthorhombic'
loop_
_space_group_symop_operation_xyz
x,y,z
-x,-y,z
x,-y,-z
-x,y,-z
-x,-y,-z
x,y,-z
-x,y,z
x,-y,z
loop_
_atom_site_type_symbol
_atom_site_label
_atom_site_fract_x
_atom_site_fract_y
_atom_site_fract_z
Si Si1 0.500000 0.690890 0.130781
Si Si2 0.926667 0.698134 0.596214
Si Si3 0.632930 0.700043 0.398369
Si Si4 0.817451 0.801767 0.899846
Si Si5 0.500000 0.806285 0.327823
Si Si6 0.070068 0.197749 0.211327
Si Si7 0.716571 0.685436 0.240499
Si Si8 0.632811 0.810198 0.901228
O O1 0.500000 0.500000 0.103452
O O2 0.500000 0.703056 0.237337
O O3 0.439626 0.783104 0.097926
O O4 0.901509 0.755847 0.500000
O O5 0.920801 0.500000 0.598483
O O6 0.903523 0.766232 0.689854
O O7 0.000000 0.737288 0.595480
O O8 0.648628 0.739863 0.500000
O O9 0.630073 0.500000 0.388915
O O10 0.564194 0.766367 0.377399
O O11 0.685598 0.760160 0.329316
O O12 0.883453 0.740033 0.863739
O O13 0.769166 0.764592 0.820982
O O14 0.819854 0.000000 0.906161
O O15 0.803604 0.739121 0.000000
O O16 0.500000 0.000000 0.305072
O O17 0.000000 0.263945 0.205330
O O18 0.066516 0.000000 0.202800
O O19 0.736947 0.500000 0.261911
O O20 0.659650 0.689278 0.171700
O O21 0.647381 0.000000 0.877106
O O22 0.657863 0.779899 0.000000
#
# Coordination Sequence:
#
# PCOD9388088 Si02
#       8
#     4   8   8   8   4   8   8   8
#     4  12  23  36  55  82 116 154 195 239 286 337
#     4   8  14  26  46  74 109 147 182 216 262 322
#     4  10  22  41  63  86 116 154 193 238 294 350
#     4  10  22  40  60  82 112 150 189 235 293 352
#     4  12  23  36  59  90 122 156 195 241 294 349
#     4   9  18  33  55  84 115 148 190 239 290 346
#     4  11  23  39  61  85 111 147 192 238 282 340
#     4  11  23  38  57  82 114 151 189 236 293 343
#
# _framework density 21.209240000000001
#
# number of rings (size 3 to 8) (size 9 to 14) (size 15 to 20)
#    0.000    1.857    1.429    3.429    0.000    6.857 
#    0.000    3.571    0.000    2.571    0.000    3.000 
#    0.000    0.000    0.000    0.000    0.000    0.000 
#
# Total GULP energy -312364.917032 kJ/mol
# GULP energy per Si atom -5577.944947 kJ/mol
# Density = 2.116097 g / cm^3
# Si number density = 21.209240 Si / 1000 Ang^3
#
#
#
# Elastic Constant Matrix: (Units=GPa)
#
#
# Indices 1 2 3 4 5 6 
#
# 1 93.7587 3.0598 65.3960 0.0000 0.0000 0.0000
# 2 3.0598 28.3159 23.0373 0.0000 0.0000 0.0000
# 3 65.3960 23.0373 158.7262 0.0000 0.0000 0.0000
# 4 0.0000 0.0000 0.0000 19.9884 0.0000 0.0000
# 5 0.0000 0.0000 0.0000 0.0000 -14.1600 0.0000
# 6 0.0000 0.0000 0.0000 0.0000 0.0000 0.2989
#
#
#
# Elastic Compliance Matrix: (Units=1/GPa)
#
#
# Indices 1 2 3 4 5 6 
#
# 1 0.015347 0.003953 -0.006897 0.000000 0.000000 0.000000
# 2 0.003953 0.041062 -0.007588 0.000000 0.000000 0.000000
# 3 -0.006897 -0.007588 0.010243 0.000000 0.000000 0.000000
# 4 0.000000 0.000000 0.000000 0.050029 0.000000 0.000000
# 5 0.000000 0.000000 0.000000 0.000000 -0.070622 0.000000
# 6 0.000000 0.000000 0.000000 0.000000 0.000000 3.345466
#
#
# Mechanical properties :
#
#
# Convention : Reuss Voigt Hill
#
# Bulk Modulus (GPa) = 21.93568 51.53188 36.73378
# Shear Modulus (GPa) = 1.45867 13.84600 7.65233
#
# Velocity S-wave (km/s) = 0.83021 2.55782 1.90154
# Velocity P-wave (km/s) = 3.35916 5.75091 4.70940
#
# Compressibility (1/GPa) = 0.04558784
#
# Stress axis : x y z
#
# Youngs Moduli (GPa) = 65.15878 24.35318 97.62754
#
# Poissons Ratio (x) = -0.09626 0.67332
# Poissons Ratio (y) = -0.25755 0.74082
# Poissons Ratio (z) = 0.44939 0.18480
#
# Static dielectric constant tensor:
#      x y z
#    x 1.795010 0.000000 0.000000 
#    y 0.000000 1.755510 0.000000 
#    z 0.000000 0.000000 1.786480 
# 
# From -- ./inp_files/25205.got.cif
#   From: 2010.05.17/outbox.cif.g08.bks.cpg/sg47_13_cif.got.tgz:25205.got - 2010.06.03 20:15:42.
