data_PCOD9388382
_publ_section_title
;
Structure prediction by ZEFSAII (Michael W. Deem and Ramdas Pophale) SiO2 
 PCOD9388382
Probable space group: P M M M
;
_chemical_formula_sum "Si O2"
_cell_formula_units_Z 44
_cell_length_a 17.643900
_cell_length_b 7.655086
_cell_length_c 15.551123
_cell_angle_alpha 90.000000
_cell_angle_beta 90.000000
_cell_angle_gamma 90.000000
_cell_volume 2100.421321
_symmetry_space_group_name_H-M "P M M M"
_symmetry_group_IT_number 47
_symmetry_cell_setting 'orthorhombic'
loop_
_space_group_symop_operation_xyz
x,y,z
-x,-y,z
x,-y,-z
-x,y,-z
-x,-y,-z
x,y,-z
-x,y,z
x,-y,z
loop_
_atom_site_type_symbol
_atom_site_label
_atom_site_fract_x
_atom_site_fract_y
_atom_site_fract_z
Si Si1 0.194543 0.198170 0.751347
Si Si2 0.914770 0.708299 0.596999
Si Si3 0.360174 0.213967 0.220582
Si Si4 0.911813 0.288923 0.095268
Si Si5 0.500000 0.786141 0.899864
Si Si6 0.588997 0.211509 0.408360
O O1 0.150681 0.261956 0.666635
O O2 0.273298 0.275185 0.787754
O O3 0.135561 0.209703 0.828574
O O4 0.214069 0.000000 0.729820
O O5 0.898522 0.774570 0.500000
O O6 0.920791 0.500000 0.591234
O O7 0.000000 0.772434 0.622630
O O8 0.424587 0.270929 0.152799
O O9 0.379553 0.271263 0.317748
O O10 0.363736 0.000000 0.216302
O O11 0.907439 0.500000 0.101489
O O12 0.000000 0.241825 0.102560
O O13 0.885066 0.237757 0.000000
O O14 0.500000 0.000000 0.899758
O O15 0.500000 0.731653 0.000000
O O16 0.621997 0.273525 0.500000
O O17 0.500000 0.252598 0.408642
O O18 0.595477 0.000000 0.408102
#
# Coordination Sequence:
#
# PCOD9388382 Si02
#       6
#     8   8   8   8   4   8
#     4  11  22  31  47  80 116 140 161 207 273 325
#     4   9  19  37  58  76  99 140 190 225 247 290
#     4   9  17  28  40  62  98 132 165 203 246 303
#     4   9  19  37  58  75  94 129 177 219 253 302
#     4   9  16  28  45  59  82 131 181 209 238 294
#     4   8  12  20  37  56  77 114 159 197 232 273
#
# _framework density 20.948177999999999
#
# number of rings (size 3 to 8) (size 9 to 14) (size 15 to 20)
#    0.000    2.818    0.909    2.727    0.000    5.091 
#    0.000    5.455    0.000    0.000    0.000    2.545 
#    0.000    5.818    0.000    0.000    0.000    0.000 
#
# Total GULP energy -245131.403592 kJ/mol
# GULP energy per Si atom -5571.168263 kJ/mol
# Density = 2.090050 g / cm^3
# Si number density = 20.948178 Si / 1000 Ang^3
#
#
#
# Elastic Constant Matrix: (Units=GPa)
#
#
# Indices 1 2 3 4 5 6 
#
# 1 119.1521 11.2027 87.5386 0.0000 0.0000 0.0000
# 2 11.2027 31.0124 5.2665 0.0000 0.0000 0.0000
# 3 87.5386 5.2665 158.3519 0.0000 0.0000 0.0000
# 4 0.0000 0.0000 0.0000 19.3483 0.0000 0.0000
# 5 0.0000 0.0000 0.0000 0.0000 -12.2461 0.0000
# 6 0.0000 0.0000 0.0000 0.0000 0.0000 24.9082
#
#
#
# Elastic Compliance Matrix: (Units=1/GPa)
#
#
# Indices 1 2 3 4 5 6 
#
# 1 0.014592 -0.003923 -0.007936 0.000000 0.000000 0.000000
# 2 -0.003923 0.033483 0.001055 0.000000 0.000000 0.000000
# 3 -0.007936 0.001055 0.010667 0.000000 0.000000 0.000000
# 4 0.000000 0.000000 0.000000 0.051684 0.000000 0.000000
# 5 0.000000 0.000000 0.000000 0.000000 -0.081659 0.000000
# 6 0.000000 0.000000 0.000000 0.000000 0.000000 0.040147
#
#
# Mechanical properties :
#
#
# Convention : Reuss Voigt Hill
#
# Bulk Modulus (GPa) = 26.92954 57.39243 42.16099
# Shear Modulus (GPa) = 48.59011 20.03599 34.31305
#
# Velocity S-wave (km/s) = 4.82138 3.09602 4.05161
# Velocity P-wave (km/s) = 6.62401 6.34328 6.48517
#
# Compressibility (1/GPa) = 0.03713394
#
# Stress axis : x y z
#
# Youngs Moduli (GPa) = 68.53045 29.86566 93.74579
#
# Poissons Ratio (x) = 0.11718 0.74398
# Poissons Ratio (y) = 0.26888 -0.09893
# Poissons Ratio (z) = 0.54387 -0.03152
#
# Static dielectric constant tensor:
#      x y z
#    x 1.807400 0.000000 0.000000 
#    y 0.000000 1.818240 0.000000 
#    z 0.000000 0.000000 1.765750 
# 
# From -- ./inp_files/24330.got.cif
#   From: 2010.05.17/outbox.cif.g08.bks.cpg/sg47_13_cif.got.tgz:24330.got - 2010.06.03 20:15:42.
