data_PCOD9388581
_publ_section_title
;
Structure prediction by ZEFSAII (Michael W. Deem and Ramdas Pophale) SiO2 
 PCOD9388581
Probable space group: P M M M
;
_chemical_formula_sum "Si O2"
_cell_formula_units_Z 44
_cell_length_a 18.474471
_cell_length_b 7.727286
_cell_length_c 15.307681
_cell_angle_alpha 90.000000
_cell_angle_beta 90.000000
_cell_angle_gamma 90.000000
_cell_volume 2185.286594
_symmetry_space_group_name_H-M "P M M M"
_symmetry_group_IT_number 47
_symmetry_cell_setting 'orthorhombic'
loop_
_space_group_symop_operation_xyz
x,y,z
-x,-y,z
x,-y,-z
-x,y,-z
-x,-y,-z
x,y,-z
-x,y,z
x,-y,z
loop_
_atom_site_type_symbol
_atom_site_label
_atom_site_fract_x
_atom_site_fract_y
_atom_site_fract_z
Si Si1 0.192056 0.305630 0.750908
Si Si2 0.918438 0.791096 0.600334
Si Si3 0.349467 0.197950 0.222294
Si Si4 0.917116 0.790704 0.100208
Si Si5 0.413127 0.500000 0.104288
Si Si6 0.584354 0.210285 0.405252
O O1 0.219335 0.500000 0.743232
O O2 0.144425 0.263328 0.665762
O O3 0.262767 0.194362 0.770041
O O4 0.137658 0.287858 0.831710
O O5 0.906569 0.735113 0.500000
O O6 0.000000 0.733752 0.626932
O O7 0.919598 0.000000 0.600784
O O8 0.378075 0.330644 0.149653
O O9 0.376682 0.263640 0.317051
O O10 0.375767 0.000000 0.207956
O O11 0.000000 0.740407 0.119059
O O12 0.913607 0.000000 0.107107
O O13 0.900949 0.744228 0.000000
O O14 0.500000 0.500000 0.119333
O O15 0.400487 0.500000 0.000000
O O16 0.613164 0.269600 0.500000
O O17 0.500000 0.258930 0.400389
O O18 0.587626 0.000000 0.406193
#
# Coordination Sequence:
#
# PCOD9388581 Si02
#       6
#     8   8   8   8   4   8
#     4  12  24  37  55  86 126 164 205 257 313 370
#     4   9  19  37  60  85 117 165 224 275 316 367
#     4  11  23  42  66  94 130 171 211 255 315 381
#     4   9  19  37  60  84 110 147 199 253 305 366
#     4  11  26  48  71  97 128 159 205 265 317 382
#     4   8  15  31  59  93 123 154 196 244 296 360
#
# _framework density 20.134657000000001
#
# number of rings (size 3 to 8) (size 9 to 14) (size 15 to 20)
#    0.000    2.091    0.909    4.364    0.000    6.545 
#    0.000    5.000    0.000    1.636    0.000    0.000 
#    0.000    0.000    0.000    0.000    0.000    0.000 
#
# Total GULP energy -245666.171422 kJ/mol
# GULP energy per Si atom -5583.322078 kJ/mol
# Density = 2.008883 g / cm^3
# Si number density = 20.134657 Si / 1000 Ang^3
#
#
#
# Elastic Constant Matrix: (Units=GPa)
#
#
# Indices 1 2 3 4 5 6 
#
# 1 88.7847 22.3313 74.0371 0.0000 0.0000 0.0000
# 2 22.3313 79.9750 39.3785 0.0000 0.0000 0.0000
# 3 74.0371 39.3785 137.5423 0.0000 0.0000 0.0000
# 4 0.0000 0.0000 0.0000 38.5684 0.0000 0.0000
# 5 0.0000 0.0000 0.0000 0.0000 -17.5472 0.0000
# 6 0.0000 0.0000 0.0000 0.0000 0.0000 35.5278
#
#
#
# Elastic Compliance Matrix: (Units=1/GPa)
#
#
# Indices 1 2 3 4 5 6 
#
# 1 0.020445 -0.000338 -0.010908 0.000000 0.000000 0.000000
# 2 -0.000338 0.014561 -0.003987 0.000000 0.000000 0.000000
# 3 -0.010908 -0.003987 0.014284 0.000000 0.000000 0.000000
# 4 0.000000 0.000000 0.000000 0.025928 0.000000 0.000000
# 5 0.000000 0.000000 0.000000 0.000000 -0.056989 0.000000
# 6 0.000000 0.000000 0.000000 0.000000 0.000000 0.028147
#
#
# Mechanical properties :
#
#
# Convention : Reuss Voigt Hill
#
# Bulk Modulus (GPa) = 53.12516 64.19953 58.66235
# Shear Modulus (GPa) = 60.15647 22.68012 41.41830
#
# Velocity S-wave (km/s) = 5.47192 3.35986 4.54041
# Velocity P-wave (km/s) = 8.14646 6.85608 7.52897
#
# Compressibility (1/GPa) = 0.01882347
#
# Stress axis : x y z
#
# Youngs Moduli (GPa) = 48.91284 68.67458 70.00913
#
# Poissons Ratio (x) = 0.02318 0.76368
# Poissons Ratio (y) = 0.01651 0.27914
# Poissons Ratio (z) = 0.53356 0.27382
#
# Static dielectric constant tensor:
#      x y z
#    x 1.681020 0.000000 0.000000 
#    y 0.000000 1.754200 0.000000 
#    z 0.000000 0.000000 1.697920 
# 
# From -- ./inp_files/24329.got.cif
#   From: 2010.05.17/outbox.cif.g08.bks.cpg/sg47_13_cif.got.tgz:24329.got - 2010.06.03 20:15:42.
