data_PCOD9388693
_publ_section_title
;
Structure prediction by ZEFSAII (Michael W. Deem and Ramdas Pophale) SiO2 
 PCOD9388693
Probable space group: P M M M
;
_chemical_formula_sum "Si O2"
_cell_formula_units_Z 32
_cell_length_a 23.180315
_cell_length_b 7.542109
_cell_length_c 9.613800
_cell_angle_alpha 90.000000
_cell_angle_beta 90.000000
_cell_angle_gamma 90.000000
_cell_volume 1680.765872
_symmetry_space_group_name_H-M "P M M M"
_symmetry_group_IT_number 47
_symmetry_cell_setting 'orthorhombic'
loop_
_space_group_symop_operation_xyz
x,y,z
-x,-y,z
x,-y,-z
-x,y,-z
-x,-y,-z
x,y,-z
-x,y,z
x,-y,z
loop_
_atom_site_type_symbol
_atom_site_label
_atom_site_fract_x
_atom_site_fract_y
_atom_site_fract_z
Si Si1 0.362176 0.211450 0.333779
Si Si2 0.000000 0.710225 0.841529
Si Si3 0.874885 0.788954 0.157660
Si Si4 0.230641 0.216209 0.658605
Si Si5 0.569011 0.500000 0.164173
O O1 0.369964 0.242385 0.500000
O O2 0.295828 0.262582 0.299153
O O3 0.404393 0.329566 0.242235
O O4 0.369149 0.000000 0.310669
O O5 0.061524 0.761435 0.778100
O O6 0.000000 0.500000 0.850542
O O7 0.000000 0.786408 0.000000
O O8 0.821037 0.719187 0.244727
O O9 0.867096 0.000000 0.148223
O O10 0.875560 0.716497 0.000000
O O11 0.221704 0.274083 0.500000
O O12 0.229478 0.000000 0.657960
O O13 0.500000 0.500000 0.176873
O O14 0.583672 0.500000 0.000000
#
# Coordination Sequence:
#
# PCOD9388693 Si02
#       5
#     8   4   8   8   4
#     4   9  19  38  63  87 113 150 194 236 278 330
#     4   9  17  29  42  59  90 128 164 207 254 302
#     4   9  16  27  46  69  91 122 166 210 254 310
#     4   8  15  30  52  77 103 129 163 213 270 320
#     4  11  25  41  57  85 123 156 187 228 279 333
#
# _framework density 19.038938999999999
#
# number of rings (size 3 to 8) (size 9 to 14) (size 15 to 20)
#    0.000    3.000    0.000    2.250    0.000    4.500 
#    2.250    5.625    0.000    3.750    0.000    0.000 
#    0.000    0.000    0.000    0.000    0.000    0.000 
#
# Total GULP energy -178366.204619 kJ/mol
# GULP energy per Si atom -5573.943894 kJ/mol
# Density = 1.899561 g / cm^3
# Si number density = 19.038939 Si / 1000 Ang^3
#
#
#
# Elastic Constant Matrix: (Units=GPa)
#
#
# Indices 1 2 3 4 5 6 
#
# 1 162.3883 44.6426 91.5888 0.0000 0.0000 0.0000
# 2 44.6426 73.5487 37.5832 0.0000 0.0000 0.0000
# 3 91.5888 37.5832 76.1959 0.0000 0.0000 0.0000
# 4 0.0000 0.0000 0.0000 13.3158 0.0000 0.0000
# 5 0.0000 0.0000 0.0000 0.0000 34.8096 0.0000
# 6 0.0000 0.0000 0.0000 0.0000 0.0000 48.8120
#
#
#
# Elastic Compliance Matrix: (Units=1/GPa)
#
#
# Indices 1 2 3 4 5 6 
#
# 1 0.019123 0.000185 -0.023078 0.000000 0.000000 0.000000
# 2 0.000185 0.018180 -0.009190 0.000000 0.000000 0.000000
# 3 -0.023078 -0.009190 0.045397 0.000000 0.000000 0.000000
# 4 0.000000 0.000000 0.000000 0.075099 0.000000 0.000000
# 5 0.000000 0.000000 0.000000 0.000000 0.028728 0.000000
# 6 0.000000 0.000000 0.000000 0.000000 0.000000 0.020487
#
#
# Mechanical properties :
#
#
# Convention : Reuss Voigt Hill
#
# Bulk Modulus (GPa) = 53.95141 73.30690 63.62915
# Shear Modulus (GPa) = 18.02729 28.60871 23.31800
#
# Velocity S-wave (km/s) = 3.08045 3.88060 3.50344
# Velocity P-wave (km/s) = 6.40712 7.65937 7.06106
#
# Compressibility (1/GPa) = 0.01853520
#
# Stress axis : x y z
#
# Youngs Moduli (GPa) = 52.29196 55.00558 22.02783
#
# Poissons Ratio (x) = -0.01019 0.50836
# Poissons Ratio (y) = -0.00969 0.20243
# Poissons Ratio (z) = 1.20680 0.50550
#
# Static dielectric constant tensor:
#      x y z
#    x 1.668700 0.000000 0.000000 
#    y 0.000000 1.689440 0.000000 
#    z 0.000000 0.000000 1.654060 
# 
# From -- ./inp_files/12017.got.cif
#   From: 2010.05.17/outbox.cif.g08.bks.cpg/sg47_7_cif.got.tgz:12017.got - 2010.06.03 20:15:42.
