data_PCOD9388115
_publ_section_title
;
Structure prediction by ZEFSAII (Michael W. Deem and Ramdas Pophale) SiO2 
 PCOD9388115
Probable space group: P M M M
;
_chemical_formula_sum "Si O2"
_cell_formula_units_Z 56
_cell_length_a 21.872731
_cell_length_b 8.626816
_cell_length_c 15.796270
_cell_angle_alpha 90.000000
_cell_angle_beta 90.000000
_cell_angle_gamma 90.000000
_cell_volume 2980.630186
_symmetry_space_group_name_H-M "P M M M"
_symmetry_group_IT_number 47
_symmetry_cell_setting 'orthorhombic'
loop_
_space_group_symop_operation_xyz
x,y,z
-x,-y,z
x,-y,-z
-x,y,-z
-x,-y,-z
x,y,-z
-x,y,z
x,-y,z
loop_
_atom_site_type_symbol
_atom_site_label
_atom_site_fract_x
_atom_site_fract_y
_atom_site_fract_z
Si Si1 0.570273 0.188752 0.595774
Si Si2 0.000000 0.183796 0.662500
Si Si3 0.210648 0.314325 0.248117
Si Si4 0.125785 0.686542 0.595382
Si Si5 0.570689 0.313015 0.097450
Si Si6 0.000000 0.315548 0.851624
Si Si7 0.130125 0.185537 0.095138
Si Si8 0.347234 0.814152 0.247706
O O1 0.586550 0.237748 0.500000
O O2 0.500000 0.236063 0.612759
O O3 0.615745 0.241477 0.669035
O O4 0.570754 0.000000 0.596160
O O5 0.060881 0.234523 0.613611
O O6 0.000000 0.270081 0.752725
O O7 0.000000 0.000000 0.676761
O O8 0.212775 0.500000 0.246940
O O9 0.173617 0.265587 0.332425
O O10 0.172928 0.256687 0.166986
O O11 0.278759 0.249051 0.247581
O O12 0.146457 0.722213 0.500000
O O13 0.117551 0.500000 0.601795
O O14 0.500000 0.268966 0.115099
O O15 0.574300 0.500000 0.102466
O O16 0.615901 0.240099 0.165096
O O17 0.584424 0.269148 0.000000
O O18 0.061340 0.246067 0.891457
O O19 0.000000 0.500000 0.860882
O O20 0.130129 0.000000 0.103539
O O21 0.150560 0.226109 0.000000
O O22 0.345611 0.000000 0.249233
#
# Coordination Sequence:
#
# PCOD9388115 Si02
#       8
#     8   4   8   8   8   4   8   8
#     4   8  15  30  53  82 115 149 186 230 282 339
#     4  12  23  36  61  92 122 152 191 245 296 343
#     4  11  24  41  60  82 114 159 201 238 286 348
#     4  10  22  41  63  86 115 153 196 243 297 355
#     4   9  19  37  60  85 114 149 189 234 286 346
#     4  12  23  38  63  92 122 156 191 233 288 351
#     4  11  24  42  64  90 119 150 189 243 298 344
#     4  11  22  35  56  85 117 152 193 240 288 337
#
# _framework density 18.787973999999998
#
# number of rings (size 3 to 8) (size 9 to 14) (size 15 to 20)
#    0.000    1.714    1.429    4.286    0.000    6.000 
#    0.000    0.714    0.000    1.286    0.000    5.000 
#    0.000    0.000    0.000    0.000    0.000    0.000 
#
# Total GULP energy -312922.328664 kJ/mol
# GULP energy per Si atom -5587.898726 kJ/mol
# Density = 1.874521 g / cm^3
# Si number density = 18.787974 Si / 1000 Ang^3
#
#
#
# Elastic Constant Matrix: (Units=GPa)
#
#
# Indices 1 2 3 4 5 6 
#
# 1 168.9392 42.0446 114.2086 0.0000 0.0000 0.0000
# 2 42.0446 38.3449 44.0913 0.0000 0.0000 0.0000
# 3 114.2086 44.0913 168.6168 0.0000 0.0000 0.0000
# 4 0.0000 0.0000 0.0000 16.4958 0.0000 0.0000
# 5 0.0000 0.0000 0.0000 0.0000 -5.0522 0.0000
# 6 0.0000 0.0000 0.0000 0.0000 0.0000 3.8165
#
#
#
# Elastic Compliance Matrix: (Units=1/GPa)
#
#
# Indices 1 2 3 4 5 6 
#
# 1 0.011621 -0.005279 -0.006491 0.000000 0.000000 0.000000
# 2 -0.005279 0.039690 -0.006803 0.000000 0.000000 0.000000
# 3 -0.006491 -0.006803 0.012106 0.000000 0.000000 0.000000
# 4 0.000000 0.000000 0.000000 0.060621 0.000000 0.000000
# 5 0.000000 0.000000 0.000000 0.000000 -0.197933 0.000000
# 6 0.000000 0.000000 0.000000 0.000000 0.000000 0.262017
#
#
# Mechanical properties :
#
#
# Convention : Reuss Voigt Hill
#
# Bulk Modulus (GPa) = 38.06413 86.28774 62.17593
# Shear Modulus (GPa) = 21.36528 14.75580 18.06054
#
# Velocity S-wave (km/s) = 3.37587 2.80551 3.10382
# Velocity P-wave (km/s) = 5.95811 7.51807 6.78308
#
# Compressibility (1/GPa) = 0.02627146
#
# Stress axis : x y z
#
# Youngs Moduli (GPa) = 86.05009 25.19557 82.60356
#
# Poissons Ratio (x) = 0.13300 0.53618
# Poissons Ratio (y) = 0.45423 0.56195
# Poissons Ratio (z) = 0.55855 0.17140
#
# Static dielectric constant tensor:
#      x y z
#    x 1.612510 0.000000 0.000000 
#    y 0.000000 1.634520 0.000000 
#    z 0.000000 0.000000 1.654630 
# 
# From -- ./inp_files/7423.got.cif
#   From: 2010.05.17/outbox.cif.g08.bks.cpg/sg47_4_cif.got.tgz:7423.got - 2010.06.03 20:15:42.
