data_PCOD9388279
_publ_section_title
;
Structure prediction by ZEFSAII (Michael W. Deem and Ramdas Pophale) SiO2 
 PCOD9388279
Probable space group: P M M M
;
_chemical_formula_sum "Si O2"
_cell_formula_units_Z 40
_cell_length_a 19.971090
_cell_length_b 8.602547
_cell_length_c 13.392680
_cell_angle_alpha 90.000000
_cell_angle_beta 90.000000
_cell_angle_gamma 90.000000
_cell_volume 2300.892429
_symmetry_space_group_name_H-M "P M M M"
_symmetry_group_IT_number 47
_symmetry_cell_setting 'orthorhombic'
loop_
_space_group_symop_operation_xyz
x,y,z
-x,-y,z
x,-y,-z
-x,y,-z
-x,-y,-z
x,y,-z
-x,y,z
x,-y,z
loop_
_atom_site_type_symbol
_atom_site_label
_atom_site_fract_x
_atom_site_fract_y
_atom_site_fract_z
Si Si1 0.671570 0.315707 0.212604
Si Si2 0.178492 0.810605 0.216461
Si Si3 0.334211 0.178482 0.000000
Si Si4 0.828611 0.179140 0.000000
Si Si5 0.076481 0.810557 0.386602
Si Si6 0.421491 0.812697 0.386573
O O1 0.677233 0.500000 0.210272
O O2 0.745404 0.244135 0.229658
O O3 0.646175 0.258028 0.103955
O O4 0.623249 0.262209 0.301266
O O5 0.130026 0.758833 0.305106
O O6 0.179340 0.000000 0.213543
O O7 0.152935 0.753210 0.107651
O O8 0.252680 0.179107 0.000000
O O9 0.356329 0.000000 0.000000
O O10 0.851862 0.000000 0.000000
O O11 0.092567 0.761938 0.500000
O O12 0.000000 0.763357 0.363951
O O13 0.077180 0.000000 0.385856
O O14 0.402019 0.767147 0.500000
O O15 0.500000 0.774208 0.373640
O O16 0.415458 0.000000 0.380295
#
# Coordination Sequence:
#
# PCOD9388279 Si02
#       6
#     8   8   4   4   8   8
#     4  11  21  32  50  78 108 133 161 203 254 302
#     4   9  16  28  46  66  91 126 164 199 238 290
#     4   9  17  33  54  73  98 133 171 206 242 291
#     4   7  12  23  40  62  86 114 149 188 230 275
#     4   8  14  25  42  65  91 119 157 207 253 285
#     4   9  19  37  58  76  97 131 173 210 246 294
#
# _framework density 17.38456
#
# number of rings (size 3 to 8) (size 9 to 14) (size 15 to 20)
#    0.000    3.000    0.000    4.500    0.000    1.600 
#    0.000    4.000    0.000    6.600    0.000    1.400 
#    0.000    4.800    0.000    0.000    0.000    0.000 
#
# Total GULP energy -222786.729818 kJ/mol
# GULP energy per Si atom -5569.668245 kJ/mol
# Density = 1.734499 g / cm^3
# Si number density = 17.384560 Si / 1000 Ang^3
#
#
#
# Elastic Constant Matrix: (Units=GPa)
#
#
# Indices 1 2 3 4 5 6 
#
# 1 65.0784 23.9520 91.4485 0.0000 0.0000 0.0000
# 2 23.9520 35.4310 42.7019 0.0000 0.0000 0.0000
# 3 91.4485 42.7019 192.5774 0.0000 0.0000 0.0000
# 4 0.0000 0.0000 0.0000 6.4999 0.0000 0.0000
# 5 0.0000 0.0000 0.0000 0.0000 -27.3589 0.0000
# 6 0.0000 0.0000 0.0000 0.0000 0.0000 -3.0809
#
#
#
# Elastic Compliance Matrix: (Units=1/GPa)
#
#
# Indices 1 2 3 4 5 6 
#
# 1 0.047320 -0.006697 -0.020986 0.000000 0.000000 0.000000
# 2 -0.006697 0.039465 -0.005571 0.000000 0.000000 0.000000
# 3 -0.020986 -0.005571 0.016393 0.000000 0.000000 0.000000
# 4 0.000000 0.000000 0.000000 0.153849 0.000000 0.000000
# 5 0.000000 0.000000 0.000000 0.000000 -0.036551 0.000000
# 6 0.000000 0.000000 0.000000 0.000000 0.000000 -0.324581
#
#
# Mechanical properties :
#
#
# Convention : Reuss Voigt Hill
#
# Bulk Modulus (GPa) = 27.26897 67.69904 47.48401
# Shear Modulus (GPa) = -197.05658 4.21099 -96.42279
#
# Velocity S-wave (km/s) = -10.65822 1.55805 -7.45554
# Velocity P-wave (km/s) = 11.65091 6.50102 6.83668
#
# Compressibility (1/GPa) = 0.03667171
#
# Stress axis : x y z
#
# Youngs Moduli (GPa) = 21.13261 25.33883 61.00009
#
# Poissons Ratio (x) = 0.16969 1.28014
# Poissons Ratio (y) = 0.14152 0.33982
# Poissons Ratio (z) = 0.44348 0.14116
#
# Static dielectric constant tensor:
#      x y z
#    x 1.561160 0.000000 0.000000 
#    y 0.000000 1.583240 0.000000 
#    z 0.000000 0.000000 1.616250 
# 
# From -- ./inp_files/18922.got.cif
#   From: 2010.05.17/outbox.cif.g08.bks.cpg/sg47_10_cif.got.tgz:18922.got - 2010.06.03 20:15:42.
