data_PCOD9388474
_publ_section_title
;
Structure prediction by ZEFSAII (Michael W. Deem and Ramdas Pophale) SiO2 
 PCOD9388474
Probable space group: P M M M
;
_chemical_formula_sum "Si O2"
_cell_formula_units_Z 48
_cell_length_a 7.573268
_cell_length_b 9.900337
_cell_length_c 30.198667
_cell_angle_alpha 90.000000
_cell_angle_beta 90.000000
_cell_angle_gamma 90.000000
_cell_volume 2264.232797
_symmetry_space_group_name_H-M "P M M M"
_symmetry_group_IT_number 47
_symmetry_cell_setting 'orthorhombic'
loop_
_space_group_symop_operation_xyz
x,y,z
-x,-y,z
x,-y,-z
-x,y,-z
-x,-y,-z
x,y,-z
-x,y,z
x,-y,z
loop_
_atom_site_type_symbol
_atom_site_label
_atom_site_fract_x
_atom_site_fract_y
_atom_site_fract_z
Si Si1 0.216536 0.156182 0.794645
Si Si2 0.713197 0.000000 0.948935
Si Si3 0.215259 0.653284 0.550765
Si Si4 0.784124 0.156303 0.370090
Si Si5 0.799212 0.251507 0.110546
Si Si6 0.215493 0.656843 0.712557
Si Si7 0.704606 0.500000 0.950616
O O1 0.281855 0.210086 0.842294
O O2 0.269229 0.259992 0.756249
O O3 0.000000 0.152539 0.794844
O O4 0.271703 0.000000 0.787562
O O5 0.783268 0.126144 0.922085
O O6 0.500000 0.000000 0.947756
O O7 0.767859 0.000000 0.000000
O O8 0.270563 0.676666 0.500000
O O9 0.268233 0.500000 0.563695
O O10 0.272493 0.767595 0.585046
O O11 0.000000 0.653805 0.551075
O O12 0.729969 0.252512 0.329434
O O13 0.000000 0.153560 0.369801
O O14 0.726608 0.000000 0.366590
O O15 0.737890 0.373374 0.080555
O O16 0.000000 0.283471 0.121654
O O17 0.273745 0.500000 0.711373
O O18 0.000000 0.653310 0.712179
O O19 0.500000 0.500000 0.958594
O O20 0.790777 0.500000 0.000000
#
# Coordination Sequence:
#
# PCOD9388474 Si02
#       7
#     8   4   8   8   8   8   4
#     4   9  17  30  46  68  96 120 147 191 246 296
#     4  11  23  39  59  83 113 147 179 213 260 317
#     4   8  13  20  28  37  53  81 121 172 226 279
#     4   9  15  21  29  43  64  92 128 171 224 287
#     4  11  22  37  59  85 110 139 178 223 265 311
#     4   9  16  24  37  55  77 107 139 175 227 292
#     4  11  25  43  59  79 111 147 179 215 264 317
#
# _framework density 21.199235000000002
#
# number of rings (size 3 to 8) (size 9 to 14) (size 15 to 20)
#    0.000    2.500    0.833    3.000    1.167    7.667 
#    0.000    1.667    0.000    0.000    0.000    0.000 
#    0.000    0.000    0.000    0.000    0.000    0.000 
#
# Total GULP energy -267812.956209 kJ/mol
# GULP energy per Si atom -5579.436588 kJ/mol
# Density = 2.115098 g / cm^3
# Si number density = 21.199235 Si / 1000 Ang^3
#
#
#
# Elastic Constant Matrix: (Units=GPa)
#
#
# Indices 1 2 3 4 5 6 
#
# 1 42.5327 3.2711 0.8472 0.0000 0.0000 0.0000
# 2 3.2711 247.5175 136.6261 0.0000 0.0000 0.0000
# 3 0.8472 136.6261 190.5145 0.0000 0.0000 0.0000
# 4 0.0000 0.0000 0.0000 53.7068 0.0000 0.0000
# 5 0.0000 0.0000 0.0000 0.0000 -34.3310 0.0000
# 6 0.0000 0.0000 0.0000 0.0000 0.0000 -75.8338
#
#
#
# Elastic Compliance Matrix: (Units=1/GPa)
#
#
# Indices 1 2 3 4 5 6 
#
# 1 0.023540 -0.000419 0.000196 0.000000 0.000000 0.000000
# 2 -0.000419 0.006695 -0.004799 0.000000 0.000000 0.000000
# 3 0.000196 -0.004799 0.008690 0.000000 0.000000 0.000000
# 4 0.000000 0.000000 0.000000 0.018620 0.000000 0.000000
# 5 0.000000 0.000000 0.000000 0.000000 -0.029128 0.000000
# 6 0.000000 0.000000 0.000000 0.000000 0.000000 -0.013187
#
#
# Mechanical properties :
#
#
# Convention : Reuss Voigt Hill
#
# Bulk Modulus (GPa) = 34.62700 84.67262 59.64981
# Shear Modulus (GPa) = 143.26507 11.36311 77.31409
#
# Velocity S-wave (km/s) = 8.22964 2.31771 6.04561
# Velocity P-wave (km/s) = 10.32822 6.86953 8.77105
#
# Compressibility (1/GPa) = 0.02887920
#
# Stress axis : x y z
#
# Youngs Moduli (GPa) = 42.48151 149.37021 115.07722
#
# Poissons Ratio (x) = 0.06263 -0.02256
# Poissons Ratio (y) = 0.01781 0.55228
# Poissons Ratio (z) = -0.00833 0.71686
#
# Static dielectric constant tensor:
#      x y z
#    x 1.810850 0.000000 0.000000 
#    y 0.000000 1.642990 0.000000 
#    z 0.000000 0.000000 1.786050 
# 
# From -- ./inp_files/34088.got.cif
#   From: 2010.05.17/outbox.cif.g08.bks.cpg/sg47_18_cif.got.tgz:34088.got - 2010.06.03 20:15:42.
