data_PCOD9388100
_publ_section_title
;
Structure prediction by ZEFSAII (Michael W. Deem and Ramdas Pophale) SiO2 
 PCOD9388100
Probable space group: P M M M
;
_chemical_formula_sum "Si O2"
_cell_formula_units_Z 37
_cell_length_a 22.962888
_cell_length_b 10.139676
_cell_length_c 9.221217
_cell_angle_alpha 90.000000
_cell_angle_beta 90.000000
_cell_angle_gamma 90.000000
_cell_volume 2147.033535
_symmetry_space_group_name_H-M "P M M M"
_symmetry_group_IT_number 47
_symmetry_cell_setting 'orthorhombic'
loop_
_space_group_symop_operation_xyz
x,y,z
-x,-y,z
x,-y,-z
-x,y,-z
-x,-y,-z
x,y,-z
-x,y,z
x,-y,z
loop_
_atom_site_type_symbol
_atom_site_label
_atom_site_fract_x
_atom_site_fract_y
_atom_site_fract_z
Si Si1 0.617747 0.653589 0.172351
Si Si2 0.156013 0.151919 0.673750
Si Si3 0.292296 0.154515 0.673177
Si Si4 0.500000 0.274211 0.339055
Si Si5 0.933119 0.653471 0.825722
Si Si6 0.500000 0.000000 0.500000
O O1 0.632664 0.500000 0.197442
O O2 0.666417 0.749133 0.238802
O O3 0.557127 0.685357 0.251427
O O4 0.612266 0.673811 0.000000
O O5 0.149482 0.161960 0.500000
O O6 0.224116 0.177825 0.705971
O O7 0.112936 0.251585 0.751433
O O8 0.143646 0.000000 0.715039
O O9 0.300972 0.173522 0.500000
O O10 0.304956 0.000000 0.703118
O O11 0.500000 0.337425 0.500000
O O12 0.500000 0.118143 0.375768
O O13 0.922814 0.500000 0.787730
O O14 0.000000 0.685863 0.785068
O O15 0.928950 0.664140 0.000000
#
# Coordination Sequence:
#
# PCOD9388100 Si02
#       6
#     8   8   8   4   8   1
#     4  11  24  39  56  83 117 147 179 222 271 320
#     4   9  19  36  55  79 108 140 177 224 274 318
#     4   9  20  38  59  79 107 143 183 225 267 321
#     4  10  22  40  62  82 112 142 180 222 269 317
#     4   9  19  35  53  75 106 143 180 220 268 322
#     4   8  24  40  60  92 112 136 184 232 266 320
#
# _framework density 17.233080000000001
#
# number of rings (size 3 to 8) (size 9 to 14) (size 15 to 20)
#    0.324    2.162    0.000    3.243    1.514    6.919 
#    0.000   10.270    0.000    0.000    0.000    0.000 
#    0.000    0.000    0.000    0.000    0.000    0.000 
#
# Total GULP energy -206132.427857 kJ/mol
# GULP energy per Si atom -5571.146699 kJ/mol
# Density = 1.719386 g / cm^3
# Si number density = 17.233080 Si / 1000 Ang^3
#
#
#
# Elastic Constant Matrix: (Units=GPa)
#
#
# Indices 1 2 3 4 5 6 
#
# 1 140.6284 116.6885 86.3230 0.0000 0.0000 0.0000
# 2 116.6885 137.9499 86.3295 0.0000 0.0000 0.0000
# 3 86.3230 86.3295 79.4636 0.0000 0.0000 0.0000
# 4 0.0000 0.0000 0.0000 39.6222 0.0000 0.0000
# 5 0.0000 0.0000 0.0000 0.0000 43.6201 0.0000
# 6 0.0000 0.0000 0.0000 0.0000 0.0000 20.4990
#
#
#
# Elastic Compliance Matrix: (Units=1/GPa)
#
#
# Indices 1 2 3 4 5 6 
#
# 1 0.028594 -0.014832 -0.014949 0.000000 0.000000 0.000000
# 2 -0.014832 0.030338 -0.016847 0.000000 0.000000 0.000000
# 3 -0.014949 -0.016847 0.047126 0.000000 0.000000 0.000000
# 4 0.000000 0.000000 0.000000 0.025238 0.000000 0.000000
# 5 0.000000 0.000000 0.000000 0.000000 0.022925 0.000000
# 6 0.000000 0.000000 0.000000 0.000000 0.000000 0.048783
#
#
# Mechanical properties :
#
#
# Convention : Reuss Voigt Hill
#
# Bulk Modulus (GPa) = 78.10861 104.08043 91.09452
# Shear Modulus (GPa) = 16.63737 25.32832 20.98284
#
# Velocity S-wave (km/s) = 3.11051 3.83789 3.49319
# Velocity P-wave (km/s) = 7.63699 8.95355 8.32135
#
# Compressibility (1/GPa) = 0.01280269
#
# Stress axis : x y z
#
# Youngs Moduli (GPa) = 34.97181 32.96199 21.21969
#
# Poissons Ratio (x) = 0.48890 0.31721
# Poissons Ratio (y) = 0.51871 0.35748
# Poissons Ratio (z) = 0.52279 0.55530
#
# Static dielectric constant tensor:
#      x y z
#    x 1.566760 0.000000 0.000000 
#    y 0.000000 1.568070 0.000000 
#    z 0.000000 0.000000 1.571050 
# 
# From -- ./inp_files/12092.got.cif
#   From: 2010.05.17/outbox.cif.g08.bks.cpg/sg47_7_cif.got.tgz:12092.got - 2010.06.03 20:15:42.
