data_PCOD9388524
_publ_section_title
;
Structure prediction by ZEFSAII (Michael W. Deem and Ramdas Pophale) SiO2 
 PCOD9388524
Probable space group: P M M M
;
_chemical_formula_sum "Si O2"
_cell_formula_units_Z 44
_cell_length_a 7.678079
_cell_length_b 33.944414
_cell_length_c 8.911426
_cell_angle_alpha 90.000000
_cell_angle_beta 90.000000
_cell_angle_gamma 90.000000
_cell_volume 2322.566176
_symmetry_space_group_name_H-M "P M M M"
_symmetry_group_IT_number 47
_symmetry_cell_setting 'orthorhombic'
loop_
_space_group_symop_operation_xyz
x,y,z
-x,-y,z
x,-y,-z
-x,y,-z
-x,-y,-z
x,y,-z
-x,y,z
x,-y,z
loop_
_atom_site_type_symbol
_atom_site_label
_atom_site_fract_x
_atom_site_fract_y
_atom_site_fract_z
Si Si1 0.712263 0.000000 0.327403
Si Si2 0.292295 0.623529 0.167616
Si Si3 0.000000 0.854850 0.682686
Si Si4 0.299156 0.086088 0.316247
Si Si5 0.209591 0.542404 0.672599
Si Si6 0.704827 0.290236 0.182267
Si Si7 0.000000 0.236220 0.319083
O O1 0.760685 0.042558 0.262457
O O2 0.500000 0.000000 0.331273
O O3 0.774391 0.000000 0.500000
O O4 0.500000 0.628064 0.156587
O O5 0.260375 0.582945 0.251176
O O6 0.235134 0.665708 0.232500
O O7 0.218953 0.619764 0.000000
O O8 0.830479 0.879527 0.730878
O O9 0.000000 0.854947 0.500000
O O10 0.000000 0.809512 0.728865
O O11 0.297348 0.084494 0.500000
O O12 0.500000 0.092598 0.272097
O O13 0.267952 0.543527 0.500000
O O14 0.269304 0.500000 0.738143
O O15 0.000000 0.541514 0.673448
O O16 0.500000 0.284410 0.219605
O O17 0.830545 0.258300 0.254589
O O18 0.718292 0.289642 0.000000
O O19 0.000000 0.238116 0.500000
#
# Coordination Sequence:
#
# PCOD9388524 Si02
#       7
#     4   8   4   8   8   8   4
#     4   7  10  17  31  51  72 105 161 212 242 278
#     4   9  19  35  54  76  98 122 160 209 254 296
#     4   9  18  28  37  58  91 127 165 198 246 313
#     4   8  13  22  35  51  78 118 162 207 247 287
#     4   9  19  34  49  70 104 140 168 194 231 287
#     4   9  20  40  61  79 103 137 177 221 270 322
#     4  11  23  35  52  81 111 139 174 218 268 324
#
# _framework density 18.944562999999999
#
# number of rings (size 3 to 8) (size 9 to 14) (size 15 to 20)
#    0.000    3.182    0.000    3.000    1.273    3.636 
#    0.000    8.182    0.000    0.000    0.000    0.000 
#    0.000    0.000    0.000    6.545    0.000   45.091 
#
# Total GULP energy -245006.837409 kJ/mol
# GULP energy per Si atom -5568.337214 kJ/mol
# Density = 1.890144 g / cm^3
# Si number density = 18.944563 Si / 1000 Ang^3
#
#
#
# Elastic Constant Matrix: (Units=GPa)
#
#
# Indices 1 2 3 4 5 6 
#
# 1 85.9056 82.6406 18.5571 0.0000 0.0000 0.0000
# 2 82.6406 237.5714 39.6196 0.0000 0.0000 0.0000
# 3 18.5571 39.6196 13.5167 0.0000 0.0000 0.0000
# 4 0.0000 0.0000 0.0000 -480.3443 0.0000 0.0000
# 5 0.0000 0.0000 0.0000 0.0000 19.0152 0.0000
# 6 0.0000 0.0000 0.0000 0.0000 0.0000 40.2020
#
#
#
# Elastic Compliance Matrix: (Units=1/GPa)
#
#
# Indices 1 2 3 4 5 6 
#
# 1 0.018567 -0.004319 -0.012832 0.000000 0.000000 0.000000
# 2 -0.004319 0.009239 -0.021152 0.000000 0.000000 0.000000
# 3 -0.012832 -0.021152 0.153600 0.000000 0.000000 0.000000
# 4 0.000000 0.000000 0.000000 -0.002082 0.000000 0.000000
# 5 0.000000 0.000000 0.000000 0.000000 0.052590 0.000000
# 6 0.000000 0.000000 0.000000 0.000000 0.000000 0.024874
#
#
# Mechanical properties :
#
#
# Convention : Reuss Voigt Hill
#
# Bulk Modulus (GPa) = 9.54195 68.73647 39.13921
# Shear Modulus (GPa) = 13.57489 -71.14701 -28.78606
#
# Velocity S-wave (km/s) = 2.67977 -6.13489 -3.90229
# Velocity P-wave (km/s) = 3.82395 3.71763 0.63315
#
# Compressibility (1/GPa) = 0.10480034
#
# Stress axis : x y z
#
# Youngs Moduli (GPa) = 53.85838 108.23634 6.51043
#
# Poissons Ratio (x) = 0.46744 0.08354
# Poissons Ratio (y) = 0.23260 0.13771
# Poissons Ratio (z) = 0.69112 2.28941
#
# Static dielectric constant tensor:
#      x y z
#    x 1.674890 0.000000 0.000000 
#    y 0.000000 1.695420 0.000000 
#    z 0.000000 0.000000 1.650990 
# 
# From -- ./inp_files/2359.got.cif
#   From: 2010.05.17/outbox.cif.g08.bks.cpg/sg47_2_cif.got.tgz:2359.got - 2010.06.03 20:15:42.
