data_PCOD9388917
_publ_section_title
;
Structure prediction by ZEFSAII (Michael W. Deem and Ramdas Pophale) SiO2 
 PCOD9388917
Probable space group: P M M M
;
_chemical_formula_sum "Si O2"
_cell_formula_units_Z 40
_cell_length_a 7.419485
_cell_length_b 19.454790
_cell_length_c 14.378607
_cell_angle_alpha 90.000000
_cell_angle_beta 90.000000
_cell_angle_gamma 90.000000
_cell_volume 2075.473163
_symmetry_space_group_name_H-M "P M M M"
_symmetry_group_IT_number 47
_symmetry_cell_setting 'orthorhombic'
loop_
_space_group_symop_operation_xyz
x,y,z
-x,-y,z
x,-y,-z
-x,y,-z
-x,-y,-z
x,y,-z
-x,y,z
x,-y,z
loop_
_atom_site_type_symbol
_atom_site_label
_atom_site_fract_x
_atom_site_fract_y
_atom_site_fract_z
Si Si1 0.779854 0.213277 0.604444
Si Si2 0.780065 0.847506 0.104400
Si Si3 0.786098 0.286047 0.212461
Si Si4 0.715914 0.423115 0.105072
Si Si5 0.219450 0.923289 0.710231
O O1 0.718140 0.227224 0.500000
O O2 0.719340 0.266140 0.684713
O O3 0.726143 0.137431 0.640422
O O4 0.000000 0.214261 0.602633
O O5 0.720794 0.771930 0.139715
O O6 0.726620 0.900051 0.185724
O O7 0.000000 0.848125 0.102321
O O8 0.718412 0.862151 0.000000
O O9 0.756828 0.362264 0.175657
O O10 0.000000 0.275896 0.216296
O O11 0.500000 0.426473 0.100285
O O12 0.780334 0.500000 0.130044
O O13 0.781216 0.407012 0.000000
O O14 0.000000 0.923768 0.709086
O O15 0.280795 0.000000 0.687748
#
# Coordination Sequence:
#
# PCOD9388917 Si02
#       5
#     8   8   8   8   8
#     4   8  14  24  37  54  77 105 137 175 216 247
#     4   8  13  20  30  47  73 103 133 167 205 239
#     4   9  16  26  42  62  82 107 141 175 202 236
#     4   9  18  31  45  63  88 113 132 155 195 243
#     4   8  13  19  27  44  72 106 141 169 197 242
#
# _framework density 19.272711999999999
#
# number of rings (size 3 to 8) (size 9 to 14) (size 15 to 20)
#    0.000    3.600    0.000    3.600    0.000    2.400 
#    0.000    5.000    0.000    1.200    0.000    4.200 
#    0.000   12.800    0.000   51.200    0.000   44.800 
#
# Total GULP energy -222908.764567 kJ/mol
# GULP energy per Si atom -5572.719114 kJ/mol
# Density = 1.922885 g / cm^3
# Si number density = 19.272712 Si / 1000 Ang^3
#
#
#
# Elastic Constant Matrix: (Units=GPa)
#
#
# Indices 1 2 3 4 5 6 
#
# 1 57.4703 -3.6251 2.7737 0.0000 0.0000 0.0000
# 2 -3.6251 133.8154 65.8677 0.0000 0.0000 0.0000
# 3 2.7737 65.8677 125.6550 0.0000 0.0000 0.0000
# 4 0.0000 0.0000 0.0000 13.6665 0.0000 0.0000
# 5 0.0000 0.0000 0.0000 0.0000-1622.3859 0.0000
# 6 0.0000 0.0000 0.0000 0.0000 0.0000 39.1336
#
#
#
# Elastic Compliance Matrix: (Units=1/GPa)
#
#
# Indices 1 2 3 4 5 6 
#
# 1 0.017498 0.000895 -0.000855 0.000000 0.000000 0.000000
# 2 0.000895 0.010118 -0.005323 0.000000 0.000000 0.000000
# 3 -0.000855 -0.005323 0.010768 0.000000 0.000000 0.000000
# 4 0.000000 0.000000 0.000000 0.073172 0.000000 0.000000
# 5 0.000000 0.000000 0.000000 0.000000 -0.000616 0.000000
# 6 0.000000 0.000000 0.000000 0.000000 0.000000 0.025553
#
#
# Mechanical properties :
#
#
# Convention : Reuss Voigt Hill
#
# Bulk Modulus (GPa) = 35.95071 49.66370 42.80721
# Shear Modulus (GPa) = 31.98336 -297.12220 -132.56942
#
# Velocity S-wave (km/s) = 4.07813 -12.42988 -8.30273
# Velocity P-wave (km/s) = 6.39289 13.42303 8.34592
#
# Compressibility (1/GPa) = 0.02781586
#
# Stress axis : x y z
#
# Youngs Moduli (GPa) = 57.14927 98.83847 92.87094
#
# Poissons Ratio (x) = -0.08847 0.07945
# Poissons Ratio (y) = -0.05116 0.49438
# Poissons Ratio (z) = 0.04889 0.52615
#
# Static dielectric constant tensor:
#      x y z
#    x 1.748250 0.000000 0.000000 
#    y 0.000000 1.666220 0.000000 
#    z 0.000000 0.000000 1.663310 
# 
# From -- ./inp_files/5926.got.cif
#   From: 2010.05.17/outbox.cif.g08.bks.cpg/sg47_3_cif.got.tgz:5926.got - 2010.06.03 20:15:42.
