data_PCOD9388951
_publ_section_title
;
Structure prediction by ZEFSAII (Michael W. Deem and Ramdas Pophale) SiO2 
 PCOD9388951
Probable space group: P M M M
;
_chemical_formula_sum "Si O2"
_cell_formula_units_Z 44
_cell_length_a 32.095321
_cell_length_b 7.474557
_cell_length_c 9.638388
_cell_angle_alpha 90.000000
_cell_angle_beta 90.000000
_cell_angle_gamma 90.000000
_cell_volume 2312.232956
_symmetry_space_group_name_H-M "P M M M"
_symmetry_group_IT_number 47
_symmetry_cell_setting 'orthorhombic'
loop_
_space_group_symop_operation_xyz
x,y,z
-x,-y,z
x,-y,-z
-x,y,-z
-x,-y,-z
x,y,-z
-x,y,z
x,-y,z
loop_
_atom_site_type_symbol
_atom_site_label
_atom_site_fract_x
_atom_site_fract_y
_atom_site_fract_z
Si Si1 0.114811 0.212565 0.835224
Si Si2 0.624586 0.281747 0.661927
Si Si3 0.047277 0.500000 0.168383
Si Si4 0.284785 0.714471 0.340022
Si Si5 0.193723 0.787467 0.658088
Si Si6 0.546267 0.718198 0.160859
O O1 0.074555 0.326862 0.792650
O O2 0.155449 0.275932 0.751093
O O3 0.108596 0.000000 0.813178
O O4 0.121619 0.239426 0.000000
O O5 0.621484 0.231583 0.500000
O O6 0.623865 0.500000 0.665900
O O7 0.670359 0.224829 0.716679
O O8 0.584979 0.218594 0.748269
O O9 0.000000 0.500000 0.221008
O O10 0.045067 0.500000 0.000000
O O11 0.283248 0.779606 0.500000
O O12 0.286612 0.500000 0.343649
O O13 0.239811 0.759333 0.278655
O O14 0.192869 0.714094 0.500000
O O15 0.188580 0.000000 0.647887
O O16 0.500000 0.773895 0.208570
O O17 0.546604 0.500000 0.164349
O O18 0.550981 0.769838 0.000000
#
# Coordination Sequence:
#
# PCOD9388951 Si02
#       6
#     8   8   4   8   8   8
#     4   9  18  32  49  70  97 125 153 193 239 274
#     4   8  13  21  32  46  66  93 127 164 200 243
#     4   9  18  32  51  75  99 125 161 199 232 275
#     4   8  14  24  38  57  81 109 138 171 213 257
#     4   9  17  29  46  67  89 117 153 185 217 266
#     4   8  13  20  29  42  64  95 126 157 199 250
#
# _framework density 19.029223999999999
#
# number of rings (size 3 to 8) (size 9 to 14) (size 15 to 20)
#    0.000    3.545    0.000    1.636    1.273    0.727 
#    0.000    4.545    0.000    2.182    0.000    2.545 
#    0.000    0.727    0.000    9.091    0.000   10.545 
#
# Total GULP energy -244950.284080 kJ/mol
# GULP energy per Si atom -5567.051911 kJ/mol
# Density = 1.898591 g / cm^3
# Si number density = 19.029224 Si / 1000 Ang^3
#
#
#
# Elastic Constant Matrix: (Units=GPa)
#
#
# Indices 1 2 3 4 5 6 
#
# 1 246.7698 36.0365 71.3871 0.0000 0.0000 0.0000
# 2 36.0365 58.7017 16.4885 0.0000 0.0000 0.0000
# 3 71.3871 16.4885 36.1377 0.0000 0.0000 0.0000
# 4 0.0000 0.0000 0.0000 -1.3446 0.0000 0.0000
# 5 0.0000 0.0000 0.0000 0.0000 32.7382 0.0000
# 6 0.0000 0.0000 0.0000 0.0000 0.0000 215.8190
#
#
#
# Elastic Compliance Matrix: (Units=1/GPa)
#
#
# Indices 1 2 3 4 5 6 
#
# 1 0.009477 -0.000642 -0.018429 0.000000 0.000000 0.000000
# 2 -0.000642 0.019583 -0.007668 0.000000 0.000000 0.000000
# 3 -0.018429 -0.007668 0.067575 0.000000 0.000000 0.000000
# 4 0.000000 0.000000 0.000000 -0.743732 0.000000 0.000000
# 5 0.000000 0.000000 0.000000 0.000000 0.030545 0.000000
# 6 0.000000 0.000000 0.000000 0.000000 0.000000 0.004634
#
#
# Mechanical properties :
#
#
# Convention : Reuss Voigt Hill
#
# Bulk Modulus (GPa) = 23.17009 65.49258 44.33133
# Shear Modulus (GPa) = -9.19024 63.95568 27.38272
#
# Velocity S-wave (km/s) = -2.20001 5.80363 3.79751
# Velocity P-wave (km/s) = 2.39773 8.91073 6.52496
#
# Compressibility (1/GPa) = 0.04315909
#
# Stress axis : x y z
#
# Youngs Moduli (GPa) = 105.51601 51.06499 14.79839
#
# Poissons Ratio (x) = 0.03276 0.27272
# Poissons Ratio (y) = 0.06770 0.11347
# Poissons Ratio (z) = 1.94453 0.39155
#
# Static dielectric constant tensor:
#      x y z
#    x 1.685220 0.000000 0.000000 
#    y 0.000000 1.755350 0.000000 
#    z 0.000000 0.000000 1.640210 
# 
# From -- ./inp_files/13579.got.cif
#   From: 2010.05.17/outbox.cif.g08.bks.cpg/sg47_7_cif.got.tgz:13579.got - 2010.06.03 20:15:42.
