data_PCOD9388229
_publ_section_title
;
Structure prediction by ZEFSAII (Michael W. Deem and Ramdas Pophale) SiO2 
 PCOD9388229
Probable space group: P M M M
;
_chemical_formula_sum "Si O2"
_cell_formula_units_Z 48
_cell_length_a 7.817911
_cell_length_b 25.070346
_cell_length_c 14.158505
_cell_angle_alpha 90.000000
_cell_angle_beta 90.000000
_cell_angle_gamma 90.000000
_cell_volume 2775.034894
_symmetry_space_group_name_H-M "P M M M"
_symmetry_group_IT_number 47
_symmetry_cell_setting 'orthorhombic'
loop_
_space_group_symop_operation_xyz
x,y,z
-x,-y,z
x,-y,-z
-x,y,-z
-x,-y,-z
x,y,-z
-x,y,z
x,-y,z
loop_
_atom_site_type_symbol
_atom_site_label
_atom_site_fract_x
_atom_site_fract_y
_atom_site_fract_z
Si Si1 0.295563 0.057379 0.885964
Si Si2 0.709481 0.440561 0.297661
Si Si3 0.699583 0.390498 0.895457
Si Si4 0.293188 0.173258 0.109021
Si Si5 0.802037 0.716142 0.800247
Si Si6 0.293052 0.332562 0.395046
O O1 0.500000 0.056492 0.867535
O O2 0.230250 0.115340 0.854373
O O3 0.225233 0.000000 0.852419
O O4 0.276675 0.058124 0.000000
O O5 0.500000 0.440115 0.296638
O O6 0.764155 0.500000 0.323527
O O7 0.770319 0.424473 0.192272
O O8 0.761517 0.392623 0.366502
O O9 0.500000 0.405306 0.901744
O O10 0.706878 0.328908 0.861846
O O11 0.775511 0.397006 0.000000
O O12 0.500000 0.170924 0.107307
O O13 0.241851 0.224339 0.168733
O O14 0.236077 0.180251 0.000000
O O15 0.764006 0.704940 0.690546
O O16 0.000000 0.706251 0.818160
O O17 0.233329 0.318467 0.500000
O O18 0.500000 0.331978 0.395151
#
# Coordination Sequence:
#
# PCOD9388229 Si02
#       6
#     8   8   8   8   8   8
#     4   7  10  18  34  57  83 111 145 181 211 238
#     4   8  14  25  43  69  93 106 125 164 211 256
#     4   9  17  29  44  61  84 115 147 176 206 242
#     4   9  16  26  42  63  88 119 151 181 211 243
#     4  11  21  30  42  61  86 113 143 179 214 252
#     4   9  18  33  51  67  83 105 133 168 213 262
#
# _framework density 17.297080000000001
#
# number of rings (size 3 to 8) (size 9 to 14) (size 15 to 20)
#    0.000    3.167    0.000    4.500    0.000    3.667 
#    0.000    3.333    0.000    8.500    0.000   11.667 
#    0.000    0.667    0.000    7.667    0.000    2.500 
#
# Total GULP energy -267266.090401 kJ/mol
# GULP energy per Si atom -5568.043550 kJ/mol
# Density = 1.725771 g / cm^3
# Si number density = 17.297080 Si / 1000 Ang^3
#
#
#
# Elastic Constant Matrix: (Units=GPa)
#
#
# Indices 1 2 3 4 5 6 
#
# 1 23.5012 -3.6396 0.4184 0.0000 0.0000 0.0000
# 2 -3.6396 119.4892 24.2777 0.0000 0.0000 0.0000
# 3 0.4184 24.2777 61.2538 0.0000 0.0000 0.0000
# 4 0.0000 0.0000 0.0000 10.8378 0.0000 0.0000
# 5 0.0000 0.0000 0.0000 0.0000 -25.7226 0.0000
# 6 0.0000 0.0000 0.0000 0.0000 0.0000 -23.8005
#
#
#
# Elastic Compliance Matrix: (Units=1/GPa)
#
#
# Indices 1 2 3 4 5 6 
#
# 1 0.042796 0.001482 -0.000880 0.000000 0.000000 0.000000
# 2 0.001482 0.009153 -0.003638 0.000000 0.000000 0.000000
# 3 -0.000880 -0.003638 0.017773 0.000000 0.000000 0.000000
# 4 0.000000 0.000000 0.000000 0.092270 0.000000 0.000000
# 5 0.000000 0.000000 0.000000 0.000000 -0.038876 0.000000
# 6 0.000000 0.000000 0.000000 0.000000 0.000000 -0.042016
#
#
# Mechanical properties :
#
#
# Convention : Reuss Voigt Hill
#
# Bulk Modulus (GPa) = 15.71047 27.37304 21.54175
# Shear Modulus (GPa) = 46.13036 4.47546 25.30291
#
# Velocity S-wave (km/s) = 5.16985 1.61029 3.82886
# Velocity P-wave (km/s) = 6.68871 4.39511 5.65932
#
# Compressibility (1/GPa) = 0.06365184
#
# Stress axis : x y z
#
# Youngs Moduli (GPa) = 23.36656 109.25060 56.26380
#
# Poissons Ratio (x) = -0.16194 0.04950
# Poissons Ratio (y) = -0.03464 0.20469
# Poissons Ratio (z) = 0.02056 0.39745
#
# Static dielectric constant tensor:
#      x y z
#    x 1.636810 0.000000 0.000000 
#    y 0.000000 1.620960 0.000000 
#    z 0.000000 0.000000 1.575680 
# 
# From -- ./inp_files/7478.got.cif
#   From: 2010.05.17/outbox.cif.g08.bks.cpg/sg47_4_cif.got.tgz:7478.got - 2010.06.03 20:15:42.
