data_PCOD9388584
_publ_section_title
;
Structure prediction by ZEFSAII (Michael W. Deem and Ramdas Pophale) SiO2 
 PCOD9388584
Probable space group: P M M M
;
_chemical_formula_sum "Si O2"
_cell_formula_units_Z 40
_cell_length_a 7.722009
_cell_length_b 30.758066
_cell_length_c 9.258794
_cell_angle_alpha 90.000000
_cell_angle_beta 90.000000
_cell_angle_gamma 90.000000
_cell_volume 2199.093777
_symmetry_space_group_name_H-M "P M M M"
_symmetry_group_IT_number 47
_symmetry_cell_setting 'orthorhombic'
loop_
_space_group_symop_operation_xyz
x,y,z
-x,-y,z
x,-y,-z
-x,y,-z
-x,-y,-z
x,y,-z
-x,y,z
x,-y,z
loop_
_atom_site_type_symbol
_atom_site_label
_atom_site_fract_x
_atom_site_fract_y
_atom_site_fract_z
Si Si1 0.203307 0.588197 0.826529
Si Si2 0.210664 0.500000 0.334430
Si Si3 0.207400 0.914089 0.162985
Si Si4 0.800587 0.818835 0.823707
Si Si5 0.500000 0.345288 0.824553
Si Si6 0.705869 0.000000 0.339086
Si Si7 0.500000 0.245928 0.176452
O O1 0.260691 0.543815 0.748880
O O2 0.329479 0.627420 0.783034
O O3 0.000000 0.596396 0.793508
O O4 0.216326 0.582392 0.000000
O O5 0.269995 0.500000 0.500000
O O6 0.000000 0.500000 0.334871
O O7 0.264631 0.866941 0.220959
O O8 0.000000 0.909933 0.153150
O O9 0.244478 0.956232 0.256129
O O10 0.275759 0.920327 0.000000
O O11 0.669720 0.781151 0.778876
O O12 0.000000 0.811965 0.777809
O O13 0.801630 0.820142 0.000000
O O14 0.500000 0.295660 0.773181
O O15 0.500000 0.343737 0.000000
O O16 0.500000 0.000000 0.348183
O O17 0.780773 0.000000 0.500000
O O18 0.500000 0.246503 0.000000
#
# Coordination Sequence:
#
# PCOD9388584 Si02
#       7
#     8   4   8   8   4   4   4
#     4   9  17  30  47  67  96 131 161 193 235 281
#     4   9  17  30  49  72  95 123 162 203 239 278
#     4   9  18  33  52  73  95 122 160 200 237 285
#     4   8  15  27  44  69  97 122 153 194 238 285
#     4   9  18  29  42  67  97 127 164 195 230 287
#     4  11  24  35  44  68 102 131 160 193 234 288
#     4   9  16  26  43  67  96 126 153 191 242 283
#
# _framework density 18.189311
#
# number of rings (size 3 to 8) (size 9 to 14) (size 15 to 20)
#    0.000    3.000    0.000    2.100    1.400    4.800 
#    0.000    6.500    0.000    0.000    0.000    2.800 
#    0.000    3.200    0.000    0.000    0.000    0.000 
#
# Total GULP energy -222898.958300 kJ/mol
# GULP energy per Si atom -5572.473958 kJ/mol
# Density = 1.814791 g / cm^3
# Si number density = 18.189311 Si / 1000 Ang^3
#
#
#
# Elastic Constant Matrix: (Units=GPa)
#
#
# Indices 1 2 3 4 5 6 
#
# 1 86.0126 82.4439 22.9488 0.0000 0.0000 0.0000
# 2 82.4439 218.7750 49.9483 0.0000 0.0000 0.0000
# 3 22.9488 49.9483 32.6752 0.0000 0.0000 0.0000
# 4 0.0000 0.0000 0.0000 -4.8922 0.0000 0.0000
# 5 0.0000 0.0000 0.0000 0.0000 10.9509 0.0000
# 6 0.0000 0.0000 0.0000 0.0000 0.0000 33.6402
#
#
#
# Elastic Compliance Matrix: (Units=1/GPa)
#
#
# Indices 1 2 3 4 5 6 
#
# 1 0.018469 -0.006142 -0.003583 0.000000 0.000000 0.000000
# 2 -0.006142 0.009064 -0.009542 0.000000 0.000000 0.000000
# 3 -0.003583 -0.009542 0.047706 0.000000 0.000000 0.000000
# 4 0.000000 0.000000 0.000000 -0.204409 0.000000 0.000000
# 5 0.000000 0.000000 0.000000 0.000000 0.091317 0.000000
# 6 0.000000 0.000000 0.000000 0.000000 0.000000 0.029726
#
#
# Mechanical properties :
#
#
# Convention : Reuss Voigt Hill
#
# Bulk Modulus (GPa) = 27.24300 72.01609 49.62955
# Shear Modulus (GPa) = 117.25504 20.08124 68.66814
#
# Velocity S-wave (km/s) = 8.03764 3.32627 6.15092
# Velocity P-wave (km/s) = 10.05725 7.37771 8.81983
#
# Compressibility (1/GPa) = 0.03670667
#
# Stress axis : x y z
#
# Youngs Moduli (GPa) = 54.14383 110.32698 20.96170
#
# Poissons Ratio (x) = 0.67764 0.07510
# Poissons Ratio (y) = 0.33256 0.20001
# Poissons Ratio (z) = 0.19397 1.05270
#
# Static dielectric constant tensor:
#      x y z
#    x 1.647290 0.000000 0.000000 
#    y 0.000000 1.632050 0.000000 
#    z 0.000000 0.000000 1.609060 
# 
# From -- ./inp_files/1915.got.cif
#   From: 2010.05.17/outbox.cif.g08.bks.cpg/sg47_1_cif.got.tgz:1915.got - 2010.06.03 20:15:42.
