data_PCOD9388542
_publ_section_title
;
Structure prediction by ZEFSAII (Michael W. Deem and Ramdas Pophale) SiO2 
 PCOD9388542
Probable space group: P M M M
;
_chemical_formula_sum "Si O2"
_cell_formula_units_Z 32
_cell_length_a 7.540856
_cell_length_b 14.822441
_cell_length_c 15.155949
_cell_angle_alpha 90.000000
_cell_angle_beta 90.000000
_cell_angle_gamma 90.000000
_cell_volume 1694.039424
_symmetry_space_group_name_H-M "P M M M"
_symmetry_group_IT_number 47
_symmetry_cell_setting 'orthorhombic'
loop_
_space_group_symop_operation_xyz
x,y,z
-x,-y,z
x,-y,-z
-x,y,-z
-x,-y,-z
x,y,-z
-x,y,z
x,-y,z
loop_
_atom_site_type_symbol
_atom_site_label
_atom_site_fract_x
_atom_site_fract_y
_atom_site_fract_z
Si Si1 0.206745 0.705509 0.724349
Si Si2 0.714443 0.605292 0.902654
Si Si3 0.697626 0.892022 0.500000
Si Si4 0.500000 0.391432 0.605801
Si Si5 0.203788 0.101195 0.695990
O O1 0.214549 0.656751 0.818355
O O2 0.330133 0.653303 0.654310
O O3 0.277846 0.808018 0.738251
O O4 0.000000 0.708891 0.695568
O O5 0.500000 0.609669 0.898993
O O6 0.763520 0.500000 0.896632
O O7 0.769589 0.638539 0.000000
O O8 0.500000 0.852080 0.500000
O O9 0.790364 0.873551 0.591967
O O10 0.681899 0.000000 0.500000
O O11 0.500000 0.500000 0.620488
O O12 0.500000 0.375921 0.500000
O O13 0.000000 0.094042 0.724089
O O14 0.282874 0.000000 0.706661
#
# Coordination Sequence:
#
# PCOD9388542 Si02
#       5
#     8   8   4   4   8
#     4  11  23  37  60  88 113 150 196 236 280 342
#     4   9  18  35  60  87 114 144 181 233 295 348
#     4   9  17  27  45  73  99 132 181 232 278 322
#     4  11  26  44  58  78 116 159 194 236 286 336
#     4   9  19  34  50  73 108 145 182 230 281 327
#
# _framework density 18.889762999999999
#
# number of rings (size 3 to 8) (size 9 to 14) (size 15 to 20)
#    0.000    2.250    1.250    1.875    3.500    4.500 
#    0.000    2.500    0.000    0.750    0.000    5.250 
#    0.000    0.000    0.000    0.000    0.000    0.000 
#
# Total GULP energy -178296.362392 kJ/mol
# GULP energy per Si atom -5571.761325 kJ/mol
# Density = 1.884677 g / cm^3
# Si number density = 18.889763 Si / 1000 Ang^3
#
#
#
# Elastic Constant Matrix: (Units=GPa)
#
#
# Indices 1 2 3 4 5 6 
#
# 1 89.0978 37.4472 28.0640 0.0000 0.0000 0.0000
# 2 37.4472 138.8096 64.8885 0.0000 0.0000 0.0000
# 3 28.0640 64.8885 108.4196 0.0000 0.0000 0.0000
# 4 0.0000 0.0000 0.0000 3.3961 0.0000 0.0000
# 5 0.0000 0.0000 0.0000 0.0000 16.1757 0.0000
# 6 0.0000 0.0000 0.0000 0.0000 0.0000 28.9228
#
#
#
# Elastic Compliance Matrix: (Units=1/GPa)
#
#
# Indices 1 2 3 4 5 6 
#
# 1 0.012892 -0.002663 -0.001743 0.000000 0.000000 0.000000
# 2 -0.002663 0.010553 -0.005626 0.000000 0.000000 0.000000
# 3 -0.001743 -0.005626 0.013042 0.000000 0.000000 0.000000
# 4 0.000000 0.000000 0.000000 0.294454 0.000000 0.000000
# 5 0.000000 0.000000 0.000000 0.000000 0.061821 0.000000
# 6 0.000000 0.000000 0.000000 0.000000 0.000000 0.034575
#
#
# Mechanical properties :
#
#
# Convention : Reuss Voigt Hill
#
# Bulk Modulus (GPa) = 60.89634 66.34736 63.62185
# Shear Modulus (GPa) = 11.04055 23.42742 17.23398
#
# Velocity S-wave (km/s) = 2.42021 3.52549 3.02378
# Velocity P-wave (km/s) = 6.33385 7.19526 6.77825
#
# Compressibility (1/GPa) = 0.01642135
#
# Stress axis : x y z
#
# Youngs Moduli (GPa) = 77.56782 94.76280 76.67526
#
# Poissons Ratio (x) = 0.25235 0.13366
# Poissons Ratio (y) = 0.20656 0.43141
# Poissons Ratio (z) = 0.13522 0.53317
#
# Static dielectric constant tensor:
#      x y z
#    x 1.722340 0.000000 0.000000 
#    y 0.000000 1.697900 0.000000 
#    z 0.000000 0.000000 1.638980 
# 
# From -- ./inp_files/20501.got.cif
#   From: 2010.05.17/outbox.cif.g08.bks.cpg/sg47_11_cif.got.tgz:20501.got - 2010.06.03 20:15:42.
