data_PCOD9388734
_publ_section_title
;
Structure prediction by ZEFSAII (Michael W. Deem and Ramdas Pophale) SiO2 
 PCOD9388734
Probable space group: P M M M
;
_chemical_formula_sum "Si O2"
_cell_formula_units_Z 52
_cell_length_a 7.317543
_cell_length_b 15.300785
_cell_length_c 21.225913
_cell_angle_alpha 90.000000
_cell_angle_beta 90.000000
_cell_angle_gamma 90.000000
_cell_volume 2376.541353
_symmetry_space_group_name_H-M "P M M M"
_symmetry_group_IT_number 47
_symmetry_cell_setting 'orthorhombic'
loop_
_space_group_symop_operation_xyz
x,y,z
-x,-y,z
x,-y,-z
-x,y,-z
-x,-y,-z
x,y,-z
-x,y,z
x,-y,z
loop_
_atom_site_type_symbol
_atom_site_label
_atom_site_fract_x
_atom_site_fract_y
_atom_site_fract_z
Si Si1 0.718348 0.394470 0.066842
Si Si2 0.295172 0.000000 0.576224
Si Si3 0.723523 0.191545 0.428611
Si Si4 0.723317 0.253361 0.702072
Si Si5 0.780783 0.102671 0.067914
Si Si6 0.276770 0.399312 0.202949
Si Si7 0.285803 0.099308 0.208405
O O1 0.500000 0.380052 0.065913
O O2 0.744223 0.500000 0.067339
O O3 0.785791 0.364009 0.134580
O O4 0.792039 0.361072 0.000000
O O5 0.212850 0.093739 0.590233
O O6 0.500000 0.000000 0.604082
O O7 0.309731 0.000000 0.500000
O O8 0.781890 0.212112 0.500000
O O9 0.500000 0.187754 0.430555
O O10 0.777767 0.252094 0.370854
O O11 0.500000 0.252151 0.702932
O O12 0.782084 0.337594 0.740925
O O13 0.786170 0.167743 0.740674
O O14 0.726451 0.136170 0.136752
O O15 0.000000 0.105448 0.066901
O O16 0.725508 0.000000 0.068367
O O17 0.716584 0.139621 0.000000
O O18 0.500000 0.399178 0.201410
O O19 0.221107 0.500000 0.210005
O O20 0.500000 0.091342 0.221898
O O21 0.209339 0.000000 0.210115
#
# Coordination Sequence:
#
# PCOD9388734 Si02
#       7
#     8   4   8   8   8   8   8
#     4   7   9  14  25  38  49  64  92 133 175 207
#     4   7  10  16  26  40  54  72 104 143 180 216
#     4   8  13  20  30  43  60  86 121 157 189 226
#     4   9  16  23  32  47  70  98 123 149 192 247
#     4   8  14  26  43  58  73 102 144 177 194 219
#     4   8  13  21  31  42  59  87 123 157 187 224
#     4   9  17  26  36  55  83 108 127 157 205 247
#
# _framework density 21.880534999999998
#
# number of rings (size 3 to 8) (size 9 to 14) (size 15 to 20)
#    0.000    3.923    0.000    2.769    1.077    0.308 
#    0.000    2.308    0.000    3.231    0.000    3.231 
#    0.000    1.231    0.000    5.538    0.000    5.385 
#
# Total GULP energy -289735.695967 kJ/mol
# GULP energy per Si atom -5571.840307 kJ/mol
# Density = 2.183073 g / cm^3
# Si number density = 21.880535 Si / 1000 Ang^3
#
#
#
# Elastic Constant Matrix: (Units=GPa)
#
#
# Indices 1 2 3 4 5 6 
#
# 1 84.5528 2.9118 2.4978 0.0000 0.0000 0.0000
# 2 2.9118 75.7004 81.6503 0.0000 0.0000 0.0000
# 3 2.4978 81.6503 222.0797 0.0000 0.0000 0.0000
# 4 0.0000 0.0000 0.0000 53.8569 0.0000 0.0000
# 5 0.0000 0.0000 0.0000 0.0000 7.8287 0.0000
# 6 0.0000 0.0000 0.0000 0.0000 0.0000 -21.5411
#
#
#
# Elastic Compliance Matrix: (Units=1/GPa)
#
#
# Indices 1 2 3 4 5 6 
#
# 1 0.011843 -0.000517 0.000057 0.000000 0.000000 0.000000
# 2 -0.000517 0.021914 -0.008051 0.000000 0.000000 0.000000
# 3 0.000057 -0.008051 0.007462 0.000000 0.000000 0.000000
# 4 0.000000 0.000000 0.000000 0.018568 0.000000 0.000000
# 5 0.000000 0.000000 0.000000 0.000000 0.127735 0.000000
# 6 0.000000 0.000000 0.000000 0.000000 0.000000 -0.046423
#
#
# Mechanical properties :
#
#
# Convention : Reuss Voigt Hill
#
# Bulk Modulus (GPa) = 41.32750 61.82808 51.57779
# Shear Modulus (GPa) = 30.08673 27.71378 28.90025
#
# Velocity S-wave (km/s) = 3.71218 3.56279 3.63825
# Velocity P-wave (km/s) = 6.10758 6.72630 6.42439
#
# Compressibility (1/GPa) = 0.02419696
#
# Stress axis : x y z
#
# Youngs Moduli (GPa) = 84.43770 45.63371 134.00706
#
# Poissons Ratio (x) = 0.02358 -0.00761
# Poissons Ratio (y) = 0.04364 1.07889
# Poissons Ratio (z) = -0.00480 0.36740
#
# Static dielectric constant tensor:
#      x y z
#    x 1.826240 0.000000 0.000000 
#    y 0.000000 1.797020 0.000000 
#    z 0.000000 0.000000 1.823080 
# 
# From -- ./inp_files/30619.got.cif
#   From: 2010.05.17/outbox.cif.g08.bks.cpg/sg47_16_cif.got.tgz:30619.got - 2010.06.03 20:15:42.
