data_PCOD9388980
_publ_section_title
;
Structure prediction by ZEFSAII (Michael W. Deem and Ramdas Pophale) SiO2 
 PCOD9388980
Probable space group: P M M M
;
_chemical_formula_sum "Si O2"
_cell_formula_units_Z 40
_cell_length_a 26.507000
_cell_length_b 9.886321
_cell_length_c 7.356114
_cell_angle_alpha 90.000000
_cell_angle_beta 90.000000
_cell_angle_gamma 90.000000
_cell_volume 1927.719039
_symmetry_space_group_name_H-M "P M M M"
_symmetry_group_IT_number 47
_symmetry_cell_setting 'orthorhombic'
loop_
_space_group_symop_operation_xyz
x,y,z
-x,-y,z
x,-y,-z
-x,y,-z
-x,-y,-z
x,y,-z
-x,y,z
x,-y,z
loop_
_atom_site_type_symbol
_atom_site_label
_atom_site_fract_x
_atom_site_fract_y
_atom_site_fract_z
Si Si1 0.908151 0.844318 0.778677
Si Si2 0.794259 0.155081 0.221578
Si Si3 0.705006 0.346559 0.782189
Si Si4 0.000000 0.655926 0.222176
Si Si5 0.590518 0.654251 0.715967
Si Si6 0.500000 0.155823 0.722626
O O1 0.851183 0.807211 0.722850
O O2 0.950680 0.739655 0.719593
O O3 0.918388 0.000000 0.723350
O O4 0.908779 0.844789 0.000000
O O5 0.749689 0.251633 0.285820
O O6 0.785477 0.000000 0.275749
O O7 0.794048 0.157558 0.000000
O O8 0.709299 0.500000 0.712738
O O9 0.648027 0.299643 0.745012
O O10 0.709980 0.351741 0.000000
O O11 0.000000 0.500000 0.280252
O O12 0.000000 0.655364 0.000000
O O13 0.582765 0.644897 0.500000
O O14 0.585321 0.500000 0.788143
O O15 0.549052 0.759620 0.783010
O O16 0.500000 0.153427 0.500000
O O17 0.500000 0.000000 0.781404
#
# Coordination Sequence:
#
# PCOD9388980 Si02
#       6
#     8   8   8   4   8   4
#     4   8  13  21  31  42  60  90 126 159 192 234
#     4   8  14  24  37  52  71  99 133 164 197 240
#     4   9  17  28  42  61  83 106 134 168 202 234
#     4   9  15  19  25  41  63  87 120 163 204 235
#     4   9  17  30  47  64  83 109 137 162 194 240
#     4   9  17  29  46  67  86 104 132 169 202 232
#
# _framework density 20.749911999999998
#
# number of rings (size 3 to 8) (size 9 to 14) (size 15 to 20)
#    0.000    3.400    0.000    1.800    0.000    4.000 
#    0.000    4.500    0.000    3.000    0.000    0.000 
#    0.000    0.000    0.000    0.900    0.000   19.200 
#
# Total GULP energy -223170.701182 kJ/mol
# GULP energy per Si atom -5579.267530 kJ/mol
# Density = 2.070268 g / cm^3
# Si number density = 20.749912 Si / 1000 Ang^3
#
#
#
# Elastic Constant Matrix: (Units=GPa)
#
#
# Indices 1 2 3 4 5 6 
#
# 1 239.0324 163.5183 2.1097 0.0000 0.0000 0.0000
# 2 163.5183 152.5778 5.8935 0.0000 0.0000 0.0000
# 3 2.1097 5.8935 76.7803 0.0000 0.0000 0.0000
# 4 0.0000 0.0000 0.0000 -6.8178 0.0000 0.0000
# 5 0.0000 0.0000 0.0000 0.0000 17.3147 0.0000
# 6 0.0000 0.0000 0.0000 0.0000 0.0000 44.2518
#
#
#
# Elastic Compliance Matrix: (Units=1/GPa)
#
#
# Indices 1 2 3 4 5 6 
#
# 1 0.015734 -0.016895 0.000865 0.000000 0.000000 0.000000
# 2 -0.016895 0.024716 -0.001433 0.000000 0.000000 0.000000
# 3 0.000865 -0.001433 0.013110 0.000000 0.000000 0.000000
# 4 0.000000 0.000000 0.000000 -0.146674 0.000000 0.000000
# 5 0.000000 0.000000 0.000000 0.000000 0.057754 0.000000
# 6 0.000000 0.000000 0.000000 0.000000 0.000000 0.022598
#
#
# Mechanical properties :
#
#
# Convention : Reuss Voigt Hill
#
# Bulk Modulus (GPa) = 53.66850 90.15928 71.91389
# Shear Modulus (GPa) = 176.20207 30.74098 103.47152
#
# Velocity S-wave (km/s) = 9.22504 3.85320 7.06925
# Velocity P-wave (km/s) = 11.80632 7.95870 10.06802
#
# Compressibility (1/GPa) = 0.01863290
#
# Stress axis : x y z
#
# Youngs Moduli (GPa) = 63.55790 40.45946 76.27525
#
# Poissons Ratio (x) = 0.68357 -0.06594
# Poissons Ratio (y) = 1.07383 0.10930
# Poissons Ratio (z) = -0.05495 0.05797
#
# Static dielectric constant tensor:
#      x y z
#    x 1.712110 0.000000 0.000000 
#    y 0.000000 1.705730 0.000000 
#    z 0.000000 0.000000 1.818130 
# 
# From -- ./inp_files/19736.got.cif
#   From: 2010.05.17/outbox.cif.g08.bks.cpg/sg47_10_cif.got.tgz:19736.got - 2010.06.03 20:15:42.
