data_PCOD9388264
_publ_section_title
;
Structure prediction by ZEFSAII (Michael W. Deem and Ramdas Pophale) SiO2 
 PCOD9388264
Probable space group: P M M M
;
_chemical_formula_sum "Si O2"
_cell_formula_units_Z 44
_cell_length_a 19.524342
_cell_length_b 7.659781
_cell_length_c 14.196903
_cell_angle_alpha 90.000000
_cell_angle_beta 90.000000
_cell_angle_gamma 90.000000
_cell_volume 2123.177848
_symmetry_space_group_name_H-M "P M M M"
_symmetry_group_IT_number 47
_symmetry_cell_setting 'orthorhombic'
loop_
_space_group_symop_operation_xyz
x,y,z
-x,-y,z
x,-y,-z
-x,y,-z
-x,-y,-z
x,y,-z
-x,y,z
x,-y,z
loop_
_atom_site_type_symbol
_atom_site_label
_atom_site_fract_x
_atom_site_fract_y
_atom_site_fract_z
Si Si1 0.424849 0.791416 0.606608
Si Si2 0.851001 0.287021 0.388881
Si Si3 0.779268 0.210728 0.893040
Si Si4 0.286066 0.703707 0.709563
Si Si5 0.000000 0.708667 0.385761
Si Si6 0.927240 0.207652 0.114614
O O1 0.413775 0.724184 0.500000
O O2 0.500000 0.727509 0.639515
O O3 0.358697 0.757722 0.668848
O O4 0.429508 0.000000 0.600581
O O5 0.846394 0.245648 0.500000
O O6 0.852813 0.500000 0.382237
O O7 0.782492 0.218046 0.338839
O O8 0.925726 0.223276 0.352329
O O9 0.721715 0.262191 0.819993
O O10 0.853392 0.279152 0.856321
O O11 0.783698 0.000000 0.895445
O O12 0.768557 0.270600 0.000000
O O13 0.281315 0.500000 0.691030
O O14 0.000000 0.500000 0.370134
O O15 0.000000 0.732573 0.500000
O O16 0.000000 0.282690 0.148418
O O17 0.928196 0.000000 0.133867
O O18 0.926651 0.223574 0.000000
#
# Coordination Sequence:
#
# PCOD9388264 Si02
#       6
#     8   8   8   8   4   8
#     4   9  19  37  60  84 109 137 168 202 244 300
#     4   8  14  25  41  63  93 130 169 204 240 290
#     4   9  18  33  51  69  94 134 182 225 264 309
#     4  11  21  31  48  78 110 137 168 210 260 313
#     4   7  10  20  38  56  82 127 174 206 233 275
#     4   7  10  20  41  65  85 112 160 220 271 308
#
# _framework density 20.723652999999999
#
# number of rings (size 3 to 8) (size 9 to 14) (size 15 to 20)
#    0.000    3.364    0.000    4.364    0.000    1.818 
#    1.636    0.909    0.000    0.545    0.000    6.364 
#    0.000    5.818    0.000    0.000    0.000    0.000 
#
# Total GULP energy -245311.216465 kJ/mol
# GULP energy per Si atom -5575.254920 kJ/mol
# Density = 2.067649 g / cm^3
# Si number density = 20.723653 Si / 1000 Ang^3
#
#
#
# Elastic Constant Matrix: (Units=GPa)
#
#
# Indices 1 2 3 4 5 6 
#
# 1 215.2771 17.8479 101.6864 0.0000 0.0000 0.0000
# 2 17.8479 38.2342 -1.6826 0.0000 0.0000 0.0000
# 3 101.6864 -1.6826 72.7000 0.0000 0.0000 0.0000
# 4 0.0000 0.0000 0.0000 44.8819 0.0000 0.0000
# 5 0.0000 0.0000 0.0000 0.0000 36.8131 0.0000
# 6 0.0000 0.0000 0.0000 0.0000 0.0000 2.2249
#
#
#
# Elastic Compliance Matrix: (Units=1/GPa)
#
#
# Indices 1 2 3 4 5 6 
#
# 1 0.016035 -0.008481 -0.022625 0.000000 0.000000 0.000000
# 2 -0.008481 0.030667 0.012572 0.000000 0.000000 0.000000
# 3 -0.022625 0.012572 0.045692 0.000000 0.000000 0.000000
# 4 0.000000 0.000000 0.000000 0.022281 0.000000 0.000000
# 5 0.000000 0.000000 0.000000 0.000000 0.027164 0.000000
# 6 0.000000 0.000000 0.000000 0.000000 0.000000 0.449461
#
#
# Mechanical properties :
#
#
# Convention : Reuss Voigt Hill
#
# Bulk Modulus (GPa) = 18.07452 62.43498 40.25475
# Shear Modulus (GPa) = 7.73025 30.67460 19.20242
#
# Velocity S-wave (km/s) = 1.93346 3.85148 3.04730
# Velocity P-wave (km/s) = 3.70472 7.06904 5.64341
#
# Compressibility (1/GPa) = 0.05532651
#
# Stress axis : x y z
#
# Youngs Moduli (GPa) = 62.36252 32.60858 21.88563
#
# Poissons Ratio (x) = 0.27655 0.49516
# Poissons Ratio (y) = 0.52889 -0.27515
# Poissons Ratio (z) = 1.41095 -0.40996
#
# Static dielectric constant tensor:
#      x y z
#    x 1.803080 0.000000 0.000000 
#    y 0.000000 1.777400 0.000000 
#    z 0.000000 0.000000 1.773580 
# 
# From -- ./inp_files/24318.got.cif
#   From: 2010.05.17/outbox.cif.g08.bks.cpg/sg47_13_cif.got.tgz:24318.got - 2010.06.03 20:15:42.
