data_PCOD9388213
_publ_section_title
;
Structure prediction by ZEFSAII (Michael W. Deem and Ramdas Pophale) SiO2 
 PCOD9388213
Probable space group: P M M M
;
_chemical_formula_sum "Si O2"
_cell_formula_units_Z 36
_cell_length_a 24.034951
_cell_length_b 12.893898
_cell_length_c 7.600291
_cell_angle_alpha 90.000000
_cell_angle_beta 90.000000
_cell_angle_gamma 90.000000
_cell_volume 2355.362153
_symmetry_space_group_name_H-M "P M M M"
_symmetry_group_IT_number 47
_symmetry_cell_setting 'orthorhombic'
loop_
_space_group_symop_operation_xyz
x,y,z
-x,-y,z
x,-y,-z
-x,y,-z
-x,-y,-z
x,y,-z
-x,y,z
x,-y,z
loop_
_atom_site_type_symbol
_atom_site_label
_atom_site_fract_x
_atom_site_fract_y
_atom_site_fract_z
Si Si1 0.140671 0.804929 0.204657
Si Si2 0.437440 0.873922 0.202116
Si Si3 0.775454 0.874412 0.500000
Si Si4 0.064597 0.000000 0.712640
Si Si5 0.062915 0.618537 0.785749
Si Si6 0.353201 0.873627 0.500000
O O1 0.191875 0.833258 0.329510
O O2 0.096573 0.898839 0.219777
O O3 0.108489 0.701959 0.268206
O O4 0.156728 0.793370 0.000000
O O5 0.500000 0.842887 0.258367
O O6 0.388751 0.839254 0.330915
O O7 0.437159 0.000000 0.204764
O O8 0.429170 0.842181 0.000000
O O9 0.710973 0.842464 0.500000
O O10 0.778809 0.000000 0.500000
O O11 0.067938 0.000000 0.500000
O O12 0.000000 0.000000 0.764055
O O13 0.074059 0.500000 0.731323
O O14 0.000000 0.646366 0.728821
O O15 0.062443 0.619921 0.000000
O O16 0.353104 0.000000 0.500000
#
# Coordination Sequence:
#
# PCOD9388213 Si02
#       6
#     8   8   4   4   8   4
#     4  11  20  33  50  64  85 115 145 179 221 267
#     4   8  13  22  37  58  79  99 133 180 222 254
#     4  11  22  35  41  59  88 118 158 191 211 245
#     4  11  21  33  49  66  87 111 140 183 224 264
#     4   8  15  29  49  71  89 104 130 175 231 285
#     4   9  17  26  39  51  76 112 145 177 216 251
#
# _framework density 15.284274
#
# number of rings (size 3 to 8) (size 9 to 14) (size 15 to 20)
#    0.000    2.556    2.222    2.667    0.000    4.000 
#    0.000    2.778    0.000    1.333    0.000    0.000 
#    0.000    0.000    0.000    0.000    0.000    8.889 
#
# Total GULP energy -200680.905743 kJ/mol
# GULP energy per Si atom -5574.469604 kJ/mol
# Density = 1.524949 g / cm^3
# Si number density = 15.284274 Si / 1000 Ang^3
#
#
#
# Elastic Constant Matrix: (Units=GPa)
#
#
# Indices 1 2 3 4 5 6 
#
# 1 157.0400 42.9538 70.3802 0.0000 0.0000 0.0000
# 2 42.9538 51.6224 19.3247 0.0000 0.0000 0.0000
# 3 70.3802 19.3247 84.8267 0.0000 0.0000 0.0000
# 4 0.0000 0.0000 0.0000 -32.4374 0.0000 0.0000
# 5 0.0000 0.0000 0.0000 0.0000 -4.6327 0.0000
# 6 0.0000 0.0000 0.0000 0.0000 0.0000 10.8343
#
#
#
# Elastic Compliance Matrix: (Units=1/GPa)
#
#
# Indices 1 2 3 4 5 6 
#
# 1 0.012005 -0.006844 -0.008401 0.000000 0.000000 0.000000
# 2 -0.006844 0.025079 -0.000035 0.000000 0.000000 0.000000
# 3 -0.008401 -0.000035 0.018767 0.000000 0.000000 0.000000
# 4 0.000000 0.000000 0.000000 -0.030829 0.000000 0.000000
# 5 0.000000 0.000000 0.000000 0.000000 -0.215857 0.000000
# 6 0.000000 0.000000 0.000000 0.000000 0.000000 0.092300
#
#
# Mechanical properties :
#
#
# Convention : Reuss Voigt Hill
#
# Bulk Modulus (GPa) = 39.53989 62.08961 50.81475
# Shear Modulus (GPa) = -83.97192 5.47487 -39.24853
#
# Velocity S-wave (km/s) = -7.42020 1.89468 -5.07295
# Velocity P-wave (km/s) = 6.89106 6.74521 0.99721
#
# Compressibility (1/GPa) = 0.02529091
#
# Stress axis : x y z
#
# Youngs Moduli (GPa) = 83.29870 39.87349 53.28450
#
# Poissons Ratio (x) = 0.27290 0.44766
# Poissons Ratio (y) = 0.57010 0.00186
# Poissons Ratio (z) = 0.69982 0.00139
#
# Static dielectric constant tensor:
#      x y z
#    x 1.495310 0.000000 0.000000 
#    y 0.000000 1.488480 0.000000 
#    z 0.000000 0.000000 1.553290 
# 
# From -- ./inp_files/10612.got.cif
#   From: 2010.05.17/outbox.cif.g08.bks.cpg/sg47_6_cif.got.tgz:10612.got - 2010.06.03 20:15:42.
