data_PCOD9388011
_publ_section_title
;
Structure prediction by ZEFSAII (Michael W. Deem and Ramdas Pophale) SiO2 
 PCOD9388011
Probable space group: P M M M
;
_chemical_formula_sum "Si O2"
_cell_formula_units_Z 56
_cell_length_a 14.178497
_cell_length_b 21.453421
_cell_length_c 9.568086
_cell_angle_alpha 90.000000
_cell_angle_beta 90.000000
_cell_angle_gamma 90.000000
_cell_volume 2910.394234
_symmetry_space_group_name_H-M "P M M M"
_symmetry_group_IT_number 47
_symmetry_cell_setting 'orthorhombic'
loop_
_space_group_symop_operation_xyz
x,y,z
-x,-y,z
x,-y,-z
-x,y,-z
-x,-y,-z
x,y,-z
-x,y,z
x,-y,z
loop_
_atom_site_type_symbol
_atom_site_label
_atom_site_fract_x
_atom_site_fract_y
_atom_site_fract_z
Si Si1 0.386140 0.677133 0.163258
Si Si2 0.283795 0.569650 0.665779
Si Si3 0.114313 0.753900 0.156356
Si Si4 0.701792 0.931086 0.667442
Si Si5 0.613479 0.818122 0.837149
Si Si6 0.107150 0.127371 0.666388
Si Si7 0.111389 0.610000 0.165697
O O1 0.500000 0.675439 0.170837
O O2 0.343334 0.623347 0.258464
O O3 0.355434 0.747699 0.202613
O O4 0.359878 0.667431 0.000000
O O5 0.277831 0.580686 0.500000
O O6 0.323751 0.500000 0.687995
O O7 0.180692 0.571944 0.736662
O O8 0.139655 0.808335 0.261920
O O9 0.138249 0.682743 0.190172
O O10 0.000000 0.753797 0.152158
O O11 0.148491 0.768281 0.000000
O O12 0.688495 0.925791 0.500000
O O13 0.652495 0.873857 0.744206
O O14 0.813670 0.923629 0.696002
O O15 0.669110 0.000000 0.711119
O O16 0.500000 0.818327 0.828158
O O17 0.638327 0.827706 0.000000
O O18 0.104815 0.136489 0.500000
O O19 0.000000 0.112454 0.712220
O O20 0.000000 0.601639 0.194473
O O21 0.125148 0.597300 0.000000
#
# Coordination Sequence:
#
# PCOD9388011 Si02
#       7
#     8   8   8   8   8   8   8
#     4   9  20  41  67  91 113 142 186 238 289 344
#     4  11  25  40  55  83 122 159 192 231 284 343
#     4   8  15  29  49  74 102 133 175 229 283 326
#     4  10  22  37  53  80 117 154 192 232 277 332
#     4   9  20  40  64  88 112 140 180 232 287 341
#     4   9  18  32  50  74 107 148 191 231 272 322
#     4   9  19  36  57  81 111 151 198 243 286 334
#
# _framework density 19.241378999999998
#
# number of rings (size 3 to 8) (size 9 to 14) (size 15 to 20)
#    0.000    2.714    0.000    2.143    2.000    5.143 
#    0.000    8.571    0.000    0.000    0.000    3.000 
#    0.000    0.000    0.000    0.000    0.000    0.000 
#
# Total GULP energy -312438.593896 kJ/mol
# GULP energy per Si atom -5579.260605 kJ/mol
# Density = 1.919758 g / cm^3
# Si number density = 19.241379 Si / 1000 Ang^3
#
#
#
# Elastic Constant Matrix: (Units=GPa)
#
#
# Indices 1 2 3 4 5 6 
#
# 1 61.5592 51.0391 36.1657 0.0000 0.0000 0.0000
# 2 51.0391 157.2790 81.9658 0.0000 0.0000 0.0000
# 3 36.1657 81.9658 59.0962 0.0000 0.0000 0.0000
# 4 0.0000 0.0000 0.0000 35.1472 0.0000 0.0000
# 5 0.0000 0.0000 0.0000 0.0000 25.6875 0.0000
# 6 0.0000 0.0000 0.0000 0.0000 0.0000 18.4534
#
#
#
# Elastic Compliance Matrix: (Units=1/GPa)
#
#
# Indices 1 2 3 4 5 6 
#
# 1 0.025375 -0.000511 -0.014820 0.000000 0.000000 0.000000
# 2 -0.000511 0.022949 -0.031518 0.000000 0.000000 0.000000
# 3 -0.014820 -0.031518 0.069706 0.000000 0.000000 0.000000
# 4 0.000000 0.000000 0.000000 0.028452 0.000000 0.000000
# 5 0.000000 0.000000 0.000000 0.000000 0.038929 0.000000
# 6 0.000000 0.000000 0.000000 0.000000 0.000000 0.054190
#
#
# Mechanical properties :
#
#
# Convention : Reuss Voigt Hill
#
# Bulk Modulus (GPa) = 41.09758 68.47508 54.78633
# Shear Modulus (GPa) = 14.64507 23.10856 18.87681
#
# Velocity S-wave (km/s) = 2.76184 3.46928 3.13557
# Velocity P-wave (km/s) = 5.61922 7.19114 6.45322
#
# Compressibility (1/GPa) = 0.02433233
#
# Stress axis : x y z
#
# Youngs Moduli (GPa) = 39.40885 43.57398 14.34589
#
# Poissons Ratio (x) = 0.02226 0.21261
# Poissons Ratio (y) = 0.02013 0.45215
# Poissons Ratio (z) = 0.58405 1.37336
#
# Static dielectric constant tensor:
#      x y z
#    x 1.719910 0.000000 0.000000 
#    y 0.000000 1.668900 0.000000 
#    z 0.000000 0.000000 1.630870 
# 
# From -- ./inp_files/7238.got.cif
#   From: 2010.05.17/outbox.cif.g08.bks.cpg/sg47_4_cif.got.tgz:7238.got - 2010.06.03 20:15:42.
