data_PCOD9388867
_publ_section_title
;
Structure prediction by ZEFSAII (Michael W. Deem and Ramdas Pophale) SiO2 
 PCOD9388867
Probable space group: P M M M
;
_chemical_formula_sum "Si O2"
_cell_formula_units_Z 44
_cell_length_a 7.564193
_cell_length_b 30.033401
_cell_length_c 9.891617
_cell_angle_alpha 90.000000
_cell_angle_beta 90.000000
_cell_angle_gamma 90.000000
_cell_volume 2247.162135
_symmetry_space_group_name_H-M "P M M M"
_symmetry_group_IT_number 47
_symmetry_cell_setting 'orthorhombic'
loop_
_space_group_symop_operation_xyz
x,y,z
-x,-y,z
x,-y,-z
-x,y,-z
-x,-y,-z
x,y,-z
-x,y,z
x,-y,z
loop_
_atom_site_type_symbol
_atom_site_label
_atom_site_fract_x
_atom_site_fract_y
_atom_site_fract_z
Si Si1 0.289868 0.000000 0.345924
Si Si2 0.712279 0.725108 0.845782
Si Si3 0.287661 0.547847 0.662430
Si Si4 0.716622 0.354849 0.657045
Si Si5 0.788041 0.825191 0.846144
Si Si6 0.789781 0.902899 0.346044
O O1 0.236718 0.047561 0.286375
O O2 0.500000 0.000000 0.352776
O O3 0.215859 0.000000 0.500000
O O4 0.500000 0.721120 0.850868
O O5 0.777405 0.685961 0.748839
O O6 0.752460 0.775046 0.797081
O O7 0.779372 0.721111 0.000000
O O8 0.260295 0.548135 0.500000
O O9 0.500000 0.547305 0.683284
O O10 0.218727 0.500000 0.713723
O O11 0.224195 0.596310 0.709126
O O12 0.768727 0.349631 0.500000
O O13 0.500000 0.355261 0.657987
O O14 0.718515 0.863622 0.747954
O O15 0.000000 0.830213 0.853010
O O16 0.719167 0.828804 0.000000
O O17 0.717579 0.902052 0.500000
O O18 0.000000 0.896333 0.356343
#
# Coordination Sequence:
#
# PCOD9388867 Si02
#       6
#     4   8   8   8   8   8
#     4   9  17  29  46  69  94 116 138 165 198 238
#     4   9  17  28  41  57  79 107 134 162 202 247
#     4   7   9  14  26  45  69  97 128 160 193 231
#     4   8  13  21  34  53  76 102 133 166 198 237
#     4   9  18  32  47  62  82 109 140 171 202 239
#     4   9  17  30  48  67  86 110 139 169 201 236
#
# _framework density 19.580252999999999
#
# number of rings (size 3 to 8) (size 9 to 14) (size 15 to 20)
#    0.000    3.545    0.000    1.909    0.000    2.545 
#    0.000    0.455    0.000    3.273    0.000    3.818 
#    0.000    0.727    0.000    9.091    0.000    8.364 
#
# Total GULP energy -244948.275657 kJ/mol
# GULP energy per Si atom -5567.006265 kJ/mol
# Density = 1.953569 g / cm^3
# Si number density = 19.580253 Si / 1000 Ang^3
#
#
#
# Elastic Constant Matrix: (Units=GPa)
#
#
# Indices 1 2 3 4 5 6 
#
# 1 43.9393 0.2703 3.9939 0.0000 0.0000 0.0000
# 2 0.2703 247.8533 90.3358 0.0000 0.0000 0.0000
# 3 3.9939 90.3358 51.7919 0.0000 0.0000 0.0000
# 4 0.0000 0.0000 0.0000 772.2683 0.0000 0.0000
# 5 0.0000 0.0000 0.0000 0.0000 0.5264 0.0000
# 6 0.0000 0.0000 0.0000 0.0000 0.0000 21.6734
#
#
#
# Elastic Compliance Matrix: (Units=1/GPa)
#
#
# Indices 1 2 3 4 5 6 
#
# 1 0.023183 0.001719 -0.004787 0.000000 0.000000 0.000000
# 2 0.001719 0.011203 -0.019673 0.000000 0.000000 0.000000
# 3 -0.004787 -0.019673 0.053991 0.000000 0.000000 0.000000
# 4 0.000000 0.000000 0.000000 0.001295 0.000000 0.000000
# 5 0.000000 0.000000 0.000000 0.000000 1.899591 0.000000
# 6 0.000000 0.000000 0.000000 0.000000 0.000000 0.046140
#
#
# Mechanical properties :
#
#
# Convention : Reuss Voigt Hill
#
# Bulk Modulus (GPa) = 23.31187 59.19827 41.25507
# Shear Modulus (GPa) = 2.38643 175.49258 88.93951
#
# Velocity S-wave (km/s) = 1.10519 9.47744 6.74697
# Velocity P-wave (km/s) = 3.68242 12.24997 9.04495
#
# Compressibility (1/GPa) = 0.04289660
#
# Stress axis : x y z
#
# Youngs Moduli (GPa) = 43.13468 89.26149 18.52163
#
# Poissons Ratio (x) = -0.15347 0.08866
# Poissons Ratio (y) = -0.07416 0.36438
# Poissons Ratio (z) = 0.20647 1.75604
#
# Static dielectric constant tensor:
#      x y z
#    x 1.739090 0.000000 0.000000 
#    y 0.000000 1.722010 0.000000 
#    z 0.000000 0.000000 1.671120 
# 
# From -- ./inp_files/2120.got.cif
#   From: 2010.05.17/outbox.cif.g08.bks.cpg/sg47_2_cif.got.tgz:2120.got - 2010.06.03 20:15:42.
