data_PCOD9388218
_publ_section_title
;
Structure prediction by ZEFSAII (Michael W. Deem and Ramdas Pophale) SiO2 
 PCOD9388218
Probable space group: P M M M
;
_chemical_formula_sum "Si O2"
_cell_formula_units_Z 48
_cell_length_a 18.392367
_cell_length_b 14.874869
_cell_length_c 10.064693
_cell_angle_alpha 90.000000
_cell_angle_beta 90.000000
_cell_angle_gamma 90.000000
_cell_volume 2753.539470
_symmetry_space_group_name_H-M "P M M M"
_symmetry_group_IT_number 47
_symmetry_cell_setting 'orthorhombic'
loop_
_space_group_symop_operation_xyz
x,y,z
-x,-y,z
x,-y,-z
-x,y,-z
-x,-y,-z
x,y,-z
-x,y,z
x,-y,z
loop_
_atom_site_type_symbol
_atom_site_label
_atom_site_fract_x
_atom_site_fract_y
_atom_site_fract_z
Si Si1 0.912879 0.395103 0.000000
Si Si2 0.087565 0.392758 0.500000
Si Si3 0.686861 0.343210 0.152265
Si Si4 0.799505 0.898746 0.159832
Si Si5 0.582292 0.500000 0.837862
Si Si6 0.158341 0.296704 0.751398
Si Si7 0.632164 0.142458 0.150563
Si Si8 0.500000 0.106289 0.349055
O O1 0.883532 0.340781 0.125464
O O2 0.888612 0.500000 0.000000
O O3 0.000000 0.395708 0.000000
O O4 0.107276 0.500000 0.500000
O O5 0.119523 0.338451 0.624532
O O6 0.000000 0.389259 0.500000
O O7 0.629341 0.414689 0.202520
O O8 0.758860 0.331979 0.238072
O O9 0.646976 0.248372 0.144748
O O10 0.709249 0.367115 0.000000
O O11 0.835382 0.812119 0.231465
O O12 0.712153 0.896621 0.183356
O O13 0.825887 0.000000 0.193184
O O14 0.808292 0.885162 0.000000
O O15 0.500000 0.500000 0.789236
O O16 0.579116 0.500000 0.000000
O O17 0.570965 0.127067 0.260109
O O18 0.611541 0.112314 0.000000
O O19 0.500000 0.145528 0.500000
O O20 0.500000 0.000000 0.364203
#
# Coordination Sequence:
#
# PCOD9388218 Si02
#       8
#     4   4   8   8   4   8   8   4
#     4  11  22  34  59  91 117 147 187 236 295 349
#     4  11  26  44  61  85 123 163 195 236 291 351
#     4   9  18  32  55  84 111 143 189 241 281 332
#     4   9  17  34  61  91 117 144 189 248 299 345
#     4   9  18  28  46  79 116 149 181 229 293 341
#     4  11  20  38  60  87 118 154 196 243 289 348
#     4   9  18  33  54  78 104 140 187 231 282 345
#     4  11  23  35  47  70 105 140 178 235 293 337
#
# _framework density 17.432107999999999
#
# number of rings (size 3 to 8) (size 9 to 14) (size 15 to 20)
#    0.000    2.167    1.667    2.750    3.500    2.667 
#    6.000    0.417    0.000    3.000    0.000    1.167 
#    0.000    0.000    0.000    0.000    0.000    0.000 
#
# Total GULP energy -267446.164221 kJ/mol
# GULP energy per Si atom -5571.795088 kJ/mol
# Density = 1.739243 g / cm^3
# Si number density = 17.432108 Si / 1000 Ang^3
#
#
#
# Elastic Constant Matrix: (Units=GPa)
#
#
# Indices 1 2 3 4 5 6 
#
# 1 83.6977 64.2763 51.8818 0.0000 0.0000 0.0000
# 2 64.2763 152.8390 47.6013 0.0000 0.0000 0.0000
# 3 51.8818 47.6013 119.0021 0.0000 0.0000 0.0000
# 4 0.0000 0.0000 0.0000 20.3790 0.0000 0.0000
# 5 0.0000 0.0000 0.0000 0.0000 39.0262 0.0000
# 6 0.0000 0.0000 0.0000 0.0000 0.0000 -1.8438
#
#
#
# Elastic Compliance Matrix: (Units=1/GPa)
#
#
# Indices 1 2 3 4 5 6 
#
# 1 0.021313 -0.006933 -0.006519 0.000000 0.000000 0.000000
# 2 -0.006933 0.009729 -0.000869 0.000000 0.000000 0.000000
# 3 -0.006519 -0.000869 0.011593 0.000000 0.000000 0.000000
# 4 0.000000 0.000000 0.000000 0.049070 0.000000 0.000000
# 5 0.000000 0.000000 0.000000 0.000000 0.025624 0.000000
# 6 0.000000 0.000000 0.000000 0.000000 0.000000 -0.542347
#
#
# Mechanical properties :
#
#
# Convention : Reuss Voigt Hill
#
# Bulk Modulus (GPa) = 71.46218 75.89527 73.67872
# Shear Modulus (GPa) = -12.76445 24.29754 5.76655
#
# Velocity S-wave (km/s) = -2.70893 3.73746 1.82076
# Velocity P-wave (km/s) = 5.59457 7.89031 6.83945
#
# Compressibility (1/GPa) = 0.01399342
#
# Stress axis : x y z
#
# Youngs Moduli (GPa) = 46.92078 102.78436 86.26034
#
# Poissons Ratio (x) = 0.71258 0.56229
# Poissons Ratio (y) = 0.32529 0.07498
# Poissons Ratio (z) = 0.30586 0.08934
#
# Static dielectric constant tensor:
#      x y z
#    x 1.625700 0.000000 0.000000 
#    y 0.000000 1.642300 0.000000 
#    z 0.000000 0.000000 1.661600 
# 
# From -- ./inp_files/9276.got.cif
#   From: 2010.05.17/outbox.cif.g08.bks.cpg/sg47_5_cif.got.tgz:9276.got - 2010.06.03 20:15:42.
