data_PCOD9388292
_publ_section_title
;
Structure prediction by ZEFSAII (Michael W. Deem and Ramdas Pophale) SiO2 
 PCOD9388292
Probable space group: P M M M
;
_chemical_formula_sum "Si O2"
_cell_formula_units_Z 36
_cell_length_a 22.976398
_cell_length_b 8.025454
_cell_length_c 12.146945
_cell_angle_alpha 90.000000
_cell_angle_beta 90.000000
_cell_angle_gamma 90.000000
_cell_volume 2239.848377
_symmetry_space_group_name_H-M "P M M M"
_symmetry_group_IT_number 47
_symmetry_cell_setting 'orthorhombic'
loop_
_space_group_symop_operation_xyz
x,y,z
-x,-y,z
x,-y,-z
-x,y,-z
-x,-y,-z
x,y,-z
-x,y,z
x,-y,z
loop_
_atom_site_type_symbol
_atom_site_label
_atom_site_fract_x
_atom_site_fract_y
_atom_site_fract_z
Si Si1 0.612045 0.198129 0.234701
Si Si2 0.146792 0.692085 0.366229
Si Si3 0.722264 0.699892 0.375162
Si Si4 0.932781 0.000000 0.365717
Si Si5 0.500000 0.699390 0.374936
Si Si6 0.568069 0.204141 0.000000
O O1 0.671257 0.254560 0.292302
O O2 0.557383 0.245470 0.310562
O O3 0.613964 0.000000 0.227359
O O4 0.599161 0.262655 0.111613
O O5 0.145376 0.686849 0.500000
O O6 0.136579 0.500000 0.329243
O O7 0.212662 0.748512 0.338597
O O8 0.100954 0.832062 0.330318
O O9 0.711146 0.764345 0.500000
O O10 0.723981 0.500000 0.382777
O O11 0.931798 0.000000 0.500000
O O12 0.000000 0.000000 0.331356
O O13 0.500000 0.500000 0.378959
O O14 0.500000 0.763888 0.500000
O O15 0.500000 0.253282 0.000000
O O16 0.568449 0.000000 0.000000
#
# Coordination Sequence:
#
# PCOD9388292 Si02
#       6
#     8   8   8   4   4   4
#     4  11  21  33  52  70  85 114 153 192 232 281
#     4   8  15  27  41  58  87 125 158 192 233 274
#     4   9  18  32  47  66  94 123 151 189 238 282
#     4   9  16  24  38  62  90 122 163 200 224 262
#     4  11  23  36  47  64  94 119 140 185 240 281
#     4   9  18  36  52  64  88 116 144 187 240 285
#
# _framework density 16.072517999999999
#
# number of rings (size 3 to 8) (size 9 to 14) (size 15 to 20)
#    0.000    2.556    1.111    3.000    1.556    4.444 
#    0.000    5.000    0.000    0.000    0.000    0.000 
#    0.000    0.000    0.000    2.000    0.000    9.778 
#
# Total GULP energy -200621.330111 kJ/mol
# GULP energy per Si atom -5572.814725 kJ/mol
# Density = 1.603594 g / cm^3
# Si number density = 16.072518 Si / 1000 Ang^3
#
#
#
# Elastic Constant Matrix: (Units=GPa)
#
#
# Indices 1 2 3 4 5 6 
#
# 1 163.7608 58.2185 61.5924 0.0000 0.0000 0.0000
# 2 58.2185 47.1186 18.5293 0.0000 0.0000 0.0000
# 3 61.5924 18.5293 86.9801 0.0000 0.0000 0.0000
# 4 0.0000 0.0000 0.0000 23.3608 0.0000 0.0000
# 5 0.0000 0.0000 0.0000 0.0000 -0.4993 0.0000
# 6 0.0000 0.0000 0.0000 0.0000 0.0000 36.8499
#
#
#
# Elastic Compliance Matrix: (Units=1/GPa)
#
#
# Indices 1 2 3 4 5 6 
#
# 1 0.013692 -0.014303 -0.006649 0.000000 0.000000 0.000000
# 2 -0.014303 0.038104 0.002011 0.000000 0.000000 0.000000
# 3 -0.006649 0.002011 0.015777 0.000000 0.000000 0.000000
# 4 0.000000 0.000000 0.000000 0.042807 0.000000 0.000000
# 5 0.000000 0.000000 0.000000 0.000000 -2.002622 0.000000
# 6 0.000000 0.000000 0.000000 0.000000 0.000000 0.027137
#
#
# Mechanical properties :
#
#
# Convention : Reuss Voigt Hill
#
# Bulk Modulus (GPa) = 33.67956 63.83776 48.75866
# Shear Modulus (GPa) = -2.75129 22.57690 9.91281
#
# Velocity S-wave (km/s) = -1.30978 3.75199 2.48615
# Velocity P-wave (km/s) = 4.32584 7.65341 6.21641
#
# Compressibility (1/GPa) = 0.02969160
#
# Stress axis : x y z
#
# Youngs Moduli (GPa) = 73.03625 26.24370 63.38526
#
# Poissons Ratio (x) = 0.37536 0.42142
# Poissons Ratio (y) = 1.04462 -0.12745
# Poissons Ratio (z) = 0.48559 -0.05277
#
# Static dielectric constant tensor:
#      x y z
#    x 1.524630 0.000000 0.000000 
#    y 0.000000 1.571580 0.000000 
#    z 0.000000 0.000000 1.535260 
# 
# From -- ./inp_files/18862.got.cif
#   From: 2010.05.17/outbox.cif.g08.bks.cpg/sg47_10_cif.got.tgz:18862.got - 2010.06.03 20:15:42.
