data_PCOD9388601
_publ_section_title
;
Structure prediction by ZEFSAII (Michael W. Deem and Ramdas Pophale) SiO2 
 PCOD9388601
Probable space group: P M M M
;
_chemical_formula_sum "Si O2"
_cell_formula_units_Z 64
_cell_length_a 7.492904
_cell_length_b 21.487526
_cell_length_c 18.396189
_cell_angle_alpha 90.000000
_cell_angle_beta 90.000000
_cell_angle_gamma 90.000000
_cell_volume 2961.859453
_symmetry_space_group_name_H-M "P M M M"
_symmetry_group_IT_number 47
_symmetry_cell_setting 'orthorhombic'
loop_
_space_group_symop_operation_xyz
x,y,z
-x,-y,z
x,-y,-z
-x,y,-z
-x,-y,-z
x,y,-z
-x,y,z
x,-y,z
loop_
_atom_site_type_symbol
_atom_site_label
_atom_site_fract_x
_atom_site_fract_y
_atom_site_fract_z
Si Si1 0.711403 0.432202 0.203422
Si Si2 0.714699 0.201610 0.870507
Si Si3 0.717948 0.702315 0.420492
Si Si4 0.712435 0.067332 0.883588
Si Si5 0.281294 0.797523 0.702744
Si Si6 0.712788 0.933456 0.292307
Si Si7 0.790412 0.337440 0.077452
Si Si8 0.718081 0.430748 0.630673
O O1 0.500000 0.437217 0.212163
O O2 0.778476 0.500000 0.177233
O O3 0.735400 0.377103 0.146932
O O4 0.777646 0.422019 0.285398
O O5 0.500000 0.195584 0.867645
O O6 0.781430 0.135984 0.903836
O O7 0.775298 0.210811 0.786670
O O8 0.756282 0.264384 0.912284
O O9 0.771510 0.725962 0.500000
O O10 0.500000 0.702705 0.418256
O O11 0.777523 0.744902 0.353311
O O12 0.775004 0.630688 0.411485
O O13 0.500000 0.066192 0.900104
O O14 0.731686 0.067813 0.795569
O O15 0.784291 0.000000 0.909045
O O16 0.500000 0.796855 0.703454
O O17 0.221745 0.867018 0.679915
O O18 0.500000 0.934353 0.305870
O O19 0.786319 0.000000 0.317938
O O20 0.000000 0.346462 0.073736
O O21 0.710691 0.358021 0.000000
O O22 0.500000 0.431012 0.628430
O O23 0.774138 0.500000 0.606472
#
# Coordination Sequence:
#
# PCOD9388601 Si02
#       8
#     8   8   8   8   8   8   8   8
#     4   9  18  34  56  76  90 109 143 187 228 264
#     4   9  16  28  49  70  87 115 154 193 229 264
#     4   9  15  20  28  47  80 119 148 170 204 251
#     4   7  10  18  36  65  92 107 132 184 239 272
#     4   8  13  21  35  56  79 104 139 182 221 254
#     4   7   9  14  26  46  72  99 128 169 221 265
#     4  11  24  37  47  64  94 126 149 175 215 263
#     4   8  14  25  41  61  83 105 133 173 216 253
#
# _framework density 21.608046000000002
#
# number of rings (size 3 to 8) (size 9 to 14) (size 15 to 20)
#    0.000    3.500    0.000    4.125    0.000    3.750 
#    0.000    2.500    0.000    1.125    0.000    5.250 
#    0.000    8.000    0.000   11.000    0.000   11.000 
#
# Total GULP energy -356536.465147 kJ/mol
# GULP energy per Si atom -5570.882268 kJ/mol
# Density = 2.155887 g / cm^3
# Si number density = 21.608046 Si / 1000 Ang^3
#
#
#
# Elastic Constant Matrix: (Units=GPa)
#
#
# Indices 1 2 3 4 5 6 
#
# 1 53.1304 -5.9622 -0.2214 0.0000 0.0000 0.0000
# 2 -5.9622 100.4150 27.1269 0.0000 0.0000 0.0000
# 3 -0.2214 27.1269 55.6751 0.0000 0.0000 0.0000
# 4 0.0000 0.0000 0.0000 -23.0865 0.0000 0.0000
# 5 0.0000 0.0000 0.0000 0.0000 2.3091 0.0000
# 6 0.0000 0.0000 0.0000 0.0000 0.0000 -64.7191
#
#
#
# Elastic Compliance Matrix: (Units=1/GPa)
#
#
# Indices 1 2 3 4 5 6 
#
# 1 0.018962 0.001273 -0.000545 0.000000 0.000000 0.000000
# 2 0.001273 0.011554 -0.005624 0.000000 0.000000 0.000000
# 3 -0.000545 -0.005624 0.020700 0.000000 0.000000 0.000000
# 4 0.000000 0.000000 0.000000 -0.043315 0.000000 0.000000
# 5 0.000000 0.000000 0.000000 0.000000 0.433069 0.000000
# 6 0.000000 0.000000 0.000000 0.000000 0.000000 -0.015451
#
#
# Mechanical properties :
#
#
# Convention : Reuss Voigt Hill
#
# Bulk Modulus (GPa) = 24.14105 27.90079 26.02092
# Shear Modulus (GPa) = 11.13295 -4.54749 3.29273
#
# Velocity S-wave (km/s) = 2.27231 -1.45228 1.23578
# Velocity P-wave (km/s) = 4.25218 3.18247 3.75561
#
# Compressibility (1/GPa) = 0.04142323
#
# Stress axis : x y z
#
# Youngs Moduli (GPa) = 52.73648 86.55275 48.31027
#
# Poissons Ratio (x) = -0.11019 0.02632
# Poissons Ratio (y) = -0.06714 0.27171
# Poissons Ratio (z) = 0.02874 0.48680
#
# Static dielectric constant tensor:
#      x y z
#    x 1.841080 0.000000 0.000000 
#    y 0.000000 1.867340 0.000000 
#    z 0.000000 0.000000 1.725570 
# 
# From -- ./inp_files/27061.got.cif
#   From: 2010.05.17/outbox.cif.g08.bks.cpg/sg47_14_cif.got.tgz:27061.got - 2010.06.03 20:15:42.
