data_PCOD9388084
_publ_section_title
;
Structure prediction by ZEFSAII (Michael W. Deem and Ramdas Pophale) SiO2 
 PCOD9388084
Probable space group: P M M M
;
_chemical_formula_sum "Si O2"
_cell_formula_units_Z 56
_cell_length_a 15.335755
_cell_length_b 7.881193
_cell_length_c 20.589553
_cell_angle_alpha 90.000000
_cell_angle_beta 90.000000
_cell_angle_gamma 90.000000
_cell_volume 2488.536659
_symmetry_space_group_name_H-M "P M M M"
_symmetry_group_IT_number 47
_symmetry_cell_setting 'orthorhombic'
loop_
_space_group_symop_operation_xyz
x,y,z
-x,-y,z
x,-y,-z
-x,y,-z
-x,-y,-z
x,y,-z
-x,y,z
x,-y,z
loop_
_atom_site_type_symbol
_atom_site_label
_atom_site_fract_x
_atom_site_fract_y
_atom_site_fract_z
Si Si1 0.278800 0.798971 0.573497
Si Si2 0.284259 0.701334 0.803186
Si Si3 0.402263 0.794776 0.315450
Si Si4 0.895520 0.193145 0.069994
Si Si5 0.098705 0.692374 0.210335
Si Si6 0.907829 0.703541 0.577029
Si Si7 0.399649 0.204381 0.074623
O O1 0.282255 0.727375 0.500000
O O2 0.347831 0.727295 0.623501
O O3 0.182172 0.773698 0.602242
O O4 0.293066 0.000000 0.567936
O O5 0.271447 0.500000 0.803447
O O6 0.357169 0.748600 0.751460
O O7 0.192243 0.776015 0.774278
O O8 0.324532 0.748242 0.873635
O O9 0.500000 0.731462 0.317521
O O10 0.403377 0.000000 0.319536
O O11 0.885750 0.309068 0.132194
O O12 0.000000 0.179811 0.064195
O O13 0.863115 0.000000 0.082184
O O14 0.861256 0.251282 0.000000
O O15 0.095020 0.500000 0.236518
O O16 0.000000 0.765304 0.220823
O O17 0.909228 0.746665 0.500000
O O18 0.905506 0.500000 0.581657
O O19 0.000000 0.763033 0.605762
O O20 0.500000 0.260103 0.092040
O O21 0.401733 0.000000 0.073977
O O22 0.382630 0.260844 0.000000
#
# Coordination Sequence:
#
# PCOD9388084 Si02
#       7
#     8   8   8   8   8   8   8
#     4   9  18  33  55  84 114 143 180 227 273 316
#     4  11  23  37  56  82 110 142 182 227 272 320
#     4  10  22  40  60  81 108 143 179 217 269 334
#     4   8  14  25  42  66  95 126 163 207 252 298
#     4   9  19  35  51  68  96 135 175 214 258 309
#     4   8  14  26  46  74 110 151 189 222 261 313
#     4   9  19  37  60  84 110 142 180 223 275 333
#
# _framework density 22.503183
#
# number of rings (size 3 to 8) (size 9 to 14) (size 15 to 20)
#    0.000    2.857    0.000    2.143    0.000    5.714 
#    0.000    8.571    0.000    2.571    0.000    3.000 
#    0.000    0.000    0.000    0.000    0.000    0.000 
#
# Total GULP energy -311941.744462 kJ/mol
# GULP energy per Si atom -5570.388294 kJ/mol
# Density = 2.245196 g / cm^3
# Si number density = 22.503183 Si / 1000 Ang^3
#
#
#
# Elastic Constant Matrix: (Units=GPa)
#
#
# Indices 1 2 3 4 5 6 
#
# 1 193.3853 8.2386 61.5987 0.0000 0.0000 0.0000
# 2 8.2386 23.3144 -0.8016 0.0000 0.0000 0.0000
# 3 61.5987 -0.8016 73.8496 0.0000 0.0000 0.0000
# 4 0.0000 0.0000 0.0000 46.0963 0.0000 0.0000
# 5 0.0000 0.0000 0.0000 0.0000 87.9681 0.0000
# 6 0.0000 0.0000 0.0000 0.0000 0.0000 22.4459
#
#
#
# Elastic Compliance Matrix: (Units=1/GPa)
#
#
# Indices 1 2 3 4 5 6 
#
# 1 0.007215 -0.002757 -0.006048 0.000000 0.000000 0.000000
# 2 -0.002757 0.043962 0.002777 0.000000 0.000000 0.000000
# 3 -0.006048 0.002777 0.018616 0.000000 0.000000 0.000000
# 4 0.000000 0.000000 0.000000 0.021694 0.000000 0.000000
# 5 0.000000 0.000000 0.000000 0.000000 0.011368 0.000000
# 6 0.000000 0.000000 0.000000 0.000000 0.000000 0.044552
#
#
# Mechanical properties :
#
#
# Convention : Reuss Voigt Hill
#
# Bulk Modulus (GPa) = 17.32019 47.62453 32.47236
# Shear Modulus (GPa) = 27.97866 46.06961 37.02414
#
# Velocity S-wave (km/s) = 3.52990 4.52956 4.06061
# Velocity P-wave (km/s) = 4.93225 6.96888 6.03707
#
# Compressibility (1/GPa) = 0.05773609
#
# Stress axis : x y z
#
# Youngs Moduli (GPa) = 138.60103 22.74702 53.71760
#
# Poissons Ratio (x) = 0.06272 0.32488
# Poissons Ratio (y) = 0.38219 -0.14919
# Poissons Ratio (z) = 0.83826 -0.06317
#
# Static dielectric constant tensor:
#      x y z
#    x 1.905240 0.000000 0.000000 
#    y 0.000000 1.834830 0.000000 
#    z 0.000000 0.000000 1.872230 
# 
# From -- ./inp_files/30976.got.cif
#   From: 2010.05.17/outbox.cif.g08.bks.cpg/sg47_16_cif.got.tgz:30976.got - 2010.06.03 20:15:42.
