data_PCOD9388641
_publ_section_title
;
Structure prediction by ZEFSAII (Michael W. Deem and Ramdas Pophale) SiO2 
 PCOD9388641
Probable space group: P M M M
;
_chemical_formula_sum "Si O2"
_cell_formula_units_Z 44
_cell_length_a 8.259020
_cell_length_b 9.491735
_cell_length_c 30.665707
_cell_angle_alpha 90.000000
_cell_angle_beta 90.000000
_cell_angle_gamma 90.000000
_cell_volume 2403.959265
_symmetry_space_group_name_H-M "P M M M"
_symmetry_group_IT_number 47
_symmetry_cell_setting 'orthorhombic'
loop_
_space_group_symop_operation_xyz
x,y,z
-x,-y,z
x,-y,-z
-x,y,-z
-x,-y,-z
x,y,-z
-x,y,z
x,-y,z
loop_
_atom_site_type_symbol
_atom_site_label
_atom_site_fract_x
_atom_site_fract_y
_atom_site_fract_z
Si Si1 0.307180 0.840391 0.786706
Si Si2 0.185989 0.328649 0.394699
Si Si3 0.500000 0.328089 0.550532
Si Si4 0.193015 0.340565 0.131067
Si Si5 0.695487 0.838111 0.049314
Si Si6 0.805590 0.661182 0.294727
O O1 0.500000 0.847232 0.789626
O O2 0.247366 0.750497 0.827660
O O3 0.261625 0.762823 0.742004
O O4 0.241895 0.000000 0.787913
O O5 0.181287 0.500000 0.396366
O O6 0.333662 0.282197 0.425545
O O7 0.226978 0.292935 0.344464
O O8 0.000000 0.281955 0.404750
O O9 0.500000 0.500000 0.552072
O O10 0.500000 0.286099 0.500000
O O11 0.258318 0.500000 0.133566
O O12 0.244351 0.264966 0.086528
O O13 0.000000 0.347412 0.132060
O O14 0.500000 0.836944 0.049818
O O15 0.746710 0.000000 0.058005
O O16 0.747611 0.800833 0.000000
O O17 0.745801 0.500000 0.288895
O O18 0.000000 0.657362 0.290459
#
# Coordination Sequence:
#
# PCOD9388641 Si02
#       6
#     8   8   4   8   8   8
#     4  11  24  38  53  77 106 135 171 215 263 317
#     4   8  15  27  42  64  96 132 172 219 265 314
#     4   9  16  24  38  64  97 137 181 217 260 319
#     4  11  24  39  55  78 108 140 176 217 259 309
#     4   9  19  37  60  84 109 138 174 216 261 310
#     4   9  18  33  53  76 101 133 175 217 260 315
#
# _framework density 18.303139999999999
#
# number of rings (size 3 to 8) (size 9 to 14) (size 15 to 20)
#    0.000    2.455    0.000    3.818    1.273    9.091 
#    0.000    4.545    0.000    0.000    0.000    0.000 
#    0.000    1.455    0.000    4.000    0.000    4.000 
#
# Total GULP energy -245432.444412 kJ/mol
# GULP energy per Si atom -5578.010100 kJ/mol
# Density = 1.826148 g / cm^3
# Si number density = 18.303140 Si / 1000 Ang^3
#
#
#
# Elastic Constant Matrix: (Units=GPa)
#
#
# Indices 1 2 3 4 5 6 
#
# 1 67.9937 40.8496 76.5478 0.0000 0.0000 0.0000
# 2 40.8496 96.4346 85.1462 0.0000 0.0000 0.0000
# 3 76.5478 85.1462 158.9011 0.0000 0.0000 0.0000
# 4 0.0000 0.0000 0.0000 -48.7948 0.0000 0.0000
# 5 0.0000 0.0000 0.0000 0.0000 48.6243 0.0000
# 6 0.0000 0.0000 0.0000 0.0000 0.0000 21.7751
#
#
#
# Elastic Compliance Matrix: (Units=1/GPa)
#
#
# Indices 1 2 3 4 5 6 
#
# 1 0.032136 0.000106 -0.015538 0.000000 0.000000 0.000000
# 2 0.000106 0.019682 -0.010598 0.000000 0.000000 0.000000
# 3 -0.015538 -0.010598 0.019457 0.000000 0.000000 0.000000
# 4 0.000000 0.000000 0.000000 -0.020494 0.000000 0.000000
# 5 0.000000 0.000000 0.000000 0.000000 0.020566 0.000000
# 6 0.000000 0.000000 0.000000 0.000000 0.000000 0.045924
#
#
# Mechanical properties :
#
#
# Convention : Reuss Voigt Hill
#
# Bulk Modulus (GPa) = 52.03878 80.93518 66.48698
# Shear Modulus (GPa) = 28.45197 12.37331 20.41264
#
# Velocity S-wave (km/s) = 3.94697 2.60286 3.34316
# Velocity P-wave (km/s) = 7.01889 7.30400 7.16287
#
# Compressibility (1/GPa) = 0.01921644
#
# Stress axis : x y z
#
# Youngs Moduli (GPa) = 31.11756 50.80859 51.39532
#
# Poissons Ratio (x) = -0.00540 0.79858
# Poissons Ratio (y) = -0.00331 0.54466
# Poissons Ratio (z) = 0.48351 0.53845
#
# Static dielectric constant tensor:
#      x y z
#    x 1.641340 0.000000 0.000000 
#    y 0.000000 1.628300 0.000000 
#    z 0.000000 0.000000 1.613440 
# 
# From -- ./inp_files/2183.got.cif
#   From: 2010.05.17/outbox.cif.g08.bks.cpg/sg47_2_cif.got.tgz:2183.got - 2010.06.03 20:15:42.
