data_PCOD9388995
_publ_section_title
;
Structure prediction by ZEFSAII (Michael W. Deem and Ramdas Pophale) SiO2 
 PCOD9388995
Probable space group: P M M M
;
_chemical_formula_sum "Si O2"
_cell_formula_units_Z 52
_cell_length_a 34.729768
_cell_length_b 7.319853
_cell_length_c 9.485304
_cell_angle_alpha 90.000000
_cell_angle_beta 90.000000
_cell_angle_gamma 90.000000
_cell_volume 2411.323597
_symmetry_space_group_name_H-M "P M M M"
_symmetry_group_IT_number 47
_symmetry_cell_setting 'orthorhombic'
loop_
_space_group_symop_operation_xyz
x,y,z
-x,-y,z
x,-y,-z
-x,y,-z
-x,-y,-z
x,y,-z
-x,y,z
x,-y,z
loop_
_atom_site_type_symbol
_atom_site_label
_atom_site_fract_x
_atom_site_fract_y
_atom_site_fract_z
Si Si1 0.849506 0.276852 0.837773
Si Si2 0.310206 0.781961 0.339671
Si Si3 0.000000 0.722791 0.163195
Si Si4 0.616898 0.776568 0.838442
Si Si5 0.542969 0.777737 0.337047
Si Si6 0.776619 0.282553 0.339091
Si Si7 0.924653 0.722691 0.337042
O O1 0.849501 0.500000 0.839394
O O2 0.810138 0.215259 0.762957
O O3 0.885993 0.220996 0.743953
O O4 0.852516 0.218391 0.000000
O O5 0.312761 0.710782 0.500000
O O6 0.344834 0.714968 0.243071
O O7 0.266886 0.748193 0.287359
O O8 0.314629 0.000000 0.347497
O O9 0.037982 0.779643 0.248357
O O10 0.000000 0.500000 0.161444
O O11 0.000000 0.781200 0.000000
O O12 0.578250 0.717337 0.758584
O O13 0.616890 0.000000 0.836905
O O14 0.617124 0.719301 0.000000
O O15 0.548602 0.723708 0.500000
O O16 0.500000 0.720625 0.292188
O O17 0.543119 0.000000 0.335249
O O18 0.779518 0.210912 0.500000
O O19 0.781839 0.500000 0.348195
O O20 0.925678 0.781482 0.500000
O O21 0.924796 0.500000 0.338884
#
# Coordination Sequence:
#
# PCOD9388995 Si02
#       7
#     8   8   4   8   8   8   8
#     4   9  16  25  37  53  73  98 128 162 201 243
#     4   9  17  29  44  60  80 108 138 166 200 243
#     4   9  15  21  29  43  65  93 126 163 200 239
#     4   9  16  24  35  53  77 104 133 165 200 237
#     4   8  13  21  33  49  71 101 134 164 195 234
#     4   9  17  29  44  61  80 103 134 171 206 239
#     4   9  15  22  32  46  66  94 128 163 198 238
#
# _framework density 21.564917999999999
#
# number of rings (size 3 to 8) (size 9 to 14) (size 15 to 20)
#    0.000    3.154    0.000    2.077    0.000    7.385 
#    0.000    1.538    0.000    0.000    0.000    0.000 
#    0.000    0.615    0.000    7.769    0.000   24.154 
#
# Total GULP energy -290402.397196 kJ/mol
# GULP energy per Si atom -5584.661485 kJ/mol
# Density = 2.151584 g / cm^3
# Si number density = 21.564918 Si / 1000 Ang^3
#
#
#
# Elastic Constant Matrix: (Units=GPa)
#
#
# Indices 1 2 3 4 5 6 
#
# 1 261.1686 2.5860 165.6641 0.0000 0.0000 0.0000
# 2 2.5860 86.1737 6.1368 0.0000 0.0000 0.0000
# 3 165.6641 6.1368 190.0292 0.0000 0.0000 0.0000
# 4 0.0000 0.0000 0.0000 -12.5125 0.0000 0.0000
# 5 0.0000 0.0000 0.0000 0.0000 68.0028 0.0000
# 6 0.0000 0.0000 0.0000 0.0000 0.0000 5.7738
#
#
#
# Elastic Compliance Matrix: (Units=1/GPa)
#
#
# Indices 1 2 3 4 5 6 
#
# 1 0.008572 0.000276 -0.007482 0.000000 0.000000 0.000000
# 2 0.000276 0.011640 -0.000616 0.000000 0.000000 0.000000
# 3 -0.007482 -0.000616 0.011805 0.000000 0.000000 0.000000
# 4 0.000000 0.000000 0.000000 -0.079920 0.000000 0.000000
# 5 0.000000 0.000000 0.000000 0.000000 0.014705 0.000000
# 6 0.000000 0.000000 0.000000 0.000000 0.000000 0.173197
#
#
# Mechanical properties :
#
#
# Convention : Reuss Voigt Hill
#
# Bulk Modulus (GPa) = 61.07964 98.46059 79.77011
# Shear Modulus (GPa) = 31.03640 36.45180 33.74410
#
# Velocity S-wave (km/s) = 3.79780 4.11582 3.96001
# Velocity P-wave (km/s) = 6.90045 8.26701 7.61445
#
# Compressibility (1/GPa) = 0.01637207
#
# Stress axis : x y z
#
# Youngs Moduli (GPa) = 116.65667 85.91009 84.71069
#
# Poissons Ratio (x) = -0.02367 0.63380
# Poissons Ratio (y) = -0.03215 0.05219
# Poissons Ratio (z) = 0.87282 0.05293
#
# Static dielectric constant tensor:
#      x y z
#    x 1.739240 0.000000 0.000000 
#    y 0.000000 1.958690 0.000000 
#    z 0.000000 0.000000 1.725700 
# 
# From -- ./inp_files/14128.got.cif
#   From: 2010.05.17/outbox.cif.g08.bks.cpg/sg47_8_cif.got.tgz:14128.got - 2010.06.03 20:15:42.
