data_PCOD9388339
_publ_section_title
;
Structure prediction by ZEFSAII (Michael W. Deem and Ramdas Pophale) SiO2 
 PCOD9388339
Probable space group: P M M M
;
_chemical_formula_sum "Si O2"
_cell_formula_units_Z 40
_cell_length_a 19.718339
_cell_length_b 12.909154
_cell_length_c 8.752237
_cell_angle_alpha 90.000000
_cell_angle_beta 90.000000
_cell_angle_gamma 90.000000
_cell_volume 2227.856326
_symmetry_space_group_name_H-M "P M M M"
_symmetry_group_IT_number 47
_symmetry_cell_setting 'orthorhombic'
loop_
_space_group_symop_operation_xyz
x,y,z
-x,-y,z
x,-y,-z
-x,y,-z
-x,-y,-z
x,y,-z
-x,y,z
x,-y,z
loop_
_atom_site_type_symbol
_atom_site_label
_atom_site_fract_x
_atom_site_fract_y
_atom_site_fract_z
Si Si1 0.809586 0.880705 0.813752
Si Si2 0.579264 0.000000 0.683099
Si Si3 0.578110 0.620285 0.684023
Si Si4 0.082355 0.500000 0.323905
Si Si5 0.921665 0.281865 0.184384
Si Si6 0.339178 0.806612 0.816805
O O1 0.872516 0.810136 0.763763
O O2 0.738302 0.829006 0.768829
O O3 0.812889 0.000000 0.762037
O O4 0.810786 0.882759 0.000000
O O5 0.615349 0.898885 0.749828
O O6 0.500000 0.000000 0.723016
O O7 0.585247 0.000000 0.500000
O O8 0.582134 0.628901 0.500000
O O9 0.500000 0.646003 0.727233
O O10 0.590174 0.500000 0.724162
O O11 0.630363 0.698856 0.758833
O O12 0.103231 0.500000 0.500000
O O13 0.103298 0.606579 0.243616
O O14 0.000000 0.500000 0.317343
O O15 0.000000 0.266633 0.233392
O O16 0.921275 0.284455 0.000000
O O17 0.341766 0.810268 0.000000
#
# Coordination Sequence:
#
# PCOD9388339 Si02
#       6
#     8   4   8   4   8   8
#     4   9  18  34  53  75 108 141 170 213 267 311
#     4  11  23  37  55  79 106 139 180 222 263 311
#     4   9  19  37  58  78 105 141 177 217 265 316
#     4   9  17  31  51  75 107 139 166 211 268 309
#     4   9  17  31  55  82 104 135 180 219 253 306
#     4  11  21  35  55  79 109 142 175 218 269 319
#
# _framework density 17.95448
#
# number of rings (size 3 to 8) (size 9 to 14) (size 15 to 20)
#    0.000    2.400    1.000    2.400    0.000    5.600 
#    1.800    5.000    0.000    0.000    0.000    2.800 
#    0.000    0.000    0.000    0.000    0.000    0.000 
#
# Total GULP energy -223161.397059 kJ/mol
# GULP energy per Si atom -5579.034926 kJ/mol
# Density = 1.791361 g / cm^3
# Si number density = 17.954480 Si / 1000 Ang^3
#
#
#
# Elastic Constant Matrix: (Units=GPa)
#
#
# Indices 1 2 3 4 5 6 
#
# 1 130.7025 102.9004 32.0981 0.0000 0.0000 0.0000
# 2 102.9004 156.3998 30.8566 0.0000 0.0000 0.0000
# 3 32.0981 30.8566 19.3704 0.0000 0.0000 0.0000
# 4 0.0000 0.0000 0.0000 24.0556 0.0000 0.0000
# 5 0.0000 0.0000 0.0000 0.0000 0.9414 0.0000
# 6 0.0000 0.0000 0.0000 0.0000 0.0000 1696.2665
#
#
#
# Elastic Compliance Matrix: (Units=1/GPa)
#
#
# Indices 1 2 3 4 5 6 
#
# 1 0.019039 -0.009190 -0.016909 0.000000 0.000000 0.000000
# 2 -0.009190 0.013761 -0.006691 0.000000 0.000000 0.000000
# 3 -0.016909 -0.006691 0.090303 0.000000 0.000000 0.000000
# 4 0.000000 0.000000 0.000000 0.041570 0.000000 0.000000
# 5 0.000000 0.000000 0.000000 0.000000 1.062269 0.000000
# 6 0.000000 0.000000 0.000000 0.000000 0.000000 0.000590
#
#
# Mechanical properties :
#
#
# Convention : Reuss Voigt Hill
#
# Bulk Modulus (GPa) = 17.38471 70.90922 44.14697
# Shear Modulus (GPa) = 3.81015 353.62722 178.71868
#
# Velocity S-wave (km/s) = 1.45833 14.04939 9.98779
# Velocity P-wave (km/s) = 3.54109 17.40000 12.55586
#
# Compressibility (1/GPa) = 0.05752180
#
# Stress axis : x y z
#
# Youngs Moduli (GPa) = 52.52444 72.67128 11.07381
#
# Poissons Ratio (x) = 0.66787 0.18724
# Poissons Ratio (y) = 0.48271 0.07410
# Poissons Ratio (z) = 0.88812 0.48628
#
# Static dielectric constant tensor:
#      x y z
#    x 1.608400 0.000000 0.000000 
#    y 0.000000 1.596690 0.000000 
#    z 0.000000 0.000000 1.606120 
# 
# From -- ./inp_files/10698.got.cif
#   From: 2010.05.17/outbox.cif.g08.bks.cpg/sg47_6_cif.got.tgz:10698.got - 2010.06.03 20:15:42.
