data_PCOD9388853
_publ_section_title
;
Structure prediction by ZEFSAII (Michael W. Deem and Ramdas Pophale) SiO2 
 PCOD9388853
Probable space group: P M M M
;
_chemical_formula_sum "Si O2"
_cell_formula_units_Z 44
_cell_length_a 7.372362
_cell_length_b 32.287578
_cell_length_c 8.073446
_cell_angle_alpha 90.000000
_cell_angle_beta 90.000000
_cell_angle_gamma 90.000000
_cell_volume 1921.768476
_symmetry_space_group_name_H-M "P M M M"
_symmetry_group_IT_number 47
_symmetry_cell_setting 'orthorhombic'
loop_
_space_group_symop_operation_xyz
x,y,z
-x,-y,z
x,-y,-z
-x,y,-z
-x,-y,-z
x,y,-z
-x,y,z
x,-y,z
loop_
_atom_site_type_symbol
_atom_site_label
_atom_site_fract_x
_atom_site_fract_y
_atom_site_fract_z
Si Si1 0.215452 0.188201 0.189526
Si Si2 0.717479 0.278161 0.188976
Si Si3 0.778569 0.047633 0.000000
Si Si4 0.221555 0.100392 0.317563
Si Si5 0.279351 0.544557 0.302957
Si Si6 0.287841 0.633279 0.301268
O O1 0.243401 0.233540 0.268153
O O2 0.281035 0.147762 0.284909
O O3 0.000000 0.183237 0.176852
O O4 0.288342 0.188071 0.000000
O O5 0.500000 0.281068 0.191024
O O6 0.788858 0.321893 0.255465
O O7 0.781686 0.274902 0.000000
O O8 0.720457 0.072001 0.835339
O O9 0.000000 0.048130 0.000000
O O10 0.721457 0.000000 0.000000
O O11 0.279108 0.086553 0.500000
O O12 0.000000 0.099978 0.316767
O O13 0.236934 0.543751 0.500000
O O14 0.500000 0.545276 0.291476
O O15 0.219517 0.500000 0.232976
O O16 0.213823 0.589124 0.237275
O O17 0.282550 0.630915 0.500000
O O18 0.500000 0.633868 0.250233
#
# Coordination Sequence:
#
# PCOD9388853 Si02
#       6
#     8   8   4   8   8   8
#     4   9  16  28  44  58  78 111 145 173 205 248
#     4   9  17  27  39  57  81 107 134 167 207 249
#     4   9  16  26  40  60  89 121 149 179 216 259
#     4   9  16  26  41  61  85 114 147 181 217 256
#     4   7   9  14  26  44  64  88 121 156 187 228
#     4   8  13  21  33  49  71  99 127 157 197 242
#
# _framework density 22.895576999999999
#
# number of rings (size 3 to 8) (size 9 to 14) (size 15 to 20)
#    0.000    3.545    0.909    1.636    0.000    1.091 
#    0.000    1.818    0.000    0.545    0.000    3.818 
#    0.000    2.182    0.000   10.727    0.000   10.182 
#
# Total GULP energy -245135.571351 kJ/mol
# GULP energy per Si atom -5571.262985 kJ/mol
# Density = 2.284347 g / cm^3
# Si number density = 22.895577 Si / 1000 Ang^3
#
#
#
# Elastic Constant Matrix: (Units=GPa)
#
#
# Indices 1 2 3 4 5 6 
#
# 1 78.6470 5.6418 4.9983 0.0000 0.0000 0.0000
# 2 5.6418 256.9868 83.5308 0.0000 0.0000 0.0000
# 3 4.9983 83.5308 81.4180 0.0000 0.0000 0.0000
# 4 0.0000 0.0000 0.0000 21.8992 0.0000 0.0000
# 5 0.0000 0.0000 0.0000 0.0000 0.1002 0.0000
# 6 0.0000 0.0000 0.0000 0.0000 0.0000 7.6866
#
#
#
# Elastic Compliance Matrix: (Units=1/GPa)
#
#
# Indices 1 2 3 4 5 6 
#
# 1 0.012765 -0.000038 -0.000744 0.000000 0.000000 0.000000
# 2 -0.000038 0.005838 -0.005987 0.000000 0.000000 0.000000
# 3 -0.000744 -0.005987 0.018471 0.000000 0.000000 0.000000
# 4 0.000000 0.000000 0.000000 0.045664 0.000000 0.000000
# 5 0.000000 0.000000 0.000000 0.000000 9.977377 0.000000
# 6 0.000000 0.000000 0.000000 0.000000 0.000000 0.130096
#
#
# Mechanical properties :
#
#
# Convention : Reuss Voigt Hill
#
# Bulk Modulus (GPa) = 42.49174 67.26597 54.87885
# Shear Modulus (GPa) = 0.48964 27.46260 13.97612
#
# Velocity S-wave (km/s) = 0.46295 3.46710 2.47337
# Velocity P-wave (km/s) = 4.34569 6.74321 5.67256
#
# Compressibility (1/GPa) = 0.02353399
#
# Stress axis : x y z
#
# Youngs Moduli (GPa) = 78.33862 171.28495 54.13970
#
# Poissons Ratio (x) = 0.00656 0.04030
# Poissons Ratio (y) = 0.00300 0.32415
# Poissons Ratio (z) = 0.05831 1.02555
#
# Static dielectric constant tensor:
#      x y z
#    x 2.005390 0.000000 0.000000 
#    y 0.000000 1.904480 0.000000 
#    z 0.000000 0.000000 1.830980 
# 
# From -- ./inp_files/2129.got.cif
#   From: 2010.05.17/outbox.cif.g08.bks.cpg/sg47_2_cif.got.tgz:2129.got - 2010.06.03 20:15:42.
