data_PCOD9388746
_publ_section_title
;
Structure prediction by ZEFSAII (Michael W. Deem and Ramdas Pophale) SiO2 
 PCOD9388746
Probable space group: P M M M
;
_chemical_formula_sum "Si O2"
_cell_formula_units_Z 48
_cell_length_a 14.063498
_cell_length_b 25.040719
_cell_length_c 7.494427
_cell_angle_alpha 90.000000
_cell_angle_beta 90.000000
_cell_angle_gamma 90.000000
_cell_volume 2639.238174
_symmetry_space_group_name_H-M "P M M M"
_symmetry_group_IT_number 47
_symmetry_cell_setting 'orthorhombic'
loop_
_space_group_symop_operation_xyz
x,y,z
-x,-y,z
x,-y,-z
-x,y,-z
-x,-y,-z
x,y,-z
-x,y,z
x,-y,z
loop_
_atom_site_type_symbol
_atom_site_label
_atom_site_fract_x
_atom_site_fract_y
_atom_site_fract_z
Si Si1 0.702002 0.390050 0.211858
Si Si2 0.110985 0.883770 0.281579
Si Si3 0.892905 0.334093 0.715110
Si Si4 0.884585 0.000000 0.290240
Si Si5 0.389233 0.500000 0.781423
Si Si6 0.393176 0.719310 0.784616
Si Si7 0.797073 0.224757 0.711108
O O1 0.813153 0.377707 0.239311
O O2 0.663242 0.446207 0.280749
O O3 0.645206 0.338212 0.281862
O O4 0.685134 0.390806 0.000000
O O5 0.114207 0.885427 0.500000
O O6 0.168705 0.832221 0.218630
O O7 0.000000 0.877118 0.233974
O O8 0.145267 0.942184 0.217622
O O9 0.895482 0.331426 0.500000
O O10 0.854107 0.276563 0.782064
O O11 0.000000 0.344453 0.778105
O O12 0.859500 0.000000 0.500000
O O13 0.000000 0.000000 0.280162
O O14 0.500000 0.500000 0.730324
O O15 0.386844 0.500000 0.000000
O O16 0.500000 0.729696 0.722029
O O17 0.313728 0.762474 0.735690
O O18 0.395083 0.717005 0.000000
O O19 0.816947 0.223611 0.500000
#
# Coordination Sequence:
#
# PCOD9388746 Si02
#       7
#     8   8   8   4   4   8   8
#     4   9  17  29  46  66  83 101 130 165 199 237
#     4   8  12  19  33  55  83 110 133 159 193 233
#     4   9  17  29  43  59  83 114 140 161 191 232
#     4   7  10  16  28  50  80 109 132 156 191 233
#     4   9  16  28  48  69  84 100 127 165 206 245
#     4   9  17  29  43  59  81 106 129 158 200 245
#     4   9  16  25  40  62  83 104 134 168 197 229
#
# _framework density 18.187066000000002
#
# number of rings (size 3 to 8) (size 9 to 14) (size 15 to 20)
#    0.000    3.333    0.000    2.000    0.000    4.667 
#    0.000    0.833    0.000    6.000    0.000    1.167 
#    0.000    6.667    0.000    0.000    0.000    0.000 
#
# Total GULP energy -267445.628176 kJ/mol
# GULP energy per Si atom -5571.783920 kJ/mol
# Density = 1.814567 g / cm^3
# Si number density = 18.187066 Si / 1000 Ang^3
#
#
#
# Elastic Constant Matrix: (Units=GPa)
#
#
# Indices 1 2 3 4 5 6 
#
# 1 123.8344 98.0464 -9.1440 0.0000 0.0000 0.0000
# 2 98.0464 182.4018 6.1556 0.0000 0.0000 0.0000
# 3 -9.1440 6.1556 46.6740 0.0000 0.0000 0.0000
# 4 0.0000 0.0000 0.0000 10.9025 0.0000 0.0000
# 5 0.0000 0.0000 0.0000 0.0000 15.9118 0.0000
# 6 0.0000 0.0000 0.0000 0.0000 0.0000 22.9163
#
#
#
# Elastic Compliance Matrix: (Units=1/GPa)
#
#
# Indices 1 2 3 4 5 6 
#
# 1 0.014751 -0.008062 0.003953 0.000000 0.000000 0.000000
# 2 -0.008062 0.009914 -0.002887 0.000000 0.000000 0.000000
# 3 0.003953 -0.002887 0.022580 0.000000 0.000000 0.000000
# 4 0.000000 0.000000 0.000000 0.091722 0.000000 0.000000
# 5 0.000000 0.000000 0.000000 0.000000 0.062846 0.000000
# 6 0.000000 0.000000 0.000000 0.000000 0.000000 0.043637
#
#
# Mechanical properties :
#
#
# Convention : Reuss Voigt Hill
#
# Bulk Modulus (GPa) = 30.07313 60.33625 45.20469
# Shear Modulus (GPa) = 18.48248 27.13625 22.80936
#
# Velocity S-wave (km/s) = 3.19132 3.86691 3.54524
# Velocity P-wave (km/s) = 5.49096 7.29279 6.45505
#
# Compressibility (1/GPa) = 0.03325228
#
# Stress axis : x y z
#
# Youngs Moduli (GPa) = 67.79415 100.87215 44.28615
#
# Poissons Ratio (x) = 0.81326 -0.17507
# Poissons Ratio (y) = 0.54657 0.12785
# Poissons Ratio (z) = -0.26800 0.29121
#
# Static dielectric constant tensor:
#      x y z
#    x 1.598120 0.000000 0.000000 
#    y 0.000000 1.643010 0.000000 
#    z 0.000000 0.000000 1.713090 
# 
# From -- ./inp_files/16471.got.cif
#   From: 2010.05.17/outbox.cif.g08.bks.cpg/sg47_9_cif.got.tgz:16471.got - 2010.06.03 20:15:42.
