data_PCOD9388038
_publ_section_title
;
Structure prediction by ZEFSAII (Michael W. Deem and Ramdas Pophale) SiO2 
 PCOD9388038
Probable space group: P M M M
;
_chemical_formula_sum "Si O2"
_cell_formula_units_Z 48
_cell_length_a 8.530216
_cell_length_b 16.727356
_cell_length_c 16.484271
_cell_angle_alpha 90.000000
_cell_angle_beta 90.000000
_cell_angle_gamma 90.000000
_cell_volume 2352.106998
_symmetry_space_group_name_H-M "P M M M"
_symmetry_group_IT_number 47
_symmetry_cell_setting 'orthorhombic'
loop_
_space_group_symop_operation_xyz
x,y,z
-x,-y,z
x,-y,-z
-x,y,-z
-x,-y,-z
x,y,-z
-x,y,z
x,-y,z
loop_
_atom_site_type_symbol
_atom_site_label
_atom_site_fract_x
_atom_site_fract_y
_atom_site_fract_z
Si Si1 0.686893 0.500000 0.406901
Si Si2 0.830774 0.851489 0.904053
Si Si3 0.500000 0.412465 0.903722
Si Si4 0.313403 0.000000 0.595372
Si Si5 0.812664 0.831375 0.596416
Si Si6 0.500000 0.905370 0.906910
Si Si7 0.171210 0.332981 0.858215
Si Si8 0.820494 0.336250 0.664083
O O1 0.500000 0.500000 0.407979
O O2 0.745141 0.500000 0.500000
O O3 0.741015 0.581787 0.363972
O O4 0.665729 0.880772 0.868400
O O5 0.829349 0.756238 0.893870
O O6 0.000000 0.880182 0.870591
O O7 0.830181 0.872796 0.000000
O O8 0.500000 0.500000 0.864704
O O9 0.334874 0.372084 0.882694
O O10 0.500000 0.418226 0.000000
O O11 0.253559 0.084652 0.629492
O O12 0.500000 0.000000 0.598042
O O13 0.262392 0.000000 0.500000
O O14 0.781270 0.828479 0.500000
O O15 0.750962 0.747958 0.632911
O O16 0.000000 0.833428 0.609014
O O17 0.500000 0.000000 0.912480
O O18 0.500000 0.871423 0.000000
O O19 0.174423 0.330983 0.760957
O O20 0.000000 0.369689 0.881992
O O21 0.000000 0.339947 0.633332
#
# Coordination Sequence:
#
# PCOD9388038 Si02
#       8
#     4   8   4   4   8   4   8   8
#     4  11  25  41  59  87 121 158 199 244 294 348
#     4   9  17  31  53  78 106 143 187 235 285 340
#     4  11  25  41  61  89 119 155 192 237 297 352
#     4   9  17  29  49  79 113 147 187 240 297 346
#     4   9  17  32  55  81 109 147 197 246 291 346
#     4   9  17  29  49  79 111 141 181 232 282 339
#     4  10  22  39  61  87 117 153 197 243 294 355
#     4  10  22  38  60  86 115 155 199 245 298 350
#
# _framework density 20.407236000000001
#
# number of rings (size 3 to 8) (size 9 to 14) (size 15 to 20)
#    0.000    2.333    0.000    2.000    2.333    5.333 
#    0.000    4.167    1.833    0.000    0.000    0.000 
#    0.000    0.000    0.000    0.000    0.000    0.000 
#
# Total GULP energy -267476.280506 kJ/mol
# GULP energy per Si atom -5572.422511 kJ/mol
# Density = 2.036079 g / cm^3
# Si number density = 20.407236 Si / 1000 Ang^3
#
#
#
# Elastic Constant Matrix: (Units=GPa)
#
#
# Indices 1 2 3 4 5 6 
#
# 1 159.5177 60.6815 14.5064 0.0000 0.0000 0.0000
# 2 60.6815 128.9006 18.5374 0.0000 0.0000 0.0000
# 3 14.5064 18.5374 24.7470 0.0000 0.0000 0.0000
# 4 0.0000 0.0000 0.0000 22.3619 0.0000 0.0000
# 5 0.0000 0.0000 0.0000 0.0000 21.6830 0.0000
# 6 0.0000 0.0000 0.0000 0.0000 0.0000 -21.0648
#
#
#
# Elastic Compliance Matrix: (Units=1/GPa)
#
#
# Indices 1 2 3 4 5 6 
#
# 1 0.007726 -0.003346 -0.002022 0.000000 0.000000 0.000000
# 2 -0.003346 0.010144 -0.005637 0.000000 0.000000 0.000000
# 3 -0.002022 -0.005637 0.045817 0.000000 0.000000 0.000000
# 4 0.000000 0.000000 0.000000 0.044719 0.000000 0.000000
# 5 0.000000 0.000000 0.000000 0.000000 0.046119 0.000000
# 6 0.000000 0.000000 0.000000 0.000000 0.000000 -0.047473
#
#
# Mechanical properties :
#
#
# Convention : Reuss Voigt Hill
#
# Bulk Modulus (GPa) = 23.99483 55.62400 39.80942
# Shear Modulus (GPa) = 34.97616 19.22535 27.10076
#
# Velocity S-wave (km/s) = 4.14443 3.07267 3.64812
# Velocity P-wave (km/s) = 5.88942 6.31701 6.10696
#
# Compressibility (1/GPa) = 0.04167564
#
# Stress axis : x y z
#
# Youngs Moduli (GPa) = 129.43837 98.58214 21.82602
#
# Poissons Ratio (x) = 0.32987 0.04414
# Poissons Ratio (y) = 0.43312 0.12303
# Poissons Ratio (z) = 0.26175 0.55571
#
# Static dielectric constant tensor:
#      x y z
#    x 1.781710 0.000000 0.000000 
#    y 0.000000 1.753190 0.000000 
#    z 0.000000 0.000000 1.714820 
# 
# From -- ./inp_files/26612.got.cif
#   From: 2010.05.17/outbox.cif.g08.bks.cpg/sg47_14_cif.got.tgz:26612.got - 2010.06.03 20:15:42.
