data_PCOD9388943
_publ_section_title
;
Structure prediction by ZEFSAII (Michael W. Deem and Ramdas Pophale) SiO2 
 PCOD9388943
Probable space group: P M M M
;
_chemical_formula_sum "Si O2"
_cell_formula_units_Z 44
_cell_length_a 9.443031
_cell_length_b 8.888924
_cell_length_c 29.688425
_cell_angle_alpha 90.000000
_cell_angle_beta 90.000000
_cell_angle_gamma 90.000000
_cell_volume 2491.998444
_symmetry_space_group_name_H-M "P M M M"
_symmetry_group_IT_number 47
_symmetry_cell_setting 'orthorhombic'
loop_
_space_group_symop_operation_xyz
x,y,z
-x,-y,z
x,-y,-z
-x,y,-z
-x,-y,-z
x,y,-z
-x,y,z
x,-y,z
loop_
_atom_site_type_symbol
_atom_site_label
_atom_site_fract_x
_atom_site_fract_y
_atom_site_fract_z
Si Si1 0.164141 0.683227 0.449513
Si Si2 0.672773 0.673761 0.000000
Si Si3 0.836996 0.316284 0.725569
Si Si4 0.337067 0.316073 0.362531
Si Si5 0.665158 0.681225 0.186387
Si Si6 0.672435 0.173494 0.907355
O O1 0.206621 0.731297 0.500000
O O2 0.167312 0.500000 0.449406
O O3 0.262545 0.734211 0.408725
O O4 0.000000 0.726019 0.442125
O O5 0.721121 0.751484 0.046137
O O6 0.712922 0.500000 0.000000
O O7 0.500000 0.681137 0.000000
O O8 0.836241 0.500000 0.725522
O O9 0.751793 0.268389 0.681152
O O10 0.757696 0.268540 0.771123
O O11 0.000000 0.267919 0.724320
O O12 0.500000 0.268615 0.359780
O O13 0.335966 0.500000 0.362726
O O14 0.500000 0.724530 0.192942
O O15 0.669534 0.500000 0.184317
O O16 0.716192 0.744849 0.138576
O O17 0.500000 0.180852 0.907881
O O18 0.713850 0.000000 0.906239
#
# Coordination Sequence:
#
# PCOD9388943 Si02
#       6
#     8   4   8   8   8   8
#     4   8  13  20  28  38  56  86 124 164 205 250
#     4   9  15  23  37  59  88 119 148 177 210 248
#     4   9  16  25  37  52  70  94 126 165 208 253
#     4   9  15  21  30  45  65  89 120 162 210 255
#     4   9  16  26  40  58  80 105 135 172 211 249
#     4   9  16  25  38  58  85 115 144 174 210 252
#
# _framework density 17.656510999999998
#
# number of rings (size 3 to 8) (size 9 to 14) (size 15 to 20)
#    0.000    3.182    0.000    2.455    0.000    8.000 
#    0.000    1.818    0.000    0.545    0.000    0.636 
#    0.000    5.091    0.000    0.000    0.000    0.909 
#
# Total GULP energy -245078.959183 kJ/mol
# GULP energy per Si atom -5569.976345 kJ/mol
# Density = 1.761632 g / cm^3
# Si number density = 17.656511 Si / 1000 Ang^3
#
#
#
# Elastic Constant Matrix: (Units=GPa)
#
#
# Indices 1 2 3 4 5 6 
#
# 1 94.7010 18.5880 102.4135 0.0000 0.0000 0.0000
# 2 18.5880 12.4968 33.7128 0.0000 0.0000 0.0000
# 3 102.4135 33.7128 219.2013 0.0000 0.0000 0.0000
# 4 0.0000 0.0000 0.0000 -5.5062 0.0000 0.0000
# 5 0.0000 0.0000 0.0000 0.0000 -4.2068 0.0000
# 6 0.0000 0.0000 0.0000 0.0000 0.0000 2.0105
#
#
#
# Elastic Compliance Matrix: (Units=1/GPa)
#
#
# Indices 1 2 3 4 5 6 
#
# 1 0.021857 -0.008481 -0.008908 0.000000 0.000000 0.000000
# 2 -0.008481 0.140055 -0.017578 0.000000 0.000000 0.000000
# 3 -0.008908 -0.017578 0.011427 0.000000 0.000000 0.000000
# 4 0.000000 0.000000 0.000000 -0.181614 0.000000 0.000000
# 5 0.000000 0.000000 0.000000 0.000000 -0.237710 0.000000
# 6 0.000000 0.000000 0.000000 0.000000 0.000000 0.497399
#
#
# Mechanical properties :
#
#
# Convention : Reuss Voigt Hill
#
# Bulk Modulus (GPa) = 9.67050 70.64750 40.15900
# Shear Modulus (GPa) = 14.05222 9.90515 11.97868
#
# Velocity S-wave (km/s) = 2.82417 2.37110 2.60749
# Velocity P-wave (km/s) = 4.01541 6.89892 5.64441
#
# Compressibility (1/GPa) = 0.10340724
#
# Stress axis : x y z
#
# Youngs Moduli (GPa) = 45.75146 7.14004 87.51007
#
# Poissons Ratio (x) = 0.06055 0.77951
# Poissons Ratio (y) = 0.38800 1.53825
# Poissons Ratio (z) = 0.40754 0.12551
#
# Static dielectric constant tensor:
#      x y z
#    x 1.590440 0.000000 0.000000 
#    y 0.000000 1.581810 0.000000 
#    z 0.000000 0.000000 1.600890 
# 
# From -- ./inp_files/2081.got.cif
#   From: 2010.05.17/outbox.cif.g08.bks.cpg/sg47_2_cif.got.tgz:2081.got - 2010.06.03 20:15:42.
