data_PCOD9388570
_publ_section_title
;
Structure prediction by ZEFSAII (Michael W. Deem and Ramdas Pophale) SiO2 
 PCOD9388570
Probable space group: P M M M
;
_chemical_formula_sum "Si O2"
_cell_formula_units_Z 54
_cell_length_a 16.289618
_cell_length_b 15.030222
_cell_length_c 11.984172
_cell_angle_alpha 90.000000
_cell_angle_beta 90.000000
_cell_angle_gamma 90.000000
_cell_volume 2934.163625
_symmetry_space_group_name_H-M "P M M M"
_symmetry_group_IT_number 47
_symmetry_cell_setting 'orthorhombic'
loop_
_space_group_symop_operation_xyz
x,y,z
-x,-y,z
x,-y,-z
-x,y,-z
-x,-y,-z
x,y,-z
-x,y,z
x,-y,z
loop_
_atom_site_type_symbol
_atom_site_label
_atom_site_fract_x
_atom_site_fract_y
_atom_site_fract_z
Si Si1 0.098612 0.099155 0.368414
Si Si2 0.098048 0.602409 0.500000
Si Si3 0.360610 0.749653 0.695801
Si Si4 0.500000 0.243442 0.500000
Si Si5 0.598973 0.399013 0.875711
Si Si6 0.904683 0.602933 0.866304
Si Si7 0.598865 0.105048 0.873499
Si Si8 0.825184 0.279634 0.693745
O O1 0.119218 0.109714 0.500000
O O2 0.135649 0.181837 0.303820
O O3 0.000000 0.102017 0.360596
O O4 0.125722 0.000000 0.333372
O O5 0.127294 0.500000 0.500000
O O6 0.128850 0.657395 0.605902
O O7 0.000000 0.601245 0.500000
O O8 0.427663 0.755975 0.598511
O O9 0.379045 0.667720 0.778535
O O10 0.363761 0.836398 0.775408
O O11 0.268226 0.733205 0.656498
O O12 0.500000 0.401584 0.879596
O O13 0.628118 0.500000 0.855286
O O14 0.627233 0.371505 0.000000
O O15 0.890096 0.500000 0.832497
O O16 0.840785 0.669261 0.809471
O O17 0.000000 0.624528 0.835080
O O18 0.899699 0.606908 0.000000
O O19 0.500000 0.117433 0.868303
O O20 0.615037 0.000000 0.859617
O O21 0.624217 0.130738 0.000000
#
# Coordination Sequence:
#
# PCOD9388570 Si02
#       8
#     8   4   8   2   8   8   8   8
#     4   9  18  35  59  84 112 146 185 233 287 342
#     4  11  23  40  62  87 116 150 194 251 305 348
#     4  12  24  39  57  80 121 158 197 242 295 350
#     4  12  26  44  54  70 114 168 206 228 286 376
#     4   9  18  36  62  85 102 135 195 254 297 340
#     4   9  19  37  60  88 125 163 192 226 288 371
#     4   9  18  37  66  92 110 139 192 251 301 348
#     4  12  23  35  59  90 119 150 198 250 296 343
#
# _framework density 18.403880999999998
#
# number of rings (size 3 to 8) (size 9 to 14) (size 15 to 20)
#    0.000    1.852    2.222    4.444    0.000    5.333 
#    0.000    2.963    0.000    0.444    0.000    2.074 
#    0.000    0.000    0.000    0.000    0.000    0.000 
#
# Total GULP energy -300795.407715 kJ/mol
# GULP energy per Si atom -5570.285328 kJ/mol
# Density = 1.836199 g / cm^3
# Si number density = 18.403881 Si / 1000 Ang^3
#
#
#
# Elastic Constant Matrix: (Units=GPa)
#
#
# Indices 1 2 3 4 5 6 
#
# 1 76.6414 35.9268 25.6958 0.0000 0.0000 0.0000
# 2 35.9268 103.3525 44.5266 0.0000 0.0000 0.0000
# 3 25.6958 44.5266 86.5221 0.0000 0.0000 0.0000
# 4 0.0000 0.0000 0.0000 16.5371 0.0000 0.0000
# 5 0.0000 0.0000 0.0000 0.0000 1.1028 0.0000
# 6 0.0000 0.0000 0.0000 0.0000 0.0000 -27.5891
#
#
#
# Elastic Compliance Matrix: (Units=1/GPa)
#
#
# Indices 1 2 3 4 5 6 
#
# 1 0.015974 -0.004508 -0.002424 0.000000 0.000000 0.000000
# 2 -0.004508 0.013704 -0.005714 0.000000 0.000000 0.000000
# 3 -0.002424 -0.005714 0.015218 0.000000 0.000000 0.000000
# 4 0.000000 0.000000 0.000000 0.060470 0.000000 0.000000
# 5 0.000000 0.000000 0.000000 0.000000 0.906771 0.000000
# 6 0.000000 0.000000 0.000000 0.000000 0.000000 -0.036246
#
#
# Mechanical properties :
#
#
# Convention : Reuss Voigt Hill
#
# Bulk Modulus (GPa) = 51.00937 53.20162 52.10549
# Shear Modulus (GPa) = 4.96170 8.70128 6.83149
#
# Velocity S-wave (km/s) = 1.64373 2.17675 1.92874
# Velocity P-wave (km/s) = 5.60172 5.94039 5.77354
#
# Compressibility (1/GPa) = 0.01960424
#
# Stress axis : x y z
#
# Youngs Moduli (GPa) = 62.60239 72.96907 65.71165
#
# Poissons Ratio (x) = 0.32898 0.15927
# Poissons Ratio (y) = 0.28224 0.37546
# Poissons Ratio (z) = 0.15174 0.41692
#
# Static dielectric constant tensor:
#      x y z
#    x 1.648610 0.000000 0.000000 
#    y 0.000000 1.635570 0.000000 
#    z 0.000000 0.000000 1.664790 
# 
# From -- ./inp_files/17687.got.cif
#   From: 2010.05.17/outbox.cif.g08.bks.cpg/sg47_9_cif.got.tgz:17687.got - 2010.06.03 20:15:42.
