data_PCOD9388831
_publ_section_title
;
Structure prediction by ZEFSAII (Michael W. Deem and Ramdas Pophale) SiO2 
 PCOD9388831
Probable space group: P M M M
;
_chemical_formula_sum "Si O2"
_cell_formula_units_Z 56
_cell_length_a 7.368221
_cell_length_b 19.573290
_cell_length_c 19.741718
_cell_angle_alpha 90.000000
_cell_angle_beta 90.000000
_cell_angle_gamma 90.000000
_cell_volume 2847.157014
_symmetry_space_group_name_H-M "P M M M"
_symmetry_group_IT_number 47
_symmetry_cell_setting 'orthorhombic'
loop_
_space_group_symop_operation_xyz
x,y,z
-x,-y,z
x,-y,-z
-x,y,-z
-x,-y,-z
x,y,-z
-x,y,z
x,-y,z
loop_
_atom_site_type_symbol
_atom_site_label
_atom_site_fract_x
_atom_site_fract_y
_atom_site_fract_z
Si Si1 0.721121 0.292421 0.576176
Si Si2 0.715826 0.658461 0.210869
Si Si3 0.721342 0.423407 0.658821
Si Si4 0.283871 0.917660 0.927876
Si Si5 0.278543 0.788696 0.292543
Si Si6 0.216852 0.577314 0.076225
Si Si7 0.277955 0.921631 0.220708
O O1 0.782774 0.279123 0.500000
O O2 0.500000 0.291458 0.575553
O O3 0.775208 0.367119 0.603659
O O4 0.778235 0.239352 0.634264
O O5 0.500000 0.661290 0.218540
O O6 0.780501 0.604240 0.267446
O O7 0.780313 0.732879 0.236017
O O8 0.746943 0.631213 0.135517
O O9 0.500000 0.424403 0.659002
O O10 0.783499 0.500000 0.646054
O O11 0.500000 0.904199 0.928499
O O12 0.216937 0.896857 0.854149
O O13 0.262374 0.000000 0.928263
O O14 0.210606 0.891666 0.000000
O O15 0.500000 0.789192 0.292282
O O16 0.220152 0.864772 0.273930
O O17 0.282612 0.500000 0.093202
O O18 0.000000 0.573215 0.072307
O O19 0.282325 0.594648 0.000000
O O20 0.500000 0.923153 0.219346
O O21 0.220377 0.000000 0.232137
#
# Coordination Sequence:
#
# PCOD9388831 Si02
#       7
#     8   8   8   8   8   8   8
#     4   8  13  20  29  41  61  92 123 151 190 234
#     4   9  16  26  40  57  79 105 130 161 204 245
#     4   8  13  20  31  49  70  90 115 149 188 230
#     4   7   9  13  21  33  48  67  95 130 165 204
#     4   8  14  23  33  48  71  96 123 156 194 238
#     4   9  18  31  44  58  78 105 137 171 200 225
#     4   8  12  18  29  43  61  90 124 154 188 230
#
# _framework density 19.668742000000002
#
# number of rings (size 3 to 8) (size 9 to 14) (size 15 to 20)
#    0.000    3.857    0.000    3.857    0.000    1.429 
#    0.000    2.857    0.000    3.000    0.000    3.000 
#    0.000    9.714    0.000   33.000    0.000   27.429 
#
# Total GULP energy -311810.348186 kJ/mol
# GULP energy per Si atom -5568.041932 kJ/mol
# Density = 1.962398 g / cm^3
# Si number density = 19.668742 Si / 1000 Ang^3
#
#
#
# Elastic Constant Matrix: (Units=GPa)
#
#
# Indices 1 2 3 4 5 6 
#
# 1 65.2186 3.6342 2.0513 0.0000 0.0000 0.0000
# 2 3.6342 133.4006 100.3893 0.0000 0.0000 0.0000
# 3 2.0513 100.3893 166.7458 0.0000 0.0000 0.0000
# 4 0.0000 0.0000 0.0000 16.6147 0.0000 0.0000
# 5 0.0000 0.0000 0.0000 0.0000 31.1510 0.0000
# 6 0.0000 0.0000 0.0000 0.0000 0.0000 51.5391
#
#
#
# Elastic Compliance Matrix: (Units=1/GPa)
#
#
# Indices 1 2 3 4 5 6 
#
# 1 0.015358 -0.000505 0.000115 0.000000 0.000000 0.000000
# 2 -0.000505 0.013723 -0.008255 0.000000 0.000000 0.000000
# 3 0.000115 -0.008255 0.010966 0.000000 0.000000 0.000000
# 4 0.000000 0.000000 0.000000 0.060188 0.000000 0.000000
# 5 0.000000 0.000000 0.000000 0.000000 0.032102 0.000000
# 6 0.000000 0.000000 0.000000 0.000000 0.000000 0.019403
#
#
# Mechanical properties :
#
#
# Convention : Reuss Voigt Hill
#
# Bulk Modulus (GPa) = 43.94569 64.16829 54.05699
# Shear Modulus (GPa) = 28.31035 37.14698 32.72866
#
# Velocity S-wave (km/s) = 3.79800 4.35055 4.08363
# Velocity P-wave (km/s) = 6.45171 7.61129 7.05536
#
# Compressibility (1/GPa) = 0.02275536
#
# Stress axis : x y z
#
# Youngs Moduli (GPa) = 65.11446 72.87293 91.19163
#
# Poissons Ratio (x) = 0.03680 -0.01050
# Poissons Ratio (y) = 0.03288 0.75283
# Poissons Ratio (z) = -0.00750 0.60160
#
# Static dielectric constant tensor:
#      x y z
#    x 1.746320 0.000000 0.000000 
#    y 0.000000 1.671510 0.000000 
#    z 0.000000 0.000000 1.703310 
# 
# From -- ./inp_files/30071.got.cif
#   From: 2010.05.17/outbox.cif.g08.bks.cpg/sg47_16_cif.got.tgz:30071.got - 2010.06.03 20:15:42.
