data_PCOD9388930
_publ_section_title
;
Structure prediction by ZEFSAII (Michael W. Deem and Ramdas Pophale) SiO2 
 PCOD9388930
Probable space group: P M M M
;
_chemical_formula_sum "Si O2"
_cell_formula_units_Z 48
_cell_length_a 7.317002
_cell_length_b 8.823419
_cell_length_c 33.612434
_cell_angle_alpha 90.000000
_cell_angle_beta 90.000000
_cell_angle_gamma 90.000000
_cell_volume 2170.051493
_symmetry_space_group_name_H-M "P M M M"
_symmetry_group_IT_number 47
_symmetry_cell_setting 'orthorhombic'
loop_
_space_group_symop_operation_xyz
x,y,z
-x,-y,z
x,-y,-z
-x,y,-z
-x,-y,-z
x,y,-z
-x,y,z
x,-y,z
loop_
_atom_site_type_symbol
_atom_site_label
_atom_site_fract_x
_atom_site_fract_y
_atom_site_fract_z
Si Si1 0.292226 0.325893 0.078639
Si Si2 0.222668 0.174532 0.500000
Si Si3 0.778410 0.677822 0.331947
Si Si4 0.222148 0.677141 0.581837
Si Si5 0.779004 0.176473 0.749714
Si Si6 0.211914 0.322541 0.169866
Si Si7 0.282402 0.000000 0.952736
O O1 0.500000 0.332142 0.063062
O O2 0.216079 0.500000 0.071677
O O3 0.296396 0.305764 0.126405
O O4 0.212304 0.165571 0.062567
O O5 0.286215 0.247846 0.458800
O O6 0.000000 0.187098 0.500000
O O7 0.270864 0.000000 0.500000
O O8 0.735608 0.500000 0.331377
O O9 0.717962 0.740008 0.375064
O O10 0.711549 0.749165 0.291026
O O11 0.000000 0.691702 0.331640
O O12 0.269292 0.500000 0.580681
O O13 0.000000 0.686471 0.581747
O O14 0.710428 0.238426 0.791848
O O15 0.000000 0.201638 0.750626
O O16 0.744168 0.000000 0.747527
O O17 0.216937 0.500000 0.179805
O O18 0.000000 0.276057 0.164800
O O19 0.500000 0.000000 0.942486
O O20 0.260984 0.000000 0.000000
#
# Coordination Sequence:
#
# PCOD9388930 Si02
#       7
#     8   4   8   8   8   8   4
#     4   9  18  32  50  72  96 122 153 188 224 262
#     4   9  15  19  23  33  47  63  89 131 182 231
#     4   8  13  21  31  41  56  81 112 147 189 236
#     4   8  13  20  28  35  45  67  99 135 178 229
#     4   9  16  23  33  52  75  98 126 162 202 245
#     4   9  17  29  45  64  87 117 149 181 219 261
#     4   9  18  32  51  75  99 123 153 189 227 264
#
# _framework density 22.119289999999999
#
# number of rings (size 3 to 8) (size 9 to 14) (size 15 to 20)
#    0.000    3.333    0.000    1.750    1.167    4.000 
#    0.000    5.000    0.000    1.000    0.000    2.333 
#    0.000    0.000    0.000    0.000    0.000    0.000 
#
# Total GULP energy -267454.733590 kJ/mol
# GULP energy per Si atom -5571.973616 kJ/mol
# Density = 2.206895 g / cm^3
# Si number density = 22.119290 Si / 1000 Ang^3
#
#
#
# Elastic Constant Matrix: (Units=GPa)
#
#
# Indices 1 2 3 4 5 6 
#
# 1 82.5135 16.0737 4.3516 0.0000 0.0000 0.0000
# 2 16.0737 98.4131 77.4316 0.0000 0.0000 0.0000
# 3 4.3516 77.4316 102.5676 0.0000 0.0000 0.0000
# 4 0.0000 0.0000 0.0000 124.7679 0.0000 0.0000
# 5 0.0000 0.0000 0.0000 0.0000 -0.6764 0.0000
# 6 0.0000 0.0000 0.0000 0.0000 0.0000 -13.9593
#
#
#
# Elastic Compliance Matrix: (Units=1/GPa)
#
#
# Indices 1 2 3 4 5 6 
#
# 1 0.012782 -0.004091 0.002546 0.000000 0.000000 0.000000
# 2 -0.004091 0.026336 -0.019708 0.000000 0.000000 0.000000
# 3 0.002546 -0.019708 0.024520 0.000000 0.000000 0.000000
# 4 0.000000 0.000000 0.000000 0.008015 0.000000 0.000000
# 5 0.000000 0.000000 0.000000 0.000000 -1.478408 0.000000
# 6 0.000000 0.000000 0.000000 0.000000 0.000000 -0.071637
#
#
# Mechanical properties :
#
#
# Convention : Reuss Voigt Hill
#
# Bulk Modulus (GPa) = 47.32246 53.24534 50.28390
# Shear Modulus (GPa) = -3.49934 34.40226 15.45146
#
# Velocity S-wave (km/s) = -1.25915 3.94802 2.64588
# Velocity P-wave (km/s) = 4.39621 6.70124 5.66715
#
# Compressibility (1/GPa) = 0.02113162
#
# Stress axis : x y z
#
# Youngs Moduli (GPa) = 78.23594 37.97108 40.78304
#
# Poissons Ratio (x) = 0.15533 -0.10383
# Poissons Ratio (y) = 0.32005 0.80376
# Poissons Ratio (z) = -0.19919 0.74834
#
# Static dielectric constant tensor:
#      x y z
#    x 1.064560 0.000000 0.000000 
#    y 0.000000 1.773400 0.000000 
#    z 0.000000 0.000000 1.799270 
# 
# From -- ./inp_files/34207.got.cif
#   From: 2010.05.17/outbox.cif.g08.bks.cpg/sg47_18_cif.got.tgz:34207.got - 2010.06.03 20:15:42.
