data_PCOD9388761
_publ_section_title
;
Structure prediction by ZEFSAII (Michael W. Deem and Ramdas Pophale) SiO2 
 PCOD9388761
Probable space group: P M M M
;
_chemical_formula_sum "Si O2"
_cell_formula_units_Z 52
_cell_length_a 7.374033
_cell_length_b 27.809479
_cell_length_c 14.232937
_cell_angle_alpha 90.000000
_cell_angle_beta 90.000000
_cell_angle_gamma 90.000000
_cell_volume 2918.720150
_symmetry_space_group_name_H-M "P M M M"
_symmetry_group_IT_number 47
_symmetry_cell_setting 'orthorhombic'
loop_
_space_group_symop_operation_xyz
x,y,z
-x,-y,z
x,-y,-z
-x,y,-z
-x,-y,-z
x,y,-z
-x,y,z
x,-y,z
loop_
_atom_site_type_symbol
_atom_site_label
_atom_site_fract_x
_atom_site_fract_y
_atom_site_fract_z
Si Si1 0.216518 0.551806 0.613326
Si Si2 0.278689 0.851562 0.605701
Si Si3 0.721111 0.803080 0.105153
Si Si4 0.278286 0.000000 0.109101
Si Si5 0.283816 0.755191 0.292444
Si Si6 0.720549 0.098555 0.205387
Si Si7 0.216641 0.655773 0.606859
O O1 0.239739 0.552594 0.500000
O O2 0.289114 0.500000 0.646984
O O3 0.285499 0.604131 0.644770
O O4 0.000000 0.550661 0.630952
O O5 0.218258 0.862186 0.500000
O O6 0.500000 0.851883 0.604605
O O7 0.220142 0.798114 0.638831
O O8 0.222779 0.887942 0.688560
O O9 0.500000 0.802212 0.103330
O O10 0.781825 0.767062 0.187406
O O11 0.772822 0.856523 0.139577
O O12 0.783817 0.792898 0.000000
O O13 0.219051 0.048100 0.162974
O O14 0.500000 0.000000 0.109134
O O15 0.222842 0.000000 0.000000
O O16 0.500000 0.760693 0.289595
O O17 0.248517 0.702411 0.330878
O O18 0.500000 0.097754 0.205953
O O19 0.284726 0.663680 0.500000
O O20 0.000000 0.650553 0.599920
#
# Coordination Sequence:
#
# PCOD9388761 Si02
#       7
#     8   8   8   4   8   8   8
#     4   7  10  18  32  48  66  91 122 148 168 198
#     4   8  13  21  31  42  59  84 113 141 166 200
#     4   8  13  22  35  49  65  86 115 149 180 213
#     4   9  14  18  25  37  55  79 107 142 182 216
#     4   9  16  24  36  53  70  92 122 151 178 210
#     4   8  13  19  27  41  59  81 111 143 174 208
#     4   9  16  24  35  53  76  99 121 147 177 205
#
# _framework density 17.816026999999998
#
# number of rings (size 3 to 8) (size 9 to 14) (size 15 to 20)
#    0.000    3.769    0.000    4.154    0.000    2.769 
#    0.000    0.385    0.000    3.231    0.000    2.154 
#    0.000    0.615    0.000   18.769    0.000   94.462 
#
# Total GULP energy -289550.317887 kJ/mol
# GULP energy per Si atom -5568.275344 kJ/mol
# Density = 1.777548 g / cm^3
# Si number density = 17.816027 Si / 1000 Ang^3
#
#
#
# Elastic Constant Matrix: (Units=GPa)
#
#
# Indices 1 2 3 4 5 6 
#
# 1 59.7455 2.6410 5.4862 0.0000 0.0000 0.0000
# 2 2.6410 186.1183 95.3226 0.0000 0.0000 0.0000
# 3 5.4862 95.3226 142.1086 0.0000 0.0000 0.0000
# 4 0.0000 0.0000 0.0000 18.3587 0.0000 0.0000
# 5 0.0000 0.0000 0.0000 0.0000 -3.9302 0.0000
# 6 0.0000 0.0000 0.0000 0.0000 0.0000 9.0650
#
#
#
# Elastic Compliance Matrix: (Units=1/GPa)
#
#
# Indices 1 2 3 4 5 6 
#
# 1 0.016800 0.000143 -0.000744 0.000000 0.000000 0.000000
# 2 0.000143 0.008186 -0.005496 0.000000 0.000000 0.000000
# 3 -0.000744 -0.005496 0.010752 0.000000 0.000000 0.000000
# 4 0.000000 0.000000 0.000000 0.054470 0.000000 0.000000
# 5 0.000000 0.000000 0.000000 0.000000 -0.254437 0.000000
# 6 0.000000 0.000000 0.000000 0.000000 0.000000 0.110314
#
#
# Mechanical properties :
#
#
# Convention : Reuss Voigt Hill
#
# Bulk Modulus (GPa) = 42.47689 66.09687 54.28688
# Shear Modulus (GPa) = -147.61691 23.66688 -61.97502
#
# Velocity S-wave (km/s) = -9.11242 3.64868 -5.90437
# Velocity P-wave (km/s) = 9.31778 7.41153 3.99314
#
# Compressibility (1/GPa) = 0.02354222
#
# Stress axis : x y z
#
# Youngs Moduli (GPa) = 59.52483 122.16034 93.00186
#
# Poissons Ratio (x) = -0.01745 0.06923
# Poissons Ratio (y) = -0.00850 0.51118
# Poissons Ratio (z) = 0.04431 0.67145
#
# Static dielectric constant tensor:
#      x y z
#    x 1.731190 0.000000 0.000000 
#    y 0.000000 1.633530 0.000000 
#    z 0.000000 0.000000 1.593410 
# 
# From -- ./inp_files/19685.got.cif
#   From: 2010.05.17/outbox.cif.g08.bks.cpg/sg47_10_cif.got.tgz:19685.got - 2010.06.03 20:15:42.
