data_PCOD9388882
_publ_section_title
;
Structure prediction by ZEFSAII (Michael W. Deem and Ramdas Pophale) SiO2 
 PCOD9388882
Probable space group: P M M M
;
_chemical_formula_sum "Si O2"
_cell_formula_units_Z 52
_cell_length_a 27.796457
_cell_length_b 7.355574
_cell_length_c 14.202651
_cell_angle_alpha 90.000000
_cell_angle_beta 90.000000
_cell_angle_gamma 90.000000
_cell_volume 2903.858349
_symmetry_space_group_name_H-M "P M M M"
_symmetry_group_IT_number 47
_symmetry_cell_setting 'orthorhombic'
loop_
_space_group_symop_operation_xyz
x,y,z
-x,-y,z
x,-y,-z
-x,y,-z
-x,-y,-z
x,y,-z
-x,y,z
x,-y,z
loop_
_atom_site_type_symbol
_atom_site_label
_atom_site_fract_x
_atom_site_fract_y
_atom_site_fract_z
Si Si1 0.697055 0.221460 0.105531
Si Si2 0.648911 0.221336 0.606049
Si Si3 0.948298 0.717955 0.609107
Si Si4 0.747294 0.778325 0.707159
Si Si5 0.500000 0.222185 0.109296
Si Si6 0.842775 0.784953 0.392785
Si Si7 0.598692 0.778702 0.794431
O O1 0.733633 0.279516 0.187296
O O2 0.643658 0.274557 0.139874
O O3 0.697510 0.000000 0.104726
O O4 0.707228 0.283216 0.000000
O O5 0.638949 0.282710 0.500000
O O6 0.702506 0.273768 0.640316
O O7 0.612172 0.278588 0.688222
O O8 0.648245 0.000000 0.605186
O O9 0.946991 0.781804 0.500000
O O10 0.949818 0.500000 0.607249
O O11 0.896198 0.764008 0.649886
O O12 0.000000 0.780177 0.649362
O O13 0.798209 0.713822 0.667518
O O14 0.747722 0.000000 0.708057
O O15 0.548158 0.281381 0.163178
O O16 0.500000 0.000000 0.109318
O O17 0.500000 0.277842 0.000000
O O18 0.842680 0.710642 0.500000
O O19 0.834909 0.000000 0.400858
O O20 0.598002 0.000000 0.793940
#
# Coordination Sequence:
#
# PCOD9388882 Si02
#       7
#     8   8   8   8   4   8   8
#     4   8  12  18  27  37  51  72  95 119 153 197
#     4   8  12  18  26  33  45  67  91 115 148 190
#     4   8  14  24  35  46  64  92 120 140 160 190
#     4   8  13  19  27  41  59  76  96 124 157 193
#     4   9  14  18  23  29  39  55  80 122 168 197
#     4   9  15  21  31  48  68  88 110 137 166 193
#     4   8  13  18  23  32  43  59  88 122 155 193
#
# _framework density 17.907209999999999
#
# number of rings (size 3 to 8) (size 9 to 14) (size 15 to 20)
#    0.000    3.769    0.000    3.231    0.000    4.000 
#    0.000    1.923    0.000    2.308    0.000    0.000 
#    0.000    1.231    0.000    7.692    0.000    1.538 
#
# Total GULP energy -289607.894037 kJ/mol
# GULP energy per Si atom -5569.382578 kJ/mol
# Density = 1.786645 g / cm^3
# Si number density = 17.907210 Si / 1000 Ang^3
#
#
#
# Elastic Constant Matrix: (Units=GPa)
#
#
# Indices 1 2 3 4 5 6 
#
# 1 183.7567 4.2808 91.2056 0.0000 0.0000 0.0000
# 2 4.2808 64.3424 4.6135 0.0000 0.0000 0.0000
# 3 91.2056 4.6135 139.5623 0.0000 0.0000 0.0000
# 4 0.0000 0.0000 0.0000 -10.2955 0.0000 0.0000
# 5 0.0000 0.0000 0.0000 0.0000 18.7329 0.0000
# 6 0.0000 0.0000 0.0000 0.0000 0.0000 45.2734
#
#
#
# Elastic Compliance Matrix: (Units=1/GPa)
#
#
# Indices 1 2 3 4 5 6 
#
# 1 0.008056 -0.000159 -0.005260 0.000000 0.000000 0.000000
# 2 -0.000159 0.015582 -0.000411 0.000000 0.000000 0.000000
# 3 -0.005260 -0.000411 0.010616 0.000000 0.000000 0.000000
# 4 0.000000 0.000000 0.000000 -0.097130 0.000000 0.000000
# 5 0.000000 0.000000 0.000000 0.000000 0.053382 0.000000
# 6 0.000000 0.000000 0.000000 0.000000 0.000000 0.022088
#
#
# Mechanical properties :
#
#
# Convention : Reuss Voigt Hill
#
# Bulk Modulus (GPa) = 44.25804 65.31789 54.78797
# Shear Modulus (GPa) = 157.30441 29.91292 93.60867
#
# Velocity S-wave (km/s) = 9.38269 4.09154 7.23794
# Velocity P-wave (km/s) = 11.92261 7.67306 10.02558
#
# Compressibility (1/GPa) = 0.02259476
#
# Stress axis : x y z
#
# Youngs Moduli (GPa) = 124.12781 64.17694 94.19698
#
# Poissons Ratio (x) = 0.01020 0.49544
# Poissons Ratio (y) = 0.01972 0.03874
# Poissons Ratio (z) = 0.65286 0.02639
#
# Static dielectric constant tensor:
#      x y z
#    x 1.625660 0.000000 0.000000 
#    y 0.000000 1.699070 0.000000 
#    z 0.000000 0.000000 1.593710 
# 
# From -- ./inp_files/19686.got.cif
#   From: 2010.05.17/outbox.cif.g08.bks.cpg/sg47_10_cif.got.tgz:19686.got - 2010.06.03 20:15:42.
