data_PCOD9388697
_publ_section_title
;
Structure prediction by ZEFSAII (Michael W. Deem and Ramdas Pophale) SiO2 
 PCOD9388697
Probable space group: P M M M
;
_chemical_formula_sum "Si O2"
_cell_formula_units_Z 32
_cell_length_a 9.592585
_cell_length_b 7.560669
_cell_length_c 23.291928
_cell_angle_alpha 90.000000
_cell_angle_beta 90.000000
_cell_angle_gamma 90.000000
_cell_volume 1689.278756
_symmetry_space_group_name_H-M "P M M M"
_symmetry_group_IT_number 47
_symmetry_cell_setting 'orthorhombic'
loop_
_space_group_symop_operation_xyz
x,y,z
-x,-y,z
x,-y,-z
-x,y,-z
-x,-y,-z
x,y,-z
-x,y,z
x,-y,z
loop_
_atom_site_type_symbol
_atom_site_label
_atom_site_fract_x
_atom_site_fract_y
_atom_site_fract_z
Si Si1 0.167455 0.289034 0.137593
Si Si2 0.657700 0.787737 0.623668
Si Si3 0.843730 0.711778 0.733253
Si Si4 0.329648 0.794102 0.500000
Si Si5 0.335458 0.000000 0.068710
O O1 0.192868 0.500000 0.130957
O O2 0.203393 0.232264 0.203165
O O3 0.256747 0.170349 0.094854
O O4 0.000000 0.261949 0.130682
O O5 0.500000 0.721453 0.631937
O O6 0.747809 0.752892 0.679520
O O7 0.712830 0.718381 0.561965
O O8 0.649959 0.000000 0.617346
O O9 0.852200 0.500000 0.737214
O O10 0.000000 0.780979 0.723460
O O11 0.500000 0.789968 0.500000
O O12 0.286032 0.000000 0.500000
O O13 0.500000 0.000000 0.083736
O O14 0.323907 0.000000 0.000000
#
# Coordination Sequence:
#
# PCOD9388697 Si02
#       5
#     8   8   8   4   4
#     4   9  20  40  63  85 113 153 197 236 275 327
#     4   9  17  29  48  73  98 129 172 218 264 316
#     4   9  19  35  52  73 103 136 171 215 267 317
#     4   7  12  26  44  63  94 132 168 211 260 311
#     4  11  25  41  59  89 125 154 183 226 281 337
#
# _framework density 18.942995
#
# number of rings (size 3 to 8) (size 9 to 14) (size 15 to 20)
#    0.000    3.000    0.000    3.375    1.750    4.000 
#    0.000    6.250    0.000    6.000    0.000    0.000 
#    0.000    0.000    0.000    0.000    0.000    0.000 
#
# Total GULP energy -178292.582901 kJ/mol
# GULP energy per Si atom -5571.643216 kJ/mol
# Density = 1.889988 g / cm^3
# Si number density = 18.942995 Si / 1000 Ang^3
#
#
#
# Elastic Constant Matrix: (Units=GPa)
#
#
# Indices 1 2 3 4 5 6 
#
# 1 73.4466 34.9703 89.3428 0.0000 0.0000 0.0000
# 2 34.9703 72.3751 46.9548 0.0000 0.0000 0.0000
# 3 89.3428 46.9548 169.6882 0.0000 0.0000 0.0000
# 4 0.0000 0.0000 0.0000 52.8885 0.0000 0.0000
# 5 0.0000 0.0000 0.0000 0.0000 53.6273 0.0000
# 6 0.0000 0.0000 0.0000 0.0000 0.0000 23.1601
#
#
#
# Elastic Compliance Matrix: (Units=1/GPa)
#
#
# Indices 1 2 3 4 5 6 
#
# 1 0.040588 -0.007005 -0.019432 0.000000 0.000000 0.000000
# 2 -0.007005 0.018049 -0.001306 0.000000 0.000000 0.000000
# 3 -0.019432 -0.001306 0.016486 0.000000 0.000000 0.000000
# 4 0.000000 0.000000 0.000000 0.018908 0.000000 0.000000
# 5 0.000000 0.000000 0.000000 0.000000 0.018647 0.000000
# 6 0.000000 0.000000 0.000000 0.000000 0.000000 0.043178
#
#
# Mechanical properties :
#
#
# Convention : Reuss Voigt Hill
#
# Bulk Modulus (GPa) = 50.92400 73.11619 62.02010
# Shear Modulus (GPa) = 22.94779 35.55132 29.24956
#
# Velocity S-wave (km/s) = 3.48431 4.33685 3.93375
# Velocity P-wave (km/s) = 6.56722 7.98495 7.31054
#
# Compressibility (1/GPa) = 0.01963710
#
# Stress axis : x y z
#
# Youngs Moduli (GPa) = 24.63797 55.40503 60.65874
#
# Poissons Ratio (x) = 0.38809 1.17870
# Poissons Ratio (y) = 0.17258 0.07924
# Poissons Ratio (z) = 0.47876 0.07238
#
# Static dielectric constant tensor:
#      x y z
#    x 1.653990 0.000000 0.000000 
#    y 0.000000 1.705530 0.000000 
#    z 0.000000 0.000000 1.684170 
# 
# From -- ./inp_files/1326.got.cif
#   From: 2010.05.17/outbox.cif.g08.bks.cpg/sg47_1_cif.got.tgz:1326.got - 2010.06.03 20:15:42.
