data_PCOD9388215
_publ_section_title
;
Structure prediction by ZEFSAII (Michael W. Deem and Ramdas Pophale) SiO2 
 PCOD9388215
Probable space group: P M M M
;
_chemical_formula_sum "Si O2"
_cell_formula_units_Z 56
_cell_length_a 11.509024
_cell_length_b 13.999401
_cell_length_c 18.263710
_cell_angle_alpha 90.000000
_cell_angle_beta 90.000000
_cell_angle_gamma 90.000000
_cell_volume 2942.638766
_symmetry_space_group_name_H-M "P M M M"
_symmetry_group_IT_number 47
_symmetry_cell_setting 'orthorhombic'
loop_
_space_group_symop_operation_xyz
x,y,z
-x,-y,z
x,-y,-z
-x,y,-z
-x,-y,-z
x,y,-z
-x,y,z
x,-y,z
loop_
_atom_site_type_symbol
_atom_site_label
_atom_site_fract_x
_atom_site_fract_y
_atom_site_fract_z
Si Si1 0.636496 0.394190 0.797090
Si Si2 0.361969 0.886265 0.417390
Si Si3 0.127303 0.194306 0.156116
Si Si4 0.139143 0.392571 0.417790
Si Si5 0.767947 0.756619 0.697836
Si Si6 0.368580 0.115124 0.086610
Si Si7 0.818157 0.608249 0.913472
O O1 0.500000 0.390013 0.799336
O O2 0.672154 0.500000 0.768714
O O3 0.684546 0.309269 0.747678
O O4 0.690042 0.387949 0.878243
O O5 0.323971 0.857570 0.500000
O O6 0.500000 0.868025 0.412765
O O7 0.298478 0.832478 0.352107
O O8 0.344772 0.000000 0.411403
O O9 0.145678 0.196230 0.243498
O O10 0.248656 0.152479 0.123204
O O11 0.122437 0.303758 0.127308
O O12 0.000000 0.150559 0.137405
O O13 0.180936 0.368636 0.500000
O O14 0.180657 0.500000 0.400292
O O15 0.173478 0.316281 0.358124
O O16 0.000000 0.395963 0.420421
O O17 0.500000 0.146837 0.112640
O O18 0.367758 0.000000 0.093986
O O19 0.362607 0.138268 0.000000
O O20 0.862345 0.500000 0.899019
O O21 0.821084 0.623147 0.000000
#
# Coordination Sequence:
#
# PCOD9388215 Si02
#       7
#     8   8   8   8   8   8   8
#     4   9  18  31  47  72 106 141 180 227 277 329
#     4   9  19  36  57  81 107 137 180 231 275 319
#     4  11  24  37  53  84 120 151 186 229 278 332
#     4   9  18  33  54  78 100 127 170 220 265 314
#     4  11  20  33  52  75 107 147 180 214 268 333
#     4   9  20  41  66  87 108 140 184 233 286 342
#     4   9  19  35  53  74 104 146 193 235 274 319
#
# _framework density 19.030539000000001
#
# number of rings (size 3 to 8) (size 9 to 14) (size 15 to 20)
#    0.000    2.429    0.000    3.429    0.000    6.000 
#    0.000    4.286    0.000    1.286    0.000   11.000 
#    0.000    0.000    0.000    0.000    0.000    0.000 
#
# Total GULP energy -311954.015880 kJ/mol
# GULP energy per Si atom -5570.607426 kJ/mol
# Density = 1.898723 g / cm^3
# Si number density = 19.030539 Si / 1000 Ang^3
#
#
#
# Elastic Constant Matrix: (Units=GPa)
#
#
# Indices 1 2 3 4 5 6 
#
# 1 112.2534 33.9978 47.9499 0.0000 0.0000 0.0000
# 2 33.9978 51.4353 36.0859 0.0000 0.0000 0.0000
# 3 47.9499 36.0859 103.1664 0.0000 0.0000 0.0000
# 4 0.0000 0.0000 0.0000 23.0465 0.0000 0.0000
# 5 0.0000 0.0000 0.0000 0.0000 2.5494 0.0000
# 6 0.0000 0.0000 0.0000 0.0000 0.0000 5.6306
#
#
#
# Elastic Compliance Matrix: (Units=1/GPa)
#
#
# Indices 1 2 3 4 5 6 
#
# 1 0.012147 -0.005391 -0.003760 0.000000 0.000000 0.000000
# 2 -0.005391 0.028157 -0.007343 0.000000 0.000000 0.000000
# 3 -0.003760 -0.007343 0.014009 0.000000 0.000000 0.000000
# 4 0.000000 0.000000 0.000000 0.043391 0.000000 0.000000
# 5 0.000000 0.000000 0.000000 0.000000 0.392254 0.000000
# 6 0.000000 0.000000 0.000000 0.000000 0.000000 0.177600
#
#
# Mechanical properties :
#
#
# Convention : Reuss Voigt Hill
#
# Bulk Modulus (GPa) = 46.89375 55.88028 51.38701
# Shear Modulus (GPa) = 7.06559 16.16673 11.61616
#
# Velocity S-wave (km/s) = 1.92894 2.91781 2.47330
# Velocity P-wave (km/s) = 5.44572 6.38582 5.93442
#
# Compressibility (1/GPa) = 0.02132480
#
# Stress axis : x y z
#
# Youngs Moduli (GPa) = 82.32220 35.51489 71.38130
#
# Poissons Ratio (x) = 0.19147 0.26840
# Poissons Ratio (y) = 0.44381 0.52417
# Poissons Ratio (z) = 0.30954 0.26079
#
# Static dielectric constant tensor:
#      x y z
#    x 1.683510 0.000000 0.000000 
#    y 0.000000 1.691120 0.000000 
#    z 0.000000 0.000000 1.651290 
# 
# From -- ./inp_files/22805.got.cif
#   From: 2010.05.17/outbox.cif.g08.bks.cpg/sg47_12_cif.got.tgz:22805.got - 2010.06.03 20:15:42.
