data_PCOD9388393
_publ_section_title
;
Structure prediction by ZEFSAII (Michael W. Deem and Ramdas Pophale) SiO2 
 PCOD9388393
Probable space group: P M M M
;
_chemical_formula_sum "Si O2"
_cell_formula_units_Z 52
_cell_length_a 7.664298
_cell_length_b 15.722402
_cell_length_c 24.150355
_cell_angle_alpha 90.000000
_cell_angle_beta 90.000000
_cell_angle_gamma 90.000000
_cell_volume 2910.146135
_symmetry_space_group_name_H-M "P M M M"
_symmetry_group_IT_number 47
_symmetry_cell_setting 'orthorhombic'
loop_
_space_group_symop_operation_xyz
x,y,z
-x,-y,z
x,-y,-z
-x,y,-z
-x,-y,-z
x,y,-z
-x,y,z
x,-y,z
loop_
_atom_site_type_symbol
_atom_site_label
_atom_site_fract_x
_atom_site_fract_y
_atom_site_fract_z
Si Si1 0.710151 0.599983 0.440407
Si Si2 0.209523 0.500000 0.936686
Si Si3 0.205040 0.148277 0.939553
Si Si4 0.201118 0.265551 0.232655
Si Si5 0.786009 0.094404 0.818222
Si Si6 0.206149 0.597560 0.681970
Si Si7 0.296450 0.319569 0.112818
O O1 0.769320 0.636390 0.500000
O O2 0.500000 0.604673 0.439531
O O3 0.758757 0.500000 0.441125
O O4 0.774455 0.630621 0.380994
O O5 0.272925 0.585496 0.907985
O O6 0.000000 0.500000 0.935510
O O7 0.269109 0.500000 0.000000
O O8 0.273601 0.109061 0.881992
O O9 0.223003 0.249614 0.929705
O O10 0.000000 0.126435 0.941151
O O11 0.279447 0.125215 0.000000
O O12 0.276253 0.171536 0.220671
O O13 0.281115 0.333017 0.275487
O O14 0.205180 0.307046 0.171764
O O15 0.000000 0.252673 0.250135
O O16 0.000000 0.099601 0.819493
O O17 0.737410 0.000000 0.800154
O O18 0.277500 0.500000 0.685816
O O19 0.000000 0.590319 0.693913
O O20 0.500000 0.300789 0.120236
#
# Coordination Sequence:
#
# PCOD9388393 Si02
#       7
#     8   4   8   8   8   8   8
#     4   8  14  25  40  59  86 120 152 180 212 248
#     4  11  23  37  51  63  79 109 146 181 220 265
#     4   9  17  30  47  65  85 109 136 168 217 277
#     4   9  18  32  47  64  88 118 149 181 220 266
#     4   8  14  26  45  67  87 108 140 183 224 263
#     4   9  17  27  41  63  88 118 152 182 212 250
#     4  11  22  33  46  65  86 110 142 181 221 260
#
# _framework density 17.868517000000001
#
# number of rings (size 3 to 8) (size 9 to 14) (size 15 to 20)
#    0.000    2.846    0.000    3.462    1.077    4.000 
#    0.000    3.077    0.000    7.385    0.000    4.308 
#    0.000    0.615    0.000    7.692    0.000    1.538 
#
# Total GULP energy -289636.504795 kJ/mol
# GULP energy per Si atom -5569.932785 kJ/mol
# Density = 1.782785 g / cm^3
# Si number density = 17.868517 Si / 1000 Ang^3
#
#
#
# Elastic Constant Matrix: (Units=GPa)
#
#
# Indices 1 2 3 4 5 6 
#
# 1 37.8647 -1.9435 0.3053 0.0000 0.0000 0.0000
# 2 -1.9435 113.5546 57.4296 0.0000 0.0000 0.0000
# 3 0.3053 57.4296 107.1724 0.0000 0.0000 0.0000
# 4 0.0000 0.0000 0.0000 24.3238 0.0000 0.0000
# 5 0.0000 0.0000 0.0000 0.0000 23.4786 0.0000
# 6 0.0000 0.0000 0.0000 0.0000 0.0000 -6.8045
#
#
#
# Elastic Compliance Matrix: (Units=1/GPa)
#
#
# Indices 1 2 3 4 5 6 
#
# 1 0.026448 0.000673 -0.000436 0.000000 0.000000 0.000000
# 2 0.000673 0.012097 -0.006484 0.000000 0.000000 0.000000
# 3 -0.000436 -0.006484 0.012807 0.000000 0.000000 0.000000
# 4 0.000000 0.000000 0.000000 0.041112 0.000000 0.000000
# 5 0.000000 0.000000 0.000000 0.000000 0.042592 0.000000
# 6 0.000000 0.000000 0.000000 0.000000 0.000000 -0.146962
#
#
# Mechanical properties :
#
#
# Convention : Reuss Voigt Hill
#
# Bulk Modulus (GPa) = 25.73516 41.13049 33.43282
# Shear Modulus (GPa) = 369.25003 21.71959 195.48481
#
# Velocity S-wave (km/s) = 14.39087 3.49022 10.47088
# Velocity P-wave (km/s) = 17.04591 6.26981 12.84277
#
# Compressibility (1/GPa) = 0.03885735
#
# Stress axis : x y z
#
# Youngs Moduli (GPa) = 37.81024 82.66301 78.08383
#
# Poissons Ratio (x) = -0.05565 0.03405
# Poissons Ratio (y) = -0.02545 0.50633
# Poissons Ratio (z) = 0.01649 0.53602
#
# Static dielectric constant tensor:
#      x y z
#    x 1.662070 0.000000 0.000000 
#    y 0.000000 1.687040 0.000000 
#    z 0.000000 0.000000 1.631170 
# 
# From -- ./inp_files/12488.got.cif
#   From: 2010.05.17/outbox.cif.g08.bks.cpg/sg47_7_cif.got.tgz:12488.got - 2010.06.03 20:15:42.
