data_PCOD9388362
_publ_section_title
;
Structure prediction by ZEFSAII (Michael W. Deem and Ramdas Pophale) SiO2 
 PCOD9388362
Probable space group: P M M M
;
_chemical_formula_sum "Si O2"
_cell_formula_units_Z 48
_cell_length_a 8.817312
_cell_length_b 29.551302
_cell_length_c 10.136828
_cell_angle_alpha 90.000000
_cell_angle_beta 90.000000
_cell_angle_gamma 90.000000
_cell_volume 2641.282818
_symmetry_space_group_name_H-M "P M M M"
_symmetry_group_IT_number 47
_symmetry_cell_setting 'orthorhombic'
loop_
_space_group_symop_operation_xyz
x,y,z
-x,-y,z
x,-y,-z
-x,y,-z
-x,-y,-z
x,y,-z
-x,y,z
x,-y,z
loop_
_atom_site_type_symbol
_atom_site_label
_atom_site_fract_x
_atom_site_fract_y
_atom_site_fract_z
Si Si1 0.318193 0.874541 0.346009
Si Si2 0.315820 0.551628 0.000000
Si Si3 0.318358 0.393157 0.741832
Si Si4 0.181593 0.447539 0.500000
Si Si5 0.181690 0.946334 0.149776
Si Si6 0.818028 0.695015 0.846864
Si Si7 0.182896 0.199974 0.847272
O O1 0.268315 0.874262 0.500000
O O2 0.500000 0.873681 0.345035
O O3 0.260471 0.918039 0.264306
O O4 0.255655 0.832478 0.260788
O O5 0.270052 0.579686 0.872544
O O6 0.260409 0.500000 0.000000
O O7 0.500000 0.549881 0.000000
O O8 0.500000 0.393730 0.731562
O O9 0.245276 0.420568 0.623845
O O10 0.261454 0.341870 0.756157
O O11 0.231887 0.500000 0.500000
O O12 0.000000 0.446926 0.500000
O O13 0.000000 0.939246 0.157660
O O14 0.209776 0.000000 0.162570
O O15 0.228433 0.932693 0.000000
O O16 0.779496 0.747396 0.820623
O O17 0.000000 0.690661 0.835899
O O18 0.776396 0.685969 0.000000
O O19 0.000000 0.195429 0.842044
O O20 0.227521 0.189613 0.000000
#
# Coordination Sequence:
#
# PCOD9388362 Si02
#       7
#     8   4   8   4   8   8   8
#     4  11  24  38  52  79 119 156 190 234 285 335
#     4   9  18  32  53  83 115 143 177 223 272 327
#     4  11  21  36  59  86 115 148 185 228 280 337
#     4  11  25  43  59  79 111 151 193 233 276 331
#     4   9  19  37  61  87 113 145 190 240 285 336
#     4   9  18  35  59  86 116 146 181 230 284 338
#     4   9  19  37  61  85 108 143 190 235 280 334
#
# _framework density 18.172986999999999
#
# number of rings (size 3 to 8) (size 9 to 14) (size 15 to 20)
#    0.000    2.167    0.833    3.750    0.000    6.667 
#    1.500    4.167    0.000    2.000    0.000    0.000 
#    0.000    0.000    0.000    0.000    0.000    0.000 
#
# Total GULP energy -267910.291095 kJ/mol
# GULP energy per Si atom -5581.464398 kJ/mol
# Density = 1.813162 g / cm^3
# Si number density = 18.172987 Si / 1000 Ang^3
#
#
#
# Elastic Constant Matrix: (Units=GPa)
#
#
# Indices 1 2 3 4 5 6 
#
# 1 39.6018 47.8725 52.6983 0.0000 0.0000 0.0000
# 2 47.8725 129.0079 95.9029 0.0000 0.0000 0.0000
# 3 52.6983 95.9029 175.8766 0.0000 0.0000 0.0000
# 4 0.0000 0.0000 0.0000 42.8800 0.0000 0.0000
# 5 0.0000 0.0000 0.0000 0.0000 40.9961 0.0000
# 6 0.0000 0.0000 0.0000 0.0000 0.0000 -0.8956
#
#
#
# Elastic Compliance Matrix: (Units=1/GPa)
#
#
# Indices 1 2 3 4 5 6 
#
# 1 0.052527 -0.013103 -0.008594 0.000000 0.000000 0.000000
# 2 -0.013103 0.016304 -0.004964 0.000000 0.000000 0.000000
# 3 -0.008594 -0.004964 0.010968 0.000000 0.000000 0.000000
# 4 0.000000 0.000000 0.000000 0.023321 0.000000 0.000000
# 5 0.000000 0.000000 0.000000 0.000000 0.024393 0.000000
# 6 0.000000 0.000000 0.000000 0.000000 0.000000 -1.116567
#
#
# Mechanical properties :
#
#
# Convention : Reuss Voigt Hill
#
# Bulk Modulus (GPa) = 37.76962 81.93707 59.85334
# Shear Modulus (GPa) = -5.39429 26.46359 10.53465
#
# Velocity S-wave (km/s) = -1.72474 3.82017 2.41028
# Velocity P-wave (km/s) = 4.10636 8.04011 6.38379
#
# Compressibility (1/GPa) = 0.02647631
#
# Stress axis : x y z
#
# Youngs Moduli (GPa) = 19.03776 61.33349 91.17678
#
# Poissons Ratio (x) = 0.80368 0.78355
# Poissons Ratio (y) = 0.24946 0.45263
# Poissons Ratio (z) = 0.16361 0.30448
#
# Static dielectric constant tensor:
#      x y z
#    x 1.606240 0.000000 0.000000 
#    y 0.000000 1.623060 0.000000 
#    z 0.000000 0.000000 1.669800 
# 
# From -- ./inp_files/2643.got.cif
#   From: 2010.05.17/outbox.cif.g08.bks.cpg/sg47_2_cif.got.tgz:2643.got - 2010.06.03 20:15:42.
