data_PCOD9388758
_publ_section_title
;
Structure prediction by ZEFSAII (Michael W. Deem and Ramdas Pophale) SiO2 
 PCOD9388758
Probable space group: P M M M
;
_chemical_formula_sum "Si O2"
_cell_formula_units_Z 32
_cell_length_a 24.088998
_cell_length_b 7.826637
_cell_length_c 7.496762
_cell_angle_alpha 90.000000
_cell_angle_beta 90.000000
_cell_angle_gamma 90.000000
_cell_volume 1413.408344
_symmetry_space_group_name_H-M "P M M M"
_symmetry_group_IT_number 47
_symmetry_cell_setting 'orthorhombic'
loop_
_space_group_symop_operation_xyz
x,y,z
-x,-y,z
x,-y,-z
-x,y,-z
-x,-y,-z
x,y,-z
-x,y,z
x,-y,z
loop_
_atom_site_type_symbol
_atom_site_label
_atom_site_fract_x
_atom_site_fract_y
_atom_site_fract_z
Si Si1 0.618868 0.705362 0.793762
Si Si2 0.935882 0.500000 0.280779
Si Si3 0.737436 0.794927 0.796208
Si Si4 0.500000 0.701223 0.781344
Si Si5 0.860671 0.192786 0.291204
O O1 0.614576 0.500000 0.797761
O O2 0.678590 0.745388 0.711022
O O3 0.559782 0.771255 0.720747
O O4 0.621580 0.767605 0.000000
O O5 0.934144 0.500000 0.500000
O O6 0.902862 0.332244 0.217735
O O7 0.000000 0.500000 0.228624
O O8 0.796936 0.743311 0.720349
O O9 0.737929 0.000000 0.796092
O O10 0.736766 0.730536 0.000000
O O11 0.500000 0.500000 0.733592
O O12 0.500000 0.709483 0.000000
O O13 0.873469 0.177512 0.500000
O O14 0.863888 0.000000 0.214330
#
# Coordination Sequence:
#
# PCOD9388758 Si02
#       5
#     8   4   8   4   8
#     4   8  13  21  35  55  79 110 145 180 220 264
#     4   9  18  32  51  75  97 116 147 188 220 255
#     4   9  17  28  42  63  90 117 147 184 223 263
#     4   7  10  18  31  49  76 107 140 178 219 262
#     4   9  18  32  49  69  94 122 149 180 221 265
#
# _framework density 22.640307
#
# number of rings (size 3 to 8) (size 9 to 14) (size 15 to 20)
#    0.000    3.500    0.000    1.500    1.750    0.500 
#    0.000    3.125    0.000    5.250    0.000    4.375 
#    0.000    7.000    0.000    0.000    0.000    0.000 
#
# Total GULP energy -178238.711313 kJ/mol
# GULP energy per Si atom -5569.959729 kJ/mol
# Density = 2.258878 g / cm^3
# Si number density = 22.640307 Si / 1000 Ang^3
#
#
#
# Elastic Constant Matrix: (Units=GPa)
#
#
# Indices 1 2 3 4 5 6 
#
# 1 260.1058 90.0548 6.4517 0.0000 0.0000 0.0000
# 2 90.0548 69.6274 7.2607 0.0000 0.0000 0.0000
# 3 6.4517 7.2607 57.8342 0.0000 0.0000 0.0000
# 4 0.0000 0.0000 0.0000 34.6496 0.0000 0.0000
# 5 0.0000 0.0000 0.0000 0.0000 16.3765 0.0000
# 6 0.0000 0.0000 0.0000 0.0000 0.0000 97.2376
#
#
#
# Elastic Compliance Matrix: (Units=1/GPa)
#
#
# Indices 1 2 3 4 5 6 
#
# 1 0.006970 -0.009052 0.000359 0.000000 0.000000 0.000000
# 2 -0.009052 0.026309 -0.002293 0.000000 0.000000 0.000000
# 3 0.000359 -0.002293 0.017539 0.000000 0.000000 0.000000
# 4 0.000000 0.000000 0.000000 0.028860 0.000000 0.000000
# 5 0.000000 0.000000 0.000000 0.000000 0.061063 0.000000
# 6 0.000000 0.000000 0.000000 0.000000 0.000000 0.010284
#
#
# Mechanical properties :
#
#
# Convention : Reuss Voigt Hill
#
# Bulk Modulus (GPa) = 34.66807 66.12242 50.39525
# Shear Modulus (GPa) = 27.38051 48.57276 37.97663
#
# Velocity S-wave (km/s) = 3.48137 4.63688 4.10004
# Velocity P-wave (km/s) = 5.61300 7.61161 6.68739
#
# Compressibility (1/GPa) = 0.02884499
#
# Stress axis : x y z
#
# Youngs Moduli (GPa) = 143.47921 38.01011 57.01687
#
# Poissons Ratio (x) = 0.34406 -0.02046
# Poissons Ratio (y) = 1.29875 0.13075
# Poissons Ratio (z) = -0.05149 0.08716
#
# Static dielectric constant tensor:
#      x y z
#    x 1.869220 0.000000 0.000000 
#    y 0.000000 1.834660 0.000000 
#    z 0.000000 0.000000 1.898230 
# 
# From -- ./inp_files/1298.got.cif
#   From: 2010.05.17/outbox.cif.g08.bks.cpg/sg47_1_cif.got.tgz:1298.got - 2010.06.03 20:15:42.
