data_PCOD9388629
_publ_section_title
;
Structure prediction by ZEFSAII (Michael W. Deem and Ramdas Pophale) SiO2 
 PCOD9388629
Probable space group: P M M M
;
_chemical_formula_sum "Si O2"
_cell_formula_units_Z 48
_cell_length_a 31.310863
_cell_length_b 9.790776
_cell_length_c 8.542246
_cell_angle_alpha 90.000000
_cell_angle_beta 90.000000
_cell_angle_gamma 90.000000
_cell_volume 2618.690825
_symmetry_space_group_name_H-M "P M M M"
_symmetry_group_IT_number 47
_symmetry_cell_setting 'orthorhombic'
loop_
_space_group_symop_operation_xyz
x,y,z
-x,-y,z
x,-y,-z
-x,y,-z
-x,-y,-z
x,y,-z
-x,y,z
x,-y,z
loop_
_atom_site_type_symbol
_atom_site_label
_atom_site_fract_x
_atom_site_fract_y
_atom_site_fract_z
Si Si1 0.751343 0.656404 0.687128
Si Si2 0.324406 0.842448 0.189075
Si Si3 0.421780 0.843920 0.190722
Si Si4 0.000000 0.343786 0.312900
Si Si5 0.075184 0.156439 0.811047
Si Si6 0.500000 0.656932 0.808296
Si Si7 0.173419 0.843476 0.811029
O O1 0.751257 0.654596 0.500000
O O2 0.751120 0.500000 0.744703
O O3 0.710037 0.738960 0.744841
O O4 0.793018 0.737428 0.744208
O O5 0.373195 0.811158 0.238086
O O6 0.315050 0.000000 0.234432
O O7 0.322831 0.837303 0.000000
O O8 0.457824 0.738775 0.243046
O O9 0.431573 0.000000 0.238381
O O10 0.422052 0.843253 0.000000
O O11 0.041526 0.262195 0.255633
O O12 0.000000 0.500000 0.255049
O O13 0.000000 0.345704 0.500000
O O14 0.124299 0.184751 0.765159
O O15 0.064944 0.000000 0.763732
O O16 0.073249 0.160573 0.000000
O O17 0.500000 0.500000 0.757943
O O18 0.500000 0.657636 0.000000
O O19 0.183698 0.000000 0.763822
O O20 0.175388 0.839326 0.000000
#
# Coordination Sequence:
#
# PCOD9388629 Si02
#       7
#     8   8   8   4   8   4   8
#     4  11  24  37  49  72 106 139 169 204 250 304
#     4   9  18  33  53  75  97 126 169 215 254 297
#     4   8  14  25  41  62  90 123 157 197 246 294
#     4  11  24  37  50  76 114 149 178 211 252 298
#     4   9  19  37  60  83 105 132 171 217 259 301
#     4   9  15  21  33  59  94 127 158 193 236 290
#     4   9  19  37  60  83 104 129 167 214 259 303
#
# _framework density 18.329768999999999
#
# number of rings (size 3 to 8) (size 9 to 14) (size 15 to 20)
#    0.000    2.667    0.000    3.750    0.000    9.000 
#    0.000    6.667    0.000    0.000    0.000    0.583 
#    0.000    4.667    0.000    0.000    0.000    0.000 
#
# Total GULP energy -267815.601824 kJ/mol
# GULP energy per Si atom -5579.491705 kJ/mol
# Density = 1.828805 g / cm^3
# Si number density = 18.329769 Si / 1000 Ang^3
#
#
#
# Elastic Constant Matrix: (Units=GPa)
#
#
# Indices 1 2 3 4 5 6 
#
# 1 163.4367 147.8614 30.0711 0.0000 0.0000 0.0000
# 2 147.8614 187.7535 32.4941 0.0000 0.0000 0.0000
# 3 30.0711 32.4941 11.9875 0.0000 0.0000 0.0000
# 4 0.0000 0.0000 0.0000 26.5549 0.0000 0.0000
# 5 0.0000 0.0000 0.0000 0.0000 -38.7211 0.0000
# 6 0.0000 0.0000 0.0000 0.0000 0.0000 -13.1752
#
#
#
# Elastic Compliance Matrix: (Units=1/GPa)
#
#
# Indices 1 2 3 4 5 6 
#
# 1 0.022812 -0.015185 -0.016063 0.000000 0.000000 0.000000
# 2 -0.015185 0.020141 -0.016503 0.000000 0.000000 0.000000
# 3 -0.016063 -0.016503 0.168450 0.000000 0.000000 0.000000
# 4 0.000000 0.000000 0.000000 0.037658 0.000000 0.000000
# 5 0.000000 0.000000 0.000000 0.000000 -0.025826 0.000000
# 6 0.000000 0.000000 0.000000 0.000000 0.000000 -0.075900
#
#
# Mechanical properties :
#
#
# Convention : Reuss Voigt Hill
#
# Bulk Modulus (GPa) = 8.62810 87.11454 47.87132
# Shear Modulus (GPa) = 17.76377 5.11514 11.43945
#
# Velocity S-wave (km/s) = 3.11645 1.67233 2.50089
# Velocity P-wave (km/s) = 4.20322 7.16647 5.87475
#
# Compressibility (1/GPa) = 0.11590043
#
# Stress axis : x y z
#
# Youngs Moduli (GPa) = 43.83625 49.64977 5.93648
#
# Poissons Ratio (x) = 0.75394 0.09536
# Poissons Ratio (y) = 0.66566 0.09797
# Poissons Ratio (z) = 0.70415 0.81937
#
# Static dielectric constant tensor:
#      x y z
#    x 1.617870 0.000000 0.000000 
#    y 0.000000 1.615200 0.000000 
#    z 0.000000 0.000000 1.623910 
# 
# From -- ./inp_files/2742.got.cif
#   From: 2010.05.17/outbox.cif.g08.bks.cpg/sg47_2_cif.got.tgz:2742.got - 2010.06.03 20:15:42.
