data_PCOD9388845
_publ_section_title
;
Structure prediction by ZEFSAII (Michael W. Deem and Ramdas Pophale) SiO2 
 PCOD9388845
Probable space group: P M M M
;
_chemical_formula_sum "Si O2"
_cell_formula_units_Z 48
_cell_length_a 25.399560
_cell_length_b 7.433902
_cell_length_c 13.908442
_cell_angle_alpha 90.000000
_cell_angle_beta 90.000000
_cell_angle_gamma 90.000000
_cell_volume 2626.161975
_symmetry_space_group_name_H-M "P M M M"
_symmetry_group_IT_number 47
_symmetry_cell_setting 'orthorhombic'
loop_
_space_group_symop_operation_xyz
x,y,z
-x,-y,z
x,-y,-z
-x,y,-z
-x,-y,-z
x,y,-z
-x,y,z
x,-y,z
loop_
_atom_site_type_symbol
_atom_site_label
_atom_site_fract_x
_atom_site_fract_y
_atom_site_fract_z
Si Si1 0.171098 0.280523 0.887273
Si Si2 0.333259 0.217601 0.607502
Si Si3 0.389519 0.717936 0.891930
Si Si4 0.720073 0.288961 0.196506
Si Si5 0.557593 0.211167 0.305492
Si Si6 0.056681 0.717154 0.114872
O O1 0.170014 0.500000 0.882813
O O2 0.223211 0.215487 0.833207
O O3 0.113767 0.218834 0.849644
O O4 0.175758 0.233732 0.000000
O O5 0.320308 0.277178 0.500000
O O6 0.293281 0.271165 0.691273
O O7 0.391354 0.284430 0.639212
O O8 0.334796 0.000000 0.607998
O O9 0.388907 0.500000 0.891296
O O10 0.331148 0.782900 0.860200
O O11 0.429056 0.773652 0.807684
O O12 0.402225 0.776561 0.000000
O O13 0.721650 0.500000 0.171978
O O14 0.500000 0.288416 0.326433
O O15 0.555525 0.000000 0.329604
O O16 0.056189 0.500000 0.125540
O O17 0.000000 0.783580 0.152599
O O18 0.057042 0.752136 0.000000
#
# Coordination Sequence:
#
# PCOD9388845 Si02
#       6
#     8   8   8   8   8   8
#     4   8  12  18  31  52  78 108 137 160 183 215
#     4   9  18  32  47  60  75  96 120 150 193 239
#     4   9  17  28  41  57  79 107 133 154 179 214
#     4   9  16  26  41  60  80 101 128 160 189 220
#     4   9  18  31  45  61  78  95 120 154 188 224
#     4   7   9  13  22  40  70 106 137 160 182 210
#
# _framework density 18.277623999999999
#
# number of rings (size 3 to 8) (size 9 to 14) (size 15 to 20)
#    0.000    3.500    0.000    2.000    0.000    3.667 
#    0.000    3.333    0.000    1.500    0.000    4.667 
#    0.000    1.333    0.000   12.500    0.000    5.000 
#
# Total GULP energy -267317.172386 kJ/mol
# GULP energy per Si atom -5569.107758 kJ/mol
# Density = 1.823602 g / cm^3
# Si number density = 18.277624 Si / 1000 Ang^3
#
#
#
# Elastic Constant Matrix: (Units=GPa)
#
#
# Indices 1 2 3 4 5 6 
#
# 1 144.8905 0.9657 14.0995 0.0000 0.0000 0.0000
# 2 0.9657 54.4244 -13.1745 0.0000 0.0000 0.0000
# 3 14.0995 -13.1745 32.6484 0.0000 0.0000 0.0000
# 4 0.0000 0.0000 0.0000 12.2377 0.0000 0.0000
# 5 0.0000 0.0000 0.0000 0.0000 10.5358 0.0000
# 6 0.0000 0.0000 0.0000 0.0000 0.0000 18.9247
#
#
#
# Elastic Compliance Matrix: (Units=1/GPa)
#
#
# Indices 1 2 3 4 5 6 
#
# 1 0.007252 -0.000983 -0.003528 0.000000 0.000000 0.000000
# 2 -0.000983 0.020496 0.008695 0.000000 0.000000 0.000000
# 3 -0.003528 0.008695 0.035662 0.000000 0.000000 0.000000
# 4 0.000000 0.000000 0.000000 0.081715 0.000000 0.000000
# 5 0.000000 0.000000 0.000000 0.000000 0.094914 0.000000
# 6 0.000000 0.000000 0.000000 0.000000 0.000000 0.052841
#
#
# Mechanical properties :
#
#
# Convention : Reuss Voigt Hill
#
# Bulk Modulus (GPa) = 13.93178 26.19385 20.06281
# Shear Modulus (GPa) = 16.21072 23.67781 19.94426
#
# Velocity S-wave (km/s) = 2.98135 3.60315 3.30689
# Velocity P-wave (km/s) = 4.41476 5.62783 5.05779
#
# Compressibility (1/GPa) = 0.07177836
#
# Stress axis : x y z
#
# Youngs Moduli (GPa) = 137.89957 48.78906 28.04118
#
# Poissons Ratio (x) = 0.04795 0.09894
# Poissons Ratio (y) = 0.13552 -0.24382
# Poissons Ratio (z) = 0.48655 -0.42423
#
# Static dielectric constant tensor:
#      x y z
#    x 1.678940 0.000000 0.000000 
#    y 0.000000 1.775630 0.000000 
#    z 0.000000 0.000000 1.590050 
# 
# From -- ./inp_files/7470.got.cif
#   From: 2010.05.17/outbox.cif.g08.bks.cpg/sg47_4_cif.got.tgz:7470.got - 2010.06.03 20:15:42.
