data_PCOD9388345
_publ_section_title
;
Structure prediction by ZEFSAII (Michael W. Deem and Ramdas Pophale) SiO2 
 PCOD9388345
Probable space group: P M M M
;
_chemical_formula_sum "Si O2"
_cell_formula_units_Z 28
_cell_length_a 12.331543
_cell_length_b 7.469349
_cell_length_c 17.204982
_cell_angle_alpha 90.000000
_cell_angle_beta 90.000000
_cell_angle_gamma 90.000000
_cell_volume 1584.726777
_symmetry_space_group_name_H-M "P M M M"
_symmetry_group_IT_number 47
_symmetry_cell_setting 'orthorhombic'
loop_
_space_group_symop_operation_xyz
x,y,z
-x,-y,z
x,-y,-z
-x,y,-z
-x,-y,-z
x,y,-z
-x,y,z
x,-y,z
loop_
_atom_site_type_symbol
_atom_site_label
_atom_site_fract_x
_atom_site_fract_y
_atom_site_fract_z
Si Si1 0.223280 0.707416 0.831768
Si Si2 0.874195 0.782589 0.329760
Si Si3 0.000000 0.717622 0.910895
Si Si4 0.370590 0.000000 0.091960
Si Si5 0.868393 0.206990 0.500000
O O1 0.239119 0.500000 0.852969
O O2 0.202654 0.722368 0.739693
O O3 0.109674 0.774437 0.868745
O O4 0.317652 0.829195 0.865800
O O5 0.839054 0.717629 0.415595
O O6 0.000000 0.726211 0.315619
O O7 0.875055 0.000000 0.331262
O O8 0.000000 0.500000 0.908709
O O9 0.000000 0.774723 0.000000
O O10 0.500000 0.000000 0.098873
O O11 0.342748 0.000000 0.000000
O O12 0.000000 0.206070 0.500000
O O13 0.832126 0.000000 0.500000
#
# Coordination Sequence:
#
# PCOD9388345 Si02
#       5
#     8   8   4   4   4
#     4  11  21  35  57  84 113 144 177 220 274 327
#     4   9  15  27  48  78 116 154 186 217 259 319
#     4   9  18  31  49  78 112 140 170 209 264 335
#     4  11  26  45  61  78 101 137 190 239 276 322
#     4   7  12  22  41  71 111 155 189 214 249 306
#
# _framework density 17.668662000000001
#
# number of rings (size 3 to 8) (size 9 to 14) (size 15 to 20)
#    0.000    2.429    2.857    2.571    0.000    2.857 
#    0.000    3.571    0.000    2.571    0.000    2.000 
#    0.000    2.286    0.000    0.000    0.000    0.000 
#
# Total GULP energy -156181.013088 kJ/mol
# GULP energy per Si atom -5577.893325 kJ/mol
# Density = 1.762845 g / cm^3
# Si number density = 17.668662 Si / 1000 Ang^3
#
#
#
# Elastic Constant Matrix: (Units=GPa)
#
#
# Indices 1 2 3 4 5 6 
#
# 1 71.8186 33.3181 54.4271 0.0000 0.0000 0.0000
# 2 33.3181 89.4805 26.1893 0.0000 0.0000 0.0000
# 3 54.4271 26.1893 158.3312 0.0000 0.0000 0.0000
# 4 0.0000 0.0000 0.0000 5.7029 0.0000 0.0000
# 5 0.0000 0.0000 0.0000 0.0000 15.8797 0.0000
# 6 0.0000 0.0000 0.0000 0.0000 0.0000 19.1127
#
#
#
# Elastic Compliance Matrix: (Units=1/GPa)
#
#
# Indices 1 2 3 4 5 6 
#
# 1 0.021661 -0.006186 -0.006423 0.000000 0.000000 0.000000
# 2 -0.006186 0.013511 -0.000108 0.000000 0.000000 0.000000
# 3 -0.006423 -0.000108 0.008542 0.000000 0.000000 0.000000
# 4 0.000000 0.000000 0.000000 0.175350 0.000000 0.000000
# 5 0.000000 0.000000 0.000000 0.000000 0.062974 0.000000
# 6 0.000000 0.000000 0.000000 0.000000 0.000000 0.052321
#
#
# Mechanical properties :
#
#
# Convention : Reuss Voigt Hill
#
# Bulk Modulus (GPa) = 54.70634 60.83326 57.76980
# Shear Modulus (GPa) = 13.66546 21.85210 17.75878
#
# Velocity S-wave (km/s) = 2.78408 3.52059 3.17377
# Velocity P-wave (km/s) = 6.43151 7.14359 6.79688
#
# Compressibility (1/GPa) = 0.01827942
#
# Stress axis : x y z
#
# Youngs Moduli (GPa) = 46.16534 74.01598 117.07204
#
# Poissons Ratio (x) = 0.45784 0.75195
# Poissons Ratio (y) = 0.28556 0.01269
# Poissons Ratio (z) = 0.29652 0.00802
#
# Static dielectric constant tensor:
#      x y z
#    x 1.546510 0.000000 0.000000 
#    y 0.000000 1.655720 0.000000 
#    z 0.000000 0.000000 1.649240 
# 
# From -- ./inp_files/27196.got.cif
#   From: 2010.05.17/outbox.cif.g08.bks.cpg/sg47_14_cif.got.tgz:27196.got - 2010.06.03 20:15:42.
