data_PCOD9388408
_publ_section_title
;
Structure prediction by ZEFSAII (Michael W. Deem and Ramdas Pophale) SiO2 
 PCOD9388408
Probable space group: P M M M
;
_chemical_formula_sum "Si O2"
_cell_formula_units_Z 52
_cell_length_a 14.023478
_cell_length_b 8.633300
_cell_length_c 27.616702
_cell_angle_alpha 90.000000
_cell_angle_beta 90.000000
_cell_angle_gamma 90.000000
_cell_volume 3343.523529
_symmetry_space_group_name_H-M "P M M M"
_symmetry_group_IT_number 47
_symmetry_cell_setting 'orthorhombic'
loop_
_space_group_symop_operation_xyz
x,y,z
-x,-y,z
x,-y,-z
-x,y,-z
-x,-y,-z
x,y,-z
-x,y,z
x,-y,z
loop_
_atom_site_type_symbol
_atom_site_label
_atom_site_fract_x
_atom_site_fract_y
_atom_site_fract_z
Si Si1 0.608972 0.312808 0.145868
Si Si2 0.206144 0.815695 0.096851
Si Si3 0.107908 0.312996 0.807768
Si Si4 0.111217 0.314116 0.000000
Si Si5 0.384594 0.184202 0.552106
Si Si6 0.705371 0.313950 0.753028
Si Si7 0.610704 0.187165 0.657523
O O1 0.500000 0.266383 0.136374
O O2 0.615025 0.500000 0.143070
O O3 0.687630 0.243157 0.110016
O O4 0.639950 0.269135 0.200732
O O5 0.140577 0.758810 0.141426
O O6 0.164546 0.746537 0.047602
O O7 0.205659 0.000000 0.094402
O O8 0.112329 0.500000 0.812928
O O9 0.187325 0.269066 0.768294
O O10 0.000000 0.269149 0.795649
O O11 0.112723 0.500000 0.000000
O O12 0.000000 0.264018 0.000000
O O13 0.351745 0.249682 0.500000
O O14 0.500000 0.196810 0.552827
O O15 0.353155 0.244397 0.604691
O O16 0.363517 0.000000 0.551307
O O17 0.700852 0.500000 0.749113
O O18 0.669871 0.242943 0.703258
O O19 0.500000 0.235998 0.663436
O O20 0.611232 0.000000 0.656115
#
# Coordination Sequence:
#
# PCOD9388408 Si02
#       7
#     8   8   8   4   8   8   8
#     4   9  18  34  53  69  90 125 163 188 209 251
#     4  11  22  34  51  77 103 120 141 181 228 267
#     4   9  18  34  52  66  85 117 153 182 212 260
#     4  11  23  39  58  75  94 123 155 184 216 261
#     4   7  10  18  32  49  71 103 143 180 209 243
#     4   9  17  28  43  64  87 112 144 180 217 256
#     4   9  16  24  36  57  84 113 144 177 213 253
#
# _framework density 15.552455
#
# number of rings (size 3 to 8) (size 9 to 14) (size 15 to 20)
#    0.000    2.846    0.000    4.846    0.000    6.462 
#    0.000    0.385    0.000    2.769    0.000    2.154 
#    0.000    0.615    0.000    7.692    0.000    0.308 
#
# Total GULP energy -289633.202652 kJ/mol
# GULP energy per Si atom -5569.869282 kJ/mol
# Density = 1.551706 g / cm^3
# Si number density = 15.552455 Si / 1000 Ang^3
#
#
#
# Elastic Constant Matrix: (Units=GPa)
#
#
# Indices 1 2 3 4 5 6 
#
# 1 115.8839 29.9161 77.1044 0.0000 0.0000 0.0000
# 2 29.9161 18.7994 32.4676 0.0000 0.0000 0.0000
# 3 77.1044 32.4676 165.0818 0.0000 0.0000 0.0000
# 4 0.0000 0.0000 0.0000 30.2439 0.0000 0.0000
# 5 0.0000 0.0000 0.0000 0.0000 15.7867 0.0000
# 6 0.0000 0.0000 0.0000 0.0000 0.0000 8.4760
#
#
#
# Elastic Compliance Matrix: (Units=1/GPa)
#
#
# Indices 1 2 3 4 5 6 
#
# 1 0.016041 -0.019061 -0.003743 0.000000 0.000000 0.000000
# 2 -0.019061 0.103207 -0.011395 0.000000 0.000000 0.000000
# 3 -0.003743 -0.011395 0.010047 0.000000 0.000000 0.000000
# 4 0.000000 0.000000 0.000000 0.033065 0.000000 0.000000
# 5 0.000000 0.000000 0.000000 0.000000 0.063344 0.000000
# 6 0.000000 0.000000 0.000000 0.000000 0.000000 0.117980
#
#
# Mechanical properties :
#
#
# Convention : Reuss Voigt Hill
#
# Bulk Modulus (GPa) = 16.42181 64.30458 40.36320
# Shear Modulus (GPa) = 11.56388 21.58646 16.57517
#
# Velocity S-wave (km/s) = 2.72975 3.72960 3.26814
# Velocity P-wave (km/s) = 4.52960 7.74488 6.34431
#
# Compressibility (1/GPa) = 0.06089462
#
# Stress axis : x y z
#
# Youngs Moduli (GPa) = 62.34148 9.68931 99.53136
#
# Poissons Ratio (x) = 0.18469 0.37256
# Poissons Ratio (y) = 1.18832 1.13419
# Poissons Ratio (z) = 0.23335 0.11041
#
# Static dielectric constant tensor:
#      x y z
#    x 1.511530 0.000000 0.000000 
#    y 0.000000 1.531120 0.000000 
#    z 0.000000 0.000000 1.527910 
# 
# From -- ./inp_files/32667.got.cif
#   From: 2010.05.17/outbox.cif.g08.bks.cpg/sg47_17_cif.got.tgz:32667.got - 2010.06.03 20:15:42.
