data_PCOD9388347
_publ_section_title
;
Structure prediction by ZEFSAII (Michael W. Deem and Ramdas Pophale) SiO2 
 PCOD9388347
Probable space group: P M M M
;
_chemical_formula_sum "Si O2"
_cell_formula_units_Z 48
_cell_length_a 8.988480
_cell_length_b 19.113109
_cell_length_c 14.191948
_cell_angle_alpha 90.000000
_cell_angle_beta 90.000000
_cell_angle_gamma 90.000000
_cell_volume 2438.145416
_symmetry_space_group_name_H-M "P M M M"
_symmetry_group_IT_number 47
_symmetry_cell_setting 'orthorhombic'
loop_
_space_group_symop_operation_xyz
x,y,z
-x,-y,z
x,-y,-z
-x,y,-z
-x,-y,-z
x,y,-z
-x,y,z
x,-y,z
loop_
_atom_site_type_symbol
_atom_site_label
_atom_site_fract_x
_atom_site_fract_y
_atom_site_fract_z
Si Si1 0.829981 0.615036 0.896282
Si Si2 0.836943 0.217278 0.105986
Si Si3 0.821691 0.000000 0.888271
Si Si4 0.327519 0.876097 0.231012
Si Si5 0.165166 0.500000 0.389500
Si Si6 0.681337 0.775688 0.609790
Si Si7 0.322888 0.371621 0.702455
O O1 0.837356 0.699522 0.900433
O O2 0.727790 0.604332 0.806540
O O3 0.000000 0.590267 0.881298
O O4 0.780098 0.590400 0.000000
O O5 0.698510 0.191527 0.165373
O O6 0.000000 0.196083 0.145609
O O7 0.828291 0.188430 0.000000
O O8 0.761780 0.065535 0.827050
O O9 0.000000 0.000000 0.889239
O O10 0.773420 0.000000 0.000000
O O11 0.500000 0.896472 0.237477
O O12 0.274928 0.845944 0.332340
O O13 0.149289 0.500000 0.500000
O O14 0.253305 0.569286 0.362468
O O15 0.000000 0.500000 0.345126
O O16 0.727906 0.774584 0.500000
O O17 0.500000 0.775321 0.610974
O O18 0.730138 0.705214 0.665803
O O19 0.500000 0.370946 0.697301
#
# Coordination Sequence:
#
# PCOD9388347 Si02
#       7
#     8   8   4   8   4   8   8
#     4   9  18  33  54  82 118 158 195 233 285 350
#     4   9  17  30  50  77 112 152 186 221 274 338
#     4  11  25  43  60  81 116 160 195 229 288 361
#     4  11  21  35  57  86 115 147 192 243 290 337
#     4  11  25  43  62  87 120 159 203 250 302 361
#     4   9  19  36  58  86 119 152 190 239 296 353
#     4  11  21  37  62  91 122 157 198 249 303 356
#
# _framework density 19.687097000000001
#
# number of rings (size 3 to 8) (size 9 to 14) (size 15 to 20)
#    0.000    2.000    1.667    3.500    0.000    4.667 
#    0.000    2.500    0.000   10.000    0.000    0.000 
#    0.000    0.000    0.000    0.000    0.000    0.000 
#
# Total GULP energy -267419.055198 kJ/mol
# GULP energy per Si atom -5571.230317 kJ/mol
# Density = 1.964229 g / cm^3
# Si number density = 19.687097 Si / 1000 Ang^3
#
#
#
# Elastic Constant Matrix: (Units=GPa)
#
#
# Indices 1 2 3 4 5 6 
#
# 1 49.6727 22.3525 40.7177 0.0000 0.0000 0.0000
# 2 22.3525 83.0080 46.1413 0.0000 0.0000 0.0000
# 3 40.7177 46.1413 139.7890 0.0000 0.0000 0.0000
# 4 0.0000 0.0000 0.0000 25.9826 0.0000 0.0000
# 5 0.0000 0.0000 0.0000 0.0000 16.6431 0.0000
# 6 0.0000 0.0000 0.0000 0.0000 0.0000 23.3891
#
#
#
# Elastic Compliance Matrix: (Units=1/GPa)
#
#
# Indices 1 2 3 4 5 6 
#
# 1 0.027292 -0.003589 -0.006765 0.000000 0.000000 0.000000
# 2 -0.003589 0.015226 -0.003980 0.000000 0.000000 0.000000
# 3 -0.006765 -0.003980 0.010438 0.000000 0.000000 0.000000
# 4 0.000000 0.000000 0.000000 0.038487 0.000000 0.000000
# 5 0.000000 0.000000 0.000000 0.000000 0.060085 0.000000
# 6 0.000000 0.000000 0.000000 0.000000 0.000000 0.042755
#
#
# Mechanical properties :
#
#
# Convention : Reuss Voigt Hill
#
# Bulk Modulus (GPa) = 41.17326 54.54363 47.85844
# Shear Modulus (GPa) = 21.64053 24.08684 22.86369
#
# Velocity S-wave (km/s) = 3.31905 3.50163 3.41156
# Velocity P-wave (km/s) = 5.97054 6.64183 6.31511
#
# Compressibility (1/GPa) = 0.02428761
#
# Stress axis : x y z
#
# Youngs Moduli (GPa) = 36.64052 65.67706 95.80358
#
# Poissons Ratio (x) = 0.23570 0.64812
# Poissons Ratio (y) = 0.13150 0.38134
# Poissons Ratio (z) = 0.24788 0.26142
#
# Static dielectric constant tensor:
#      x y z
#    x 1.695030 0.000000 0.000000 
#    y 0.000000 1.747280 0.000000 
#    z 0.000000 0.000000 1.736020 
# 
# From -- ./inp_files/21140.got.cif
#   From: 2010.05.17/outbox.cif.g08.bks.cpg/sg47_11_cif.got.tgz:21140.got - 2010.06.03 20:15:42.
