data_PCOD9388311
_publ_section_title
;
Structure prediction by ZEFSAII (Michael W. Deem and Ramdas Pophale) SiO2 
 PCOD9388311
Probable space group: P M M M
;
_chemical_formula_sum "Si O2"
_cell_formula_units_Z 52
_cell_length_a 9.194870
_cell_length_b 23.669288
_cell_length_c 14.428145
_cell_angle_alpha 90.000000
_cell_angle_beta 90.000000
_cell_angle_gamma 90.000000
_cell_volume 3140.084143
_symmetry_space_group_name_H-M "P M M M"
_symmetry_group_IT_number 47
_symmetry_cell_setting 'orthorhombic'
loop_
_space_group_symop_operation_xyz
x,y,z
-x,-y,z
x,-y,-z
-x,y,-z
-x,-y,-z
x,y,-z
-x,y,z
x,-y,z
loop_
_atom_site_type_symbol
_atom_site_label
_atom_site_fract_x
_atom_site_fract_y
_atom_site_fract_z
Si Si1 0.174082 0.770173 0.713029
Si Si2 0.328877 0.266514 0.893859
Si Si3 0.172164 0.564056 0.710906
Si Si4 0.826051 0.114482 0.391236
Si Si5 0.671094 0.402532 0.893810
Si Si6 0.332574 0.000000 0.612658
Si Si7 0.329708 0.666606 0.610859
O O1 0.232637 0.763700 0.817156
O O2 0.212505 0.830338 0.667658
O O3 0.248742 0.720107 0.654968
O O4 0.000000 0.763795 0.709870
O O5 0.500000 0.254455 0.879000
O O6 0.312270 0.334525 0.884864
O O7 0.292114 0.251777 0.000000
O O8 0.197044 0.500000 0.678095
O O9 0.231226 0.569537 0.815699
O O10 0.257266 0.610139 0.651045
O O11 0.000000 0.575621 0.708515
O O12 0.789720 0.124218 0.500000
O O13 0.000000 0.106301 0.386119
O O14 0.747404 0.057488 0.358747
O O15 0.500000 0.415511 0.878911
O O16 0.707081 0.417949 0.000000
O O17 0.500000 0.000000 0.641657
O O18 0.327914 0.000000 0.500000
O O19 0.318073 0.668032 0.500000
O O20 0.500000 0.668139 0.637029
#
# Coordination Sequence:
#
# PCOD9388311 Si02
#       7
#     8   8   8   8   8   4   8
#     4  11  21  33  54  83 110 137 172 214 259 308
#     4   9  18  33  53  77 106 138 170 207 255 310
#     4  11  24  39  55  77 103 131 166 211 262 314
#     4   9  18  32  49  72 107 148 180 208 251 305
#     4   9  18  34  56  79 103 133 167 204 252 311
#     4   9  17  29  47  73 104 139 182 225 255 286
#     4  11  24  40  57  76 100 133 172 214 259 307
#
# _framework density 16.560065999999999
#
# number of rings (size 3 to 8) (size 9 to 14) (size 15 to 20)
#    0.000    2.077    1.538    3.000    0.000    6.462 
#    0.000    6.154    0.000    0.000    0.000    0.538 
#    0.000    4.308    0.000    0.000    0.000    0.000 
#
# Total GULP energy -290305.794363 kJ/mol
# GULP energy per Si atom -5582.803738 kJ/mol
# Density = 1.652237 g / cm^3
# Si number density = 16.560066 Si / 1000 Ang^3
#
#
#
# Elastic Constant Matrix: (Units=GPa)
#
#
# Indices 1 2 3 4 5 6 
#
# 1 83.9908 78.8469 54.6259 0.0000 0.0000 0.0000
# 2 78.8469 128.5678 60.3383 0.0000 0.0000 0.0000
# 3 54.6259 60.3383 77.0332 0.0000 0.0000 0.0000
# 4 0.0000 0.0000 0.0000 23.5291 0.0000 0.0000
# 5 0.0000 0.0000 0.0000 0.0000 18.2947 0.0000
# 6 0.0000 0.0000 0.0000 0.0000 0.0000 -15.4763
#
#
#
# Elastic Compliance Matrix: (Units=1/GPa)
#
#
# Indices 1 2 3 4 5 6 
#
# 1 0.034174 -0.015156 -0.012362 0.000000 0.000000 0.000000
# 2 -0.015156 0.019021 -0.004151 0.000000 0.000000 0.000000
# 3 -0.012362 -0.004151 0.024999 0.000000 0.000000 0.000000
# 4 0.000000 0.000000 0.000000 0.042501 0.000000 0.000000
# 5 0.000000 0.000000 0.000000 0.000000 0.054661 0.000000
# 6 0.000000 0.000000 0.000000 0.000000 0.000000 -0.064615
#
#
# Mechanical properties :
#
#
# Convention : Reuss Voigt Hill
#
# Bulk Modulus (GPa) = 67.31568 75.24599 71.28084
# Shear Modulus (GPa) = 27.92802 11.65487 19.79144
#
# Velocity S-wave (km/s) = 4.11112 2.65579 3.46082
# Velocity P-wave (km/s) = 7.95441 7.41223 7.68810
#
# Compressibility (1/GPa) = 0.01485538
#
# Stress axis : x y z
#
# Youngs Moduli (GPa) = 29.26179 52.57311 40.00163
#
# Poissons Ratio (x) = 0.79682 0.49450
# Poissons Ratio (y) = 0.44350 0.16605
# Poissons Ratio (z) = 0.36173 0.21823
#
# Static dielectric constant tensor:
#      x y z
#    x 1.549770 0.000000 0.000000 
#    y 0.000000 1.541000 0.000000 
#    z 0.000000 0.000000 1.552460 
# 
# From -- ./inp_files/11004.got.cif
#   From: 2010.05.17/outbox.cif.g08.bks.cpg/sg47_6_cif.got.tgz:11004.got - 2010.06.03 20:15:42.
