data_PCOD9388387
_publ_section_title
;
Structure prediction by ZEFSAII (Michael W. Deem and Ramdas Pophale) SiO2 
 PCOD9388387
Probable space group: P M M M
;
_chemical_formula_sum "Si O2"
_cell_formula_units_Z 52
_cell_length_a 30.540787
_cell_length_b 14.534275
_cell_length_c 7.887827
_cell_angle_alpha 90.000000
_cell_angle_beta 90.000000
_cell_angle_gamma 90.000000
_cell_volume 3501.313305
_symmetry_space_group_name_H-M "P M M M"
_symmetry_group_IT_number 47
_symmetry_cell_setting 'orthorhombic'
loop_
_space_group_symop_operation_xyz
x,y,z
-x,-y,z
x,-y,-z
-x,y,-z
-x,-y,-z
x,y,-z
-x,y,z
x,-y,z
loop_
_atom_site_type_symbol
_atom_site_label
_atom_site_fract_x
_atom_site_fract_y
_atom_site_fract_z
Si Si1 0.277172 0.110478 0.700649
Si Si2 0.404806 0.396352 0.796262
Si Si3 0.635399 0.214174 0.299584
Si Si4 0.111619 0.112485 0.000000
Si Si5 0.500000 0.612152 0.806506
Si Si6 0.949879 0.888174 0.693077
Si Si7 0.788045 0.111463 0.000000
Si Si8 0.452016 0.106275 0.204068
O O1 0.268736 0.130668 0.500000
O O2 0.321587 0.160583 0.760881
O O3 0.283443 0.000000 0.712262
O O4 0.238473 0.137246 0.829698
O O5 0.395275 0.500000 0.735970
O O6 0.369505 0.319230 0.758045
O O7 0.452881 0.365482 0.728327
O O8 0.409755 0.400987 0.000000
O O9 0.638500 0.213473 0.500000
O O10 0.590493 0.162958 0.252569
O O11 0.084699 0.142052 0.833574
O O12 0.161833 0.143770 0.000000
O O13 0.111894 0.000000 0.000000
O O14 0.500000 0.500000 0.816367
O O15 0.500000 0.649532 0.000000
O O16 0.939841 0.859486 0.500000
O O17 0.000000 0.861014 0.733937
O O18 0.949489 0.000000 0.693974
O O19 0.789406 0.000000 0.000000
O O20 0.500000 0.141089 0.262559
O O21 0.447721 0.000000 0.261041
O O22 0.453250 0.105732 0.000000
#
# Coordination Sequence:
#
# PCOD9388387 Si02
#       8
#     8   8   8   4   4   8   4   8
#     4   9  19  34  47  62  83 105 136 174 212 259
#     4   9  18  32  49  67  84 105 132 157 183 225
#     4  11  22  32  46  66  86 108 129 155 201 250
#     4   9  15  22  33  52  72  94 131 171 210 255
#     4   7  12  26  45  61  78  99 122 147 173 208
#     4   8  13  20  30  46  71 103 134 165 204 248
#     4   9  18  29  44  61  76 103 135 172 225 261
#     4   9  19  34  49  65  83 104 132 162 190 229
#
# _framework density 14.851571
#
# number of rings (size 3 to 8) (size 9 to 14) (size 15 to 20)
#    0.000    3.000    0.000    3.000    3.231    3.077 
#    0.000    3.846    0.000    1.385    0.000    0.000 
#    0.000    0.000    0.000    0.000    0.000    0.000 
#
# Total GULP energy -289566.591956 kJ/mol
# GULP energy per Si atom -5568.588307 kJ/mol
# Density = 1.481777 g / cm^3
# Si number density = 14.851571 Si / 1000 Ang^3
#
#
#
# Elastic Constant Matrix: (Units=GPa)
#
#
# Indices 1 2 3 4 5 6 
#
# 1 128.5402 36.4302 61.9013 0.0000 0.0000 0.0000
# 2 36.4302 35.6591 19.7934 0.0000 0.0000 0.0000
# 3 61.9013 19.7934 59.7449 0.0000 0.0000 0.0000
# 4 0.0000 0.0000 0.0000 23.0603 0.0000 0.0000
# 5 0.0000 0.0000 0.0000 0.0000 25.7652 0.0000
# 6 0.0000 0.0000 0.0000 0.0000 0.0000 4.3909
#
#
#
# Elastic Compliance Matrix: (Units=1/GPa)
#
#
# Indices 1 2 3 4 5 6 
#
# 1 0.017956 -0.009824 -0.015349 0.000000 0.000000 0.000000
# 2 -0.009824 0.039737 -0.002986 0.000000 0.000000 0.000000
# 3 -0.015349 -0.002986 0.033630 0.000000 0.000000 0.000000
# 4 0.000000 0.000000 0.000000 0.043365 0.000000 0.000000
# 5 0.000000 0.000000 0.000000 0.000000 0.038812 0.000000
# 6 0.000000 0.000000 0.000000 0.000000 0.000000 0.227744
#
#
# Mechanical properties :
#
#
# Convention : Reuss Voigt Hill
#
# Bulk Modulus (GPa) = 28.56773 51.13266 39.85020
# Shear Modulus (GPa) = 10.65573 17.69790 14.17682
#
# Velocity S-wave (km/s) = 2.68149 3.45578 3.09296
# Velocity P-wave (km/s) = 5.37256 7.10120 6.29649
#
# Compressibility (1/GPa) = 0.03500453
#
# Stress axis : x y z
#
# Youngs Moduli (GPa) = 55.69299 25.16516 29.73522
#
# Poissons Ratio (x) = 0.24722 0.45640
# Poissons Ratio (y) = 0.54713 0.08880
# Poissons Ratio (z) = 0.85483 0.07515
#
# Static dielectric constant tensor:
#      x y z
#    x 1.507540 0.000000 0.000000 
#    y 0.000000 1.501480 0.000000 
#    z 0.000000 0.000000 1.533060 
# 
# From -- ./inp_files/12592.got.cif
#   From: 2010.05.17/outbox.cif.g08.bks.cpg/sg47_7_cif.got.tgz:12592.got - 2010.06.03 20:15:42.
