data_PCOD9388819
_publ_section_title
;
Structure prediction by ZEFSAII (Michael W. Deem and Ramdas Pophale) SiO2 
 PCOD9388819
Probable space group: P M M M
;
_chemical_formula_sum "Si O2"
_cell_formula_units_Z 56
_cell_length_a 7.363859
_cell_length_b 30.549942
_cell_length_c 14.366488
_cell_angle_alpha 90.000000
_cell_angle_beta 90.000000
_cell_angle_gamma 90.000000
_cell_volume 3231.963658
_symmetry_space_group_name_H-M "P M M M"
_symmetry_group_IT_number 47
_symmetry_cell_setting 'orthorhombic'
loop_
_space_group_symop_operation_xyz
x,y,z
-x,-y,z
x,-y,-z
-x,y,-z
-x,-y,-z
x,y,-z
-x,y,z
x,-y,z
loop_
_atom_site_type_symbol
_atom_site_label
_atom_site_fract_x
_atom_site_fract_y
_atom_site_fract_z
Si Si1 0.782617 0.548844 0.394747
Si Si2 0.720836 0.770104 0.210909
Si Si3 0.284833 0.363462 0.712654
Si Si4 0.721672 0.722087 0.394991
Si Si5 0.278603 0.682125 0.104660
Si Si6 0.721831 0.857129 0.108646
Si Si7 0.281107 0.047072 0.888945
O O1 0.716735 0.558656 0.500000
O O2 0.717790 0.500000 0.368679
O O3 0.742551 0.588129 0.325321
O O4 0.000000 0.546610 0.399658
O O5 0.500000 0.770920 0.211281
O O6 0.777356 0.756311 0.314937
O O7 0.772655 0.730156 0.142781
O O8 0.782454 0.816406 0.170686
O O9 0.500000 0.356646 0.716858
O O10 0.218662 0.325916 0.641441
O O11 0.217278 0.351970 0.816074
O O12 0.782717 0.730557 0.500000
O O13 0.500000 0.722303 0.396559
O O14 0.500000 0.681334 0.101947
O O15 0.215109 0.674265 0.000000
O O16 0.500000 0.857232 0.108993
O O17 0.781837 0.905189 0.143722
O O18 0.774351 0.851614 0.000000
O O19 0.500000 0.046731 0.878366
O O20 0.214317 0.000000 0.851945
O O21 0.245535 0.047148 0.000000
#
# Coordination Sequence:
#
# PCOD9388819 Si02
#       7
#     8   8   8   8   8   8   8
#     4   9  18  31  44  58  77  98 116 138 173 210
#     4   8  12  16  23  37  56  78 101 122 152 197
#     4   9  16  25  40  60  76  93 118 143 167 200
#     4   8  13  20  29  43  64  84 100 124 157 190
#     4   8  13  21  33  50  72  93 111 135 167 200
#     4   8  11  13  18  28  43  64  89 117 149 189
#     4   7   9  12  16  22  34  54  81 114 152 189
#
# _framework density 17.326927000000001
#
# number of rings (size 3 to 8) (size 9 to 14) (size 15 to 20)
#    0.000    3.857    0.000    4.286    0.000    2.857 
#    0.000    0.714    0.000    0.857    0.000    3.000 
#    0.000    0.571    0.000    8.000    0.000    0.286 
#
# Total GULP energy -311750.356409 kJ/mol
# GULP energy per Si atom -5566.970650 kJ/mol
# Density = 1.728749 g / cm^3
# Si number density = 17.326927 Si / 1000 Ang^3
#
#
#
# Elastic Constant Matrix: (Units=GPa)
#
#
# Indices 1 2 3 4 5 6 
#
# 1 58.5887 1.4080 5.4709 0.0000 0.0000 0.0000
# 2 1.4080 179.7636 98.1754 0.0000 0.0000 0.0000
# 3 5.4709 98.1754 136.2668 0.0000 0.0000 0.0000
# 4 0.0000 0.0000 0.0000 23.2249 0.0000 0.0000
# 5 0.0000 0.0000 0.0000 0.0000 -5.5029 0.0000
# 6 0.0000 0.0000 0.0000 0.0000 0.0000 45.3653
#
#
#
# Elastic Compliance Matrix: (Units=1/GPa)
#
#
# Indices 1 2 3 4 5 6 
#
# 1 0.017150 0.000399 -0.000976 0.000000 0.000000 0.000000
# 2 0.000399 0.009181 -0.006631 0.000000 0.000000 0.000000
# 3 -0.000976 -0.006631 0.012155 0.000000 0.000000 0.000000
# 4 0.000000 0.000000 0.000000 0.043057 0.000000 0.000000
# 5 0.000000 0.000000 0.000000 0.000000 -0.181724 0.000000
# 6 0.000000 0.000000 0.000000 0.000000 0.000000 0.022043
#
#
# Mechanical properties :
#
#
# Convention : Reuss Voigt Hill
#
# Bulk Modulus (GPa) = 41.54543 64.96973 53.25758
# Shear Modulus (GPa) = -89.76770 30.58846 -29.58962
#
# Velocity S-wave (km/s) = -7.20560 4.20619 -4.13695
# Velocity P-wave (km/s) = 6.72296 7.82095 2.82569
#
# Compressibility (1/GPa) = 0.02407004
#
# Stress axis : x y z
#
# Youngs Moduli (GPa) = 58.31019 108.92176 82.27225
#
# Poissons Ratio (x) = -0.04341 0.08027
# Poissons Ratio (y) = -0.02324 0.54551
# Poissons Ratio (z) = 0.05689 0.72221
#
# Static dielectric constant tensor:
#      x y z
#    x 1.692280 0.000000 0.000000 
#    y 0.000000 1.613520 0.000000 
#    z 0.000000 0.000000 1.570370 
# 
# From -- ./inp_files/22104.got.cif
#   From: 2010.05.17/outbox.cif.g08.bks.cpg/sg47_12_cif.got.tgz:22104.got - 2010.06.03 20:15:42.
