data_PCOD9388586
_publ_section_title
;
Structure prediction by ZEFSAII (Michael W. Deem and Ramdas Pophale) SiO2 
 PCOD9388586
Probable space group: P M M M
;
_chemical_formula_sum "Si O2"
_cell_formula_units_Z 52
_cell_length_a 17.360973
_cell_length_b 9.664089
_cell_length_c 17.984227
_cell_angle_alpha 90.000000
_cell_angle_beta 90.000000
_cell_angle_gamma 90.000000
_cell_volume 3017.357425
_symmetry_space_group_name_H-M "P M M M"
_symmetry_group_IT_number 47
_symmetry_cell_setting 'orthorhombic'
loop_
_space_group_symop_operation_xyz
x,y,z
-x,-y,z
x,-y,-z
-x,y,-z
-x,-y,-z
x,y,-z
-x,y,z
x,-y,z
loop_
_atom_site_type_symbol
_atom_site_label
_atom_site_fract_x
_atom_site_fract_y
_atom_site_fract_z
Si Si1 0.592753 0.165441 0.500000
Si Si2 0.863252 0.332238 0.803414
Si Si3 0.000000 0.669066 0.913013
Si Si4 0.685821 0.666444 0.199782
Si Si5 0.407867 0.157719 0.086142
Si Si6 0.091046 0.153457 0.500000
Si Si7 0.669969 0.661004 0.368001
Si Si8 0.856257 0.340182 0.365463
O O1 0.500000 0.184822 0.500000
O O2 0.630527 0.240375 0.571800
O O3 0.607942 0.000000 0.500000
O O4 0.862991 0.500000 0.805960
O O5 0.774507 0.287743 0.813180
O O6 0.882478 0.298093 0.717576
O O7 0.924687 0.286329 0.865323
O O8 0.000000 0.500000 0.913471
O O9 0.000000 0.712227 0.000000
O O10 0.685435 0.500000 0.196138
O O11 0.633109 0.734338 0.138460
O O12 0.655596 0.702579 0.282363
O O13 0.500000 0.168929 0.091775
O O14 0.386657 0.000000 0.106493
O O15 0.387084 0.179327 0.000000
O O16 0.113737 0.239002 0.572328
O O17 0.000000 0.141041 0.500000
O O18 0.126452 0.000000 0.500000
O O19 0.646307 0.500000 0.379916
O O20 0.763196 0.662755 0.371536
O O21 0.880170 0.500000 0.377888
#
# Coordination Sequence:
#
# PCOD9388586 Si02
#       8
#     4   8   4   8   8   4   8   8
#     4  11  24  37  50  74 104 135 176 217 250 302
#     4   8  16  30  48  74 105 134 167 209 254 300
#     4   9  16  26  44  73 107 138 166 201 251 303
#     4   9  18  33  53  79 106 131 168 216 261 308
#     4   9  19  35  52  72 102 138 172 208 253 305
#     4  11  24  35  44  70 108 133 160 205 254 298
#     4   9  19  36  55  75 101 131 166 212 263 308
#     4   9  18  34  55  75  96 129 173 211 244 297
#
# _framework density 17.233623999999999
#
# number of rings (size 3 to 8) (size 9 to 14) (size 15 to 20)
#    0.000    2.846    0.000    3.231    1.077    6.154 
#    0.000    7.692    0.000    0.000    0.000    0.000 
#    0.000    2.462    0.000    0.000    0.000    0.000 
#
# Total GULP energy -289731.251954 kJ/mol
# GULP energy per Si atom -5571.754845 kJ/mol
# Density = 1.719440 g / cm^3
# Si number density = 17.233624 Si / 1000 Ang^3
#
#
#
# Elastic Constant Matrix: (Units=GPa)
#
#
# Indices 1 2 3 4 5 6 
#
# 1 41.8506 29.1236 60.3597 0.0000 0.0000 0.0000
# 2 29.1236 50.6014 59.2716 0.0000 0.0000 0.0000
# 3 60.3597 59.2716 131.9476 0.0000 0.0000 0.0000
# 4 0.0000 0.0000 0.0000 5.2399 0.0000 0.0000
# 5 0.0000 0.0000 0.0000 0.0000 36.2706 0.0000
# 6 0.0000 0.0000 0.0000 0.0000 0.0000 -120.9193
#
#
#
# Elastic Compliance Matrix: (Units=1/GPa)
#
#
# Indices 1 2 3 4 5 6 
#
# 1 0.071071 -0.005957 -0.029836 0.000000 0.000000 0.000000
# 2 -0.005957 0.042207 -0.016235 0.000000 0.000000 0.000000
# 3 -0.029836 -0.016235 0.028520 0.000000 0.000000 0.000000
# 4 0.000000 0.000000 0.000000 0.190845 0.000000 0.000000
# 5 0.000000 0.000000 0.000000 0.000000 0.027571 0.000000
# 6 0.000000 0.000000 0.000000 0.000000 0.000000 -0.008270
#
#
# Mechanical properties :
#
#
# Convention : Reuss Voigt Hill
#
# Bulk Modulus (GPa) = 26.49481 57.98994 42.24237
# Shear Modulus (GPa) = 10.67057 -10.83879 -0.08411
#
# Velocity S-wave (km/s) = 2.49101 -2.51057 -0.22116
# Velocity P-wave (km/s) = 4.86629 5.03174 4.94971
#
# Compressibility (1/GPa) = 0.03774325
#
# Stress axis : x y z
#
# Youngs Moduli (GPa) = 14.07047 23.69267 35.06344
#
# Poissons Ratio (x) = 0.14114 1.04614
# Poissons Ratio (y) = 0.08382 0.56924
# Poissons Ratio (z) = 0.41980 0.38464
#
# Static dielectric constant tensor:
#      x y z
#    x 1.589130 0.000000 0.000000 
#    y 0.000000 1.571170 0.000000 
#    z 0.000000 0.000000 1.576270 
# 
# From -- ./inp_files/28554.got.cif
#   From: 2010.05.17/outbox.cif.g08.bks.cpg/sg47_15_cif.got.tgz:28554.got - 2010.06.03 20:15:42.
