data_PCOD9388008
_publ_section_title
;
Structure prediction by ZEFSAII (Michael W. Deem and Ramdas Pophale) SiO2 
 PCOD9388008
Probable space group: P M M M
;
_chemical_formula_sum "Si O2"
_cell_formula_units_Z 48
_cell_length_a 20.321853
_cell_length_b 15.186483
_cell_length_c 7.826279
_cell_angle_alpha 90.000000
_cell_angle_beta 90.000000
_cell_angle_gamma 90.000000
_cell_volume 2415.326465
_symmetry_space_group_name_H-M "P M M M"
_symmetry_group_IT_number 47
_symmetry_cell_setting 'orthorhombic'
loop_
_space_group_symop_operation_xyz
x,y,z
-x,-y,z
x,-y,-z
-x,y,-z
-x,-y,-z
x,y,-z
-x,y,z
x,-y,z
loop_
_atom_site_type_symbol
_atom_site_label
_atom_site_fract_x
_atom_site_fract_y
_atom_site_fract_z
Si Si1 0.846042 0.600840 0.297858
Si Si2 0.926550 0.770031 0.797491
Si Si3 0.571047 0.145385 0.500000
Si Si4 0.191198 0.893482 0.801036
Si Si5 0.699424 0.600197 0.794200
Si Si6 0.281103 0.100424 0.500000
Si Si7 0.426997 0.713285 0.798555
O O1 0.855936 0.596909 0.500000
O O2 0.852540 0.500000 0.229735
O O3 0.896001 0.673116 0.227754
O O4 0.771109 0.631813 0.264119
O O5 0.874099 0.842987 0.737902
O O6 0.000000 0.776551 0.723662
O O7 0.931465 0.784902 0.000000
O O8 0.500000 0.098873 0.500000
O O9 0.640822 0.099031 0.500000
O O10 0.572147 0.205256 0.670124
O O11 0.249631 0.863234 0.674480
O O12 0.182939 0.000000 0.798373
O O13 0.204414 0.869616 0.000000
O O14 0.693139 0.500000 0.731313
O O15 0.635030 0.654435 0.745284
O O16 0.700667 0.599094 0.000000
O O17 0.258105 0.000000 0.500000
O O18 0.500000 0.670328 0.782976
O O19 0.419473 0.736653 0.000000
#
# Coordination Sequence:
#
# PCOD9388008 Si02
#       7
#     8   8   4   8   8   4   8
#     4  10  22  37  53  77 111 148 188 238 287 332
#     4  10  22  38  58  84 110 146 191 230 282 345
#     4  10  22  37  55  81 113 148 184 227 277 326
#     4   9  20  39  61  89 122 150 184 233 286 344
#     4   9  18  32  51  74 100 137 183 228 276 328
#     4  10  22  39  61  87 113 147 189 228 276 333
#     4   9  19  34  51  76 109 143 181 225 276 333
#
# _framework density 19.873089
#
# number of rings (size 3 to 8) (size 9 to 14) (size 15 to 20)
#    0.000    2.500    0.000    0.500    4.667    3.167 
#    0.000    5.000    0.000    3.000    0.000    4.667 
#    0.000    0.000    0.000    0.000    0.000    0.000 
#
# Total GULP energy -267504.894927 kJ/mol
# GULP energy per Si atom -5573.018644 kJ/mol
# Density = 1.982786 g / cm^3
# Si number density = 19.873089 Si / 1000 Ang^3
#
#
#
# Elastic Constant Matrix: (Units=GPa)
#
#
# Indices 1 2 3 4 5 6 
#
# 1 141.5880 30.6326 40.9294 0.0000 0.0000 0.0000
# 2 30.6326 39.1069 16.7595 0.0000 0.0000 0.0000
# 3 40.9294 16.7595 54.0044 0.0000 0.0000 0.0000
# 4 0.0000 0.0000 0.0000 7.8765 0.0000 0.0000
# 5 0.0000 0.0000 0.0000 0.0000 9.1487 0.0000
# 6 0.0000 0.0000 0.0000 0.0000 0.0000 200.6728
#
#
#
# Elastic Compliance Matrix: (Units=1/GPa)
#
#
# Indices 1 2 3 4 5 6 
#
# 1 0.009893 -0.005232 -0.005874 0.000000 0.000000 0.000000
# 2 -0.005232 0.032260 -0.006046 0.000000 0.000000 0.000000
# 3 -0.005874 -0.006046 0.024845 0.000000 0.000000 0.000000
# 4 0.000000 0.000000 0.000000 0.126959 0.000000 0.000000
# 5 0.000000 0.000000 0.000000 0.000000 0.109305 0.000000
# 6 0.000000 0.000000 0.000000 0.000000 0.000000 0.004983
#
#
# Mechanical properties :
#
#
# Convention : Reuss Voigt Hill
#
# Bulk Modulus (GPa) = 30.58674 45.70471 38.14573
# Shear Modulus (GPa) = 14.14637 53.29813 33.72225
#
# Velocity S-wave (km/s) = 2.67092 5.18435 4.12379
# Velocity P-wave (km/s) = 4.99361 7.67365 6.47383
#
# Compressibility (1/GPa) = 0.03269390
#
# Stress axis : x y z
#
# Youngs Moduli (GPa) = 101.08547 30.99804 40.24910
#
# Poissons Ratio (x) = 0.16217 0.23642
# Poissons Ratio (y) = 0.52884 0.24336
# Poissons Ratio (z) = 0.59377 0.18743
#
# Static dielectric constant tensor:
#      x y z
#    x 1.716820 0.000000 0.000000 
#    y 0.000000 1.705090 0.000000 
#    z 0.000000 0.000000 1.714070 
# 
# From -- ./inp_files/9166.got.cif
#   From: 2010.05.17/outbox.cif.g08.bks.cpg/sg47_5_cif.got.tgz:9166.got - 2010.06.03 20:15:42.
