data_PCOD9388285
_publ_section_title
;
Structure prediction by ZEFSAII (Michael W. Deem and Ramdas Pophale) SiO2 
 PCOD9388285
Probable space group: P M M M
;
_chemical_formula_sum "Si O2"
_cell_formula_units_Z 52
_cell_length_a 30.604968
_cell_length_b 9.408070
_cell_length_c 12.740455
_cell_angle_alpha 90.000000
_cell_angle_beta 90.000000
_cell_angle_gamma 90.000000
_cell_volume 3668.406109
_symmetry_space_group_name_H-M "P M M M"
_symmetry_group_IT_number 47
_symmetry_cell_setting 'orthorhombic'
loop_
_space_group_symop_operation_xyz
x,y,z
-x,-y,z
x,-y,-z
-x,y,-z
-x,-y,-z
x,y,-z
-x,y,z
x,-y,z
loop_
_atom_site_type_symbol
_atom_site_label
_atom_site_fract_x
_atom_site_fract_y
_atom_site_fract_z
Si Si1 0.551891 0.665815 0.876175
Si Si2 0.133847 0.163645 0.628078
Si Si3 0.694661 0.166756 0.374957
Si Si4 0.402913 0.830293 0.306123
Si Si5 0.951151 0.665224 0.627577
Si Si6 0.780419 0.336450 0.627865
Si Si7 0.552463 0.668305 0.500000
O O1 0.500000 0.686302 0.857907
O O2 0.561588 0.500000 0.851433
O O3 0.578872 0.769925 0.802644
O O4 0.559898 0.687355 0.000000
O O5 0.133658 0.165674 0.500000
O O6 0.089079 0.238786 0.663199
O O7 0.176685 0.250298 0.661696
O O8 0.135980 0.000000 0.660683
O O9 0.687757 0.190174 0.500000
O O10 0.648833 0.196368 0.319107
O O11 0.735474 0.261015 0.339683
O O12 0.705473 0.000000 0.361927
O O13 0.427716 0.746281 0.398546
O O14 0.409912 0.000000 0.316675
O O15 0.951069 0.669304 0.500000
O O16 0.944639 0.500000 0.656659
O O17 0.000000 0.709808 0.661115
O O18 0.780518 0.334232 0.500000
O O19 0.782363 0.500000 0.660989
O O20 0.563333 0.500000 0.500000
O O21 0.500000 0.680823 0.500000
#
# Coordination Sequence:
#
# PCOD9388285 Si02
#       7
#     8   8   8   8   8   8   4
#     4   9  19  36  54  70  90 116 144 173 206 245
#     4   9  15  21  29  41  57  79 106 139 182 228
#     4   9  17  30  42  55  80 107 128 155 197 242
#     4  11  21  33  49  70  92 114 140 174 212 248
#     4   8  13  20  28  37  51  72  99 136 181 225
#     4   9  16  24  35  50  65  86 119 153 183 223
#     4  11  23  35  47  65  91 121 147 169 200 247
#
# _framework density 14.175094
#
# number of rings (size 3 to 8) (size 9 to 14) (size 15 to 20)
#    0.000    2.692    0.769    3.000    0.000    8.308 
#    0.000    2.308    0.000    0.000    0.000    0.000 
#    0.000    0.000    0.000    0.000    0.000    0.000 
#
# Total GULP energy -289688.293954 kJ/mol
# GULP energy per Si atom -5570.928730 kJ/mol
# Density = 1.414283 g / cm^3
# Si number density = 14.175094 Si / 1000 Ang^3
#
#
#
# Elastic Constant Matrix: (Units=GPa)
#
#
# Indices 1 2 3 4 5 6 
#
# 1 128.7073 97.8625 31.3349 0.0000 0.0000 0.0000
# 2 97.8625 116.9173 30.8206 0.0000 0.0000 0.0000
# 3 31.3349 30.8206 23.0962 0.0000 0.0000 0.0000
# 4 0.0000 0.0000 0.0000 14.5918 0.0000 0.0000
# 5 0.0000 0.0000 0.0000 0.0000 -11.3949 0.0000
# 6 0.0000 0.0000 0.0000 0.0000 0.0000 30.6057
#
#
#
# Elastic Compliance Matrix: (Units=1/GPa)
#
#
# Indices 1 2 3 4 5 6 
#
# 1 0.022348 -0.016527 -0.008266 0.000000 0.000000 0.000000
# 2 -0.016527 0.025417 -0.011495 0.000000 0.000000 0.000000
# 3 -0.008266 -0.011495 0.069850 0.000000 0.000000 0.000000
# 4 0.000000 0.000000 0.000000 0.068532 0.000000 0.000000
# 5 0.000000 0.000000 0.000000 0.000000 -0.087759 0.000000
# 6 0.000000 0.000000 0.000000 0.000000 0.000000 0.032674
#
#
# Mechanical properties :
#
#
# Convention : Reuss Voigt Hill
#
# Bulk Modulus (GPa) = 22.20230 65.41740 43.80985
# Shear Modulus (GPa) = 22.86757 14.00739 18.43748
#
# Velocity S-wave (km/s) = 4.02085 3.14693 3.61043
# Velocity P-wave (km/s) = 6.10354 7.71064 6.95367
#
# Compressibility (1/GPa) = 0.04504038
#
# Stress axis : x y z
#
# Youngs Moduli (GPa) = 44.74620 39.34418 14.31634
#
# Poissons Ratio (x) = 0.65024 0.11833
# Poissons Ratio (y) = 0.73952 0.16456
# Poissons Ratio (z) = 0.36986 0.45225
#
# Static dielectric constant tensor:
#      x y z
#    x 1.470560 0.000000 0.000000 
#    y 0.000000 1.474700 0.000000 
#    z 0.000000 0.000000 1.433150 
# 
# From -- ./inp_files/15443.got.cif
#   From: 2010.05.17/outbox.cif.g08.bks.cpg/sg47_8_cif.got.tgz:15443.got - 2010.06.03 20:15:42.
