data_PCOD9388820
_publ_section_title
;
Structure prediction by ZEFSAII (Michael W. Deem and Ramdas Pophale) SiO2 
 PCOD9388820
Probable space group: P M M M
;
_chemical_formula_sum "Si O2"
_cell_formula_units_Z 60
_cell_length_a 18.074737
_cell_length_b 7.480536
_cell_length_c 20.857311
_cell_angle_alpha 90.000000
_cell_angle_beta 90.000000
_cell_angle_gamma 90.000000
_cell_volume 2820.090340
_symmetry_space_group_name_H-M "P M M M"
_symmetry_group_IT_number 47
_symmetry_cell_setting 'orthorhombic'
loop_
_space_group_symop_operation_xyz
x,y,z
-x,-y,z
x,-y,-z
-x,y,-z
-x,-y,-z
x,y,-z
-x,y,z
x,-y,z
loop_
_atom_site_type_symbol
_atom_site_label
_atom_site_fract_x
_atom_site_fract_y
_atom_site_fract_z
Si Si1 0.586796 0.781757 0.291481
Si Si2 0.642600 0.218258 0.155709
Si Si3 0.588926 0.214986 0.431009
Si Si4 0.914183 0.785817 0.431158
Si Si5 0.084346 0.710623 0.707070
Si Si6 0.500000 0.781838 0.926229
Si Si7 0.916659 0.790671 0.846189
Si Si8 0.217860 0.780812 0.926825
O O1 0.500000 0.732160 0.284263
O O2 0.631110 0.722703 0.228914
O O3 0.615089 0.720183 0.361379
O O4 0.587840 0.000000 0.292437
O O5 0.572468 0.273106 0.112879
O O6 0.716627 0.276256 0.120219
O O7 0.642696 0.000000 0.156730
O O8 0.617121 0.283380 0.500000
O O9 0.500000 0.244006 0.430495
O O10 0.599695 0.000000 0.431684
O O11 0.882620 0.724269 0.500000
O O12 0.879555 0.742537 0.362272
O O13 0.000000 0.720737 0.429215
O O14 0.916522 0.000000 0.433433
O O15 0.079208 0.500000 0.714319
O O16 0.115995 0.778816 0.773999
O O17 0.000000 0.786763 0.703604
O O18 0.500000 0.000000 0.927203
O O19 0.500000 0.722756 0.000000
O O20 0.859695 0.716955 0.897613
O O21 0.000000 0.713990 0.845985
O O22 0.923714 0.000000 0.860400
O O23 0.217803 0.000000 0.926571
O O24 0.229563 0.725443 0.000000
#
# Coordination Sequence:
#
# PCOD9388820 Si02
#       8
#     8   8   8   8   8   4   8   8
#     4   8  11  15  23  36  56  82 111 139 169 216
#     4   9  14  20  29  44  66  91 118 149 188 238
#     4   7   9  12  18  29  46  69  99 136 172 201
#     4   8  13  21  34  55  86 121 149 171 202 249
#     4   9  16  25  39  60  84 108 137 177 219 256
#     4   9  14  18  26  40  61  91 118 138 173 234
#     4   9  17  29  44  59  76 103 138 175 218 266
#     4   9  17  27  38  53  71  91 123 169 212 254
#
# _framework density 21.275915000000001
#
# number of rings (size 3 to 8) (size 9 to 14) (size 15 to 20)
#    0.000    3.533    0.667    2.400    0.000    3.733 
#    0.000    2.667    0.000    0.400    0.000    2.800 
#    0.000    5.333    0.000    0.867    0.000    3.667 
#
# Total GULP energy -334137.686860 kJ/mol
# GULP energy per Si atom -5568.961448 kJ/mol
# Density = 2.122749 g / cm^3
# Si number density = 21.275915 Si / 1000 Ang^3
#
#
#
# Elastic Constant Matrix: (Units=GPa)
#
#
# Indices 1 2 3 4 5 6 
#
# 1 62.0275 5.2452 71.4517 0.0000 0.0000 0.0000
# 2 5.2452 58.4804 2.4364 0.0000 0.0000 0.0000
# 3 71.4517 2.4364 241.4425 0.0000 0.0000 0.0000
# 4 0.0000 0.0000 0.0000 -90.2928 0.0000 0.0000
# 5 0.0000 0.0000 0.0000 0.0000 17.4611 0.0000
# 6 0.0000 0.0000 0.0000 0.0000 0.0000 -51.7634
#
#
#
# Elastic Compliance Matrix: (Units=1/GPa)
#
#
# Indices 1 2 3 4 5 6 
#
# 1 0.024672 -0.001909 -0.007282 0.000000 0.000000 0.000000
# 2 -0.001909 0.017255 0.000391 0.000000 0.000000 0.000000
# 3 -0.007282 0.000391 0.006293 0.000000 0.000000 0.000000
# 4 0.000000 0.000000 0.000000 -0.011075 0.000000 0.000000
# 5 0.000000 0.000000 0.000000 0.000000 0.057270 0.000000
# 6 0.000000 0.000000 0.000000 0.000000 0.000000 -0.019319
#
#
# Mechanical properties :
#
#
# Convention : Reuss Voigt Hill
#
# Bulk Modulus (GPa) = 32.66023 57.80190 45.23106
# Shear Modulus (GPa) = 48.58955 -6.06453 21.26251
#
# Velocity S-wave (km/s) = 4.78408 -1.69015 3.16471
# Velocity P-wave (km/s) = 6.77500 4.83921 5.88721
#
# Compressibility (1/GPa) = 0.03061828
#
# Stress axis : x y z
#
# Youngs Moduli (GPa) = 40.53215 57.95520 158.91063
#
# Poissons Ratio (x) = 0.11066 1.15719
# Poissons Ratio (y) = 0.07739 -0.06213
# Poissons Ratio (z) = 0.29516 -0.02266
#
# Static dielectric constant tensor:
#      x y z
#    x 1.766820 0.000000 0.000000 
#    y 0.000000 1.778090 0.000000 
#    z 0.000000 0.000000 1.820220 
# 
# From -- ./inp_files/31337.got.cif
#   From: 2010.05.17/outbox.cif.g08.bks.cpg/sg47_16_cif.got.tgz:31337.got - 2010.06.03 20:15:42.
