data_PCOD9388386
_publ_section_title
;
Structure prediction by ZEFSAII (Michael W. Deem and Ramdas Pophale) SiO2 
 PCOD9388386
Probable space group: P M M M
;
_chemical_formula_sum "Si O2"
_cell_formula_units_Z 52
_cell_length_a 7.727935
_cell_length_b 24.782357
_cell_length_c 14.068145
_cell_angle_alpha 90.000000
_cell_angle_beta 90.000000
_cell_angle_gamma 90.000000
_cell_volume 2694.281105
_symmetry_space_group_name_H-M "P M M M"
_symmetry_group_IT_number 47
_symmetry_cell_setting 'orthorhombic'
loop_
_space_group_symop_operation_xyz
x,y,z
-x,-y,z
x,-y,-z
-x,y,-z
-x,-y,-z
x,y,-z
-x,y,z
x,-y,z
loop_
_atom_site_type_symbol
_atom_site_label
_atom_site_fract_x
_atom_site_fract_y
_atom_site_fract_z
Si Si1 0.798167 0.273193 0.604552
Si Si2 0.788775 0.560428 0.110192
Si Si3 0.791994 0.939027 0.208389
Si Si4 0.696625 0.833042 0.700978
Si Si5 0.802739 0.934439 0.000000
Si Si6 0.788931 0.331504 0.207019
Si Si7 0.209407 0.223862 0.894685
O O1 0.720650 0.280809 0.500000
O O2 0.792102 0.210387 0.635481
O O3 0.724528 0.308225 0.692016
O O4 0.000000 0.287976 0.599114
O O5 0.733631 0.500000 0.138321
O O6 0.728603 0.609659 0.175427
O O7 0.000000 0.560839 0.111948
O O8 0.739130 0.569191 0.000000
O O9 0.753106 0.894775 0.287707
O O10 0.000000 0.941091 0.198044
O O11 0.731617 0.000000 0.228786
O O12 0.724226 0.921795 0.103097
O O13 0.500000 0.831335 0.670108
O O14 0.716701 0.809753 0.807696
O O15 0.000000 0.912224 0.000000
O O16 0.813355 0.000000 0.000000
O O17 0.747499 0.286174 0.128236
O O18 0.000000 0.332856 0.211235
O O19 0.000000 0.218581 0.890153
O O20 0.265842 0.207913 0.000000
#
# Coordination Sequence:
#
# PCOD9388386 Si02
#       7
#     8   8   8   8   4   8   8
#     4   9  18  34  54  70  84 110 154 202 243 286
#     4   8  12  17  29  55  93 132 161 185 220 270
#     4   9  17  31  50  69  91 123 162 194 219 259
#     4  11  22  32  45  69  99 123 146 184 238 292
#     4   7  12  24  43  65  85 113 155 191 210 233
#     4   8  13  23  40  62  86 115 156 198 233 270
#     4   9  17  29  45  63  87 124 165 199 228 265
#
# _framework density 19.300139000000001
#
# number of rings (size 3 to 8) (size 9 to 14) (size 15 to 20)
#    0.000    3.154    0.000    4.154    1.077    2.769 
#    0.000    0.000    0.000    2.308    0.000    6.462 
#    0.000    9.846    0.000   39.385    0.000   36.923 
#
# Total GULP energy -289734.625570 kJ/mol
# GULP energy per Si atom -5571.819723 kJ/mol
# Density = 1.925621 g / cm^3
# Si number density = 19.300139 Si / 1000 Ang^3
#
#
#
# Elastic Constant Matrix: (Units=GPa)
#
#
# Indices 1 2 3 4 5 6 
#
# 1 28.0830 -3.2136 -2.5816 0.0000 0.0000 0.0000
# 2 -3.2136 118.4617 29.3646 0.0000 0.0000 0.0000
# 3 -2.5816 29.3646 68.0429 0.0000 0.0000 0.0000
# 4 0.0000 0.0000 0.0000 13.9645 0.0000 0.0000
# 5 0.0000 0.0000 0.0000 0.0000 -10.2163 0.0000
# 6 0.0000 0.0000 0.0000 0.0000 0.0000 1018.2502
#
#
#
# Elastic Compliance Matrix: (Units=1/GPa)
#
#
# Indices 1 2 3 4 5 6 
#
# 1 0.035787 0.000710 0.001051 0.000000 0.000000 0.000000
# 2 0.000710 0.009467 -0.004059 0.000000 0.000000 0.000000
# 3 0.001051 -0.004059 0.016488 0.000000 0.000000 0.000000
# 4 0.000000 0.000000 0.000000 0.071610 0.000000 0.000000
# 5 0.000000 0.000000 0.000000 0.000000 -0.097883 0.000000
# 6 0.000000 0.000000 0.000000 0.000000 0.000000 0.000982
#
#
# Mechanical properties :
#
#
# Convention : Reuss Voigt Hill
#
# Bulk Modulus (GPa) = 17.49863 29.08070 23.28966
# Shear Modulus (GPa) = 83.20295 217.13424 150.16860
#
# Velocity S-wave (km/s) = 6.57295 10.61830 8.83040
# Velocity P-wave (km/s) = 8.16646 12.86201 10.77317
#
# Compressibility (1/GPa) = 0.05714734
#
# Stress axis : x y z
#
# Youngs Moduli (GPa) = 27.94340 105.63165 60.65012
#
# Poissons Ratio (x) = -0.07502 -0.06376
# Poissons Ratio (y) = -0.01985 0.24615
# Poissons Ratio (z) = -0.02938 0.42871
#
# Static dielectric constant tensor:
#      x y z
#    x 1.746260 0.000000 0.000000 
#    y 0.000000 1.700450 0.000000 
#    z 0.000000 0.000000 1.678650 
# 
# From -- ./inp_files/21739.got.cif
#   From: 2010.05.17/outbox.cif.g08.bks.cpg/sg47_11_cif.got.tgz:21739.got - 2010.06.03 20:15:42.
