data_PCOD9388614
_publ_section_title
;
Structure prediction by ZEFSAII (Michael W. Deem and Ramdas Pophale) SiO2 
 PCOD9388614
Probable space group: P M M M
;
_chemical_formula_sum "Si O2"
_cell_formula_units_Z 40
_cell_length_a 28.441687
_cell_length_b 9.787400
_cell_length_c 7.950548
_cell_angle_alpha 90.000000
_cell_angle_beta 90.000000
_cell_angle_gamma 90.000000
_cell_volume 2213.195377
_symmetry_space_group_name_H-M "P M M M"
_symmetry_group_IT_number 47
_symmetry_cell_setting 'orthorhombic'
loop_
_space_group_symop_operation_xyz
x,y,z
-x,-y,z
x,-y,-z
-x,y,-z
-x,-y,-z
x,y,-z
-x,y,z
x,-y,z
loop_
_atom_site_type_symbol
_atom_site_label
_atom_site_fract_x
_atom_site_fract_y
_atom_site_fract_z
Si Si1 0.882367 0.666414 0.187564
Si Si2 0.586352 0.155861 0.702657
Si Si3 0.221382 0.659069 0.296084
Si Si4 0.500000 0.345946 0.199815
Si Si5 0.945851 0.666943 0.500000
Si Si6 0.308149 0.842407 0.705067
O O1 0.882187 0.500000 0.192298
O O2 0.828666 0.707694 0.225450
O O3 0.917387 0.711500 0.334446
O O4 0.896406 0.708580 0.000000
O O5 0.587563 0.150580 0.500000
O O6 0.546020 0.260540 0.750700
O O7 0.638984 0.195712 0.760049
O O8 0.576544 0.000000 0.761331
O O9 0.218448 0.665983 0.500000
O O10 0.227600 0.500000 0.250638
O O11 0.265932 0.746382 0.237823
O O12 0.500000 0.500000 0.271124
O O13 0.500000 0.355915 0.000000
O O14 0.945683 0.500000 0.500000
O O15 0.000000 0.710538 0.500000
O O16 0.308096 0.837252 0.500000
O O17 0.300220 0.000000 0.752875
#
# Coordination Sequence:
#
# PCOD9388614 Si02
#       6
#     8   8   8   4   4   8
#     4   9  16  26  40  60  89 124 161 201 245 292
#     4   9  18  34  55  76  96 122 160 202 244 295
#     4   9  15  25  43  65  91 125 159 189 229 287
#     4  11  24  37  48  68  98 129 162 203 248 294
#     4   9  16  26  40  60  89 125 165 206 245 290
#     4   8  15  28  47  72  98 121 151 195 241 285
#
# _framework density 18.073416000000002
#
# number of rings (size 3 to 8) (size 9 to 14) (size 15 to 20)
#    0.000    3.000    1.000    1.800    0.000    3.600 
#    0.000    5.000    0.000    4.200    0.000    0.000 
#    0.000    1.600    0.000    1.800    0.000    2.000 
#
# Total GULP energy -222923.276559 kJ/mol
# GULP energy per Si atom -5573.081914 kJ/mol
# Density = 1.803228 g / cm^3
# Si number density = 18.073416 Si / 1000 Ang^3
#
#
#
# Elastic Constant Matrix: (Units=GPa)
#
#
# Indices 1 2 3 4 5 6 
#
# 1 189.6187 76.1303 62.2290 0.0000 0.0000 0.0000
# 2 76.1303 52.5720 27.3062 0.0000 0.0000 0.0000
# 3 62.2290 27.3062 66.7492 0.0000 0.0000 0.0000
# 4 0.0000 0.0000 0.0000 2.0143 0.0000 0.0000
# 5 0.0000 0.0000 0.0000 0.0000 -11.8959 0.0000
# 6 0.0000 0.0000 0.0000 0.0000 0.0000 -59.5694
#
#
#
# Elastic Compliance Matrix: (Units=1/GPa)
#
#
# Indices 1 2 3 4 5 6 
#
# 1 0.014371 -0.017590 -0.006202 0.000000 0.000000 0.000000
# 2 -0.017590 0.045683 -0.002290 0.000000 0.000000 0.000000
# 3 -0.006202 -0.002290 0.021700 0.000000 0.000000 0.000000
# 4 0.000000 0.000000 0.000000 0.496460 0.000000 0.000000
# 5 0.000000 0.000000 0.000000 0.000000 -0.084062 0.000000
# 6 0.000000 0.000000 0.000000 0.000000 0.000000 -0.016787
#
#
# Mechanical properties :
#
#
# Convention : Reuss Voigt Hill
#
# Bulk Modulus (GPa) = 33.79396 71.14119 52.46758
# Shear Modulus (GPa) = 9.26968 -4.33857 2.46555
#
# Velocity S-wave (km/s) = 2.26716 -1.55104 1.16925
# Velocity P-wave (km/s) = 5.05887 6.01998 5.56023
#
# Compressibility (1/GPa) = 0.02959109
#
# Stress axis : x y z
#
# Youngs Moduli (GPa) = 69.58242 21.89002 46.08198
#
# Poissons Ratio (x) = 0.38504 0.28582
# Poissons Ratio (y) = 1.22395 0.10551
# Poissons Ratio (z) = 0.43158 0.05012
#
# Static dielectric constant tensor:
#      x y z
#    x 1.611440 0.000000 0.000000 
#    y 0.000000 1.602790 0.000000 
#    z 0.000000 0.000000 1.651110 
# 
# From -- ./inp_files/13050.got.cif
#   From: 2010.05.17/outbox.cif.g08.bks.cpg/sg47_7_cif.got.tgz:13050.got - 2010.06.03 20:15:42.
