data_PCOD9388447
_publ_section_title
;
Structure prediction by ZEFSAII (Michael W. Deem and Ramdas Pophale) SiO2 
 PCOD9388447
Probable space group: P M M M
;
_chemical_formula_sum "Si O2"
_cell_formula_units_Z 33
_cell_length_a 24.710219
_cell_length_b 10.338680
_cell_length_c 7.546939
_cell_angle_alpha 90.000000
_cell_angle_beta 90.000000
_cell_angle_gamma 90.000000
_cell_volume 1928.024408
_symmetry_space_group_name_H-M "P M M M"
_symmetry_group_IT_number 47
_symmetry_cell_setting 'orthorhombic'
loop_
_space_group_symop_operation_xyz
x,y,z
-x,-y,z
x,-y,-z
-x,y,-z
-x,-y,-z
x,y,-z
-x,y,z
x,-y,z
loop_
_atom_site_type_symbol
_atom_site_label
_atom_site_fract_x
_atom_site_fract_y
_atom_site_fract_z
Si Si1 0.000000 0.000000 0.500000
Si Si2 0.356094 0.658184 0.000000
Si Si3 0.094338 0.000000 0.794646
Si Si4 0.560618 0.342746 0.703701
Si Si5 0.062381 0.500000 0.285343
Si Si6 0.853797 0.273974 0.288607
Si Si7 0.232727 0.654507 0.000000
O O1 0.953639 0.000000 0.345241
O O2 0.391227 0.699811 0.830445
O O3 0.354980 0.500000 0.000000
O O4 0.294315 0.703649 0.000000
O O5 0.128005 0.129660 0.757023
O O6 0.077016 0.000000 0.000000
O O7 0.568080 0.303307 0.500000
O O8 0.500000 0.303407 0.762137
O O9 0.560692 0.500000 0.706886
O O10 0.059243 0.500000 0.500000
O O11 0.097768 0.626014 0.236631
O O12 0.000000 0.500000 0.221048
O O13 0.845178 0.288472 0.500000
O O14 0.801342 0.305487 0.172756
O O15 0.234931 0.500000 0.000000
#
# Coordination Sequence:
#
# PCOD9388447 Si02
#       7
#     1   4   4   8   4   8   4
#     4  12  26  44  60  92 120 132 166 230 282 346
#     4   9  17  26  40  63  94 131 177 229 267 307
#     4  12  25  41  65  88 111 139 176 221 278 332
#     4   8  13  22  37  59  89 127 173 221 269 317
#     4   9  20  35  59  81 104 137 173 208 266 330
#     4  11  22  40  60  80 109 144 178 224 276 328
#     4  11  22  36  53  77 106 145 196 230 267 327
#
# _framework density 17.115967000000001
#
# number of rings (size 3 to 8) (size 9 to 14) (size 15 to 20)
#    0.000    2.061    3.636    1.273    1.697    2.424 
#    0.000    3.636    0.000    0.000    0.000    0.000 
#    0.000    0.000    0.000    8.727    0.000   36.848 
#
# Total GULP energy -183715.134368 kJ/mol
# GULP energy per Si atom -5567.125284 kJ/mol
# Density = 1.707701 g / cm^3
# Si number density = 17.115967 Si / 1000 Ang^3
#
#
#
# Elastic Constant Matrix: (Units=GPa)
#
#
# Indices 1 2 3 4 5 6 
#
# 1 193.1552 44.5747 92.0668 0.0000 0.0000 0.0000
# 2 44.5747 75.0520 19.7588 0.0000 0.0000 0.0000
# 3 92.0668 19.7588 137.0851 0.0000 0.0000 0.0000
# 4 0.0000 0.0000 0.0000 -21.4189 0.0000 0.0000
# 5 0.0000 0.0000 0.0000 0.0000 -21.3800 0.0000
# 6 0.0000 0.0000 0.0000 0.0000 0.0000 6.1463
#
#
#
# Elastic Compliance Matrix: (Units=1/GPa)
#
#
# Indices 1 2 3 4 5 6 
#
# 1 0.008493 -0.003682 -0.005173 0.000000 0.000000 0.000000
# 2 -0.003682 0.015446 0.000247 0.000000 0.000000 0.000000
# 3 -0.005173 0.000247 0.010733 0.000000 0.000000 0.000000
# 4 0.000000 0.000000 0.000000 -0.046688 0.000000 0.000000
# 5 0.000000 0.000000 0.000000 0.000000 -0.046773 0.000000
# 6 0.000000 0.000000 0.000000 0.000000 0.000000 0.162699
#
#
# Mechanical properties :
#
#
# Convention : Reuss Voigt Hill
#
# Bulk Modulus (GPa) = 57.28976 79.78808 68.53892
# Shear Modulus (GPa) = 39.38691 9.26228 24.32459
#
# Velocity S-wave (km/s) = 4.80226 2.32878 3.77392
# Velocity P-wave (km/s) = 8.01830 7.34495 7.68900
#
# Compressibility (1/GPa) = 0.01745513
#
# Stress axis : x y z
#
# Youngs Moduli (GPa) = 117.75047 64.74172 93.16756
#
# Poissons Ratio (x) = 0.23838 0.48195
# Poissons Ratio (y) = 0.43356 -0.02297
# Poissons Ratio (z) = 0.60911 -0.01596
#
# Static dielectric constant tensor:
#      x y z
#    x 1.570210 0.000000 0.000000 
#    y 0.000000 1.568350 0.000000 
#    z 0.000000 0.000000 1.598620 
# 
# From -- ./inp_files/10564.got.cif
#   From: 2010.05.17/outbox.cif.g08.bks.cpg/sg47_6_cif.got.tgz:10564.got - 2010.06.03 20:15:42.
