data_PCOD9388458
_publ_section_title
;
Structure prediction by ZEFSAII (Michael W. Deem and Ramdas Pophale) SiO2 
 PCOD9388458
Probable space group: P M M M
;
_chemical_formula_sum "Si O2"
_cell_formula_units_Z 40
_cell_length_a 7.741995
_cell_length_b 14.049732
_cell_length_c 16.665928
_cell_angle_alpha 90.000000
_cell_angle_beta 90.000000
_cell_angle_gamma 90.000000
_cell_volume 1812.802235
_symmetry_space_group_name_H-M "P M M M"
_symmetry_group_IT_number 47
_symmetry_cell_setting 'orthorhombic'
loop_
_space_group_symop_operation_xyz
x,y,z
-x,-y,z
x,-y,-z
-x,y,-z
-x,-y,-z
x,y,-z
-x,y,z
x,-y,z
loop_
_atom_site_type_symbol
_atom_site_label
_atom_site_fract_x
_atom_site_fract_y
_atom_site_fract_z
Si Si1 0.289427 0.387678 0.326302
Si Si2 0.203311 0.394320 0.000000
Si Si3 0.702788 0.292370 0.835544
Si Si4 0.205344 0.115869 0.414359
Si Si5 0.791702 0.891991 0.240482
Si Si6 0.706668 0.615481 0.500000
O O1 0.500000 0.380132 0.328141
O O2 0.250067 0.500000 0.321863
O O3 0.220350 0.339434 0.245475
O O4 0.225369 0.350311 0.413371
O O5 0.245117 0.338780 0.918747
O O6 0.284249 0.500000 0.000000
O O7 0.000000 0.405075 0.000000
O O8 0.500000 0.306792 0.829517
O O9 0.742006 0.181040 0.828023
O O10 0.280023 0.149133 0.500000
O O11 0.276463 0.144796 0.327494
O O12 0.000000 0.135907 0.415554
O O13 0.220041 0.000000 0.413545
O O14 0.000000 0.894492 0.246165
O O15 0.731982 0.000000 0.227834
O O16 0.730201 0.500000 0.500000
O O17 0.500000 0.630885 0.500000
#
# Coordination Sequence:
#
# PCOD9388458 Si02
#       6
#     8   4   8   8   8   4
#     4   8  14  26  46  73 106 144 182 218 264 325
#     4  11  25  45  68  91 114 143 181 228 282 343
#     4  11  22  36  57  87 118 148 184 233 289 346
#     4   7  10  20  42  70  98 136 191 245 284 319
#     4   9  18  34  55  78 110 154 200 244 286 332
#     4   7  10  20  40  66 100 143 184 216 251 313
#
# _framework density 22.065287000000001
#
# number of rings (size 3 to 8) (size 9 to 14) (size 15 to 20)
#    0.000    3.200    0.000    4.500    0.000    2.000 
#    1.800    0.500    0.000    3.000    0.000    2.800 
#    0.000    6.400    0.000    0.000    0.000    0.000 
#
# Total GULP energy -223161.839600 kJ/mol
# GULP energy per Si atom -5579.045990 kJ/mol
# Density = 2.201507 g / cm^3
# Si number density = 22.065287 Si / 1000 Ang^3
#
#
#
# Elastic Constant Matrix: (Units=GPa)
#
#
# Indices 1 2 3 4 5 6 
#
# 1 40.4496 5.1720 20.3166 0.0000 0.0000 0.0000
# 2 5.1720 100.7997 110.3764 0.0000 0.0000 0.0000
# 3 20.3166 110.3764 203.7652 0.0000 0.0000 0.0000
# 4 0.0000 0.0000 0.0000 44.3328 0.0000 0.0000
# 5 0.0000 0.0000 0.0000 0.0000 -8.5809 0.0000
# 6 0.0000 0.0000 0.0000 0.0000 0.0000 12.8887
#
#
#
# Elastic Compliance Matrix: (Units=1/GPa)
#
#
# Indices 1 2 3 4 5 6 
#
# 1 0.026600 0.003783 -0.004702 0.000000 0.000000 0.000000
# 2 0.003783 0.024922 -0.013877 0.000000 0.000000 0.000000
# 3 -0.004702 -0.013877 0.012893 0.000000 0.000000 0.000000
# 4 0.000000 0.000000 0.000000 0.022557 0.000000 0.000000
# 5 0.000000 0.000000 0.000000 0.000000 -0.116538 0.000000
# 6 0.000000 0.000000 0.000000 0.000000 0.000000 0.077587
#
#
# Mechanical properties :
#
#
# Convention : Reuss Voigt Hill
#
# Bulk Modulus (GPa) = 28.71517 68.52716 48.62117
# Shear Modulus (GPa) = 56.04144 23.67143 39.85644
#
# Velocity S-wave (km/s) = 5.04511 3.27890 4.25466
# Velocity P-wave (km/s) = 6.85416 6.74232 6.79847
#
# Compressibility (1/GPa) = 0.03482480
#
# Stress axis : x y z
#
# Youngs Moduli (GPa) = 37.59425 40.12492 77.55883
#
# Poissons Ratio (x) = -0.15181 0.36465
# Poissons Ratio (y) = -0.14224 1.07630
# Poissons Ratio (z) = 0.17675 0.55682
#
# Static dielectric constant tensor:
#      x y z
#    x 1.796920 0.000000 0.000000 
#    y 0.000000 1.878350 0.000000 
#    z 0.000000 0.000000 2.259640 
# 
# From -- ./inp_files/20695.got.cif
#   From: 2010.05.17/outbox.cif.g08.bks.cpg/sg47_11_cif.got.tgz:20695.got - 2010.06.03 20:15:42.
