data_PCOD9388172
_publ_section_title
;
Structure prediction by ZEFSAII (Michael W. Deem and Ramdas Pophale) SiO2 
 PCOD9388172
Probable space group: P M M M
;
_chemical_formula_sum "Si O2"
_cell_formula_units_Z 64
_cell_length_a 14.667057
_cell_length_b 32.197550
_cell_length_c 8.749064
_cell_angle_alpha 90.000000
_cell_angle_beta 90.000000
_cell_angle_gamma 90.000000
_cell_volume 4131.686865
_symmetry_space_group_name_H-M "P M M M"
_symmetry_group_IT_number 47
_symmetry_cell_setting 'orthorhombic'
loop_
_space_group_symop_operation_xyz
x,y,z
-x,-y,z
x,-y,-z
-x,y,-z
-x,-y,-z
x,y,-z
-x,y,z
x,-y,z
loop_
_atom_site_type_symbol
_atom_site_label
_atom_site_fract_x
_atom_site_fract_y
_atom_site_fract_z
Si Si1 0.392988 0.203298 0.816796
Si Si2 0.393645 0.047868 0.816172
Si Si3 0.610429 0.455295 0.318797
Si Si4 0.712446 0.717385 0.316783
Si Si5 0.605948 0.364708 0.686719
Si Si6 0.103634 0.154929 0.183618
Si Si7 0.286835 0.124357 0.681175
Si Si8 0.103403 0.747037 0.816302
O O1 0.500000 0.203194 0.776189
O O2 0.343618 0.243866 0.750650
O O3 0.343850 0.162222 0.754666
O O4 0.384832 0.203706 0.000000
O O5 0.500000 0.055727 0.777773
O O6 0.330213 0.081370 0.736971
O O7 0.372949 0.000000 0.775928
O O8 0.385492 0.051764 0.000000
O O9 0.632119 0.455923 0.500000
O O10 0.500000 0.454696 0.308681
O O11 0.641312 0.500000 0.253595
O O12 0.639461 0.410169 0.258333
O O13 0.708089 0.719421 0.500000
O O14 0.666435 0.674240 0.265545
O O15 0.816312 0.721909 0.262517
O O16 0.606508 0.365945 0.500000
O O17 0.500000 0.358797 0.731864
O O18 0.182979 0.129590 0.263754
O O19 0.115549 0.203942 0.219939
O O20 0.000000 0.143332 0.225729
O O21 0.112174 0.151038 0.000000
O O22 0.291950 0.127741 0.500000
O O23 0.000000 0.735395 0.772413
O O24 0.110816 0.743301 0.000000
#
# Coordination Sequence:
#
# PCOD9388172 Si02
#       8
#     8   8   8   8   8   8   8   8
#     4  11  23  36  48  63  90 130 169 198 221 258
#     4   9  19  37  59  79 100 131 168 199 228 269
#     4   7   9  15  29  48  72 108 152 188 217 258
#     4  11  20  29  44  67  94 122 150 187 236 283
#     4   8  14  23  34  53  86 123 152 182 224 272
#     4   9  18  34  55  74  94 124 160 196 233 276
#     4  12  23  33  51  79 105 127 153 193 242 283
#     4   9  18  33  51  67  86 117 156 195 232 273
#
# _framework density 15.490041
#
# number of rings (size 3 to 8) (size 9 to 14) (size 15 to 20)
#    0.000    2.500    1.250    4.875    0.000    4.000 
#    0.000    1.875    0.000    0.375    0.000    2.625 
#    0.000    2.500    0.000   20.375    0.000   12.750 
#
# Total GULP energy -356738.459892 kJ/mol
# GULP energy per Si atom -5574.038436 kJ/mol
# Density = 1.545479 g / cm^3
# Si number density = 15.490041 Si / 1000 Ang^3
#
#
#
# Elastic Constant Matrix: (Units=GPa)
#
#
# Indices 1 2 3 4 5 6 
#
# 1 112.1588 77.3546 37.9702 0.0000 0.0000 0.0000
# 2 77.3546 123.8299 33.7004 0.0000 0.0000 0.0000
# 3 37.9702 33.7004 27.1058 0.0000 0.0000 0.0000
# 4 0.0000 0.0000 0.0000 -16.4383 0.0000 0.0000
# 5 0.0000 0.0000 0.0000 0.0000 6.3604 0.0000
# 6 0.0000 0.0000 0.0000 0.0000 0.0000 5.9545
#
#
#
# Elastic Compliance Matrix: (Units=1/GPa)
#
#
# Indices 1 2 3 4 5 6 
#
# 1 0.020887 -0.007685 -0.019703 0.000000 0.000000 0.000000
# 2 -0.007685 0.015033 -0.007925 0.000000 0.000000 0.000000
# 3 -0.019703 -0.007925 0.074346 0.000000 0.000000 0.000000
# 4 0.000000 0.000000 0.000000 -0.060834 0.000000 0.000000
# 5 0.000000 0.000000 0.000000 0.000000 0.157223 0.000000
# 6 0.000000 0.000000 0.000000 0.000000 0.000000 0.167941
#
#
# Mechanical properties :
#
#
# Convention : Reuss Voigt Hill
#
# Bulk Modulus (GPa) = 25.22773 62.34944 43.78858
# Shear Modulus (GPa) = 10.90662 6.77994 8.84328
#
# Velocity S-wave (km/s) = 2.65638 2.09439 2.39195
# Velocity P-wave (km/s) = 5.07250 6.79612 5.99656
#
# Compressibility (1/GPa) = 0.03963892
#
# Stress axis : x y z
#
# Youngs Moduli (GPa) = 47.87706 66.51885 13.45056
#
# Poissons Ratio (x) = 0.51122 0.26502
# Poissons Ratio (y) = 0.36795 0.10660
# Poissons Ratio (z) = 0.94334 0.52716
#
# Static dielectric constant tensor:
#      x y z
#    x 1.504390 0.000000 0.000000 
#    y 0.000000 1.525640 0.000000 
#    z 0.000000 0.000000 1.522660 
# 
# From -- ./inp_files/8323.got.cif
#   From: 2010.05.17/outbox.cif.g08.bks.cpg/sg47_5_cif.got.tgz:8323.got - 2010.06.03 20:15:42.
