data_PCOD9388764
_publ_section_title
;
Structure prediction by ZEFSAII (Michael W. Deem and Ramdas Pophale) SiO2 
 PCOD9388764
Probable space group: P M M M
;
_chemical_formula_sum "Si O2"
_cell_formula_units_Z 48
_cell_length_a 19.303355
_cell_length_b 7.321576
_cell_length_c 13.326869
_cell_angle_alpha 90.000000
_cell_angle_beta 90.000000
_cell_angle_gamma 90.000000
_cell_volume 1883.499465
_symmetry_space_group_name_H-M "P M M M"
_symmetry_group_IT_number 47
_symmetry_cell_setting 'orthorhombic'
loop_
_space_group_symop_operation_xyz
x,y,z
-x,-y,z
x,-y,-z
-x,y,-z
-x,-y,-z
x,y,-z
-x,y,z
x,-y,z
loop_
_atom_site_type_symbol
_atom_site_label
_atom_site_fract_x
_atom_site_fract_y
_atom_site_fract_z
Si Si1 0.274113 0.777348 0.390709
Si Si2 0.922947 0.282086 0.172842
Si Si3 0.083150 0.710409 0.606133
Si Si4 0.773783 0.217683 0.173894
Si Si5 0.425388 0.777790 0.324847
Si Si6 0.377079 0.222550 0.892017
O O1 0.250089 0.714844 0.500000
O O2 0.234524 0.716133 0.290060
O O3 0.354524 0.723266 0.378214
O O4 0.271029 0.000000 0.390205
O O5 0.929808 0.500000 0.181491
O O6 0.907845 0.204237 0.284515
O O7 0.847983 0.255886 0.123127
O O8 0.000000 0.218602 0.137583
O O9 0.105839 0.795127 0.500000
O O10 0.107429 0.500000 0.608134
O O11 0.000000 0.702049 0.601074
O O12 0.703479 0.279514 0.119846
O O13 0.768499 0.000000 0.177456
O O14 0.500000 0.717449 0.364160
O O15 0.416590 0.722371 0.208437
O O16 0.425178 0.000000 0.328297
O O17 0.378525 0.000000 0.891252
O O18 0.404208 0.281918 0.000000
#
# Coordination Sequence:
#
# PCOD9388764 Si02
#       6
#     8   8   8   8   8   8
#     4   8  14  24  36  52  80 117 148 172 202 240
#     4   9  17  28  42  60  81 105 133 170 219 263
#     4   7  10  18  32  49  69  93 121 152 187 230
#     4   9  17  28  42  60  81 108 143 175 203 247
#     4   8  13  20  32  55  85 114 145 175 202 241
#     4   8  14  25  40  57  79 108 139 172 211 249
#
# _framework density 25.484477999999999
#
# number of rings (size 3 to 8) (size 9 to 14) (size 15 to 20)
#    0.000    3.833    0.000    3.500    0.000    1.667 
#    0.000    3.333    0.000    1.000    0.000    8.167 
#    0.000   10.667    0.000   12.000    0.000   13.333 
#
# Total GULP energy -267532.734480 kJ/mol
# GULP energy per Si atom -5573.598635 kJ/mol
# Density = 2.542647 g / cm^3
# Si number density = 25.484478 Si / 1000 Ang^3
#
#
#
# Elastic Constant Matrix: (Units=GPa)
#
#
# Indices 1 2 3 4 5 6 
#
# 1 181.5497 -4.4087 2.1064 0.0000 0.0000 0.0000
# 2 -4.4087 102.9243 -0.6034 0.0000 0.0000 0.0000
# 3 2.1064 -0.6034 83.0620 0.0000 0.0000 0.0000
# 4 0.0000 0.0000 0.0000 -5.6829 0.0000 0.0000
# 5 0.0000 0.0000 0.0000 0.0000 -12.4089 0.0000
# 6 0.0000 0.0000 0.0000 0.0000 0.0000 14.5178
#
#
#
# Elastic Compliance Matrix: (Units=1/GPa)
#
#
# Indices 1 2 3 4 5 6 
#
# 1 0.005515 0.000235 -0.000138 0.000000 0.000000 0.000000
# 2 0.000235 0.009726 0.000065 0.000000 0.000000 0.000000
# 3 -0.000138 0.000065 0.012043 0.000000 0.000000 0.000000
# 4 0.000000 0.000000 0.000000 -0.175965 0.000000 0.000000
# 5 0.000000 0.000000 0.000000 0.000000 -0.080587 0.000000
# 6 0.000000 0.000000 0.000000 0.000000 0.000000 0.068881
#
#
# Mechanical properties :
#
#
# Convention : Reuss Voigt Hill
#
# Bulk Modulus (GPa) = 36.22019 40.19162 38.20590
# Shear Modulus (GPa) = -33.00172 23.98129 -4.51021
#
# Velocity S-wave (km/s) = -3.60248 3.07093 -1.33178
# Velocity P-wave (km/s) = 1.74937 5.32723 3.55802
#
# Compressibility (1/GPa) = 0.02760891
#
# Stress axis : x y z
#
# Youngs Moduli (GPa) = 181.30870 102.81356 83.03456
#
# Poissons Ratio (x) = -0.02421 0.01147
# Poissons Ratio (y) = -0.04269 -0.00537
# Poissons Ratio (z) = 0.02505 -0.00665
#
# Static dielectric constant tensor:
#      x y z
#    x 2.010760 0.000000 0.000000 
#    y 0.000000 1.994610 0.000000 
#    z 0.000000 0.000000 2.344110 
# 
# From -- ./inp_files/17697.got.cif
#   From: 2010.05.17/outbox.cif.g08.bks.cpg/sg47_9_cif.got.tgz:17697.got - 2010.06.03 20:15:42.
