data_PCOD9388189
_publ_section_title
;
Structure prediction by ZEFSAII (Michael W. Deem and Ramdas Pophale) SiO2 
 PCOD9388189
Probable space group: P M M M
;
_chemical_formula_sum "Si O2"
_cell_formula_units_Z 52
_cell_length_a 28.232888
_cell_length_b 8.392986
_cell_length_c 12.481181
_cell_angle_alpha 90.000000
_cell_angle_beta 90.000000
_cell_angle_gamma 90.000000
_cell_volume 2957.518605
_symmetry_space_group_name_H-M "P M M M"
_symmetry_group_IT_number 47
_symmetry_cell_setting 'orthorhombic'
loop_
_space_group_symop_operation_xyz
x,y,z
-x,-y,z
x,-y,-z
-x,y,-z
-x,-y,-z
x,y,-z
-x,y,z
x,-y,z
loop_
_atom_site_type_symbol
_atom_site_label
_atom_site_fract_x
_atom_site_fract_y
_atom_site_fract_z
Si Si1 0.218204 0.808397 0.624523
Si Si2 0.444804 0.308912 0.000000
Si Si3 0.500000 0.691645 0.625091
Si Si4 0.948044 0.305828 0.122214
Si Si5 0.675250 0.194348 0.375950
Si Si6 0.945115 0.190815 0.500000
Si Si7 0.880935 0.309445 0.303844
Si Si8 0.412293 0.191439 0.768285
O O1 0.211432 0.763654 0.500000
O O2 0.271316 0.755398 0.654242
O O3 0.173126 0.743642 0.686219
O O4 0.217451 0.000000 0.630513
O O5 0.420747 0.252031 0.110721
O O6 0.444924 0.500000 0.000000
O O7 0.500000 0.254077 0.000000
O O8 0.500000 0.500000 0.626564
O O9 0.500000 0.743630 0.500000
O O10 0.545303 0.752710 0.690813
O O11 0.947540 0.500000 0.121660
O O12 0.905594 0.250666 0.195558
O O13 0.000000 0.257981 0.164453
O O14 0.944031 0.253172 0.000000
O O15 0.665524 0.243640 0.500000
O O16 0.635936 0.246257 0.290799
O O17 0.674851 0.000000 0.377350
O O18 0.914557 0.247526 0.398683
O O19 0.000000 0.248828 0.500000
O O20 0.946360 0.000000 0.500000
O O21 0.882135 0.500000 0.307522
O O22 0.412221 0.000000 0.771949
#
# Coordination Sequence:
#
# PCOD9388189 Si02
#       8
#     8   4   4   8   8   4   8   8
#     4   9  17  32  53  74 103 142 173 201 253 319
#     4  11  23  39  57  77 112 154 184 214 269 336
#     4  11  23  36  51  78 119 155 177 207 270 335
#     4   8  15  29  48  69  94 127 164 203 252 303
#     4   8  16  32  55  82 107 134 171 217 265 308
#     4  11  23  35  47  69 105 145 175 204 257 320
#     4  11  20  30  50  78 104 130 168 216 258 302
#     4  11  21  35  59  85 107 137 187 236 266 304
#
# _framework density 17.582307
#
# number of rings (size 3 to 8) (size 9 to 14) (size 15 to 20)
#    0.000    2.231    1.538    3.923    0.000    2.769 
#    0.000    1.538    1.692    3.692    0.000    5.385 
#    0.000    0.000    0.000    0.000    0.000    0.000 
#
# Total GULP energy -289973.192019 kJ/mol
# GULP energy per Si atom -5576.407539 kJ/mol
# Density = 1.754229 g / cm^3
# Si number density = 17.582307 Si / 1000 Ang^3
#
#
#
# Elastic Constant Matrix: (Units=GPa)
#
#
# Indices 1 2 3 4 5 6 
#
# 1 183.5596 26.2351 100.4620 0.0000 0.0000 0.0000
# 2 26.2351 19.5930 22.3496 0.0000 0.0000 0.0000
# 3 100.4620 22.3496 130.4515 0.0000 0.0000 0.0000
# 4 0.0000 0.0000 0.0000 10.6417 0.0000 0.0000
# 5 0.0000 0.0000 0.0000 0.0000 64.2272 0.0000
# 6 0.0000 0.0000 0.0000 0.0000 0.0000 5.6193
#
#
#
# Elastic Compliance Matrix: (Units=1/GPa)
#
#
# Indices 1 2 3 4 5 6 
#
# 1 0.009898 -0.005666 -0.006652 0.000000 0.000000 0.000000
# 2 -0.005666 0.066679 -0.007060 0.000000 0.000000 0.000000
# 3 -0.006652 -0.007060 0.013998 0.000000 0.000000 0.000000
# 4 0.000000 0.000000 0.000000 0.093970 0.000000 0.000000
# 5 0.000000 0.000000 0.000000 0.000000 0.015570 0.000000
# 6 0.000000 0.000000 0.000000 0.000000 0.000000 0.177958
#
#
# Mechanical properties :
#
#
# Convention : Reuss Voigt Hill
#
# Bulk Modulus (GPa) = 19.29800 70.18859 44.74330
# Shear Modulus (GPa) = 11.51800 28.40147 19.95973
#
# Velocity S-wave (km/s) = 2.56225 4.02349 3.37295
# Velocity P-wave (km/s) = 4.44445 7.84802 6.37748
#
# Compressibility (1/GPa) = 0.05181883
#
# Stress axis : x y z
#
# Youngs Moduli (GPa) = 101.02777 14.99718 71.43813
#
# Poissons Ratio (x) = 0.08497 0.47521
# Poissons Ratio (y) = 0.57241 0.50439
# Poissons Ratio (z) = 0.67204 0.10589
#
# Static dielectric constant tensor:
#      x y z
#    x 1.607250 0.000000 0.000000 
#    y 0.000000 1.612000 0.000000 
#    z 0.000000 0.000000 1.590050 
# 
# From -- ./inp_files/19841.got.cif
#   From: 2010.05.17/outbox.cif.g08.bks.cpg/sg47_10_cif.got.tgz:19841.got - 2010.06.03 20:15:42.
