data_PCOD9388399
_publ_section_title
;
Structure prediction by ZEFSAII (Michael W. Deem and Ramdas Pophale) SiO2 
 PCOD9388399
Probable space group: P M M M
;
_chemical_formula_sum "Si O2"
_cell_formula_units_Z 48
_cell_length_a 9.518155
_cell_length_b 19.500450
_cell_length_c 15.108903
_cell_angle_alpha 90.000000
_cell_angle_beta 90.000000
_cell_angle_gamma 90.000000
_cell_volume 2804.337886
_symmetry_space_group_name_H-M "P M M M"
_symmetry_group_IT_number 47
_symmetry_cell_setting 'orthorhombic'
loop_
_space_group_symop_operation_xyz
x,y,z
-x,-y,z
x,-y,-z
-x,y,-z
-x,-y,-z
x,y,-z
-x,y,z
x,-y,z
loop_
_atom_site_type_symbol
_atom_site_label
_atom_site_fract_x
_atom_site_fract_y
_atom_site_fract_z
Si Si1 0.653156 0.858974 0.639584
Si Si2 0.334872 0.178930 0.161532
Si Si3 0.168959 0.685441 0.220224
Si Si4 0.329484 0.920121 0.000000
Si Si5 0.661059 0.581841 0.895294
Si Si6 0.662127 0.302974 0.398364
Si Si7 0.849928 0.919530 0.500000
O O1 0.500000 0.886528 0.615710
O O2 0.668995 0.859491 0.744521
O O3 0.658776 0.779726 0.609167
O O4 0.769497 0.898152 0.587215
O O5 0.500000 0.199126 0.146437
O O6 0.239346 0.246162 0.176532
O O7 0.290297 0.126305 0.084967
O O8 0.226532 0.623111 0.161207
O O9 0.234199 0.676028 0.319075
O O10 0.000000 0.690290 0.222425
O O11 0.500000 0.923566 0.000000
O O12 0.280398 0.000000 0.000000
O O13 0.500000 0.601357 0.870603
O O14 0.673970 0.500000 0.883381
O O15 0.677352 0.596158 0.000000
O O16 0.699841 0.321464 0.500000
O O17 0.500000 0.325902 0.381887
O O18 0.000000 0.884174 0.500000
O O19 0.862127 0.000000 0.500000
#
# Coordination Sequence:
#
# PCOD9388399 Si02
#       7
#     8   8   8   4   8   8   4
#     4   9  17  32  51  71  94 123 165 215 261 308
#     4   9  19  35  55  78 103 135 177 224 271 318
#     4  11  22  33  51  83 118 147 177 217 267 324
#     4   9  18  34  57  81 100 127 176 233 279 316
#     4   9  19  37  60  83 109 146 189 228 267 312
#     4   9  17  33  56  78 102 133 175 223 265 308
#     4  11  23  33  43  65  97 131 164 203 260 329
#
# _framework density 17.116339
#
# number of rings (size 3 to 8) (size 9 to 14) (size 15 to 20)
#    0.000    2.500    0.833    3.250    1.167    5.000 
#    0.000    2.500    0.000    1.500    0.000    3.500 
#    0.000    0.000    0.000    0.000    0.000    0.000 
#
# Total GULP energy -267402.762395 kJ/mol
# GULP energy per Si atom -5570.890883 kJ/mol
# Density = 1.707738 g / cm^3
# Si number density = 17.116339 Si / 1000 Ang^3
#
#
#
# Elastic Constant Matrix: (Units=GPa)
#
#
# Indices 1 2 3 4 5 6 
#
# 1 126.8899 48.4847 65.4509 0.0000 0.0000 0.0000
# 2 48.4847 45.6718 47.2736 0.0000 0.0000 0.0000
# 3 65.4509 47.2736 114.3267 0.0000 0.0000 0.0000
# 4 0.0000 0.0000 0.0000 20.7066 0.0000 0.0000
# 5 0.0000 0.0000 0.0000 0.0000 3252.4563 0.0000
# 6 0.0000 0.0000 0.0000 0.0000 0.0000 19.7816
#
#
#
# Elastic Compliance Matrix: (Units=1/GPa)
#
#
# Indices 1 2 3 4 5 6 
#
# 1 0.013917 -0.011411 -0.003249 0.000000 0.000000 0.000000
# 2 -0.011411 0.047635 -0.013164 0.000000 0.000000 0.000000
# 3 -0.003249 -0.013164 0.016050 0.000000 0.000000 0.000000
# 4 0.000000 0.000000 0.000000 0.048294 0.000000 0.000000
# 5 0.000000 0.000000 0.000000 0.000000 0.000307 0.000000
# 6 0.000000 0.000000 0.000000 0.000000 0.000000 0.050552
#
#
# Mechanical properties :
#
#
# Convention : Reuss Voigt Hill
#
# Bulk Modulus (GPa) = 45.55008 67.70078 56.62543
# Shear Modulus (GPa) = 20.85750 666.96751 343.91250
#
# Velocity S-wave (km/s) = 3.49459 19.76140 14.19023
# Velocity P-wave (km/s) = 6.55383 23.67115 17.36773
#
# Compressibility (1/GPa) = 0.02195386
#
# Stress axis : x y z
#
# Youngs Moduli (GPa) = 71.85541 20.99279 62.30514
#
# Poissons Ratio (x) = 0.23956 0.20241
# Poissons Ratio (y) = 0.81997 0.82019
# Poissons Ratio (z) = 0.23344 0.27635
#
# Static dielectric constant tensor:
#      x y z
#    x 1.600980 0.000000 0.000000 
#    y 0.000000 1.564680 0.000000 
#    z 0.000000 0.000000 1.581270 
# 
# From -- ./inp_files/21098.got.cif
#   From: 2010.05.17/outbox.cif.g08.bks.cpg/sg47_11_cif.got.tgz:21098.got - 2010.06.03 20:15:42.
