data_PCOD9388753
_publ_section_title
;
Structure prediction by ZEFSAII (Michael W. Deem and Ramdas Pophale) SiO2 
 PCOD9388753
Probable space group: P M M M
;
_chemical_formula_sum "Si O2"
_cell_formula_units_Z 60
_cell_length_a 28.968687
_cell_length_b 13.823426
_cell_length_c 7.370589
_cell_angle_alpha 90.000000
_cell_angle_beta 90.000000
_cell_angle_gamma 90.000000
_cell_volume 2951.526576
_symmetry_space_group_name_H-M "P M M M"
_symmetry_group_IT_number 47
_symmetry_cell_setting 'orthorhombic'
loop_
_space_group_symop_operation_xyz
x,y,z
-x,-y,z
x,-y,-z
-x,y,-z
-x,-y,-z
x,y,-z
-x,y,z
x,-y,z
loop_
_atom_site_type_symbol
_atom_site_label
_atom_site_fract_x
_atom_site_fract_y
_atom_site_fract_z
Si Si1 0.185284 0.104444 0.213802
Si Si2 0.556031 0.500000 0.285760
Si Si3 0.852525 0.305673 0.219755
Si Si4 0.553614 0.712174 0.721627
Si Si5 0.617621 0.110259 0.721590
Si Si6 0.245815 0.393896 0.286244
Si Si7 0.949778 0.612923 0.220608
Si Si8 0.716469 0.809766 0.281134
O O1 0.159888 0.198646 0.287717
O O2 0.239658 0.125190 0.232555
O O3 0.173616 0.000000 0.291557
O O4 0.174837 0.101909 0.000000
O O5 0.500000 0.500000 0.269657
O O6 0.567050 0.500000 0.500000
O O7 0.571188 0.394294 0.216273
O O8 0.808978 0.372792 0.268778
O O9 0.902641 0.338557 0.283829
O O10 0.853298 0.305086 0.000000
O O11 0.554845 0.709894 0.500000
O O12 0.500000 0.721530 0.773754
O O13 0.582521 0.805421 0.779458
O O14 0.616953 0.109383 0.500000
O O15 0.668644 0.143902 0.779402
O O16 0.607532 0.000000 0.779202
O O17 0.256346 0.397035 0.500000
O O18 0.256650 0.500000 0.210176
O O19 0.272261 0.299099 0.213713
O O20 0.947976 0.500000 0.269411
O O21 0.000000 0.651771 0.279308
O O22 0.949409 0.617478 0.000000
O O23 0.714783 0.805240 0.500000
#
# Coordination Sequence:
#
# PCOD9388753 Si02
#       8
#     8   4   8   8   8   8   8   8
#     4   9  17  28  42  60  80 102 132 170 204 232
#     4   7  10  18  30  42  60  88 121 151 179 221
#     4   9  16  26  42  61  79 103 135 166 196 233
#     4   8  13  21  32  47  68  94 123 155 192 231
#     4   9  16  24  34  50  71  96 128 161 191 229
#     4   9  17  28  40  56  81 107 130 161 200 239
#     4   8  13  21  35  57  81 101 125 159 194 229
#     4   9  17  29  42  57  79 107 135 161 196 240
#
# _framework density 20.328464
#
# number of rings (size 3 to 8) (size 9 to 14) (size 15 to 20)
#    0.000    3.400    0.000    2.000    0.000    1.867 
#    1.200    1.333    0.000    0.800    0.000    4.667 
#    0.000    0.533    0.000    9.467    0.000   13.600 
#
# Total GULP energy -334449.938962 kJ/mol
# GULP energy per Si atom -5574.165649 kJ/mol
# Density = 2.028220 g / cm^3
# Si number density = 20.328464 Si / 1000 Ang^3
#
#
#
# Elastic Constant Matrix: (Units=GPa)
#
#
# Indices 1 2 3 4 5 6 
#
# 1 76.8701 59.1062 -8.1037 0.0000 0.0000 0.0000
# 2 59.1062 170.2992 2.4699 0.0000 0.0000 0.0000
# 3 -8.1037 2.4699 72.4989 0.0000 0.0000 0.0000
# 4 0.0000 0.0000 0.0000 -5.1076 0.0000 0.0000
# 5 0.0000 0.0000 0.0000 0.0000 6.4822 0.0000
# 6 0.0000 0.0000 0.0000 0.0000 0.0000 32.5724
#
#
#
# Elastic Compliance Matrix: (Units=1/GPa)
#
#
# Indices 1 2 3 4 5 6 
#
# 1 0.018100 -0.006315 0.002238 0.000000 0.000000 0.000000
# 2 -0.006315 0.008078 -0.000981 0.000000 0.000000 0.000000
# 3 0.002238 -0.000981 0.014077 0.000000 0.000000 0.000000
# 4 0.000000 0.000000 0.000000 -0.195785 0.000000 0.000000
# 5 0.000000 0.000000 0.000000 0.000000 0.154270 0.000000
# 6 0.000000 0.000000 0.000000 0.000000 0.000000 0.030701
#
#
# Mechanical properties :
#
#
# Convention : Reuss Voigt Hill
#
# Bulk Modulus (GPa) = 33.17796 47.40145 40.28971
# Shear Modulus (GPa) = 100.80352 24.53577 62.66965
#
# Velocity S-wave (km/s) = 7.04947 3.47791 5.55837
# Velocity P-wave (km/s) = 9.08936 6.28460 7.81385
#
# Compressibility (1/GPa) = 0.03014049
#
# Stress axis : x y z
#
# Youngs Moduli (GPa) = 55.24784 123.79513 71.03826
#
# Poissons Ratio (x) = 0.78171 -0.15901
# Poissons Ratio (y) = 0.34887 0.06969
# Poissons Ratio (z) = -0.12366 0.12145
#
# Static dielectric constant tensor:
#      x y z
#    x 1.688760 0.000000 0.000000 
#    y 0.000000 1.741030 0.000000 
#    z 0.000000 0.000000 1.838720 
# 
# From -- ./inp_files/20127.got.cif
#   From: 2010.05.17/outbox.cif.g08.bks.cpg/sg47_11_cif.got.tgz:20127.got - 2010.06.03 20:15:42.
