data_PCOD9388809
_publ_section_title
;
Structure prediction by ZEFSAII (Michael W. Deem and Ramdas Pophale) SiO2 
 PCOD9388809
Probable space group: P M M M
;
_chemical_formula_sum "Si O2"
_cell_formula_units_Z 40
_cell_length_a 26.997509
_cell_length_b 7.739596
_cell_length_c 10.058425
_cell_angle_alpha 90.000000
_cell_angle_beta 90.000000
_cell_angle_gamma 90.000000
_cell_volume 2101.706019
_symmetry_space_group_name_H-M "P M M M"
_symmetry_group_IT_number 47
_symmetry_cell_setting 'orthorhombic'
loop_
_space_group_symop_operation_xyz
x,y,z
-x,-y,z
x,-y,-z
-x,y,-z
-x,-y,-z
x,y,-z
-x,y,z
x,-y,z
loop_
_atom_site_type_symbol
_atom_site_label
_atom_site_fract_x
_atom_site_fract_y
_atom_site_fract_z
Si Si1 0.892768 0.292330 0.650894
Si Si2 0.306674 0.211241 0.153071
Si Si3 0.392260 0.206396 0.348029
Si Si4 0.500000 0.294250 0.651897
Si Si5 0.000000 0.699608 0.338028
Si Si6 0.804831 0.207857 0.150625
O O1 0.883545 0.229525 0.500000
O O2 0.897977 0.500000 0.643239
O O3 0.847650 0.255563 0.747811
O O4 0.946567 0.223751 0.699084
O O5 0.348618 0.273445 0.254095
O O6 0.250695 0.266010 0.189097
O O7 0.307402 0.000000 0.155247
O O8 0.316016 0.262202 0.000000
O O9 0.390148 0.275397 0.500000
O O10 0.447214 0.239167 0.290493
O O11 0.386326 0.000000 0.356432
O O12 0.500000 0.500000 0.646651
O O13 0.500000 0.223311 0.500000
O O14 0.000000 0.500000 0.291687
O O15 0.000000 0.697839 0.500000
O O16 0.803054 0.000000 0.145947
O O17 0.814897 0.269684 0.000000
#
# Coordination Sequence:
#
# PCOD9388809 Si02
#       6
#     8   8   8   4   4   8
#     4   9  17  30  49  71  92 117 153 194 232 272
#     4   8  15  29  47  65  87 116 148 181 218 260
#     4   9  16  27  46  69  87 107 143 185 215 247
#     4   9  17  29  44  63  90 120 142 167 214 266
#     4   7  12  26  46  65  88 118 150 187 230 271
#     4   9  18  32  48  67  94 126 155 185 227 277
#
# _framework density 19.032157000000002
#
# number of rings (size 3 to 8) (size 9 to 14) (size 15 to 20)
#    0.000    3.400    0.000    2.700    0.000    2.800 
#    0.000    4.500    0.000   12.000    0.000    0.000 
#    0.000    0.000    0.000    0.000    0.000    0.000 
#
# Total GULP energy -222715.315462 kJ/mol
# GULP energy per Si atom -5567.882887 kJ/mol
# Density = 1.898884 g / cm^3
# Si number density = 19.032157 Si / 1000 Ang^3
#
#
#
# Elastic Constant Matrix: (Units=GPa)
#
#
# Indices 1 2 3 4 5 6 
#
# 1 227.4373 6.4067 113.6953 0.0000 0.0000 0.0000
# 2 6.4067 27.0554 5.2025 0.0000 0.0000 0.0000
# 3 113.6953 5.2025 83.4339 0.0000 0.0000 0.0000
# 4 0.0000 0.0000 0.0000 15.4094 0.0000 0.0000
# 5 0.0000 0.0000 0.0000 0.0000 -111.0077 0.0000
# 6 0.0000 0.0000 0.0000 0.0000 0.0000 24.4107
#
#
#
# Elastic Compliance Matrix: (Units=1/GPa)
#
#
# Indices 1 2 3 4 5 6 
#
# 1 0.013796 0.000352 -0.018821 0.000000 0.000000 0.000000
# 2 0.000352 0.037419 -0.002813 0.000000 0.000000 0.000000
# 3 -0.018821 -0.002813 0.037808 0.000000 0.000000 0.000000
# 4 0.000000 0.000000 0.000000 0.064896 0.000000 0.000000
# 5 0.000000 0.000000 0.000000 0.000000 -0.009008 0.000000
# 6 0.000000 0.000000 0.000000 0.000000 0.000000 0.040966
#
#
# Mechanical properties :
#
#
# Convention : Reuss Voigt Hill
#
# Bulk Modulus (GPa) = 21.52461 65.39284 43.45873
# Shear Modulus (GPa) = 20.49803 -0.06271 10.21766
#
# Velocity S-wave (km/s) = 3.28536 -0.18172 2.31954
# Velocity P-wave (km/s) = 5.07204 5.86427 5.48249
#
# Compressibility (1/GPa) = 0.04645844
#
# Stress axis : x y z
#
# Youngs Moduli (GPa) = 72.48739 26.72458 26.44911
#
# Poissons Ratio (x) = -0.00942 0.49780
# Poissons Ratio (y) = -0.02554 0.07441
# Poissons Ratio (z) = 1.36429 0.07519
#
# Static dielectric constant tensor:
#      x y z
#    x 1.690050 0.000000 0.000000 
#    y 0.000000 1.711690 0.000000 
#    z 0.000000 0.000000 1.645100 
# 
# From -- ./inp_files/1767.got.cif
#   From: 2010.05.17/outbox.cif.g08.bks.cpg/sg47_1_cif.got.tgz:1767.got - 2010.06.03 20:15:42.
