data_PCOD9388648
_publ_section_title
;
Structure prediction by ZEFSAII (Michael W. Deem and Ramdas Pophale) SiO2 
 PCOD9388648
Probable space group: P M M M
;
_chemical_formula_sum "Si O2"
_cell_formula_units_Z 40
_cell_length_a 27.176608
_cell_length_b 7.850558
_cell_length_c 9.446074
_cell_angle_alpha 90.000000
_cell_angle_beta 90.000000
_cell_angle_gamma 90.000000
_cell_volume 2015.334410
_symmetry_space_group_name_H-M "P M M M"
_symmetry_group_IT_number 47
_symmetry_cell_setting 'orthorhombic'
loop_
_space_group_symop_operation_xyz
x,y,z
-x,-y,z
x,-y,-z
-x,y,-z
-x,-y,-z
x,y,-z
-x,y,z
x,-y,z
loop_
_atom_site_type_symbol
_atom_site_label
_atom_site_fract_x
_atom_site_fract_y
_atom_site_fract_z
Si Si1 0.500000 0.708493 0.162401
Si Si2 0.904458 0.202569 0.840407
Si Si3 0.297503 0.302509 0.327569
Si Si4 0.404601 0.291133 0.335828
Si Si5 0.000000 0.297662 0.340260
Si Si6 0.809242 0.705326 0.338229
O O1 0.500000 0.500000 0.165295
O O2 0.549352 0.763897 0.242823
O O3 0.500000 0.762221 0.000000
O O4 0.951377 0.250015 0.746239
O O5 0.854319 0.254248 0.762732
O O6 0.904335 0.000000 0.850691
O O7 0.907865 0.274020 0.000000
O O8 0.297642 0.303227 0.500000
O O9 0.297643 0.500000 0.280393
O O10 0.350605 0.229426 0.286096
O O11 0.244340 0.227885 0.288148
O O12 0.411647 0.242674 0.500000
O O13 0.403089 0.500000 0.333434
O O14 0.000000 0.500000 0.352451
O O15 0.000000 0.224924 0.500000
O O16 0.818513 0.765051 0.500000
O O17 0.804942 0.500000 0.345204
#
# Coordination Sequence:
#
# PCOD9388648 Si02
#       6
#     4   8   8   8   4   8
#     4   9  15  19  23  37  65  99 136 181 228 271
#     4  11  24  39  54  76 107 139 168 198 235 282
#     4   7  11  21  38  59  81 106 142 190 236 277
#     4   8  12  19  31  45  64  97 140 180 221 273
#     4  11  24  41  62  86 106 127 162 205 244 284
#     4   9  17  31  52  76  99 125 162 206 248 291
#
# _framework density 19.847822000000001
#
# number of rings (size 3 to 8) (size 9 to 14) (size 15 to 20)
#    0.000    3.000    0.000    4.500    0.000    7.600 
#    0.000    1.000    0.000    3.600    0.000    0.000 
#    0.000    0.000    0.000    0.900    0.000   19.800 
#
# Total GULP energy -222936.140595 kJ/mol
# GULP energy per Si atom -5573.403515 kJ/mol
# Density = 1.980265 g / cm^3
# Si number density = 19.847822 Si / 1000 Ang^3
#
#
#
# Elastic Constant Matrix: (Units=GPa)
#
#
# Indices 1 2 3 4 5 6 
#
# 1 252.2341 11.9074 119.3956 0.0000 0.0000 0.0000
# 2 11.9074 27.2956 9.1834 0.0000 0.0000 0.0000
# 3 119.3956 9.1834 129.2530 0.0000 0.0000 0.0000
# 4 0.0000 0.0000 0.0000 13.5071 0.0000 0.0000
# 5 0.0000 0.0000 0.0000 0.0000 -11.1313 0.0000
# 6 0.0000 0.0000 0.0000 0.0000 0.0000 -61.3495
#
#
#
# Elastic Compliance Matrix: (Units=1/GPa)
#
#
# Indices 1 2 3 4 5 6 
#
# 1 0.007067 -0.000908 -0.006463 0.000000 0.000000 0.000000
# 2 -0.000908 0.037650 -0.001836 0.000000 0.000000 0.000000
# 3 -0.006463 -0.001836 0.013838 0.000000 0.000000 0.000000
# 4 0.000000 0.000000 0.000000 0.074035 0.000000 0.000000
# 5 0.000000 0.000000 0.000000 0.000000 -0.089837 0.000000
# 6 0.000000 0.000000 0.000000 0.000000 0.000000 -0.016300
#
#
# Mechanical properties :
#
#
# Convention : Reuss Voigt Hill
#
# Bulk Modulus (GPa) = 24.91343 76.63953 50.77648
# Shear Modulus (GPa) = 85.83982 6.09167 45.96575
#
# Velocity S-wave (km/s) = 6.58353 1.75381 4.81761
# Velocity P-wave (km/s) = 8.38868 6.54206 7.52225
#
# Compressibility (1/GPa) = 0.04013900
#
# Stress axis : x y z
#
# Youngs Moduli (GPa) = 141.50396 26.56055 72.26620
#
# Poissons Ratio (x) = 0.02412 0.46709
# Poissons Ratio (y) = 0.12853 0.13268
# Poissons Ratio (z) = 0.91460 0.04877
#
# Static dielectric constant tensor:
#      x y z
#    x 1.591430 0.000000 0.000000 
#    y 0.000000 1.723250 0.000000 
#    z 0.000000 0.000000 1.681820 
# 
# From -- ./inp_files/13090.got.cif
#   From: 2010.05.17/outbox.cif.g08.bks.cpg/sg47_7_cif.got.tgz:13090.got - 2010.06.03 20:15:42.
