data_PCOD9388332
_publ_section_title
;
Structure prediction by ZEFSAII (Michael W. Deem and Ramdas Pophale) SiO2 
 PCOD9388332
Probable space group: P M M M
;
_chemical_formula_sum "Si O2"
_cell_formula_units_Z 56
_cell_length_a 8.803639
_cell_length_b 22.835194
_cell_length_c 15.292423
_cell_angle_alpha 90.000000
_cell_angle_beta 90.000000
_cell_angle_gamma 90.000000
_cell_volume 3074.278683
_symmetry_space_group_name_H-M "P M M M"
_symmetry_group_IT_number 47
_symmetry_cell_setting 'orthorhombic'
loop_
_space_group_symop_operation_xyz
x,y,z
-x,-y,z
x,-y,-z
-x,y,-z
-x,-y,-z
x,y,-z
-x,y,z
x,-y,z
loop_
_atom_site_type_symbol
_atom_site_label
_atom_site_fract_x
_atom_site_fract_y
_atom_site_fract_z
Si Si1 0.182186 0.932013 0.000000
Si Si2 0.322403 0.122449 0.343084
Si Si3 0.180029 0.239104 0.401892
Si Si4 0.822643 0.000000 0.394926
Si Si5 0.321830 0.845860 0.139252
Si Si6 0.684898 0.432625 0.599016
Si Si7 0.181912 0.718626 0.900398
Si Si8 0.318174 0.668764 0.270692
O O1 0.246173 0.897038 0.917052
O O2 0.000000 0.929148 0.000000
O O3 0.228409 0.000000 0.000000
O O4 0.500000 0.125264 0.367470
O O5 0.228727 0.171669 0.394304
O O6 0.308238 0.139009 0.241148
O O7 0.257803 0.058272 0.360238
O O8 0.215658 0.260307 0.500000
O O9 0.269334 0.275925 0.329699
O O10 0.000000 0.244754 0.387080
O O11 0.813293 0.000000 0.500000
O O12 0.000000 0.000000 0.369740
O O13 0.500000 0.841464 0.117396
O O14 0.243957 0.784008 0.117823
O O15 0.733515 0.416202 0.500000
O O16 0.500000 0.431319 0.598670
O O17 0.730386 0.500000 0.614726
O O18 0.734737 0.387767 0.673771
O O19 0.247791 0.677091 0.824929
O O20 0.000000 0.719732 0.894087
O O21 0.223928 0.702177 0.000000
O O22 0.500000 0.667574 0.263170
#
# Coordination Sequence:
#
# PCOD9388332 Si02
#       8
#     4   8   8   4   8   8   8   8
#     4  11  25  41  59  85 113 145 184 225 284 355
#     4  11  24  40  59  83 108 140 184 233 284 337
#     4  11  23  37  55  81 115 153 189 229 282 342
#     4  11  25  43  61  80 105 142 185 227 278 341
#     4  11  23  39  60  84 110 141 182 234 289 342
#     4   8  15  30  54  86 124 163 200 239 286 341
#     4  11  23  39  60  83 112 151 193 237 292 356
#     4  11  21  34  57  89 120 152 194 243 294 345
#
# _framework density 18.215654000000001
#
# number of rings (size 3 to 8) (size 9 to 14) (size 15 to 20)
#    0.000    1.429    2.143    3.857    1.000    7.143 
#    0.000    0.000    0.000    2.143    0.000    8.000 
#    0.000    0.000    0.000    0.000    0.000    0.000 
#
# Total GULP energy -312948.916313 kJ/mol
# GULP energy per Si atom -5588.373506 kJ/mol
# Density = 1.817419 g / cm^3
# Si number density = 18.215654 Si / 1000 Ang^3
#
#
#
# Elastic Constant Matrix: (Units=GPa)
#
#
# Indices 1 2 3 4 5 6 
#
# 1 58.4904 21.9454 49.8328 0.0000 0.0000 0.0000
# 2 21.9454 113.5023 64.4189 0.0000 0.0000 0.0000
# 3 49.8328 64.4189 126.8720 0.0000 0.0000 0.0000
# 4 0.0000 0.0000 0.0000 29.3099 0.0000 0.0000
# 5 0.0000 0.0000 0.0000 0.0000 31.2032 0.0000
# 6 0.0000 0.0000 0.0000 0.0000 0.0000 -74.0664
#
#
#
# Elastic Compliance Matrix: (Units=1/GPa)
#
#
# Indices 1 2 3 4 5 6 
#
# 1 0.025788 0.001072 -0.010673 0.000000 0.000000 0.000000
# 2 0.001072 0.012422 -0.006728 0.000000 0.000000 0.000000
# 3 -0.010673 -0.006728 0.015490 0.000000 0.000000 0.000000
# 4 0.000000 0.000000 0.000000 0.034118 0.000000 0.000000
# 5 0.000000 0.000000 0.000000 0.000000 0.032048 0.000000
# 6 0.000000 0.000000 0.000000 0.000000 0.000000 -0.013501
#
#
# Mechanical properties :
#
#
# Convention : Reuss Voigt Hill
#
# Bulk Modulus (GPa) = 47.52636 63.47323 55.49979
# Shear Modulus (GPa) = 34.23775 8.13384 21.18580
#
# Velocity S-wave (km/s) = 4.34011 2.11542 3.41406
# Velocity P-wave (km/s) = 7.15982 6.39435 6.78789
#
# Compressibility (1/GPa) = 0.02104096
#
# Stress axis : x y z
#
# Youngs Moduli (GPa) = 38.77756 80.50419 64.55671
#
# Poissons Ratio (x) = -0.08626 0.68902
# Poissons Ratio (y) = -0.04155 0.43434
# Poissons Ratio (z) = 0.41388 0.54163
#
# Static dielectric constant tensor:
#      x y z
#    x 1.613020 0.000000 0.000000 
#    y 0.000000 1.604660 0.000000 
#    z 0.000000 0.000000 1.639940 
# 
# From -- ./inp_files/21683.got.cif
#   From: 2010.05.17/outbox.cif.g08.bks.cpg/sg47_11_cif.got.tgz:21683.got - 2010.06.03 20:15:42.
