data_PCOD9388069
_publ_section_title
;
Structure prediction by ZEFSAII (Michael W. Deem and Ramdas Pophale) SiO2 
 PCOD9388069
Probable space group: P M M M
;
_chemical_formula_sum "Si O2"
_cell_formula_units_Z 25
_cell_length_a 7.186987
_cell_length_b 9.810256
_cell_length_c 15.475522
_cell_angle_alpha 90.000000
_cell_angle_beta 90.000000
_cell_angle_gamma 90.000000
_cell_volume 1091.119976
_symmetry_space_group_name_H-M "P M M M"
_symmetry_group_IT_number 47
_symmetry_cell_setting 'orthorhombic'
loop_
_space_group_symop_operation_xyz
x,y,z
-x,-y,z
x,-y,-z
-x,y,-z
-x,-y,-z
x,y,-z
-x,y,z
x,-y,z
loop_
_atom_site_type_symbol
_atom_site_label
_atom_site_fract_x
_atom_site_fract_y
_atom_site_fract_z
Si Si1 0.224919 0.851577 0.811295
Si Si2 0.224394 0.756108 0.000000
Si Si3 0.773583 0.656453 0.338110
Si Si4 0.500000 0.500000 0.000000
Si Si5 0.773679 0.842307 0.500000
O O1 0.286303 0.727258 0.751149
O O2 0.000000 0.851210 0.806638
O O3 0.286277 0.000000 0.779018
O O4 0.272152 0.833013 0.911341
O O5 0.337925 0.617971 0.000000
O O6 0.000000 0.734901 0.000000
O O7 0.712697 0.500000 0.347338
O O8 0.717524 0.755644 0.416085
O O9 0.000000 0.653171 0.338907
O O10 0.000000 0.845611 0.500000
O O11 0.713359 0.000000 0.500000
#
# Coordination Sequence:
#
# PCOD9388069 Si02
#       5
#     8   4   8   1   4
#     4   9  17  31  52  77 106 146 193 238 289 348
#     4  10  22  39  61  85 118 155 194 240 290 344
#     4   9  16  24  38  64  99 140 187 236 288 345
#     4  12  26  40  58  90 120 154 196 240 292 350
#     4   9  15  23  35  55  93 143 188 235 288 340
#
# _framework density 22.912237999999999
#
# number of rings (size 3 to 8) (size 9 to 14) (size 15 to 20)
#    0.000    2.720    0.000    2.160    2.240    7.680 
#    0.000    1.600    0.000    0.000    0.000    0.000 
#    0.000    2.560    0.000    4.960    0.000   10.880 
#
# Total GULP energy -139453.791877 kJ/mol
# GULP energy per Si atom -5578.151675 kJ/mol
# Density = 2.286009 g / cm^3
# Si number density = 22.912238 Si / 1000 Ang^3
#
#
#
# Elastic Constant Matrix: (Units=GPa)
#
#
# Indices 1 2 3 4 5 6 
#
# 1 117.3130 11.1794 1.0008 0.0000 0.0000 0.0000
# 2 11.1794 246.2349 99.2897 0.0000 0.0000 0.0000
# 3 1.0008 99.2897 162.3197 0.0000 0.0000 0.0000
# 4 0.0000 0.0000 0.0000 738.3815 0.0000 0.0000
# 5 0.0000 0.0000 0.0000 0.0000 -29.2598 0.0000
# 6 0.0000 0.0000 0.0000 0.0000 0.0000 756.3703
#
#
#
# Elastic Compliance Matrix: (Units=1/GPa)
#
#
# Indices 1 2 3 4 5 6 
#
# 1 0.008569 -0.000488 0.000246 0.000000 0.000000 0.000000
# 2 -0.000488 0.005419 -0.003312 0.000000 0.000000 0.000000
# 3 0.000246 -0.003312 0.008185 0.000000 0.000000 0.000000
# 4 0.000000 0.000000 0.000000 0.001354 0.000000 0.000000
# 5 0.000000 0.000000 0.000000 0.000000 -0.034177 0.000000
# 6 0.000000 0.000000 0.000000 0.000000 0.000000 0.001322
#
#
# Mechanical properties :
#
#
# Convention : Reuss Voigt Hill
#
# Bulk Modulus (GPa) = 66.38226 83.20082 74.79154
# Shear Modulus (GPa) = 1784.99996 320.72491 1052.86243
#
# Velocity S-wave (km/s) = 27.94192 11.84414 21.45967
# Velocity P-wave (km/s) = 32.71141 14.94779 25.43101
#
# Compressibility (1/GPa) = 0.01506426
#
# Stress axis : x y z
#
# Youngs Moduli (GPa) = 116.70486 184.54823 122.17760
#
# Poissons Ratio (x) = 0.09008 -0.03003
# Poissons Ratio (y) = 0.05697 0.40459
# Poissons Ratio (z) = -0.02868 0.61114
#
# Static dielectric constant tensor:
#      x y z
#    x 1.870160 0.000000 0.000000 
#    y 0.000000 1.785410 0.000000 
#    z 0.000000 0.000000 1.820070 
# 
# From -- ./inp_files/25962.got.cif
#   From: 2010.05.17/outbox.cif.g08.bks.cpg/sg47_13_cif.got.tgz:25962.got - 2010.06.03 20:15:42.
