data_PCOD9388769
_publ_section_title
;
Structure prediction by ZEFSAII (Michael W. Deem and Ramdas Pophale) SiO2 
 PCOD9388769
Probable space group: P M M M
;
_chemical_formula_sum "Si O2"
_cell_formula_units_Z 40
_cell_length_a 7.661725
_cell_length_b 30.147677
_cell_length_c 7.412693
_cell_angle_alpha 90.000000
_cell_angle_beta 90.000000
_cell_angle_gamma 90.000000
_cell_volume 1712.207628
_symmetry_space_group_name_H-M "P M M M"
_symmetry_group_IT_number 47
_symmetry_cell_setting 'orthorhombic'
loop_
_space_group_symop_operation_xyz
x,y,z
-x,-y,z
x,-y,-z
-x,y,-z
-x,-y,-z
x,y,-z
-x,y,z
x,-y,z
loop_
_atom_site_type_symbol
_atom_site_label
_atom_site_fract_x
_atom_site_fract_y
_atom_site_fract_z
Si Si1 0.708043 0.286609 0.295033
Si Si2 0.785707 0.000000 0.787950
Si Si3 0.199863 0.190437 0.283870
Si Si4 0.799636 0.905239 0.784569
Si Si5 0.000000 0.550742 0.279793
Si Si6 0.298735 0.382392 0.279052
O O1 0.780001 0.284864 0.500000
O O2 0.500000 0.291515 0.306351
O O3 0.737522 0.238053 0.213061
O O4 0.766439 0.333664 0.215986
O O5 0.726096 0.047845 0.714880
O O6 0.000000 0.000000 0.776923
O O7 0.738955 0.000000 0.000000
O O8 0.206956 0.193323 0.500000
O O9 0.285546 0.142810 0.244218
O O10 0.000000 0.186998 0.222201
O O11 0.000000 0.902479 0.714242
O O12 0.809830 0.910068 0.000000
O O13 0.169962 0.578599 0.224051
O O14 0.000000 0.500000 0.219198
O O15 0.000000 0.550181 0.500000
O O16 0.297782 0.380520 0.500000
O O17 0.500000 0.389354 0.224538
#
# Coordination Sequence:
#
# PCOD9388769 Si02
#       6
#     8   4   8   8   4   8
#     4   8  14  24  36  49  66  92 123 152 187 232
#     4   7  10  18  33  49  66  95 130 154 176 223
#     4   9  16  23  34  55  77  93 117 159 201 230
#     4   8  13  22  35  51  73 100 127 153 187 234
#     4   9  16  22  30  46  66  92 127 166 207 240
#     4   8  14  23  33  45  63  90 126 163 197 239
#
# _framework density 23.361654000000001
#
# number of rings (size 3 to 8) (size 9 to 14) (size 15 to 20)
#    0.000    3.800    0.000    2.400    1.400    0.400 
#    0.000    2.500    0.000    3.600    0.000    0.700 
#    0.000    5.600    0.000    0.000    0.000    2.000 
#
# Total GULP energy -222712.357453 kJ/mol
# GULP energy per Si atom -5567.808936 kJ/mol
# Density = 2.330848 g / cm^3
# Si number density = 23.361654 Si / 1000 Ang^3
#
#
#
# Elastic Constant Matrix: (Units=GPa)
#
#
# Indices 1 2 3 4 5 6 
#
# 1 69.2096 74.7806 0.7486 0.0000 0.0000 0.0000
# 2 74.7806 329.7276 11.8549 0.0000 0.0000 0.0000
# 3 0.7486 11.8549 74.0072 0.0000 0.0000 0.0000
# 4 0.0000 0.0000 0.0000 12.1422 0.0000 0.0000
# 5 0.0000 0.0000 0.0000 0.0000 -10.0027 0.0000
# 6 0.0000 0.0000 0.0000 0.0000 0.0000 106.7444
#
#
#
# Elastic Compliance Matrix: (Units=1/GPa)
#
#
# Indices 1 2 3 4 5 6 
#
# 1 0.019158 -0.004363 0.000505 0.000000 0.000000 0.000000
# 2 -0.004363 0.004044 -0.000604 0.000000 0.000000 0.000000
# 3 0.000505 -0.000604 0.013604 0.000000 0.000000 0.000000
# 4 0.000000 0.000000 0.000000 0.082357 0.000000 0.000000
# 5 0.000000 0.000000 0.000000 0.000000 -0.099973 0.000000
# 6 0.000000 0.000000 0.000000 0.000000 0.000000 0.009368
#
#
# Mechanical properties :
#
#
# Convention : Reuss Voigt Hill
#
# Bulk Modulus (GPa) = 35.86508 71.96807 53.91658
# Shear Modulus (GPa) = 106.89460 47.48080 77.18770
#
# Velocity S-wave (km/s) = 6.77169 4.51313 5.75431
# Velocity P-wave (km/s) = 8.74794 7.61779 8.20235
#
# Compressibility (1/GPa) = 0.02788227
#
# Stress axis : x y z
#
# Youngs Moduli (GPa) = 52.19858 247.27873 73.50897
#
# Poissons Ratio (x) = 1.07888 -0.03713
# Poissons Ratio (y) = 0.22774 0.04437
# Poissons Ratio (z) = -0.02637 0.14927
#
# Static dielectric constant tensor:
#      x y z
#    x 1.890460 0.000000 0.000000 
#    y 0.000000 1.954710 0.000000 
#    z 0.000000 0.000000 1.932040 
# 
# From -- ./inp_files/1699.got.cif
#   From: 2010.05.17/outbox.cif.g08.bks.cpg/sg47_1_cif.got.tgz:1699.got - 2010.06.03 20:15:42.
