data_PCOD9388384
_publ_section_title
;
Structure prediction by ZEFSAII (Michael W. Deem and Ramdas Pophale) SiO2 
 PCOD9388384
Probable space group: P M M M
;
_chemical_formula_sum "Si O2"
_cell_formula_units_Z 52
_cell_length_a 24.976683
_cell_length_b 14.564928
_cell_length_c 7.935641
_cell_angle_alpha 90.000000
_cell_angle_beta 90.000000
_cell_angle_gamma 90.000000
_cell_volume 2886.855969
_symmetry_space_group_name_H-M "P M M M"
_symmetry_group_IT_number 47
_symmetry_cell_setting 'orthorhombic'
loop_
_space_group_symop_operation_xyz
x,y,z
-x,-y,z
x,-y,-z
-x,y,-z
-x,-y,-z
x,y,-z
-x,y,z
x,-y,z
loop_
_atom_site_type_symbol
_atom_site_label
_atom_site_fract_x
_atom_site_fract_y
_atom_site_fract_z
Si Si1 0.500000 0.612412 0.697946
Si Si2 0.057622 0.611249 0.699990
Si Si3 0.674679 0.102974 0.199642
Si Si4 0.557600 0.888639 0.698536
Si Si5 0.277313 0.283103 0.799649
Si Si6 0.826610 0.395429 0.702349
Si Si7 0.616528 0.606730 0.295877
O O1 0.500000 0.500000 0.704384
O O2 0.500000 0.638052 0.500000
O O3 0.441886 0.641499 0.766634
O O4 0.056380 0.633032 0.500000
O O5 0.058666 0.500000 0.712147
O O6 0.115702 0.640634 0.767898
O O7 0.000000 0.641975 0.772120
O O8 0.613652 0.138182 0.221589
O O9 0.713575 0.180519 0.270863
O O10 0.678947 0.000000 0.272315
O O11 0.683990 0.095792 0.000000
O O12 0.560087 0.866519 0.500000
O O13 0.500000 0.854598 0.764308
O O14 0.556238 0.000000 0.713549
O O15 0.224432 0.333779 0.738499
O O16 0.331155 0.339266 0.758874
O O17 0.273260 0.276901 0.000000
O O18 0.831837 0.401122 0.500000
O O19 0.817835 0.500000 0.764810
O O20 0.614522 0.609074 0.500000
O O21 0.621821 0.500000 0.245233
#
# Coordination Sequence:
#
# PCOD9388384 Si02
#       7
#     4   8   8   8   8   8   8
#     4   7  12  26  47  65  78  99 136 176 209 245
#     4   7  10  19  38  64  91 118 149 180 203 229
#     4   9  19  35  49  59  77 110 148 181 217 264
#     4   8  14  26  45  67  85  98 119 160 215 269
#     4  11  22  32  43  63  88 114 145 183 223 259
#     4   9  17  29  46  68  94 124 153 177 205 248
#     4   9  17  31  50  67  84 109 141 175 212 260
#
# _framework density 18.012675000000002
#
# number of rings (size 3 to 8) (size 9 to 14) (size 15 to 20)
#    0.000    3.308    0.000    3.692    0.000    4.000 
#    1.385    1.923    0.000    1.846    0.000    2.154 
#    0.000    0.615    0.000    7.692    0.000    0.308 
#
# Total GULP energy -289556.549125 kJ/mol
# GULP energy per Si atom -5568.395175 kJ/mol
# Density = 1.797168 g / cm^3
# Si number density = 18.012675 Si / 1000 Ang^3
#
#
#
# Elastic Constant Matrix: (Units=GPa)
#
#
# Indices 1 2 3 4 5 6 
#
# 1 187.2086 72.1532 9.2092 0.0000 0.0000 0.0000
# 2 72.1532 67.0891 6.0930 0.0000 0.0000 0.0000
# 3 9.2092 6.0930 12.8504 0.0000 0.0000 0.0000
# 4 0.0000 0.0000 0.0000 13.7906 0.0000 0.0000
# 5 0.0000 0.0000 0.0000 0.0000 -143.9145 0.0000
# 6 0.0000 0.0000 0.0000 0.0000 0.0000 12.1035
#
#
#
# Elastic Compliance Matrix: (Units=1/GPa)
#
#
# Indices 1 2 3 4 5 6 
#
# 1 0.009171 -0.009684 -0.001981 0.000000 0.000000 0.000000
# 2 -0.009684 0.025801 -0.005294 0.000000 0.000000 0.000000
# 3 -0.001981 -0.005294 0.081748 0.000000 0.000000 0.000000
# 4 0.000000 0.000000 0.000000 0.072513 0.000000 0.000000
# 5 0.000000 0.000000 0.000000 0.000000 -0.006949 0.000000
# 6 0.000000 0.000000 0.000000 0.000000 0.000000 0.082621
#
#
# Mechanical properties :
#
#
# Convention : Reuss Voigt Hill
#
# Bulk Modulus (GPa) = 12.07677 49.11766 30.59722
# Shear Modulus (GPa) = 15.31748 -11.62457 1.84646
#
# Velocity S-wave (km/s) = 2.91928 -2.54314 1.01356
# Velocity P-wave (km/s) = 4.25230 4.32483 4.28872
#
# Compressibility (1/GPa) = 0.08280360
#
# Stress axis : x y z
#
# Youngs Moduli (GPa) = 109.03521 38.75818 12.23266
#
# Poissons Ratio (x) = 0.37532 0.02423
# Poissons Ratio (y) = 1.05587 0.06476
# Poissons Ratio (z) = 0.21601 0.20518
#
# Static dielectric constant tensor:
#      x y z
#    x 1.655550 0.000000 0.000000 
#    y 0.000000 1.662530 0.000000 
#    z 0.000000 0.000000 1.649520 
# 
# From -- ./inp_files/12577.got.cif
#   From: 2010.05.17/outbox.cif.g08.bks.cpg/sg47_7_cif.got.tgz:12577.got - 2010.06.03 20:15:42.
