data_PCOD9388695
_publ_section_title
;
Structure prediction by ZEFSAII (Michael W. Deem and Ramdas Pophale) SiO2 
 PCOD9388695
Probable space group: P M M M
;
_chemical_formula_sum "Si O2"
_cell_formula_units_Z 40
_cell_length_a 7.989232
_cell_length_b 7.673858
_cell_length_c 31.117374
_cell_angle_alpha 90.000000
_cell_angle_beta 90.000000
_cell_angle_gamma 90.000000
_cell_volume 1907.751181
_symmetry_space_group_name_H-M "P M M M"
_symmetry_group_IT_number 47
_symmetry_cell_setting 'orthorhombic'
loop_
_space_group_symop_operation_xyz
x,y,z
-x,-y,z
x,-y,-z
-x,y,-z
-x,-y,-z
x,y,-z
-x,y,z
x,-y,z
loop_
_atom_site_type_symbol
_atom_site_label
_atom_site_fract_x
_atom_site_fract_y
_atom_site_fract_z
Si Si1 0.800637 0.694412 0.202436
Si Si2 0.702322 0.800356 0.613107
Si Si3 0.313063 0.793668 0.295185
Si Si4 0.805892 0.286100 0.890625
Si Si5 0.199662 0.500000 0.548650
Si Si6 0.500000 0.287090 0.049337
O O1 0.727970 0.500000 0.204347
O O2 0.769380 0.772960 0.248975
O O3 0.747715 0.775695 0.156984
O O4 0.000000 0.683402 0.197496
O O5 0.500000 0.803777 0.616966
O O6 0.766016 0.731852 0.659860
O O7 0.746918 0.669794 0.575343
O O8 0.759106 0.000000 0.605394
O O9 0.500000 0.719174 0.291224
O O10 0.325391 0.000000 0.302482
O O11 0.807069 0.500000 0.888910
O O12 0.668510 0.233278 0.925525
O O13 0.000000 0.233876 0.898908
O O14 0.266955 0.500000 0.500000
O O15 0.000000 0.500000 0.546570
O O16 0.500000 0.500000 0.049507
O O17 0.500000 0.229783 0.000000
#
# Coordination Sequence:
#
# PCOD9388695 Si02
#       6
#     8   8   8   8   4   4
#     4   9  18  30  45  69  99 133 171 207 252 314
#     4   9  20  40  62  84 114 150 190 238 288 340
#     4   9  19  34  51  75 105 135 170 213 260 314
#     4   8  15  27  39  57  90 124 161 212 259 311
#     4  11  25  41  59  87 119 151 191 239 289 346
#     4   9  16  24  38  60  85 123 171 211 259 320
#
# _framework density 20.967092999999998
#
# number of rings (size 3 to 8) (size 9 to 14) (size 15 to 20)
#    0.000    3.000    0.000    2.700    2.800    3.600 
#    0.000    6.000    0.000    0.000    0.000    0.000 
#    0.000    1.600    0.000    4.400    0.000    4.400 
#
# Total GULP energy -222839.619621 kJ/mol
# GULP energy per Si atom -5570.990491 kJ/mol
# Density = 2.091937 g / cm^3
# Si number density = 20.967093 Si / 1000 Ang^3
#
#
#
# Elastic Constant Matrix: (Units=GPa)
#
#
# Indices 1 2 3 4 5 6 
#
# 1 59.8936 13.9145 64.2775 0.0000 0.0000 0.0000
# 2 13.9145 58.5994 49.5139 0.0000 0.0000 0.0000
# 3 64.2775 49.5139 240.4476 0.0000 0.0000 0.0000
# 4 0.0000 0.0000 0.0000 42.6844 0.0000 0.0000
# 5 0.0000 0.0000 0.0000 0.0000 40.8987 0.0000
# 6 0.0000 0.0000 0.0000 0.0000 0.0000 17.3072
#
#
#
# Elastic Compliance Matrix: (Units=1/GPa)
#
#
# Indices 1 2 3 4 5 6 
#
# 1 0.023419 -0.000328 -0.006193 0.000000 0.000000 0.000000
# 2 -0.000328 0.020664 -0.004168 0.000000 0.000000 0.000000
# 3 -0.006193 -0.004168 0.006673 0.000000 0.000000 0.000000
# 4 0.000000 0.000000 0.000000 0.023428 0.000000 0.000000
# 5 0.000000 0.000000 0.000000 0.000000 0.024451 0.000000
# 6 0.000000 0.000000 0.000000 0.000000 0.000000 0.057780
#
#
# Mechanical properties :
#
#
# Convention : Reuss Voigt Hill
#
# Bulk Modulus (GPa) = 34.03849 68.26140 51.14994
# Shear Modulus (GPa) = 26.65484 35.59371 31.12428
#
# Velocity S-wave (km/s) = 3.56936 4.12466 3.85702
# Velocity P-wave (km/s) = 5.76685 7.43713 6.65460
#
# Compressibility (1/GPa) = 0.02937851
#
# Stress axis : x y z
#
# Youngs Moduli (GPa) = 42.70120 48.39255 149.86690
#
# Poissons Ratio (x) = 0.01588 0.92809
# Poissons Ratio (y) = 0.01401 0.62458
# Poissons Ratio (z) = 0.26444 0.20168
#
# Static dielectric constant tensor:
#      x y z
#    x 1.759990 0.000000 0.000000 
#    y 0.000000 2.020190 0.000000 
#    z 0.000000 0.000000 1.793080 
# 
# From -- ./inp_files/33094.got.cif
#   From: 2010.05.17/outbox.cif.g08.bks.cpg/sg47_17_cif.got.tgz:33094.got - 2010.06.03 20:15:42.
