data_PCOD9388636
_publ_section_title
;
Structure prediction by ZEFSAII (Michael W. Deem and Ramdas Pophale) SiO2 
 PCOD9388636
Probable space group: P M M M
;
_chemical_formula_sum "Si O2"
_cell_formula_units_Z 40
_cell_length_a 26.474031
_cell_length_b 7.962005
_cell_length_c 9.914160
_cell_angle_alpha 90.000000
_cell_angle_beta 90.000000
_cell_angle_gamma 90.000000
_cell_volume 2089.769770
_symmetry_space_group_name_H-M "P M M M"
_symmetry_group_IT_number 47
_symmetry_cell_setting 'orthorhombic'
loop_
_space_group_symop_operation_xyz
x,y,z
-x,-y,z
x,-y,-z
-x,y,-z
-x,-y,-z
x,y,-z
-x,y,z
x,-y,z
loop_
_atom_site_type_symbol
_atom_site_label
_atom_site_fract_x
_atom_site_fract_y
_atom_site_fract_z
Si Si1 0.908218 0.295021 0.655754
Si Si2 0.295498 0.202058 0.152633
Si Si3 0.408889 0.202462 0.154134
Si Si4 0.500000 0.300593 0.652580
Si Si5 0.000000 0.705821 0.155708
Si Si6 0.794729 0.298056 0.347550
O O1 0.918496 0.245116 0.500000
O O2 0.908975 0.500000 0.656384
O O3 0.950689 0.239328 0.760448
O O4 0.851216 0.240766 0.692228
O O5 0.352085 0.260179 0.190996
O O6 0.250521 0.250803 0.250303
O O7 0.297395 0.000000 0.149644
O O8 0.285721 0.261641 0.000000
O O9 0.450904 0.251860 0.261089
O O10 0.408323 0.000000 0.149546
O O11 0.420053 0.259999 0.000000
O O12 0.500000 0.500000 0.641926
O O13 0.500000 0.229569 0.500000
O O14 0.000000 0.500000 0.155112
O O15 0.000000 0.759935 0.000000
O O16 0.785184 0.237282 0.500000
O O17 0.796921 0.500000 0.351642
#
# Coordination Sequence:
#
# PCOD9388636 Si02
#       6
#     8   8   8   4   4   8
#     4   8  14  25  39  56  84 122 157 189 232 285
#     4   9  19  35  53  74  99 127 162 202 242 286
#     4   9  19  37  58  76  96 127 167 205 239 282
#     4  11  24  37  50  76 110 135 158 195 242 288
#     4   9  15  21  33  57  86 115 152 197 238 278
#     4   9  18  31  47  70  99 129 162 200 242 289
#
# _framework density 19.140864000000001
#
# number of rings (size 3 to 8) (size 9 to 14) (size 15 to 20)
#    0.000    3.000    0.000    3.300    0.000    6.800 
#    0.000    8.000    0.000    0.000    0.000    0.700 
#    0.000    5.600    0.000    0.000    0.000    0.000 
#
# Total GULP energy -223001.756574 kJ/mol
# GULP energy per Si atom -5575.043914 kJ/mol
# Density = 1.909730 g / cm^3
# Si number density = 19.140864 Si / 1000 Ang^3
#
#
#
# Elastic Constant Matrix: (Units=GPa)
#
#
# Indices 1 2 3 4 5 6 
#
# 1 216.8327 13.9095 159.1480 0.0000 0.0000 0.0000
# 2 13.9095 13.9605 12.4032 0.0000 0.0000 0.0000
# 3 159.1480 12.4032 162.9394 0.0000 0.0000 0.0000
# 4 0.0000 0.0000 0.0000 20.3860 0.0000 0.0000
# 5 0.0000 0.0000 0.0000 0.0000 38.8803 0.0000
# 6 0.0000 0.0000 0.0000 0.0000 0.0000 28.6765
#
#
#
# Elastic Compliance Matrix: (Units=1/GPa)
#
#
# Indices 1 2 3 4 5 6 
#
# 1 0.016356 -0.002256 -0.015804 0.000000 0.000000 0.000000
# 2 -0.002256 0.077138 -0.003669 0.000000 0.000000 0.000000
# 3 -0.015804 -0.003669 0.021852 0.000000 0.000000 0.000000
# 4 0.000000 0.000000 0.000000 0.049053 0.000000 0.000000
# 5 0.000000 0.000000 0.000000 0.000000 0.025720 0.000000
# 6 0.000000 0.000000 0.000000 0.000000 0.000000 0.034872
#
#
# Mechanical properties :
#
#
# Convention : Reuss Voigt Hill
#
# Bulk Modulus (GPa) = 13.91011 84.96156 49.43584
# Shear Modulus (GPa) = 17.09927 31.47335 24.28631
#
# Velocity S-wave (km/s) = 2.99212 4.05940 3.56591
# Velocity P-wave (km/s) = 4.38407 8.15202 6.54506
#
# Compressibility (1/GPa) = 0.07189018
#
# Stress axis : x y z
#
# Youngs Moduli (GPa) = 61.14026 12.96382 45.76164
#
# Poissons Ratio (x) = 0.02924 0.72320
# Poissons Ratio (y) = 0.13790 0.16789
# Poissons Ratio (z) = 0.96623 0.04756
#
# Static dielectric constant tensor:
#      x y z
#    x 1.663930 0.000000 0.000000 
#    y 0.000000 1.701870 0.000000 
#    z 0.000000 0.000000 1.655720 
# 
# From -- ./inp_files/13016.got.cif
#   From: 2010.05.17/outbox.cif.g08.bks.cpg/sg47_7_cif.got.tgz:13016.got - 2010.06.03 20:15:42.
