data_PCOD9388380
_publ_section_title
;
Structure prediction by ZEFSAII (Michael W. Deem and Ramdas Pophale) SiO2 
 PCOD9388380
Probable space group: P M M M
;
_chemical_formula_sum "Si O2"
_cell_formula_units_Z 44
_cell_length_a 9.037947
_cell_length_b 14.456622
_cell_length_c 21.819775
_cell_angle_alpha 90.000000
_cell_angle_beta 90.000000
_cell_angle_gamma 90.000000
_cell_volume 2850.932164
_symmetry_space_group_name_H-M "P M M M"
_symmetry_group_IT_number 47
_symmetry_cell_setting 'orthorhombic'
loop_
_space_group_symop_operation_xyz
x,y,z
-x,-y,z
x,-y,-z
-x,y,-z
-x,-y,-z
x,y,-z
-x,y,z
x,-y,z
loop_
_atom_site_type_symbol
_atom_site_label
_atom_site_fract_x
_atom_site_fract_y
_atom_site_fract_z
Si Si1 0.178665 0.109501 0.299693
Si Si2 0.823048 0.111460 0.434106
Si Si3 0.322674 0.605735 0.126256
Si Si4 0.832755 0.612347 0.000000
Si Si5 0.676637 0.790787 0.815127
Si Si6 0.824700 0.888715 0.930587
O O1 0.231277 0.142642 0.367326
O O2 0.249417 0.164624 0.244156
O O3 0.000000 0.117317 0.297513
O O4 0.212917 0.000000 0.293585
O O5 0.763082 0.145575 0.500000
O O6 0.000000 0.128292 0.434587
O O7 0.805505 0.000000 0.433849
O O8 0.500000 0.605469 0.118392
O O9 0.276234 0.500000 0.139713
O O10 0.250431 0.636849 0.062232
O O11 0.285556 0.682316 0.176587
O O12 0.837234 0.500000 0.000000
O O13 0.000000 0.647874 0.000000
O O14 0.500000 0.800286 0.811663
O O15 0.735155 0.841371 0.876315
O O16 0.000000 0.869320 0.923160
O O17 0.807210 0.000000 0.926796
O O18 0.781606 0.860350 0.000000
#
# Coordination Sequence:
#
# PCOD9388380 Si02
#       6
#     8   8   8   4   8   8
#     4   9  17  29  45  65  91 122 149 173 208 252
#     4   7  10  19  38  63  87 112 145 178 201 232
#     4   9  19  35  49  60  81 112 141 172 216 270
#     4   9  17  29  47  69  84  95 122 169 221 266
#     4  11  22  31  44  65  86 111 145 181 217 256
#     4   9  19  35  50  62  80 110 145 178 215 257
#
# _framework density 15.433548999999999
#
# number of rings (size 3 to 8) (size 9 to 14) (size 15 to 20)
#    0.000    3.000    0.000    3.545    1.273    5.818 
#    0.000    0.909    0.000    0.545    0.000    2.545 
#    0.000    0.727    0.000    9.091    0.000    0.364 
#
# Total GULP energy -245034.842739 kJ/mol
# GULP energy per Si atom -5568.973699 kJ/mol
# Density = 1.539842 g / cm^3
# Si number density = 15.433549 Si / 1000 Ang^3
#
#
#
# Elastic Constant Matrix: (Units=GPa)
#
#
# Indices 1 2 3 4 5 6 
#
# 1 16.7722 27.7933 38.4044 0.0000 0.0000 0.0000
# 2 27.7933 61.6087 63.4506 0.0000 0.0000 0.0000
# 3 38.4044 63.4506 159.6663 0.0000 0.0000 0.0000
# 4 0.0000 0.0000 0.0000 10.0753 0.0000 0.0000
# 5 0.0000 0.0000 0.0000 0.0000 -1.4333 0.0000
# 6 0.0000 0.0000 0.0000 0.0000 0.0000 5.4760
#
#
#
# Elastic Compliance Matrix: (Units=1/GPa)
#
#
# Indices 1 2 3 4 5 6 
#
# 1 0.310579 -0.106942 -0.032205 0.000000 0.000000 0.000000
# 2 -0.106942 0.064301 0.000170 0.000000 0.000000 0.000000
# 3 -0.032205 0.000170 0.013942 0.000000 0.000000 0.000000
# 4 0.000000 0.000000 0.000000 0.099252 0.000000 0.000000
# 5 0.000000 0.000000 0.000000 0.000000 -0.697671 0.000000
# 6 0.000000 0.000000 0.000000 0.000000 0.000000 0.182614
#
#
# Mechanical properties :
#
#
# Convention : Reuss Voigt Hill
#
# Bulk Modulus (GPa) = 9.01983 55.26041 32.14012
# Shear Modulus (GPa) = 17.36547 10.05019 13.70783
#
# Velocity S-wave (km/s) = 3.35800 2.55461 2.98347
# Velocity P-wave (km/s) = 4.57077 6.67716 5.72173
#
# Compressibility (1/GPa) = 0.11086683
#
# Stress axis : x y z
#
# Youngs Moduli (GPa) = 3.21979 15.55184 71.72695
#
# Poissons Ratio (x) = 1.66315 2.30995
# Poissons Ratio (y) = 0.34433 -0.01218
# Poissons Ratio (z) = 0.10369 -0.00264
#
# Static dielectric constant tensor:
#      x y z
#    x 1.511670 0.000000 0.000000 
#    y 0.000000 1.527640 0.000000 
#    z 0.000000 0.000000 1.529310 
# 
# From -- ./inp_files/24892.got.cif
#   From: 2010.05.17/outbox.cif.g08.bks.cpg/sg47_13_cif.got.tgz:24892.got - 2010.06.03 20:15:42.
