data_PCOD9388045
_publ_section_title
;
Structure prediction by ZEFSAII (Michael W. Deem and Ramdas Pophale) SiO2 
 PCOD9388045
Probable space group: P M M M
;
_chemical_formula_sum "Si O2"
_cell_formula_units_Z 56
_cell_length_a 21.089521
_cell_length_b 7.442239
_cell_length_c 15.762980
_cell_angle_alpha 90.000000
_cell_angle_beta 90.000000
_cell_angle_gamma 90.000000
_cell_volume 2474.051030
_symmetry_space_group_name_H-M "P M M M"
_symmetry_group_IT_number 47
_symmetry_cell_setting 'orthorhombic'
loop_
_space_group_symop_operation_xyz
x,y,z
-x,-y,z
x,-y,-z
-x,y,-z
-x,-y,-z
x,y,-z
-x,y,z
x,-y,z
loop_
_atom_site_type_symbol
_atom_site_label
_atom_site_fract_x
_atom_site_fract_y
_atom_site_fract_z
Si Si1 0.572263 0.712281 0.276521
Si Si2 0.573437 0.215568 0.909150
Si Si3 0.093926 0.282561 0.091220
Si Si4 0.931546 0.793625 0.278820
Si Si5 0.321553 0.716606 0.596404
Si Si6 0.788305 0.785957 0.725343
Si Si7 0.241955 0.793500 0.093381
O O1 0.500000 0.786372 0.278285
O O2 0.566846 0.500000 0.291030
O O3 0.600505 0.733289 0.181626
O O4 0.619780 0.785646 0.346896
O O5 0.500000 0.276538 0.906788
O O6 0.573283 0.000000 0.911012
O O7 0.599604 0.278007 0.000000
O O8 0.094303 0.500000 0.097134
O O9 0.065040 0.209634 0.176697
O O10 0.165677 0.212279 0.089539
O O11 0.066358 0.234672 0.000000
O O12 0.860144 0.715725 0.292011
O O13 0.000000 0.716160 0.308846
O O14 0.929753 0.000000 0.309172
O O15 0.322508 0.782172 0.500000
O O16 0.326427 0.500000 0.593916
O O17 0.257090 0.759270 0.645889
O O18 0.752542 0.714743 0.810988
O O19 0.795552 0.000000 0.740746
O O20 0.266026 0.000000 0.094412
O O21 0.261348 0.717677 0.000000
#
# Coordination Sequence:
#
# PCOD9388045 Si02
#       7
#     8   8   8   8   8   8   8
#     4   9  18  33  54  80 108 138 174 215 254 293
#     4   8  14  26  46  74 109 146 178 207 244 292
#     4   9  16  24  36  60  95 131 167 207 248 291
#     4   9  18  32  49  69  94 126 164 205 250 300
#     4  10  22  39  57  77 102 133 168 208 259 316
#     4   9  18  33  54  78 102 131 169 211 252 299
#     4   8  14  27  47  69  96 132 171 208 247 294
#
# _framework density 22.634941000000001
#
# number of rings (size 3 to 8) (size 9 to 14) (size 15 to 20)
#    0.000    3.143    0.000    1.714    0.000    5.143 
#    0.000    5.000    0.000    3.000    0.000    6.000 
#    0.000    0.000    0.000    0.000    0.000    0.000 
#
# Total GULP energy -311836.692098 kJ/mol
# GULP energy per Si atom -5568.512359 kJ/mol
# Density = 2.258342 g / cm^3
# Si number density = 22.634941 Si / 1000 Ang^3
#
#
#
# Elastic Constant Matrix: (Units=GPa)
#
#
# Indices 1 2 3 4 5 6 
#
# 1 164.8991 -0.4307 80.1176 0.0000 0.0000 0.0000
# 2 -0.4307 75.0307 0.3689 0.0000 0.0000 0.0000
# 3 80.1176 0.3689 180.4752 0.0000 0.0000 0.0000
# 4 0.0000 0.0000 0.0000 12.4620 0.0000 0.0000
# 5 0.0000 0.0000 0.0000 0.0000 8.8062 0.0000
# 6 0.0000 0.0000 0.0000 0.0000 0.0000 13.6290
#
#
#
# Elastic Compliance Matrix: (Units=1/GPa)
#
#
# Indices 1 2 3 4 5 6 
#
# 1 0.007732 0.000061 -0.003433 0.000000 0.000000 0.000000
# 2 0.000061 0.013328 -0.000054 0.000000 0.000000 0.000000
# 3 -0.003433 -0.000054 0.007065 0.000000 0.000000 0.000000
# 4 0.000000 0.000000 0.000000 0.080244 0.000000 0.000000
# 5 0.000000 0.000000 0.000000 0.000000 0.113556 0.000000
# 6 0.000000 0.000000 0.000000 0.000000 0.000000 0.073373
#
#
# Mechanical properties :
#
#
# Convention : Reuss Voigt Hill
#
# Bulk Modulus (GPa) = 47.00584 64.50184 55.75384
# Shear Modulus (GPa) = 16.16855 29.66938 22.91897
#
# Velocity S-wave (km/s) = 2.67557 3.62439 3.18551
# Velocity P-wave (km/s) = 5.50971 6.78774 6.18184
#
# Compressibility (1/GPa) = 0.02127395
#
# Stress axis : x y z
#
# Youngs Moduli (GPa) = 129.32806 75.02722 141.54492
#
# Poissons Ratio (x) = -0.00460 0.48588
# Poissons Ratio (y) = -0.00792 0.00771
# Poissons Ratio (z) = 0.44394 0.00408
#
# Static dielectric constant tensor:
#      x y z
#    x 1.893650 0.000000 0.000000 
#    y 0.000000 1.870210 0.000000 
#    z 0.000000 0.000000 1.844790 
# 
# From -- ./inp_files/7341.got.cif
#   From: 2010.05.17/outbox.cif.g08.bks.cpg/sg47_4_cif.got.tgz:7341.got - 2010.06.03 20:15:42.
