data_PCOD9388713
_publ_section_title
;
Structure prediction by ZEFSAII (Michael W. Deem and Ramdas Pophale) SiO2 
 PCOD9388713
Probable space group: P M M M
;
_chemical_formula_sum "Si O2"
_cell_formula_units_Z 28
_cell_length_a 23.451606
_cell_length_b 8.923981
_cell_length_c 7.745063
_cell_angle_alpha 90.000000
_cell_angle_beta 90.000000
_cell_angle_gamma 90.000000
_cell_volume 1620.899846
_symmetry_space_group_name_H-M "P M M M"
_symmetry_group_IT_number 47
_symmetry_cell_setting 'orthorhombic'
loop_
_space_group_symop_operation_xyz
x,y,z
-x,-y,z
x,-y,-z
-x,y,-z
-x,-y,-z
x,y,-z
-x,y,z
x,-y,z
loop_
_atom_site_type_symbol
_atom_site_label
_atom_site_fract_x
_atom_site_fract_y
_atom_site_fract_z
Si Si1 0.358593 0.678001 0.500000
Si Si2 0.567003 0.178873 0.201503
Si Si3 0.066634 0.820577 0.000000
Si Si4 0.766364 0.178609 0.500000
Si Si5 0.836960 0.324517 0.193803
O O1 0.352401 0.500000 0.500000
O O2 0.393721 0.732210 0.332777
O O3 0.296863 0.754252 0.500000
O O4 0.500000 0.210633 0.233083
O O5 0.575005 0.000000 0.227119
O O6 0.578885 0.211682 0.000000
O O7 0.100926 0.749513 0.161797
O O8 0.000000 0.784213 0.000000
O O9 0.073386 0.000000 0.000000
O O10 0.800297 0.238614 0.333444
O O11 0.764217 0.000000 0.500000
O O12 0.841965 0.500000 0.237331
O O13 0.810664 0.313816 0.000000
#
# Coordination Sequence:
#
# PCOD9388713 Si02
#       5
#     4   8   4   4   8
#     4  12  25  37  54  82 117 150 187 232 283 341
#     4   9  19  38  62  85 111 145 187 234 283 335
#     4   9  17  33  59  89 119 151 190 231 274 331
#     4  12  24  39  60  81 110 151 197 239 281 344
#     4   9  20  37  59  83 115 150 184 233 288 336
#
# _framework density 17.274353999999999
#
# number of rings (size 3 to 8) (size 9 to 14) (size 15 to 20)
#    0.857    1.286    0.000    4.714    0.000    5.143 
#    0.000    2.143    0.000    4.286    0.000    0.000 
#    0.000    0.000    0.000    0.000    0.000    0.000 
#
# Total GULP energy -156101.035742 kJ/mol
# GULP energy per Si atom -5575.036991 kJ/mol
# Density = 1.723504 g / cm^3
# Si number density = 17.274354 Si / 1000 Ang^3
#
#
#
# Elastic Constant Matrix: (Units=GPa)
#
#
# Indices 1 2 3 4 5 6 
#
# 1 143.1081 103.9320 90.2998 0.0000 0.0000 0.0000
# 2 103.9320 156.7256 87.7243 0.0000 0.0000 0.0000
# 3 90.2998 87.7243 100.2211 0.0000 0.0000 0.0000
# 4 0.0000 0.0000 0.0000 -169.3330 0.0000 0.0000
# 5 0.0000 0.0000 0.0000 0.0000 -45.9163 0.0000
# 6 0.0000 0.0000 0.0000 0.0000 0.0000 2367.6491
#
#
#
# Elastic Compliance Matrix: (Units=1/GPa)
#
#
# Indices 1 2 3 4 5 6 
#
# 1 0.018520 -0.005767 -0.011639 0.000000 0.000000 0.000000
# 2 -0.005767 0.014305 -0.007325 0.000000 0.000000 0.000000
# 3 -0.011639 -0.007325 0.026877 0.000000 0.000000 0.000000
# 4 0.000000 0.000000 0.000000 -0.005906 0.000000 0.000000
# 5 0.000000 0.000000 0.000000 0.000000 -0.021779 0.000000
# 6 0.000000 0.000000 0.000000 0.000000 0.000000 0.000422
#
#
# Mechanical properties :
#
#
# Convention : Reuss Voigt Hill
#
# Bulk Modulus (GPa) = 97.66121 107.10744 102.38433
# Shear Modulus (GPa) = 58.60670 438.35321 248.47996
#
# Velocity S-wave (km/s) = 5.83101 15.94711 12.00648
# Velocity P-wave (km/s) = 10.09912 20.03045 15.86208
#
# Compressibility (1/GPa) = 0.01023948
#
# Stress axis : x y z
#
# Youngs Moduli (GPa) = 53.99650 69.90531 37.20712
#
# Poissons Ratio (x) = 0.40312 0.43304
# Poissons Ratio (y) = 0.31138 0.27256
# Poissons Ratio (z) = 0.62845 0.51209
#
# Static dielectric constant tensor:
#      x y z
#    x 1.558900 0.000000 0.000000 
#    y 0.000000 1.571860 0.000000 
#    z 0.000000 0.000000 1.581830 
# 
# From -- ./inp_files/10285.got.cif
#   From: 2010.05.17/outbox.cif.g08.bks.cpg/sg47_6_cif.got.tgz:10285.got - 2010.06.03 20:15:42.
