data_PCOD9388188
_publ_section_title
;
Structure prediction by ZEFSAII (Michael W. Deem and Ramdas Pophale) SiO2 
 PCOD9388188
Probable space group: P M M M
;
_chemical_formula_sum "Si O2"
_cell_formula_units_Z 52
_cell_length_a 14.258122
_cell_length_b 9.086543
_cell_length_c 21.900081
_cell_angle_alpha 90.000000
_cell_angle_beta 90.000000
_cell_angle_gamma 90.000000
_cell_volume 2837.309641
_symmetry_space_group_name_H-M "P M M M"
_symmetry_group_IT_number 47
_symmetry_cell_setting 'orthorhombic'
loop_
_space_group_symop_operation_xyz
x,y,z
-x,-y,z
x,-y,-z
-x,y,-z
-x,-y,-z
x,y,-z
-x,y,z
x,-y,z
loop_
_atom_site_type_symbol
_atom_site_label
_atom_site_fract_x
_atom_site_fract_y
_atom_site_fract_z
Si Si1 0.204346 0.824418 0.610311
Si Si2 0.110277 0.664303 0.500000
Si Si3 0.108932 0.820733 0.261948
Si Si4 0.392637 0.676784 0.928447
Si Si5 0.606628 0.338345 0.251251
Si Si6 0.604214 0.668820 0.602077
Si Si7 0.738255 0.172526 0.169548
O O1 0.138772 0.752351 0.559987
O O2 0.168236 0.774664 0.677732
O O3 0.307927 0.771835 0.590341
O O4 0.199668 0.000000 0.609338
O O5 0.153070 0.500000 0.500000
O O6 0.000000 0.650237 0.500000
O O7 0.163402 0.775949 0.199822
O O8 0.000000 0.773550 0.265030
O O9 0.109369 0.000000 0.262261
O O10 0.500000 0.725072 0.912891
O O11 0.390694 0.500000 0.921819
O O12 0.311546 0.745970 0.886779
O O13 0.378239 0.711003 0.000000
O O14 0.500000 0.330598 0.228740
O O15 0.645185 0.500000 0.232827
O O16 0.602479 0.335474 0.324051
O O17 0.665919 0.206446 0.224505
O O18 0.500000 0.715413 0.581369
O O19 0.619507 0.500000 0.581265
O O20 0.744898 0.000000 0.156262
#
# Coordination Sequence:
#
# PCOD9388188 Si02
#       7
#     8   4   8   8   8   8   8
#     4  11  21  37  61  86 112 145 184 230 281 333
#     4  11  25  43  62  85 112 143 185 236 284 335
#     4   9  19  35  53  76 109 144 177 219 274 331
#     4   9  19  36  55  75 105 147 186 216 258 323
#     4   9  17  29  46  70 104 144 177 205 248 311
#     4   9  18  33  53  78 111 149 182 215 262 323
#     4  11  20  30  49  79 108 137 177 225 272 314
#
# _framework density 18.327221000000002
#
# number of rings (size 3 to 8) (size 9 to 14) (size 15 to 20)
#    0.000    2.231    1.538    3.462    0.000    4.308 
#    0.000    2.692    0.000    7.385    0.000    3.231 
#    0.000    0.000    0.000    0.000    0.000    0.000 
#
# Total GULP energy -289763.532485 kJ/mol
# GULP energy per Si atom -5572.375625 kJ/mol
# Density = 1.828551 g / cm^3
# Si number density = 18.327221 Si / 1000 Ang^3
#
#
#
# Elastic Constant Matrix: (Units=GPa)
#
#
# Indices 1 2 3 4 5 6 
#
# 1 121.7114 37.8397 40.5183 0.0000 0.0000 0.0000
# 2 37.8397 42.5896 24.5932 0.0000 0.0000 0.0000
# 3 40.5183 24.5932 86.4183 0.0000 0.0000 0.0000
# 4 0.0000 0.0000 0.0000 27.8611 0.0000 0.0000
# 5 0.0000 0.0000 0.0000 0.0000 25.1755 0.0000
# 6 0.0000 0.0000 0.0000 0.0000 0.0000 20.1701
#
#
#
# Elastic Compliance Matrix: (Units=1/GPa)
#
#
# Indices 1 2 3 4 5 6 
#
# 1 0.012010 -0.008878 -0.003104 0.000000 0.000000 0.000000
# 2 -0.008878 0.034660 -0.005701 0.000000 0.000000 0.000000
# 3 -0.003104 -0.005701 0.014650 0.000000 0.000000 0.000000
# 4 0.000000 0.000000 0.000000 0.035892 0.000000 0.000000
# 5 0.000000 0.000000 0.000000 0.000000 0.039721 0.000000
# 6 0.000000 0.000000 0.000000 0.000000 0.000000 0.049578
#
#
# Mechanical properties :
#
#
# Convention : Reuss Voigt Hill
#
# Bulk Modulus (GPa) = 38.53203 50.73572 44.63388
# Shear Modulus (GPa) = 21.68936 24.49255 23.09095
#
# Velocity S-wave (km/s) = 3.44386 3.65965 3.55340
# Velocity P-wave (km/s) = 6.07320 6.75283 6.42201
#
# Compressibility (1/GPa) = 0.02595243
#
# Stress axis : x y z
#
# Youngs Moduli (GPa) = 83.26623 28.85208 68.26111
#
# Poissons Ratio (x) = 0.25614 0.21191
# Poissons Ratio (y) = 0.73921 0.38917
# Poissons Ratio (z) = 0.25850 0.16449
#
# Static dielectric constant tensor:
#      x y z
#    x 1.657410 0.000000 0.000000 
#    y 0.000000 1.634760 0.000000 
#    z 0.000000 0.000000 1.657520 
# 
# From -- ./inp_files/30868.got.cif
#   From: 2010.05.17/outbox.cif.g08.bks.cpg/sg47_16_cif.got.tgz:30868.got - 2010.06.03 20:15:42.
