data_PCOD9388743
_publ_section_title
;
Structure prediction by ZEFSAII (Michael W. Deem and Ramdas Pophale) SiO2 
 PCOD9388743
Probable space group: P M M M
;
_chemical_formula_sum "Si O2"
_cell_formula_units_Z 52
_cell_length_a 19.416789
_cell_length_b 7.430417
_cell_length_c 19.577107
_cell_angle_alpha 90.000000
_cell_angle_beta 90.000000
_cell_angle_gamma 90.000000
_cell_volume 2824.483962
_symmetry_space_group_name_H-M "P M M M"
_symmetry_group_IT_number 47
_symmetry_cell_setting 'orthorhombic'
loop_
_space_group_symop_operation_xyz
x,y,z
-x,-y,z
x,-y,-z
-x,y,-z
-x,-y,-z
x,y,-z
-x,y,z
x,-y,z
loop_
_atom_site_type_symbol
_atom_site_label
_atom_site_fract_x
_atom_site_fract_y
_atom_site_fract_z
Si Si1 0.921605 0.217799 0.651379
Si Si2 0.211244 0.711268 0.574424
Si Si3 0.421541 0.279633 0.349345
Si Si4 0.416258 0.705676 0.500000
Si Si5 0.079950 0.780649 0.076444
Si Si6 0.153402 0.788156 0.788915
Si Si7 0.284849 0.716881 0.711292
O O1 0.869574 0.272278 0.591565
O O2 0.888277 0.283849 0.722995
O O3 0.000000 0.278427 0.643765
O O4 0.921839 0.000000 0.652906
O O5 0.228035 0.787571 0.500000
O O6 0.228605 0.500000 0.572374
O O7 0.249340 0.785356 0.641161
O O8 0.500000 0.222095 0.336475
O O9 0.422724 0.500000 0.352535
O O10 0.398881 0.217878 0.425678
O O11 0.364212 0.226320 0.294447
O O12 0.390253 0.500000 0.500000
O O13 0.500000 0.700237 0.500000
O O14 0.126798 0.716074 0.138946
O O15 0.000000 0.731908 0.088588
O O16 0.082273 0.000000 0.075315
O O17 0.099433 0.720711 0.000000
O O18 0.234164 0.768883 0.772343
O O19 0.137993 0.000000 0.790134
O O20 0.284003 0.500000 0.710178
#
# Coordination Sequence:
#
# PCOD9388743 Si02
#       7
#     8   8   8   4   8   8   8
#     4   9  17  28  41  55  70  93 127 162 193 225
#     4   9  18  29  38  51  72  97 125 159 199 236
#     4   8  13  21  35  56  78  98 125 163 202 236
#     4   7  10  16  28  50  75  93 114 153 202 238
#     4   8  13  22  40  66  88 104 128 163 196 224
#     4   9  16  27  42  59  81 105 128 154 188 231
#     4   9  17  27  40  57  78 104 131 159 193 234
#
# _framework density 18.410443000000001
#
# number of rings (size 3 to 8) (size 9 to 14) (size 15 to 20)
#    0.000    3.462    0.000    1.846    1.077    2.769 
#    0.000    1.538    0.000    2.308    0.000    1.077 
#    0.000    2.462    0.000    7.692    0.000    0.000 
#
# Total GULP energy -289762.377375 kJ/mol
# GULP energy per Si atom -5572.353411 kJ/mol
# Density = 1.836854 g / cm^3
# Si number density = 18.410443 Si / 1000 Ang^3
#
#
#
# Elastic Constant Matrix: (Units=GPa)
#
#
# Indices 1 2 3 4 5 6 
#
# 1 88.7368 -8.5381 43.6883 0.0000 0.0000 0.0000
# 2 -8.5381 55.5944 2.4312 0.0000 0.0000 0.0000
# 3 43.6883 2.4312 107.8948 0.0000 0.0000 0.0000
# 4 0.0000 0.0000 0.0000 5.0307 0.0000 0.0000
# 5 0.0000 0.0000 0.0000 0.0000 27.9498 0.0000
# 6 0.0000 0.0000 0.0000 0.0000 0.0000 12.2452
#
#
#
# Elastic Compliance Matrix: (Units=1/GPa)
#
#
# Indices 1 2 3 4 5 6 
#
# 1 0.014406 0.002470 -0.005889 0.000000 0.000000 0.000000
# 2 0.002470 0.018429 -0.001415 0.000000 0.000000 0.000000
# 3 -0.005889 -0.001415 0.011685 0.000000 0.000000 0.000000
# 4 0.000000 0.000000 0.000000 0.198779 0.000000 0.000000
# 5 0.000000 0.000000 0.000000 0.000000 0.035778 0.000000
# 6 0.000000 0.000000 0.000000 0.000000 0.000000 0.081665
#
#
# Mechanical properties :
#
#
# Convention : Reuss Voigt Hill
#
# Bulk Modulus (GPa) = 28.69363 36.37653 32.53508
# Shear Modulus (GPa) = 13.08808 23.35480 18.22144
#
# Velocity S-wave (km/s) = 2.66917 3.56555 3.14942
# Velocity P-wave (km/s) = 5.01185 6.06238 5.56197
#
# Compressibility (1/GPa) = 0.03485094
#
# Stress axis : x y z
#
# Youngs Moduli (GPa) = 69.41410 54.26331 85.58189
#
# Poissons Ratio (x) = -0.13403 0.50399
# Poissons Ratio (y) = -0.17145 0.12113
# Poissons Ratio (z) = 0.40878 0.07680
#
# Static dielectric constant tensor:
#      x y z
#    x 1.658090 0.000000 0.000000 
#    y 0.000000 1.735160 0.000000 
#    z 0.000000 0.000000 1.630180 
# 
# From -- ./inp_files/11474.got.cif
#   From: 2010.05.17/outbox.cif.g08.bks.cpg/sg47_6_cif.got.tgz:11474.got - 2010.06.03 20:15:42.
