data_PCOD9388108
_publ_section_title
;
Structure prediction by ZEFSAII (Michael W. Deem and Ramdas Pophale) SiO2 
 PCOD9388108
Probable space group: P M M M
;
_chemical_formula_sum "Si O2"
_cell_formula_units_Z 32
_cell_length_a 10.692455
_cell_length_b 9.983609
_cell_length_c 14.063949
_cell_angle_alpha 90.000000
_cell_angle_beta 90.000000
_cell_angle_gamma 90.000000
_cell_volume 1501.316570
_symmetry_space_group_name_H-M "P M M M"
_symmetry_group_IT_number 47
_symmetry_cell_setting 'orthorhombic'
loop_
_space_group_symop_operation_xyz
x,y,z
-x,-y,z
x,-y,-z
-x,y,-z
-x,-y,-z
x,y,-z
-x,y,z
x,-y,z
loop_
_atom_site_type_symbol
_atom_site_label
_atom_site_fract_x
_atom_site_fract_y
_atom_site_fract_z
Si Si1 0.646552 0.500000 0.885501
Si Si2 0.352285 0.351373 0.390952
Si Si3 0.855559 0.276072 0.888575
Si Si4 0.798567 0.848590 0.702811
Si Si5 0.000000 0.347389 0.386831
O O1 0.500000 0.500000 0.848485
O O2 0.740684 0.376314 0.864513
O O3 0.633723 0.500000 0.000000
O O4 0.306327 0.330741 0.500000
O O5 0.500000 0.364095 0.397156
O O6 0.304673 0.500000 0.358802
O O7 0.329672 0.223653 0.324079
O O8 0.835553 0.158648 0.813091
O O9 0.000000 0.327768 0.875726
O O10 0.845244 0.241505 0.000000
O O11 0.885844 0.740243 0.650764
O O12 0.809816 0.000000 0.668045
O O13 0.000000 0.500000 0.351211
O O14 0.000000 0.351681 0.500000
#
# Coordination Sequence:
#
# PCOD9388108 Si02
#       5
#     4   8   8   8   4
#     4   9  19  37  63  95 125 160 216 281 334 377
#     4   9  20  41  67  93 124 167 219 271 324 390
#     4  10  22  40  63  91 129 175 222 269 324 392
#     4  12  25  39  61  94 129 167 211 267 330 388
#     4  11  25  43  64  89 120 162 208 260 322 387
#
# _framework density 21.314623999999998
#
# number of rings (size 3 to 8) (size 9 to 14) (size 15 to 20)
#    0.000    1.750    1.250    3.000    3.500    8.000 
#    0.000    2.500    0.000    0.000    0.000    5.250 
#    0.000    0.000    0.000    0.000    0.000    0.000 
#
# Total GULP energy -178241.876333 kJ/mol
# GULP energy per Si atom -5570.058635 kJ/mol
# Density = 2.126611 g / cm^3
# Si number density = 21.314624 Si / 1000 Ang^3
#
#
#
# Elastic Constant Matrix: (Units=GPa)
#
#
# Indices 1 2 3 4 5 6 
#
# 1 120.8039 44.0085 19.0155 0.0000 0.0000 0.0000
# 2 44.0085 173.6971 54.7136 0.0000 0.0000 0.0000
# 3 19.0155 54.7136 91.8103 0.0000 0.0000 0.0000
# 4 0.0000 0.0000 0.0000 9.3122 0.0000 0.0000
# 5 0.0000 0.0000 0.0000 0.0000 13.4822 0.0000
# 6 0.0000 0.0000 0.0000 0.0000 0.0000 39.2197
#
#
#
# Elastic Compliance Matrix: (Units=1/GPa)
#
#
# Indices 1 2 3 4 5 6 
#
# 1 0.009149 -0.002119 -0.000632 0.000000 0.000000 0.000000
# 2 -0.002119 0.007578 -0.004077 0.000000 0.000000 0.000000
# 3 -0.000632 -0.004077 0.013453 0.000000 0.000000 0.000000
# 4 0.000000 0.000000 0.000000 0.107386 0.000000 0.000000
# 5 0.000000 0.000000 0.000000 0.000000 0.074172 0.000000
# 6 0.000000 0.000000 0.000000 0.000000 0.000000 0.025497
#
#
# Mechanical properties :
#
#
# Convention : Reuss Voigt Hill
#
# Bulk Modulus (GPa) = 60.52012 69.08739 64.80376
# Shear Modulus (GPa) = 19.50073 30.30774 24.90423
#
# Velocity S-wave (km/s) = 3.02801 3.77493 3.42191
# Velocity P-wave (km/s) = 6.37813 7.17521 6.78838
#
# Compressibility (1/GPa) = 0.01652343
#
# Stress axis : x y z
#
# Youngs Moduli (GPa) = 109.29770 131.95446 74.33366
#
# Poissons Ratio (x) = 0.27961 0.04699
# Poissons Ratio (y) = 0.23160 0.30309
# Poissons Ratio (z) = 0.06910 0.53803
#
# Static dielectric constant tensor:
#      x y z
#    x 2.199570 0.000000 0.000000 
#    y 0.000000 1.748510 0.000000 
#    z 0.000000 0.000000 1.797450 
# 
# From -- ./inp_files/22358.got.cif
#   From: 2010.05.17/outbox.cif.g08.bks.cpg/sg47_12_cif.got.tgz:22358.got - 2010.06.03 20:15:42.
