data_PCOD9388665
_publ_section_title
;
Structure prediction by ZEFSAII (Michael W. Deem and Ramdas Pophale) SiO2 
 PCOD9388665
Probable space group: P M M M
;
_chemical_formula_sum "Si O2"
_cell_formula_units_Z 48
_cell_length_a 14.625758
_cell_length_b 10.105671
_cell_length_c 16.909977
_cell_angle_alpha 90.000000
_cell_angle_beta 90.000000
_cell_angle_gamma 90.000000
_cell_volume 2499.346996
_symmetry_space_group_name_H-M "P M M M"
_symmetry_group_IT_number 47
_symmetry_cell_setting 'orthorhombic'
loop_
_space_group_symop_operation_xyz
x,y,z
-x,-y,z
x,-y,-z
-x,y,-z
-x,-y,-z
x,y,-z
-x,y,z
x,-y,z
loop_
_atom_site_type_symbol
_atom_site_label
_atom_site_fract_x
_atom_site_fract_y
_atom_site_fract_z
Si Si1 0.290690 0.755561 0.663858
Si Si2 0.105165 0.658393 0.594554
Si Si3 0.144359 0.856601 0.093241
Si Si4 0.396803 0.000000 0.593138
Si Si5 0.340893 0.155507 0.839691
Si Si6 0.000000 0.648812 0.903026
Si Si7 0.500000 0.343361 0.904644
Si Si8 0.609851 0.500000 0.405596
O O1 0.184816 0.733447 0.641307
O O2 0.338741 0.873777 0.617307
O O3 0.306957 0.793529 0.754671
O O4 0.345283 0.625810 0.636295
O O5 0.117154 0.680429 0.500000
O O6 0.115438 0.500000 0.607452
O O7 0.000000 0.693869 0.614767
O O8 0.251656 0.841871 0.105403
O O9 0.087323 0.733062 0.123996
O O10 0.117322 0.000000 0.127666
O O11 0.124571 0.861735 0.000000
O O12 0.500000 0.000000 0.628754
O O13 0.406961 0.000000 0.500000
O O14 0.414641 0.258712 0.872160
O O15 0.371707 0.000000 0.834969
O O16 0.000000 0.500000 0.873223
O O17 0.000000 0.641788 0.000000
O O18 0.500000 0.500000 0.881070
O O19 0.500000 0.340052 0.000000
O O20 0.500000 0.500000 0.397476
O O21 0.631052 0.500000 0.500000
#
# Coordination Sequence:
#
# PCOD9388665 Si02
#       8
#     8   8   8   4   8   4   4   4
#     4  12  23  39  63  93 129 169 216 272 326 386
#     4   9  18  36  63  91 121 165 221 276 331 397
#     4   9  18  36  61  85 112 157 211 249 293 371
#     4  11  24  40  61  89 129 173 211 260 319 381
#     4  11  25  42  64  92 130 174 209 257 319 377
#     4   9  17  31  55  89 121 149 188 251 316 367
#     4  11  27  47  71 101 130 167 216 265 314 377
#     4  11  24  40  63  93 125 167 219 266 317 387
#
# _framework density 19.205017000000002
#
# number of rings (size 3 to 8) (size 9 to 14) (size 15 to 20)
#    0.000    1.667    1.667    3.500    3.500    4.333 
#    1.500    2.083    0.000    1.500    0.000    0.000 
#    0.000    0.000    0.000    0.000    0.000    0.000 
#
# Total GULP energy -267882.395212 kJ/mol
# GULP energy per Si atom -5580.883234 kJ/mol
# Density = 1.916131 g / cm^3
# Si number density = 19.205017 Si / 1000 Ang^3
#
#
#
# Elastic Constant Matrix: (Units=GPa)
#
#
# Indices 1 2 3 4 5 6 
#
# 1 147.1794 92.3707 32.5511 0.0000 0.0000 0.0000
# 2 92.3707 192.0615 34.0529 0.0000 0.0000 0.0000
# 3 32.5511 34.0529 46.3742 0.0000 0.0000 0.0000
# 4 0.0000 0.0000 0.0000 42.6196 0.0000 0.0000
# 5 0.0000 0.0000 0.0000 0.0000 14.3854 0.0000
# 6 0.0000 0.0000 0.0000 0.0000 0.0000 -40.3464
#
#
#
# Elastic Compliance Matrix: (Units=1/GPa)
#
#
# Indices 1 2 3 4 5 6 
#
# 1 0.010388 -0.004257 -0.004165 0.000000 0.000000 0.000000
# 2 -0.004257 0.007731 -0.002689 0.000000 0.000000 0.000000
# 3 -0.004165 -0.002689 0.026461 0.000000 0.000000 0.000000
# 4 0.000000 0.000000 0.000000 0.023463 0.000000 0.000000
# 5 0.000000 0.000000 0.000000 0.000000 0.069515 0.000000
# 6 0.000000 0.000000 0.000000 0.000000 0.000000 -0.024785
#
#
# Mechanical properties :
#
#
# Convention : Reuss Voigt Hill
#
# Bulk Modulus (GPa) = 44.72660 78.17383 61.45021
# Shear Modulus (GPa) = 35.10068 18.44108 26.77088
#
# Velocity S-wave (km/s) = 4.27978 3.10211 3.73762
# Velocity P-wave (km/s) = 6.91098 7.32284 7.11989
#
# Compressibility (1/GPa) = 0.02235806
#
# Stress axis : x y z
#
# Youngs Moduli (GPa) = 96.26920 129.35128 37.79079
#
# Poissons Ratio (x) = 0.55069 0.15740
# Poissons Ratio (y) = 0.40985 0.10160
# Poissons Ratio (z) = 0.40097 0.34776
#
# Static dielectric constant tensor:
#      x y z
#    x 1.672250 0.000000 0.000000 
#    y 0.000000 1.539990 0.000000 
#    z 0.000000 0.000000 1.655790 
# 
# From -- ./inp_files/28086.got.cif
#   From: 2010.05.17/outbox.cif.g08.bks.cpg/sg47_15_cif.got.tgz:28086.got - 2010.06.03 20:15:42.
