data_PCOD9388714
_publ_section_title
;
Structure prediction by ZEFSAII (Michael W. Deem and Ramdas Pophale) SiO2 
 PCOD9388714
Probable space group: P M M M
;
_chemical_formula_sum "Si O2"
_cell_formula_units_Z 37
_cell_length_a 23.878282
_cell_length_b 10.029683
_cell_length_c 7.572336
_cell_angle_alpha 90.000000
_cell_angle_beta 90.000000
_cell_angle_gamma 90.000000
_cell_volume 1813.510857
_symmetry_space_group_name_H-M "P M M M"
_symmetry_group_IT_number 47
_symmetry_cell_setting 'orthorhombic'
loop_
_space_group_symop_operation_xyz
x,y,z
-x,-y,z
x,-y,-z
-x,y,-z
-x,-y,-z
x,y,-z
-x,y,z
x,-y,z
loop_
_atom_site_type_symbol
_atom_site_label
_atom_site_fract_x
_atom_site_fract_y
_atom_site_fract_z
Si Si1 0.000000 0.713755 0.311524
Si Si2 0.000000 0.500000 0.000000
Si Si3 0.337562 0.345967 0.783985
Si Si4 0.886781 0.840500 0.202104
Si Si5 0.564256 0.848936 0.215309
Si Si6 0.763562 0.154311 0.216161
O O1 0.057004 0.798012 0.297096
O O2 0.000000 0.646527 0.500000
O O3 0.000000 0.613829 0.152348
O O4 0.336177 0.500000 0.726494
O O5 0.392635 0.264154 0.726962
O O6 0.284178 0.257399 0.729318
O O7 0.337608 0.347486 0.000000
O O8 0.825730 0.801282 0.274595
O O9 0.884796 0.000000 0.196233
O O10 0.890441 0.790175 0.000000
O O11 0.500000 0.826004 0.270213
O O12 0.580691 0.000000 0.268543
O O13 0.564732 0.848493 0.000000
O O14 0.752907 0.000000 0.269833
O O15 0.764698 0.152593 0.000000
#
# Coordination Sequence:
#
# PCOD9388714 Si02
#       6
#     4   1   8   8   8   8
#     4  12  24  40  62  87 113 150 194 232 281 337
#     4  12  26  48  58  78 120 164 190 230 270 338
#     4   9  15  21  29  48  73 102 148 202 255 316
#     4   9  17  33  56  81 107 136 173 227 292 340
#     4   8  13  20  29  40  59  94 140 194 260 326
#     4   8  14  25  41  60  85 119 158 202 258 324
#
# _framework density 20.402415000000001
#
# number of rings (size 3 to 8) (size 9 to 14) (size 15 to 20)
#    0.000    3.027    1.081    3.081    0.000    4.757 
#    1.946    2.162    0.000    0.000    0.000    0.000 
#    0.000    0.000    0.000    0.000    0.000    1.081 
#
# Total GULP energy -206057.128572 kJ/mol
# GULP energy per Si atom -5569.111583 kJ/mol
# Density = 2.035598 g / cm^3
# Si number density = 20.402415 Si / 1000 Ang^3
#
#
#
# Elastic Constant Matrix: (Units=GPa)
#
#
# Indices 1 2 3 4 5 6 
#
# 1 189.6636 119.5468 16.1588 0.0000 0.0000 0.0000
# 2 119.5468 136.9854 12.7046 0.0000 0.0000 0.0000
# 3 16.1588 12.7046 69.6662 0.0000 0.0000 0.0000
# 4 0.0000 0.0000 0.0000 24.2330 0.0000 0.0000
# 5 0.0000 0.0000 0.0000 0.0000 -45.9569 0.0000
# 6 0.0000 0.0000 0.0000 0.0000 0.0000 2.8981
#
#
#
# Elastic Compliance Matrix: (Units=1/GPa)
#
#
# Indices 1 2 3 4 5 6 
#
# 1 0.011770 -0.010191 -0.000872 0.000000 0.000000 0.000000
# 2 -0.010191 0.016249 -0.000600 0.000000 0.000000 0.000000
# 3 -0.000872 -0.000600 0.014666 0.000000 0.000000 0.000000
# 4 0.000000 0.000000 0.000000 0.041266 0.000000 0.000000
# 5 0.000000 0.000000 0.000000 0.000000 -0.021760 0.000000
# 6 0.000000 0.000000 0.000000 0.000000 0.000000 0.345057
#
#
# Mechanical properties :
#
#
# Convention : Reuss Voigt Hill
#
# Bulk Modulus (GPa) = 51.65032 77.01507 64.33270
# Shear Modulus (GPa) = 11.44094 12.76183 12.10138
#
# Velocity S-wave (km/s) = 2.37061 2.50372 2.43808
# Velocity P-wave (km/s) = 5.73270 6.79619 6.28697
#
# Compressibility (1/GPa) = 0.01936096
#
# Stress axis : x y z
#
# Youngs Moduli (GPa) = 84.95980 61.54090 68.18650
#
# Poissons Ratio (x) = 0.62717 0.05943
# Poissons Ratio (y) = 0.86583 0.04088
# Poissons Ratio (z) = 0.07405 0.03690
#
# Static dielectric constant tensor:
#      x y z
#    x 1.749050 0.000000 0.000000 
#    y 0.000000 1.669730 0.000000 
#    z 0.000000 0.000000 1.741600 
# 
# From -- ./inp_files/12122.got.cif
#   From: 2010.05.17/outbox.cif.g08.bks.cpg/sg47_7_cif.got.tgz:12122.got - 2010.06.03 20:15:42.
