data_PCOD9388210
_publ_section_title
;
Structure prediction by ZEFSAII (Michael W. Deem and Ramdas Pophale) SiO2 
 PCOD9388210
Probable space group: P M M M
;
_chemical_formula_sum "Si O2"
_cell_formula_units_Z 52
_cell_length_a 12.064361
_cell_length_b 8.707641
_cell_length_c 28.957257
_cell_angle_alpha 90.000000
_cell_angle_beta 90.000000
_cell_angle_gamma 90.000000
_cell_volume 3042.021367
_symmetry_space_group_name_H-M "P M M M"
_symmetry_group_IT_number 47
_symmetry_cell_setting 'orthorhombic'
loop_
_space_group_symop_operation_xyz
x,y,z
-x,-y,z
x,-y,-z
-x,y,-z
-x,-y,-z
x,y,-z
-x,y,z
x,-y,z
loop_
_atom_site_type_symbol
_atom_site_label
_atom_site_fract_x
_atom_site_fract_y
_atom_site_fract_z
Si Si1 0.500000 0.322397 0.299433
Si Si2 0.500000 0.678846 0.188479
Si Si3 0.371845 0.186892 0.948019
Si Si4 0.261869 0.182418 0.312166
Si Si5 0.723689 0.815858 0.853298
Si Si6 0.131479 0.314388 0.398907
Si Si7 0.865748 0.319211 0.500000
Si Si8 0.871293 0.684028 0.775105
O O1 0.500000 0.500000 0.314148
O O2 0.500000 0.318377 0.243749
O O3 0.387477 0.241788 0.315038
O O4 0.500000 0.500000 0.173747
O O5 0.390934 0.763498 0.170432
O O6 0.500000 0.233656 0.938587
O O7 0.291242 0.234430 0.906651
O O8 0.372467 0.000000 0.948024
O O9 0.342878 0.236996 0.000000
O O10 0.196039 0.238987 0.357078
O O11 0.202370 0.250424 0.266642
O O12 0.260160 0.000000 0.308768
O O13 0.821547 0.742960 0.823417
O O14 0.732925 0.000000 0.851622
O O15 0.144390 0.500000 0.397093
O O16 0.169515 0.258142 0.449926
O O17 0.000000 0.283565 0.394453
O O18 0.837329 0.500000 0.500000
O O19 0.000000 0.311348 0.500000
O O20 0.863695 0.500000 0.773718
O O21 0.000000 0.728526 0.769509
#
# Coordination Sequence:
#
# PCOD9388210 Si02
#       8
#     4   4   8   8   8   8   4   8
#     4  11  23  39  57  75 102 142 181 212 255 314
#     4  11  21  33  52  76 105 140 175 208 255 315
#     4   8  14  26  46  75 108 136 164 203 255 310
#     4  12  24  36  54  80 110 139 173 218 265 310
#     4  11  20  32  55  81 105 134 172 217 262 304
#     4   9  17  32  55  81 110 144 181 219 260 308
#     4   7  12  26  51  80 105 136 181 223 255 299
#     4  11  24  40  55  73 102 141 179 213 257 312
#
# _framework density 17.093896999999998
#
# number of rings (size 3 to 8) (size 9 to 14) (size 15 to 20)
#    0.000    1.923    2.308    4.615    0.000    4.000 
#    0.000    0.385    0.000    4.615    0.000    6.462 
#    0.000    0.000    0.000    0.000    0.000    0.000 
#
# Total GULP energy -290088.346778 kJ/mol
# GULP energy per Si atom -5578.622053 kJ/mol
# Density = 1.705499 g / cm^3
# Si number density = 17.093897 Si / 1000 Ang^3
#
#
#
# Elastic Constant Matrix: (Units=GPa)
#
#
# Indices 1 2 3 4 5 6 
#
# 1 93.1136 45.8659 53.1959 0.0000 0.0000 0.0000
# 2 45.8659 55.9493 40.2210 0.0000 0.0000 0.0000
# 3 53.1959 40.2210 137.2089 0.0000 0.0000 0.0000
# 4 0.0000 0.0000 0.0000 20.9584 0.0000 0.0000
# 5 0.0000 0.0000 0.0000 0.0000 13.1399 0.0000
# 6 0.0000 0.0000 0.0000 0.0000 0.0000 35.0115
#
#
#
# Elastic Compliance Matrix: (Units=1/GPa)
#
#
# Indices 1 2 3 4 5 6 
#
# 1 0.019328 -0.013250 -0.003610 0.000000 0.000000 0.000000
# 2 -0.013250 0.031729 -0.004164 0.000000 0.000000 0.000000
# 3 -0.003610 -0.004164 0.009908 0.000000 0.000000 0.000000
# 4 0.000000 0.000000 0.000000 0.047713 0.000000 0.000000
# 5 0.000000 0.000000 0.000000 0.000000 0.076104 0.000000
# 6 0.000000 0.000000 0.000000 0.000000 0.000000 0.028562
#
#
# Mechanical properties :
#
#
# Convention : Reuss Voigt Hill
#
# Bulk Modulus (GPa) = 52.85862 62.75971 57.80917
# Shear Modulus (GPa) = 19.10597 23.62123 21.36360
#
# Velocity S-wave (km/s) = 3.34684 3.72136 3.53906
# Velocity P-wave (km/s) = 6.77678 7.43365 7.11280
#
# Compressibility (1/GPa) = 0.01891839
#
# Stress axis : x y z
#
# Youngs Moduli (GPa) = 51.73719 31.51713 100.92717
#
# Poissons Ratio (x) = 0.41761 0.36430
# Poissons Ratio (y) = 0.68553 0.42024
# Poissons Ratio (z) = 0.18675 0.13123
#
# Static dielectric constant tensor:
#      x y z
#    x 1.555440 0.000000 0.000000 
#    y 0.000000 1.583060 0.000000 
#    z 0.000000 0.000000 1.603920 
# 
# From -- ./inp_files/33648.got.cif
#   From: 2010.05.17/outbox.cif.g08.bks.cpg/sg47_17_cif.got.tgz:33648.got - 2010.06.03 20:15:42.
