data_PCOD9388464
_publ_section_title
;
Structure prediction by ZEFSAII (Michael W. Deem and Ramdas Pophale) SiO2 
 PCOD9388464
Probable space group: P M M M
;
_chemical_formula_sum "Si O2"
_cell_formula_units_Z 37
_cell_length_a 7.526115
_cell_length_b 20.355377
_cell_length_c 10.873586
_cell_angle_alpha 90.000000
_cell_angle_beta 90.000000
_cell_angle_gamma 90.000000
_cell_volume 1665.799756
_symmetry_space_group_name_H-M "P M M M"
_symmetry_group_IT_number 47
_symmetry_cell_setting 'orthorhombic'
loop_
_space_group_symop_operation_xyz
x,y,z
-x,-y,z
x,-y,-z
-x,y,-z
-x,-y,-z
x,y,-z
-x,y,z
x,-y,z
loop_
_atom_site_type_symbol
_atom_site_label
_atom_site_fract_x
_atom_site_fract_y
_atom_site_fract_z
Si Si1 0.192504 0.614629 0.500000
Si Si2 0.283782 0.076364 0.362675
Si Si3 0.302258 0.303149 0.271038
Si Si4 0.500000 0.500000 0.500000
Si Si5 0.792742 0.569839 0.853779
Si Si6 0.717463 0.828991 0.858307
O O1 0.206779 0.664467 0.614197
O O2 0.344768 0.559311 0.500000
O O3 0.000000 0.582340 0.500000
O O4 0.228125 0.099917 0.500000
O O5 0.500000 0.078286 0.362523
O O6 0.225755 0.118020 0.244388
O O7 0.231786 0.000000 0.351477
O O8 0.500000 0.283478 0.312327
O O9 0.309382 0.365813 0.182536
O O10 0.226643 0.241656 0.196585
O O11 0.723910 0.500000 0.802301
O O12 0.000000 0.575786 0.817320
O O13 0.789373 0.565617 0.000000
O O14 0.500000 0.829616 0.862227
O O15 0.775876 0.838907 0.000000
#
# Coordination Sequence:
#
# PCOD9388464 Si02
#       6
#     4   8   8   1   8   8
#     4  12  27  45  67  94 126 164 211 272 327 395
#     4   8  14  25  43  70 107 158 217 272 330 393
#     4  11  22  37  55  81 117 156 208 256 317 393
#     4  12  26  52  68  98 126 164 224 264 346 390
#     4   9  19  35  54  76 103 142 193 248 308 370
#     4   9  18  30  48  76 115 164 213 268 329 389
#
# _framework density 22.211554
#
# number of rings (size 3 to 8) (size 9 to 14) (size 15 to 20)
#    0.000    2.378    1.081    2.757    3.027    2.162 
#    0.000    3.243    0.000    0.000    0.000    0.000 
#    0.000    4.324    0.000   10.595    0.000   11.243 
#
# Total GULP energy -206155.372509 kJ/mol
# GULP energy per Si atom -5571.766825 kJ/mol
# Density = 2.216100 g / cm^3
# Si number density = 22.211554 Si / 1000 Ang^3
#
#
#
# Elastic Constant Matrix: (Units=GPa)
#
#
# Indices 1 2 3 4 5 6 
#
# 1 89.1432 15.8398 24.0112 0.0000 0.0000 0.0000
# 2 15.8398 144.4902 103.2230 0.0000 0.0000 0.0000
# 3 24.0112 103.2230 186.1903 0.0000 0.0000 0.0000
# 4 0.0000 0.0000 0.0000 31.1173 0.0000 0.0000
# 5 0.0000 0.0000 0.0000 0.0000 8.1195 0.0000
# 6 0.0000 0.0000 0.0000 0.0000 0.0000 -4.3491
#
#
#
# Elastic Compliance Matrix: (Units=1/GPa)
#
#
# Indices 1 2 3 4 5 6 
#
# 1 0.011631 -0.000337 -0.001313 0.000000 0.000000 0.000000
# 2 -0.000337 0.011469 -0.006315 0.000000 0.000000 0.000000
# 3 -0.001313 -0.006315 0.009041 0.000000 0.000000 0.000000
# 4 0.000000 0.000000 0.000000 0.032136 0.000000 0.000000
# 5 0.000000 0.000000 0.000000 0.000000 0.123160 0.000000
# 6 0.000000 0.000000 0.000000 0.000000 0.000000 -0.229934
#
#
# Mechanical properties :
#
#
# Convention : Reuss Voigt Hill
#
# Bulk Modulus (GPa) = 61.68436 78.44132 70.06284
# Shear Modulus (GPa) = -236.28190 25.42754 -105.42718
#
# Velocity S-wave (km/s) = -10.32516 3.38714 -6.89696
# Velocity P-wave (km/s) = 10.69175 7.11964 5.64023
#
# Compressibility (1/GPa) = 0.01621156
#
# Stress axis : x y z
#
# Youngs Moduli (GPa) = 85.97347 87.18962 110.60445
#
# Poissons Ratio (x) = 0.02938 0.14524
# Poissons Ratio (y) = 0.02897 0.69847
# Poissons Ratio (z) = 0.11290 0.55061
#
# Static dielectric constant tensor:
#      x y z
#    x 1.894440 0.000000 0.000000 
#    y 0.000000 1.778480 0.000000 
#    z 0.000000 0.000000 3.887210 
# 
# From -- ./inp_files/14891.got.cif
#   From: 2010.05.17/outbox.cif.g08.bks.cpg/sg47_8_cif.got.tgz:14891.got - 2010.06.03 20:15:42.
