data_PCOD9388593
_publ_section_title
;
Structure prediction by ZEFSAII (Michael W. Deem and Ramdas Pophale) SiO2 
 PCOD9388593
Probable space group: P M M M
;
_chemical_formula_sum "Si O2"
_cell_formula_units_Z 48
_cell_length_a 33.300802
_cell_length_b 8.217717
_cell_length_c 9.710791
_cell_angle_alpha 90.000000
_cell_angle_beta 90.000000
_cell_angle_gamma 90.000000
_cell_volume 2657.421725
_symmetry_space_group_name_H-M "P M M M"
_symmetry_group_IT_number 47
_symmetry_cell_setting 'orthorhombic'
loop_
_space_group_symop_operation_xyz
x,y,z
-x,-y,z
x,-y,-z
-x,y,-z
-x,-y,-z
x,y,-z
-x,y,z
x,-y,z
loop_
_atom_site_type_symbol
_atom_site_label
_atom_site_fract_x
_atom_site_fract_y
_atom_site_fract_z
Si Si1 0.402154 0.187244 0.832576
Si Si2 0.546510 0.500000 0.831974
Si Si3 0.164135 0.803654 0.842811
Si Si4 0.689540 0.804502 0.843223
Si Si5 0.926833 0.196397 0.157246
Si Si6 0.000000 0.693878 0.655571
Si Si7 0.762715 0.693784 0.344318
O O1 0.431254 0.333329 0.787198
O O2 0.356066 0.232066 0.798065
O O3 0.410801 0.000000 0.786665
O O4 0.403651 0.182186 0.000000
O O5 0.500000 0.500000 0.790633
O O6 0.547815 0.500000 0.000000
O O7 0.118656 0.750246 0.808358
O O8 0.197761 0.747664 0.737773
O O9 0.164141 0.000000 0.843937
O O10 0.173130 0.750092 0.000000
O O11 0.723551 0.744483 0.741204
O O12 0.692038 0.000000 0.849411
O O13 0.695594 0.742495 0.000000
O O14 0.960571 0.253289 0.261450
O O15 0.926931 0.000000 0.156786
O O16 0.935683 0.249485 0.000000
O O17 0.000000 0.500000 0.648869
O O18 0.000000 0.760268 0.500000
O O19 0.762051 0.760419 0.500000
O O20 0.763168 0.500000 0.351596
#
# Coordination Sequence:
#
# PCOD9388593 Si02
#       7
#     8   4   8   8   8   4   8
#     4   8  15  27  42  64  94 127 168 216 260 308
#     4   9  16  24  38  64  97 135 173 207 257 320
#     4   9  19  37  59  80 101 129 169 213 255 303
#     4   9  18  33  53  74  95 127 174 220 258 302
#     4   9  19  37  60  82 102 128 168 216 257 298
#     4  11  24  37  50  76 112 143 170 205 252 304
#     4  11  24  36  47  72 108 139 168 206 254 308
#
# _framework density 18.062622000000001
#
# number of rings (size 3 to 8) (size 9 to 14) (size 15 to 20)
#    0.000    2.667    0.000    3.500    1.167    7.667 
#    0.000    6.667    0.000    0.000    0.000    0.000 
#    0.000    1.333    0.000    3.667    0.000    3.667 
#
# Total GULP energy -267633.359658 kJ/mol
# GULP energy per Si atom -5575.694993 kJ/mol
# Density = 1.802151 g / cm^3
# Si number density = 18.062622 Si / 1000 Ang^3
#
#
#
# Elastic Constant Matrix: (Units=GPa)
#
#
# Indices 1 2 3 4 5 6 
#
# 1 173.0031 67.5522 99.1321 0.0000 0.0000 0.0000
# 2 67.5522 51.3405 37.3447 0.0000 0.0000 0.0000
# 3 99.1321 37.3447 94.7840 0.0000 0.0000 0.0000
# 4 0.0000 0.0000 0.0000 21.0723 0.0000 0.0000
# 5 0.0000 0.0000 0.0000 0.0000 -7.2814 0.0000
# 6 0.0000 0.0000 0.0000 0.0000 0.0000 45.3636
#
#
#
# Elastic Compliance Matrix: (Units=1/GPa)
#
#
# Indices 1 2 3 4 5 6 
#
# 1 0.021206 -0.016498 -0.015679 0.000000 0.000000 0.000000
# 2 -0.016498 0.040137 0.001441 0.000000 0.000000 0.000000
# 3 -0.015679 0.001441 0.026381 0.000000 0.000000 0.000000
# 4 0.000000 0.000000 0.000000 0.047456 0.000000 0.000000
# 5 0.000000 0.000000 0.000000 0.000000 -0.137336 0.000000
# 6 0.000000 0.000000 0.000000 0.000000 0.000000 0.022044
#
#
# Mechanical properties :
#
#
# Convention : Reuss Voigt Hill
#
# Bulk Modulus (GPa) = 38.09213 80.79840 59.44527
# Shear Modulus (GPa) = 55.48682 19.50414 37.49548
#
# Velocity S-wave (km/s) = 5.54850 3.28961 4.56110
# Velocity P-wave (km/s) = 7.88559 7.69793 7.79232
#
# Compressibility (1/GPa) = 0.02625214
#
# Stress axis : x y z
#
# Youngs Moduli (GPa) = 47.15580 24.91451 37.90618
#
# Poissons Ratio (x) = 0.41104 0.59433
# Poissons Ratio (y) = 0.77797 -0.05461
# Poissons Ratio (z) = 0.73936 -0.03589
#
# Static dielectric constant tensor:
#      x y z
#    x 1.612210 0.000000 0.000000 
#    y 0.000000 1.631370 0.000000 
#    z 0.000000 0.000000 1.618100 
# 
# From -- ./inp_files/13822.got.cif
#   From: 2010.05.17/outbox.cif.g08.bks.cpg/sg47_7_cif.got.tgz:13822.got - 2010.06.03 20:15:42.
