data_PCOD9388423
_publ_section_title
;
Structure prediction by ZEFSAII (Michael W. Deem and Ramdas Pophale) SiO2 
 PCOD9388423
Probable space group: P M M M
;
_chemical_formula_sum "Si O2"
_cell_formula_units_Z 40
_cell_length_a 7.853872
_cell_length_b 15.004764
_cell_length_c 16.199706
_cell_angle_alpha 90.000000
_cell_angle_beta 90.000000
_cell_angle_gamma 90.000000
_cell_volume 1909.062386
_symmetry_space_group_name_H-M "P M M M"
_symmetry_group_IT_number 47
_symmetry_cell_setting 'orthorhombic'
loop_
_space_group_symop_operation_xyz
x,y,z
-x,-y,z
x,-y,-z
-x,y,-z
-x,-y,-z
x,y,-z
-x,y,z
x,-y,z
loop_
_atom_site_type_symbol
_atom_site_label
_atom_site_fract_x
_atom_site_fract_y
_atom_site_fract_z
Si Si1 0.794424 0.098671 0.096741
Si Si2 0.699691 0.710785 0.160179
Si Si3 0.708226 0.602388 0.500000
Si Si4 0.290798 0.713545 0.659978
Si Si5 0.799930 0.400747 0.000000
Si Si6 0.707077 0.097155 0.403104
O O1 0.729809 0.184089 0.145341
O O2 0.000000 0.100275 0.099213
O O3 0.737835 0.000000 0.125056
O O4 0.744989 0.107911 0.000000
O O5 0.500000 0.695654 0.163865
O O6 0.770302 0.684063 0.249821
O O7 0.760338 0.655682 0.081637
O O8 0.762370 0.500000 0.500000
O O9 0.500000 0.603833 0.500000
O O10 0.763064 0.653721 0.417317
O O11 0.500000 0.712986 0.659703
O O12 0.235289 0.815428 0.644335
O O13 0.720323 0.500000 0.000000
O O14 0.000000 0.411353 0.000000
O O15 0.751977 0.105664 0.500000
O O16 0.500000 0.096788 0.400001
O O17 0.766339 0.000000 0.373252
#
# Coordination Sequence:
#
# PCOD9388423 Si02
#       6
#     8   8   4   8   4   8
#     4   9  18  34  56  79 108 151 195 226 258 316
#     4  11  22  34  55  88 119 142 172 228 290 331
#     4   9  16  28  45  63  94 143 183 207 248 322
#     4   9  17  28  43  70 107 140 173 211 259 322
#     4  11  25  45  64  77  98 141 191 232 274 335
#     4   8  12  20  37  59  90 137 180 207 237 289
#
# _framework density 20.952694999999999
#
# number of rings (size 3 to 8) (size 9 to 14) (size 15 to 20)
#    0.000    2.600    2.000    2.100    0.000    2.800 
#    0.000    5.000    0.000    0.000    0.000    2.800 
#    0.000    6.400    0.000    0.000    0.000    0.000 
#
# Total GULP energy -223196.034611 kJ/mol
# GULP energy per Si atom -5579.900865 kJ/mol
# Density = 2.090501 g / cm^3
# Si number density = 20.952695 Si / 1000 Ang^3
#
#
#
# Elastic Constant Matrix: (Units=GPa)
#
#
# Indices 1 2 3 4 5 6 
#
# 1 22.8872 7.3223 14.3388 0.0000 0.0000 0.0000
# 2 7.3223 153.7558 103.0766 0.0000 0.0000 0.0000
# 3 14.3388 103.0766 180.8403 0.0000 0.0000 0.0000
# 4 0.0000 0.0000 0.0000 -3.2393 0.0000 0.0000
# 5 0.0000 0.0000 0.0000 0.0000 -79.4360 0.0000
# 6 0.0000 0.0000 0.0000 0.0000 0.0000 24.9183
#
#
#
# Elastic Compliance Matrix: (Units=1/GPa)
#
#
# Indices 1 2 3 4 5 6 
#
# 1 0.045993 0.000412 -0.003881 0.000000 0.000000 0.000000
# 2 0.000412 0.010530 -0.006034 0.000000 0.000000 0.000000
# 3 -0.003881 -0.006034 0.009277 0.000000 0.000000 0.000000
# 4 0.000000 0.000000 0.000000 -0.308706 0.000000 0.000000
# 5 0.000000 0.000000 0.000000 0.000000 -0.012589 0.000000
# 6 0.000000 0.000000 0.000000 0.000000 0.000000 0.040131
#
#
# Mechanical properties :
#
#
# Convention : Reuss Voigt Hill
#
# Bulk Modulus (GPa) = 21.37160 67.43986 44.40573
# Shear Modulus (GPa) = -27.66111 3.96498 -11.84807
#
# Velocity S-wave (km/s) = -3.63736 1.37712 -2.38054
# Velocity P-wave (km/s) = 2.72367 5.89790 3.69911
#
# Compressibility (1/GPa) = 0.04679107
#
# Stress axis : x y z
#
# Youngs Moduli (GPa) = 21.74266 94.97027 107.79316
#
# Poissons Ratio (x) = -0.03911 0.41840
# Poissons Ratio (y) = -0.00895 0.65047
# Poissons Ratio (z) = 0.08439 0.57309
#
# Static dielectric constant tensor:
#      x y z
#    x 1.748970 0.000000 0.000000 
#    y 0.000000 1.805900 0.000000 
#    z 0.000000 0.000000 1.810340 
# 
# From -- ./inp_files/20730.got.cif
#   From: 2010.05.17/outbox.cif.g08.bks.cpg/sg47_11_cif.got.tgz:20730.got - 2010.06.03 20:15:42.
