data_PCOD9388140
_publ_section_title
;
Structure prediction by ZEFSAII (Michael W. Deem and Ramdas Pophale) SiO2 
 PCOD9388140
Probable space group: P M M M
;
_chemical_formula_sum "Si O2"
_cell_formula_units_Z 56
_cell_length_a 24.199671
_cell_length_b 7.622904
_cell_length_c 14.144641
_cell_angle_alpha 90.000000
_cell_angle_beta 90.000000
_cell_angle_gamma 90.000000
_cell_volume 2609.286945
_symmetry_space_group_name_H-M "P M M M"
_symmetry_group_IT_number 47
_symmetry_cell_setting 'orthorhombic'
loop_
_space_group_symop_operation_xyz
x,y,z
-x,-y,z
x,-y,-z
-x,y,-z
-x,-y,-z
x,y,-z
-x,y,z
x,-y,z
loop_
_atom_site_type_symbol
_atom_site_label
_atom_site_fract_x
_atom_site_fract_y
_atom_site_fract_z
Si Si1 0.559896 0.285284 0.798879
Si Si2 0.395005 0.704884 0.606608
Si Si3 0.935301 0.708514 0.760632
Si Si4 0.152812 0.290742 0.606892
Si Si5 0.726558 0.791490 0.609861
Si Si6 0.241337 0.000000 0.884488
Si Si7 0.886356 0.000000 0.887529
Si Si8 0.675540 0.298499 0.113980
O O1 0.500000 0.229771 0.836054
O O2 0.560255 0.500000 0.799402
O O3 0.567540 0.223676 0.690516
O O4 0.614959 0.234275 0.854594
O O5 0.398129 0.780952 0.500000
O O6 0.408699 0.500000 0.598103
O O7 0.331716 0.717085 0.643720
O O8 0.926258 0.500000 0.777415
O O9 0.896747 0.767729 0.673563
O O10 0.000000 0.733511 0.740561
O O11 0.916519 0.828398 0.847314
O O12 0.150227 0.217068 0.500000
O O13 0.147765 0.500000 0.599785
O O14 0.213492 0.254481 0.649472
O O15 0.729483 0.730207 0.500000
O O16 0.720993 0.000000 0.611678
O O17 0.276257 0.169108 0.852345
O O18 0.177785 0.000000 0.855132
O O19 0.241478 0.000000 0.000000
O O20 0.887231 0.000000 0.000000
O O21 0.683782 0.500000 0.145343
O O22 0.676743 0.298292 0.000000
#
# Coordination Sequence:
#
# PCOD9388140 Si02
#       8
#     8   8   8   8   8   4   4   8
#     4   9  18  32  50  75 105 138 183 230 272 332
#     4   9  17  30  48  69  98 138 181 228 281 330
#     4  10  23  42  63  91 125 161 205 249 290 348
#     4   9  18  34  57  85 119 156 192 237 293 351
#     4   9  17  29  47  73 106 143 184 229 278 335
#     4   9  20  39  61  88 117 143 182 232 286 352
#     4  11  25  44  66  91 120 157 201 253 307 354
#     4   9  18  35  59  84 113 146 176 220 284 345
#
# _framework density 21.4618
#
# number of rings (size 3 to 8) (size 9 to 14) (size 15 to 20)
#    0.000    2.714    0.000    0.643    1.000    5.143 
#    1.286    9.643    0.000    2.143    0.000    2.000 
#    0.000    0.000    0.000    0.000    0.000    0.000 
#
# Total GULP energy -312584.809983 kJ/mol
# GULP energy per Si atom -5581.871607 kJ/mol
# Density = 2.141295 g / cm^3
# Si number density = 21.461800 Si / 1000 Ang^3
#
#
#
# Elastic Constant Matrix: (Units=GPa)
#
#
# Indices 1 2 3 4 5 6 
#
# 1 103.1385 19.1723 17.3187 0.0000 0.0000 0.0000
# 2 19.1723 59.4085 14.3079 0.0000 0.0000 0.0000
# 3 17.3187 14.3079 50.1404 0.0000 0.0000 0.0000
# 4 0.0000 0.0000 0.0000 14.3912 0.0000 0.0000
# 5 0.0000 0.0000 0.0000 0.0000 23.5102 0.0000
# 6 0.0000 0.0000 0.0000 0.0000 0.0000 -81.3453
#
#
#
# Elastic Compliance Matrix: (Units=1/GPa)
#
#
# Indices 1 2 3 4 5 6 
#
# 1 0.010696 -0.002751 -0.002909 0.000000 0.000000 0.000000
# 2 -0.002751 0.018782 -0.004409 0.000000 0.000000 0.000000
# 3 -0.002909 -0.004409 0.022207 0.000000 0.000000 0.000000
# 4 0.000000 0.000000 0.000000 0.069487 0.000000 0.000000
# 5 0.000000 0.000000 0.000000 0.000000 0.042535 0.000000
# 6 0.000000 0.000000 0.000000 0.000000 0.000000 -0.012293
#
#
# Mechanical properties :
#
#
# Convention : Reuss Voigt Hill
#
# Bulk Modulus (GPa) = 31.70014 34.92058 33.31036
# Shear Modulus (GPa) = 27.46223 2.10379 14.78301
#
# Velocity S-wave (km/s) = 3.58101 0.99115 2.62736
# Velocity P-wave (km/s) = 5.64807 4.19717 4.97579
#
# Compressibility (1/GPa) = 0.03154560
#
# Stress axis : x y z
#
# Youngs Moduli (GPa) = 93.49643 53.24140 45.03052
#
# Poissons Ratio (x) = 0.14647 0.13101
# Poissons Ratio (y) = 0.25721 0.19856
# Poissons Ratio (z) = 0.27201 0.23477
#
# Static dielectric constant tensor:
#      x y z
#    x 1.757370 0.000000 0.000000 
#    y 0.000000 1.800750 0.000000 
#    z 0.000000 0.000000 1.820620 
# 
# From -- ./inp_files/25248.got.cif
#   From: 2010.05.17/outbox.cif.g08.bks.cpg/sg47_13_cif.got.tgz:25248.got - 2010.06.03 20:15:42.
