data_PCOD9388365
_publ_section_title
;
Structure prediction by ZEFSAII (Michael W. Deem and Ramdas Pophale) SiO2 
 PCOD9388365
Probable space group: P M M M
;
_chemical_formula_sum "Si O2"
_cell_formula_units_Z 40
_cell_length_a 11.321185
_cell_length_b 7.565968
_cell_length_c 24.014265
_cell_angle_alpha 90.000000
_cell_angle_beta 90.000000
_cell_angle_gamma 90.000000
_cell_volume 2056.959241
_symmetry_space_group_name_H-M "P M M M"
_symmetry_group_IT_number 47
_symmetry_cell_setting 'orthorhombic'
loop_
_space_group_symop_operation_xyz
x,y,z
-x,-y,z
x,-y,-z
-x,y,-z
-x,-y,-z
x,y,-z
-x,y,z
x,-y,z
loop_
_atom_site_type_symbol
_atom_site_label
_atom_site_fract_x
_atom_site_fract_y
_atom_site_fract_z
Si Si1 0.237433 0.202745 0.125508
Si Si2 0.367377 0.284752 0.434903
Si Si3 0.637330 0.500000 0.938040
Si Si4 0.133732 0.286599 0.238589
Si Si5 0.000000 0.214622 0.936276
Si Si6 0.864793 0.284421 0.632872
O O1 0.330606 0.329945 0.098045
O O2 0.221621 0.218304 0.191727
O O3 0.114948 0.267215 0.097785
O O4 0.257232 0.000000 0.110259
O O5 0.357925 0.236497 0.500000
O O6 0.500000 0.229049 0.415378
O O7 0.367095 0.500000 0.432033
O O8 0.249037 0.224939 0.402665
O O9 0.500000 0.500000 0.945755
O O10 0.694505 0.500000 0.000000
O O11 0.136461 0.500000 0.236822
O O12 0.154784 0.234318 0.302496
O O13 0.000000 0.228755 0.224272
O O14 0.000000 0.000000 0.937555
O O15 0.000000 0.276328 0.000000
O O16 0.866428 0.500000 0.630412
O O17 0.000000 0.228942 0.616974
#
# Coordination Sequence:
#
# PCOD9388365 Si02
#       6
#     8   8   4   8   4   8
#     4  11  21  36  60  86 112 143 179 224 277 333
#     4   8  13  21  33  52  83 123 166 218 278 328
#     4  11  26  45  61  79 107 148 194 231 270 323
#     4   9  16  29  49  74 107 142 173 212 270 335
#     4   9  18  31  51  85 116 133 162 212 272 334
#     4   8  14  23  37  58  87 129 175 214 261 326
#
# _framework density 19.446179999999998
#
# number of rings (size 3 to 8) (size 9 to 14) (size 15 to 20)
#    0.000    2.800    2.000    2.400    0.000    2.400 
#    0.000    5.000    0.000    0.000    0.000    0.000 
#    0.000    0.800    0.000    6.600    0.000    8.000 
#
# Total GULP energy -222967.912732 kJ/mol
# GULP energy per Si atom -5574.197818 kJ/mol
# Density = 1.940192 g / cm^3
# Si number density = 19.446180 Si / 1000 Ang^3
#
#
#
# Elastic Constant Matrix: (Units=GPa)
#
#
# Indices 1 2 3 4 5 6 
#
# 1 140.5085 27.4842 78.3730 0.0000 0.0000 0.0000
# 2 27.4842 65.4791 16.6042 0.0000 0.0000 0.0000
# 3 78.3730 16.6042 104.9156 0.0000 0.0000 0.0000
# 4 0.0000 0.0000 0.0000 -209.4000 0.0000 0.0000
# 5 0.0000 0.0000 0.0000 0.0000 59.6928 0.0000
# 6 0.0000 0.0000 0.0000 0.0000 0.0000 -9.3068
#
#
#
# Elastic Compliance Matrix: (Units=1/GPa)
#
#
# Indices 1 2 3 4 5 6 
#
# 1 0.012764 -0.003063 -0.009050 0.000000 0.000000 0.000000
# 2 -0.003063 0.016645 -0.000347 0.000000 0.000000 0.000000
# 3 -0.009050 -0.000347 0.016347 0.000000 0.000000 0.000000
# 4 0.000000 0.000000 0.000000 -0.004776 0.000000 0.000000
# 5 0.000000 0.000000 0.000000 0.000000 0.016752 0.000000
# 6 0.000000 0.000000 0.000000 0.000000 0.000000 -0.107448
#
#
# Mechanical properties :
#
#
# Convention : Reuss Voigt Hill
#
# Bulk Modulus (GPa) = 47.98995 61.75844 54.87420
# Shear Modulus (GPa) = -280.11675 -19.24003 -149.67839
#
# Velocity S-wave (km/s) = -12.01499 -3.14888 -8.78281
# Velocity P-wave (km/s) = 12.95175 4.31358 8.63542
#
# Compressibility (1/GPa) = 0.02083769
#
# Stress axis : x y z
#
# Youngs Moduli (GPa) = 78.34455 60.07651 61.17357
#
# Poissons Ratio (x) = 0.18399 0.55363
# Poissons Ratio (y) = 0.23994 0.02120
# Poissons Ratio (z) = 0.70904 0.02082
#
# Static dielectric constant tensor:
#      x y z
#    x 1.678300 0.000000 0.000000 
#    y 0.000000 1.711390 0.000000 
#    z 0.000000 0.000000 1.669780 
# 
# From -- ./inp_files/30352.got.cif
#   From: 2010.05.17/outbox.cif.g08.bks.cpg/sg47_16_cif.got.tgz:30352.got - 2010.06.03 20:15:42.
