data_PCOD9388001
_publ_section_title
;
Structure prediction by ZEFSAII (Michael W. Deem and Ramdas Pophale) SiO2 
 PCOD9388001
Probable space group: P M M M
;
_chemical_formula_sum "Si O2"
_cell_formula_units_Z 64
_cell_length_a 8.045072
_cell_length_b 14.811837
_cell_length_c 27.040611
_cell_angle_alpha 90.000000
_cell_angle_beta 90.000000
_cell_angle_gamma 90.000000
_cell_volume 3222.221268
_symmetry_space_group_name_H-M "P M M M"
_symmetry_group_IT_number 47
_symmetry_cell_setting 'orthorhombic'
loop_
_space_group_symop_operation_xyz
x,y,z
-x,-y,z
x,-y,-z
-x,y,-z
-x,-y,-z
x,y,-z
-x,y,z
x,-y,z
loop_
_atom_site_type_symbol
_atom_site_label
_atom_site_fract_x
_atom_site_fract_y
_atom_site_fract_z
Si Si1 0.300708 0.102094 0.803872
Si Si2 0.311098 0.109307 0.696683
Si Si3 0.799116 0.287657 0.553302
Si Si4 0.299971 0.603690 0.650164
Si Si5 0.299553 0.606639 0.240624
Si Si6 0.195283 0.100663 0.411339
Si Si7 0.203115 0.396450 0.943879
Si Si8 0.196359 0.722817 0.853595
O O1 0.500000 0.097220 0.798050
O O2 0.238306 0.135696 0.749844
O O3 0.262613 0.176943 0.844129
O O4 0.240333 0.000000 0.813849
O O5 0.500000 0.144895 0.691082
O O6 0.214248 0.126937 0.646457
O O7 0.320837 0.000000 0.700132
O O8 0.744753 0.325574 0.500000
O O9 0.749702 0.341378 0.602046
O O10 0.735519 0.184737 0.558591
O O11 0.000000 0.284864 0.553142
O O12 0.500000 0.602557 0.652129
O O13 0.242435 0.500000 0.645421
O O14 0.243872 0.637788 0.704411
O O15 0.500000 0.613967 0.238950
O O16 0.257814 0.500000 0.236014
O O17 0.231708 0.663280 0.195082
O O18 0.000000 0.094192 0.422861
O O19 0.268160 0.000000 0.418440
O O20 0.253233 0.500000 0.933369
O O21 0.264413 0.329117 0.901633
O O22 0.000000 0.395688 0.943122
O O23 0.253757 0.373743 0.000000
O O24 0.000000 0.730045 0.859681
#
# Coordination Sequence:
#
# PCOD9388001 Si02
#       8
#     8   8   8   8   8   8   8   8
#     4   9  19  35  51  69 101 146 186 216 256 311
#     4   8  15  29  48  68  90 122 165 206 243 289
#     4  10  22  37  52  74 102 130 164 207 257 312
#     4   9  20  39  59  76  96 128 170 211 251 302
#     4   9  19  36  55  76 106 141 172 205 254 318
#     4   9  18  32  50  72  99 130 162 199 245 298
#     4   8  15  30  51  75 107 145 180 215 259 312
#     4  11  21  30  50  84 113 138 174 222 268 310
#
# _framework density 19.862074
#
# number of rings (size 3 to 8) (size 9 to 14) (size 15 to 20)
#    0.000    2.875    0.000    2.625    1.750    3.500 
#    0.000    5.000    0.000    1.875    0.000    9.625 
#    0.000    0.000    0.000    0.000    0.000    0.000 
#
# Total GULP energy -356886.795584 kJ/mol
# GULP energy per Si atom -5576.356181 kJ/mol
# Density = 1.981687 g / cm^3
# Si number density = 19.862074 Si / 1000 Ang^3
#
#
#
# Elastic Constant Matrix: (Units=GPa)
#
#
# Indices 1 2 3 4 5 6 
#
# 1 9.2653 3.1887 -0.6982 0.0000 0.0000 0.0000
# 2 3.1887 76.4064 62.6332 0.0000 0.0000 0.0000
# 3 -0.6982 62.6332 120.4461 0.0000 0.0000 0.0000
# 4 0.0000 0.0000 0.0000 31.6909 0.0000 0.0000
# 5 0.0000 0.0000 0.0000 0.0000 26.6666 0.0000
# 6 0.0000 0.0000 0.0000 0.0000 0.0000 25.8228
#
#
#
# Elastic Compliance Matrix: (Units=1/GPa)
#
#
# Indices 1 2 3 4 5 6 
#
# 1 0.111440 -0.009029 0.005341 0.000000 0.000000 0.000000
# 2 -0.009029 0.023544 -0.012295 0.000000 0.000000 0.000000
# 3 0.005341 -0.012295 0.014727 0.000000 0.000000 0.000000
# 4 0.000000 0.000000 0.000000 0.031555 0.000000 0.000000
# 5 0.000000 0.000000 0.000000 0.000000 0.037500 0.000000
# 6 0.000000 0.000000 0.000000 0.000000 0.000000 0.038725
#
#
# Mechanical properties :
#
#
# Convention : Reuss Voigt Hill
#
# Bulk Modulus (GPa) = 8.49301 37.37392 22.93346
# Shear Modulus (GPa) = 15.21120 26.23567 20.72344
#
# Velocity S-wave (km/s) = 2.77039 3.63835 3.23362
# Velocity P-wave (km/s) = 3.81034 6.04216 5.05106
#
# Compressibility (1/GPa) = 0.11774395
#
# Stress axis : x y z
#
# Youngs Moduli (GPa) = 8.97346 42.47436 67.90209
#
# Poissons Ratio (x) = 0.38351 -0.36268
# Poissons Ratio (y) = 0.08102 0.83487
# Poissons Ratio (z) = -0.04793 0.52223
#
# Static dielectric constant tensor:
#      x y z
#    x 1.733890 0.000000 0.000000 
#    y 0.000000 1.727130 0.000000 
#    z 0.000000 0.000000 1.711900 
# 
# From -- ./inp_files/32159.got.cif
#   From: 2010.05.17/outbox.cif.g08.bks.cpg/sg47_17_cif.got.tgz:32159.got - 2010.06.03 20:15:42.
