data_PCOD9388607
_publ_section_title
;
Structure prediction by ZEFSAII (Michael W. Deem and Ramdas Pophale) SiO2 
 PCOD9388607
Probable space group: P M M M
;
_chemical_formula_sum "Si O2"
_cell_formula_units_Z 44
_cell_length_a 9.688530
_cell_length_b 29.654923
_cell_length_c 7.681848
_cell_angle_alpha 90.000000
_cell_angle_beta 90.000000
_cell_angle_gamma 90.000000
_cell_volume 2207.091807
_symmetry_space_group_name_H-M "P M M M"
_symmetry_group_IT_number 47
_symmetry_cell_setting 'orthorhombic'
loop_
_space_group_symop_operation_xyz
x,y,z
-x,-y,z
x,-y,-z
-x,y,-z
-x,-y,-z
x,y,-z
-x,y,z
x,-y,z
loop_
_atom_site_type_symbol
_atom_site_label
_atom_site_fract_x
_atom_site_fract_y
_atom_site_fract_z
Si Si1 0.157694 0.352949 0.792946
Si Si2 0.155581 0.915798 0.208796
Si Si3 0.658713 0.269575 0.786411
Si Si4 0.346105 0.000000 0.294054
Si Si5 0.159040 0.185413 0.212302
Si Si6 0.838731 0.548505 0.709503
O O1 0.254860 0.313151 0.726691
O O2 0.217727 0.403143 0.765114
O O3 0.000000 0.350996 0.722031
O O4 0.146860 0.346524 0.000000
O O5 0.260802 0.955367 0.248224
O O6 0.194633 0.865459 0.270095
O O7 0.000000 0.926104 0.272873
O O8 0.147469 0.913061 0.000000
O O9 0.500000 0.270700 0.730746
O O10 0.737831 0.224334 0.729798
O O11 0.658704 0.269782 0.000000
O O12 0.500000 0.000000 0.216538
O O13 0.358587 0.000000 0.500000
O O14 0.000000 0.194685 0.262746
O O15 0.161524 0.185724 0.000000
O O16 0.836844 0.548157 0.500000
O O17 0.779749 0.500000 0.768835
O O18 0.000000 0.548949 0.765357
#
# Coordination Sequence:
#
# PCOD9388607 Si02
#       6
#     8   8   8   4   8   8
#     4   9  16  25  40  63  88 113 142 178 217 255
#     4   9  18  33  54  78  99 121 156 201 242 280
#     4   9  16  25  39  62  92 122 148 175 213 263
#     4  11  24  37  48  68 100 135 166 195 232 280
#     4   8  14  26  45  69  95 119 145 183 228 269
#     4   8  14  25  41  61  84 109 139 178 222 263
#
# _framework density 19.935735999999999
#
# number of rings (size 3 to 8) (size 9 to 14) (size 15 to 20)
#    0.000    3.182    0.000    2.727    0.000    5.455 
#    0.000    3.636    0.000    2.182    0.000    6.364 
#    0.000    0.000    0.000    0.000    0.000    0.000 
#
# Total GULP energy -245197.331308 kJ/mol
# GULP energy per Si atom -5572.666621 kJ/mol
# Density = 1.989036 g / cm^3
# Si number density = 19.935736 Si / 1000 Ang^3
#
#
#
# Elastic Constant Matrix: (Units=GPa)
#
#
# Indices 1 2 3 4 5 6 
#
# 1 122.4683 132.0706 6.2403 0.0000 0.0000 0.0000
# 2 132.0706 226.4318 6.8484 0.0000 0.0000 0.0000
# 3 6.2403 6.8484 30.8370 0.0000 0.0000 0.0000
# 4 0.0000 0.0000 0.0000 114.9863 0.0000 0.0000
# 5 0.0000 0.0000 0.0000 0.0000 16.5751 0.0000
# 6 0.0000 0.0000 0.0000 0.0000 0.0000 -5.3670
#
#
#
# Elastic Compliance Matrix: (Units=1/GPa)
#
#
# Indices 1 2 3 4 5 6 
#
# 1 0.022089 -0.012835 -0.001620 0.000000 0.000000 0.000000
# 2 -0.012835 0.011904 -0.000046 0.000000 0.000000 0.000000
# 3 -0.001620 -0.000046 0.032767 0.000000 0.000000 0.000000
# 4 0.000000 0.000000 0.000000 0.008697 0.000000 0.000000
# 5 0.000000 0.000000 0.000000 0.000000 0.060331 0.000000
# 6 0.000000 0.000000 0.000000 0.000000 0.000000 -0.186322
#
#
# Mechanical properties :
#
#
# Convention : Reuss Voigt Hill
#
# Bulk Modulus (GPa) = 26.48451 74.45065 50.46758
# Shear Modulus (GPa) = -558.87185 40.87740 -258.99722
#
# Velocity S-wave (km/s) = -16.76142 4.53311 -11.41044
# Velocity P-wave (km/s) = 19.00737 8.05141 12.17487
#
# Compressibility (1/GPa) = 0.03775792
#
# Stress axis : x y z
#
# Youngs Moduli (GPa) = 45.27099 84.00555 30.51887
#
# Poissons Ratio (x) = 1.07821 0.04943
# Poissons Ratio (y) = 0.58105 0.00141
# Poissons Ratio (z) = 0.07332 0.00389
#
# Static dielectric constant tensor:
#      x y z
#    x 1.685350 0.000000 0.000000 
#    y 0.000000 1.727490 0.000000 
#    z 0.000000 0.000000 1.738410 
# 
# From -- ./inp_files/2079.got.cif
#   From: 2010.05.17/outbox.cif.g08.bks.cpg/sg47_2_cif.got.tgz:2079.got - 2010.06.03 20:15:42.
