data_PCOD9388341
_publ_section_title
;
Structure prediction by ZEFSAII (Michael W. Deem and Ramdas Pophale) SiO2 
 PCOD9388341
Probable space group: P M M M
;
_chemical_formula_sum "Si O2"
_cell_formula_units_Z 52
_cell_length_a 28.591121
_cell_length_b 11.889132
_cell_length_c 8.872845
_cell_angle_alpha 90.000000
_cell_angle_beta 90.000000
_cell_angle_gamma 90.000000
_cell_volume 3016.089518
_symmetry_space_group_name_H-M "P M M M"
_symmetry_group_IT_number 47
_symmetry_cell_setting 'orthorhombic'
loop_
_space_group_symop_operation_xyz
x,y,z
-x,-y,z
x,-y,-z
-x,y,-z
-x,-y,-z
x,y,-z
-x,y,z
x,-y,z
loop_
_atom_site_type_symbol
_atom_site_label
_atom_site_fract_x
_atom_site_fract_y
_atom_site_fract_z
Si Si1 0.144426 0.222603 0.320482
Si Si2 0.222342 0.632605 0.820705
Si Si3 0.054132 0.131918 0.819180
Si Si4 0.699430 0.000000 0.825749
Si Si5 0.500000 0.630284 0.816771
Si Si6 0.397431 0.635823 0.178397
Si Si7 0.310831 0.238848 0.321059
Si Si8 0.811869 0.000000 0.174845
O O1 0.146353 0.225508 0.500000
O O2 0.173998 0.324668 0.251078
O O3 0.091397 0.210171 0.262895
O O4 0.169528 0.110395 0.257371
O O5 0.229560 0.500000 0.794723
O O6 0.264938 0.703116 0.750446
O O7 0.221331 0.653178 0.000000
O O8 0.000000 0.155537 0.781819
O O9 0.063150 0.000000 0.780947
O O10 0.059369 0.141927 0.000000
O O11 0.683955 0.886508 0.743884
O O12 0.755937 0.000000 0.823445
O O13 0.684276 0.000000 0.000000
O O14 0.500000 0.500000 0.767683
O O15 0.550681 0.677241 0.772895
O O16 0.500000 0.629291 0.000000
O O17 0.396570 0.500000 0.192051
O O18 0.355894 0.689932 0.271578
O O19 0.391041 0.660884 0.000000
O O20 0.305569 0.236004 0.500000
O O21 0.827685 0.000000 0.000000
#
# Coordination Sequence:
#
# PCOD9388341 Si02
#       8
#     8   8   8   4   4   8   8   4
#     4  12  23  34  55  84 114 143 173 220 278 324
#     4  11  24  41  59  78 104 144 189 224 259 313
#     4   9  18  33  54  79 109 146 183 219 261 314
#     4  11  23  39  59  77 102 144 188 224 261 315
#     4   7  12  26  51  80 105 136 183 231 265 303
#     4   9  17  32  55  81 110 145 185 225 266 316
#     4  12  24  36  54  81 114 144 175 221 276 325
#     4  11  21  35  56  78 105 143 186 221 258 317
#
# _framework density 17.240867000000001
#
# number of rings (size 3 to 8) (size 9 to 14) (size 15 to 20)
#    0.000    1.615    2.308    5.538    0.000    4.308 
#    0.000    1.154    0.000    2.308    0.000    6.462 
#    0.000    0.000    0.000    0.000    0.000    0.000 
#
# Total GULP energy -290346.407553 kJ/mol
# GULP energy per Si atom -5583.584761 kJ/mol
# Density = 1.720163 g / cm^3
# Si number density = 17.240867 Si / 1000 Ang^3
#
#
#
# Elastic Constant Matrix: (Units=GPa)
#
#
# Indices 1 2 3 4 5 6 
#
# 1 107.6113 35.0791 47.9849 0.0000 0.0000 0.0000
# 2 35.0791 67.6321 54.4481 0.0000 0.0000 0.0000
# 3 47.9849 54.4481 106.6740 0.0000 0.0000 0.0000
# 4 0.0000 0.0000 0.0000 -54.8060 0.0000 0.0000
# 5 0.0000 0.0000 0.0000 0.0000 -12.3514 0.0000
# 6 0.0000 0.0000 0.0000 0.0000 0.0000 18.1318
#
#
#
# Elastic Compliance Matrix: (Units=1/GPa)
#
#
# Indices 1 2 3 4 5 6 
#
# 1 0.012017 -0.003193 -0.003776 0.000000 0.000000 0.000000
# 2 -0.003193 0.025948 -0.011808 0.000000 0.000000 0.000000
# 3 -0.003776 -0.011808 0.017100 0.000000 0.000000 0.000000
# 4 0.000000 0.000000 0.000000 -0.018246 0.000000 0.000000
# 5 0.000000 0.000000 0.000000 0.000000 -0.080963 0.000000
# 6 0.000000 0.000000 0.000000 0.000000 0.000000 0.055152
#
#
# Mechanical properties :
#
#
# Convention : Reuss Voigt Hill
#
# Bulk Modulus (GPa) = 57.10622 61.88240 59.49431
# Shear Modulus (GPa) = 91.91195 -0.17810 45.86692
#
# Velocity S-wave (km/s) = 7.30933 -0.32176 5.16346
# Velocity P-wave (km/s) = 10.21907 5.98605 8.37443
#
# Compressibility (1/GPa) = 0.01751123
#
# Stress axis : x y z
#
# Youngs Moduli (GPa) = 83.21312 38.53801 58.48014
#
# Poissons Ratio (x) = 0.12307 0.22081
# Poissons Ratio (y) = 0.26573 0.69054
# Poissons Ratio (z) = 0.31420 0.45506
#
# Static dielectric constant tensor:
#      x y z
#    x 1.603100 0.000000 0.000000 
#    y 0.000000 1.567690 0.000000 
#    z 0.000000 0.000000 1.572230 
# 
# From -- ./inp_files/13311.got.cif
#   From: 2010.05.17/outbox.cif.g08.bks.cpg/sg47_7_cif.got.tgz:13311.got - 2010.06.03 20:15:42.
