data_PCOD9388205
_publ_section_title
;
Structure prediction by ZEFSAII (Michael W. Deem and Ramdas Pophale) SiO2 
 PCOD9388205
Probable space group: P M M M
;
_chemical_formula_sum "Si O2"
_cell_formula_units_Z 52
_cell_length_a 23.609946
_cell_length_b 8.429869
_cell_length_c 14.815255
_cell_angle_alpha 90.000000
_cell_angle_beta 90.000000
_cell_angle_gamma 90.000000
_cell_volume 2948.661711
_symmetry_space_group_name_H-M "P M M M"
_symmetry_group_IT_number 47
_symmetry_cell_setting 'orthorhombic'
loop_
_space_group_symop_operation_xyz
x,y,z
-x,-y,z
x,-y,-z
-x,y,-z
-x,-y,-z
x,y,-z
-x,y,z
x,-y,z
loop_
_atom_site_type_symbol
_atom_site_label
_atom_site_fract_x
_atom_site_fract_y
_atom_site_fract_z
Si Si1 0.780505 0.190041 0.604860
Si Si2 0.890841 0.689624 0.290909
Si Si3 0.564776 0.808471 0.603962
Si Si4 0.671268 0.309937 0.288686
Si Si5 0.149322 0.693225 0.899740
Si Si6 0.000000 0.810671 0.603129
Si Si7 0.281507 0.307010 0.100057
O O1 0.782019 0.239022 0.500000
O O2 0.832961 0.264037 0.658656
O O3 0.721766 0.241294 0.650218
O O4 0.785381 0.000000 0.608593
O O5 0.895435 0.500000 0.289373
O O6 0.885681 0.747241 0.187094
O O7 0.944207 0.756611 0.344130
O O8 0.577094 0.761072 0.500000
O O9 0.500000 0.760977 0.624558
O O10 0.611394 0.740584 0.670665
O O11 0.567166 0.000000 0.606855
O O12 0.675743 0.500000 0.290134
O O13 0.682365 0.254311 0.185860
O O14 0.147984 0.500000 0.899949
O O15 0.215457 0.737822 0.887263
O O16 0.131191 0.745798 0.000000
O O17 0.000000 0.748936 0.500000
O O18 0.000000 0.000000 0.599050
O O19 0.282642 0.500000 0.099219
O O20 0.299538 0.253273 0.000000
#
# Coordination Sequence:
#
# PCOD9388205 Si02
#       7
#     8   8   8   8   8   4   8
#     4  11  23  36  50  72 107 146 174 204 259 323
#     4  11  21  36  59  84 104 130 175 226 263 296
#     4   9  19  36  54  71  99 143 184 213 255 319
#     4  11  20  31  52  82 107 131 172 223 265 299
#     4   8  14  28  52  80 108 135 164 204 258 315
#     4  11  25  43  58  73 102 146 183 209 256 325
#     4   8  14  27  48  75 107 138 166 202 255 314
#
# _framework density 17.635121000000002
#
# number of rings (size 3 to 8) (size 9 to 14) (size 15 to 20)
#    0.000    2.231    1.538    3.923    0.000    6.154 
#    0.000    1.154    0.000    7.385    0.000    3.231 
#    0.000    0.000    0.000    0.000    0.000    0.000 
#
# Total GULP energy -290128.701787 kJ/mol
# GULP energy per Si atom -5579.398111 kJ/mol
# Density = 1.759498 g / cm^3
# Si number density = 17.635121 Si / 1000 Ang^3
#
#
#
# Elastic Constant Matrix: (Units=GPa)
#
#
# Indices 1 2 3 4 5 6 
#
# 1 94.8698 12.6140 81.2961 0.0000 0.0000 0.0000
# 2 12.6140 21.2043 23.1019 0.0000 0.0000 0.0000
# 3 81.2961 23.1019 186.1333 0.0000 0.0000 0.0000
# 4 0.0000 0.0000 0.0000 116.4040 0.0000 0.0000
# 5 0.0000 0.0000 0.0000 0.0000 29.4763 0.0000
# 6 0.0000 0.0000 0.0000 0.0000 0.0000 30.4554
#
#
#
# Elastic Compliance Matrix: (Units=1/GPa)
#
#
# Indices 1 2 3 4 5 6 
#
# 1 0.016945 -0.002332 -0.007111 0.000000 0.000000 0.000000
# 2 -0.002332 0.054855 -0.005790 0.000000 0.000000 0.000000
# 3 -0.007111 -0.005790 0.009197 0.000000 0.000000 0.000000
# 4 0.000000 0.000000 0.000000 0.008591 0.000000 0.000000
# 5 0.000000 0.000000 0.000000 0.000000 0.033926 0.000000
# 6 0.000000 0.000000 0.000000 0.000000 0.000000 0.032835
#
#
# Mechanical properties :
#
#
# Convention : Reuss Voigt Hill
#
# Bulk Modulus (GPa) = 19.79002 59.58126 39.68564
# Shear Modulus (GPa) = 24.55087 47.61349 36.08218
#
# Velocity S-wave (km/s) = 3.73521 5.20172 4.52823
# Velocity P-wave (km/s) = 5.46340 8.36278 7.06345
#
# Compressibility (1/GPa) = 0.05053051
#
# Stress axis : x y z
#
# Youngs Moduli (GPa) = 59.01533 18.22974 108.73034
#
# Poissons Ratio (x) = 0.04252 0.77322
# Poissons Ratio (y) = 0.13764 0.62952
# Poissons Ratio (z) = 0.41968 0.10555
#
# Static dielectric constant tensor:
#      x y z
#    x 1.562140 0.000000 0.000000 
#    y 0.000000 1.609910 0.000000 
#    z 0.000000 0.000000 1.627390 
# 
# From -- ./inp_files/25021.got.cif
#   From: 2010.05.17/outbox.cif.g08.bks.cpg/sg47_13_cif.got.tgz:25021.got - 2010.06.03 20:15:42.
