data_PCOD9388206
_publ_section_title
;
Structure prediction by ZEFSAII (Michael W. Deem and Ramdas Pophale) SiO2 
 PCOD9388206
Probable space group: P M M M
;
_chemical_formula_sum "Si O2"
_cell_formula_units_Z 52
_cell_length_a 29.113103
_cell_length_b 11.605200
_cell_length_c 10.204976
_cell_angle_alpha 90.000000
_cell_angle_beta 90.000000
_cell_angle_gamma 90.000000
_cell_volume 3447.887714
_symmetry_space_group_name_H-M "P M M M"
_symmetry_group_IT_number 47
_symmetry_cell_setting 'orthorhombic'
loop_
_space_group_symop_operation_xyz
x,y,z
-x,-y,z
x,-y,-z
-x,y,-z
-x,-y,-z
x,y,-z
-x,y,z
x,-y,z
loop_
_atom_site_type_symbol
_atom_site_label
_atom_site_fract_x
_atom_site_fract_y
_atom_site_fract_z
Si Si1 0.131802 0.140680 0.151984
Si Si2 0.210717 0.139429 0.648968
Si Si3 0.444794 0.135660 0.000000
Si Si4 0.682510 0.135207 0.342841
Si Si5 0.947032 0.140000 0.648491
Si Si6 0.555601 0.500000 0.659289
Si Si7 0.595005 0.257779 0.254425
Si Si8 0.554453 0.872398 0.500000
O O1 0.175750 0.178081 0.238519
O O2 0.087319 0.177001 0.236872
O O3 0.131961 0.000000 0.149476
O O4 0.131973 0.178244 0.000000
O O5 0.199994 0.179871 0.500000
O O6 0.263979 0.163816 0.679440
O O7 0.207221 0.000000 0.644162
O O8 0.424878 0.201853 0.875747
O O9 0.500000 0.141271 0.000000
O O10 0.432019 0.000000 0.000000
O O11 0.674886 0.143474 0.500000
O O12 0.648238 0.222212 0.270819
O O13 0.674642 0.000000 0.306206
O O14 0.933014 0.174718 0.500000
O O15 0.000000 0.174924 0.669395
O O16 0.946328 0.000000 0.648628
O O17 0.500000 0.500000 0.681738
O O18 0.561829 0.500000 0.500000
O O19 0.580024 0.610928 0.723047
O O20 0.570609 0.192263 0.373049
O O21 0.500000 0.877824 0.500000
O O22 0.574223 0.000000 0.500000
#
# Coordination Sequence:
#
# PCOD9388206 Si02
#       8
#     8   8   4   8   8   4   8   4
#     4   9  15  21  29  45  68  93 124 162 210 266
#     4   8  14  24  38  53  71  97 128 167 217 272
#     4  11  24  39  53  75 105 130 155 189 234 286
#     4   9  16  29  49  70  88 110 147 192 236 278
#     4   8  13  20  29  40  57  87 128 171 211 250
#     4  11  22  37  57  79 101 127 163 199 228 273
#     4  12  22  36  54  74 101 129 159 194 232 279
#     4  11  20  31  53  77  95 122 157 195 236 274
#
# _framework density 15.081697
#
# number of rings (size 3 to 8) (size 9 to 14) (size 15 to 20)
#    0.000    2.385    1.538    4.615    0.000    3.692 
#    1.385    2.308    0.000    0.000    0.000    0.000 
#    0.000    0.000    0.000    0.000    0.000    0.000 
#
# Total GULP energy -289589.077735 kJ/mol
# GULP energy per Si atom -5569.020726 kJ/mol
# Density = 1.504737 g / cm^3
# Si number density = 15.081697 Si / 1000 Ang^3
#
#
#
# Elastic Constant Matrix: (Units=GPa)
#
#
# Indices 1 2 3 4 5 6 
#
# 1 113.0171 31.0198 76.9918 0.0000 0.0000 0.0000
# 2 31.0198 74.7920 43.0190 0.0000 0.0000 0.0000
# 3 76.9918 43.0190 140.6056 0.0000 0.0000 0.0000
# 4 0.0000 0.0000 0.0000 14.2438 0.0000 0.0000
# 5 0.0000 0.0000 0.0000 0.0000 19.9463 0.0000
# 6 0.0000 0.0000 0.0000 0.0000 0.0000 13.8067
#
#
#
# Elastic Compliance Matrix: (Units=1/GPa)
#
#
# Indices 1 2 3 4 5 6 
#
# 1 0.014295 -0.001731 -0.007298 0.000000 0.000000 0.000000
# 2 -0.001731 0.016435 -0.004081 0.000000 0.000000 0.000000
# 3 -0.007298 -0.004081 0.012357 0.000000 0.000000 0.000000
# 4 0.000000 0.000000 0.000000 0.070206 0.000000 0.000000
# 5 0.000000 0.000000 0.000000 0.000000 0.050135 0.000000
# 6 0.000000 0.000000 0.000000 0.000000 0.000000 0.072429
#
#
# Mechanical properties :
#
#
# Convention : Reuss Voigt Hill
#
# Bulk Modulus (GPa) = 59.28430 70.05288 64.66859
# Shear Modulus (GPa) = 18.67774 21.42496 20.05135
#
# Velocity S-wave (km/s) = 3.52296 3.77317 3.65021
# Velocity P-wave (km/s) = 7.47947 8.09519 7.79341
#
# Compressibility (1/GPa) = 0.01686787
#
# Stress axis : x y z
#
# Youngs Moduli (GPa) = 69.95459 60.84393 80.92790
#
# Poissons Ratio (x) = 0.10533 0.59060
# Poissons Ratio (y) = 0.12111 0.33023
# Poissons Ratio (z) = 0.51052 0.24828
#
# Static dielectric constant tensor:
#      x y z
#    x 1.532900 0.000000 0.000000 
#    y 0.000000 1.531190 0.000000 
#    z 0.000000 0.000000 1.497970 
# 
# From -- ./inp_files/14144.got.cif
#   From: 2010.05.17/outbox.cif.g08.bks.cpg/sg47_8_cif.got.tgz:14144.got - 2010.06.03 20:15:42.
