data_PCOD9388560
_publ_section_title
;
Structure prediction by ZEFSAII (Michael W. Deem and Ramdas Pophale) SiO2 
 PCOD9388560
Probable space group: P M M M
;
_chemical_formula_sum "Si O2"
_cell_formula_units_Z 48
_cell_length_a 14.319461
_cell_length_b 8.418324
_cell_length_c 19.277308
_cell_angle_alpha 90.000000
_cell_angle_beta 90.000000
_cell_angle_gamma 90.000000
_cell_volume 2323.799714
_symmetry_space_group_name_H-M "P M M M"
_symmetry_group_IT_number 47
_symmetry_cell_setting 'orthorhombic'
loop_
_space_group_symop_operation_xyz
x,y,z
-x,-y,z
x,-y,-z
-x,y,-z
-x,-y,-z
x,y,-z
-x,y,z
x,-y,z
loop_
_atom_site_type_symbol
_atom_site_label
_atom_site_fract_x
_atom_site_fract_y
_atom_site_fract_z
Si Si1 0.386134 0.000000 0.580296
Si Si2 0.108979 0.808740 0.722466
Si Si3 0.605548 0.687529 0.818899
Si Si4 0.205512 0.187332 0.863340
Si Si5 0.387409 0.677393 0.345847
Si Si6 0.105318 0.688923 0.000000
Si Si7 0.889188 0.690549 0.424974
O O1 0.353836 0.164824 0.615137
O O2 0.500000 0.000000 0.585908
O O3 0.361536 0.000000 0.500000
O O4 0.161900 0.749753 0.790915
O O5 0.147948 0.750441 0.648647
O O6 0.000000 0.760667 0.727744
O O7 0.112726 0.000000 0.721592
O O8 0.500000 0.744161 0.831306
O O9 0.609545 0.500000 0.834957
O O10 0.684954 0.776902 0.860375
O O11 0.624890 0.701540 0.736455
O O12 0.157846 0.259056 0.930653
O O13 0.188926 0.000000 0.864644
O O14 0.500000 0.670438 0.357087
O O15 0.351107 0.500000 0.365472
O O16 0.100508 0.500000 0.000000
O O17 0.000000 0.755107 0.000000
O O18 0.850824 0.746493 0.500000
O O19 0.883796 0.500000 0.424528
O O20 0.000000 0.733717 0.424908
#
# Coordination Sequence:
#
# PCOD9388560 Si02
#       7
#     4   8   8   8   8   4   8
#     4   9  16  24  40  70 104 141 189 244 304 373
#     4   9  18  32  50  77 114 152 190 233 284 345
#     4   9  19  37  60  86 116 151 195 250 305 356
#     4  11  23  38  61  92 122 156 198 245 298 358
#     4   8  15  28  46  70 103 143 187 242 307 365
#     4  11  25  45  68  93 126 167 203 236 284 349
#     4   8  14  25  43  70 104 142 185 234 287 339
#
# _framework density 20.655826999999999
#
# number of rings (size 3 to 8) (size 9 to 14) (size 15 to 20)
#    0.000    2.833    0.000    2.750    1.167    3.667 
#    0.000    5.417    0.000    3.500    0.000    0.000 
#    0.000    0.000    0.000    0.000    0.000    0.000 
#
# Total GULP energy -267909.731794 kJ/mol
# GULP energy per Si atom -5581.452746 kJ/mol
# Density = 2.060881 g / cm^3
# Si number density = 20.655827 Si / 1000 Ang^3
#
#
#
# Elastic Constant Matrix: (Units=GPa)
#
#
# Indices 1 2 3 4 5 6 
#
# 1 84.9273 32.1165 69.0246 0.0000 0.0000 0.0000
# 2 32.1165 75.2479 52.9989 0.0000 0.0000 0.0000
# 3 69.0246 52.9989 160.6244 0.0000 0.0000 0.0000
# 4 0.0000 0.0000 0.0000 39.1631 0.0000 0.0000
# 5 0.0000 0.0000 0.0000 0.0000 3.9398 0.0000
# 6 0.0000 0.0000 0.0000 0.0000 0.0000 8.9356
#
#
#
# Elastic Compliance Matrix: (Units=1/GPa)
#
#
# Indices 1 2 3 4 5 6 
#
# 1 0.018603 -0.003009 -0.007001 0.000000 0.000000 0.000000
# 2 -0.003009 0.017799 -0.004580 0.000000 0.000000 0.000000
# 3 -0.007001 -0.004580 0.010746 0.000000 0.000000 0.000000
# 4 0.000000 0.000000 0.000000 0.025534 0.000000 0.000000
# 5 0.000000 0.000000 0.000000 0.000000 0.253822 0.000000
# 6 0.000000 0.000000 0.000000 0.000000 0.000000 0.111912
#
#
# Mechanical properties :
#
#
# Convention : Reuss Voigt Hill
#
# Bulk Modulus (GPa) = 55.65574 69.89772 62.77673
# Shear Modulus (GPa) = 10.55775 21.51834 16.03804
#
# Velocity S-wave (km/s) = 2.26326 3.23113 2.78949
# Velocity P-wave (km/s) = 5.81658 6.91614 6.39005
#
# Compressibility (1/GPa) = 0.01796760
#
# Stress axis : x y z
#
# Youngs Moduli (GPa) = 53.75489 56.18162 93.06079
#
# Poissons Ratio (x) = 0.16903 0.65156
# Poissons Ratio (y) = 0.16173 0.42623
# Poissons Ratio (z) = 0.37636 0.25732
#
# Static dielectric constant tensor:
#      x y z
#    x 1.759740 0.000000 0.000000 
#    y 0.000000 1.723180 0.000000 
#    z 0.000000 0.000000 1.715650 
# 
# From -- ./inp_files/28042.got.cif
#   From: 2010.05.17/outbox.cif.g08.bks.cpg/sg47_15_cif.got.tgz:28042.got - 2010.06.03 20:15:42.
