data_PCOD9388468
_publ_section_title
;
Structure prediction by ZEFSAII (Michael W. Deem and Ramdas Pophale) SiO2 
 PCOD9388468
Probable space group: P M M M
;
_chemical_formula_sum "Si O2"
_cell_formula_units_Z 56
_cell_length_a 22.190773
_cell_length_b 9.116097
_cell_length_c 15.125163
_cell_angle_alpha 90.000000
_cell_angle_beta 90.000000
_cell_angle_gamma 90.000000
_cell_volume 3059.718216
_symmetry_space_group_name_H-M "P M M M"
_symmetry_group_IT_number 47
_symmetry_cell_setting 'orthorhombic'
loop_
_space_group_symop_operation_xyz
x,y,z
-x,-y,z
x,-y,-z
-x,y,-z
-x,-y,-z
x,y,-z
-x,y,z
x,-y,z
loop_
_atom_site_type_symbol
_atom_site_label
_atom_site_fract_x
_atom_site_fract_y
_atom_site_fract_z
Si Si1 0.810554 0.670526 0.398915
Si Si2 0.810554 0.670526 0.898915
Si Si3 0.067773 0.829392 0.642981
Si Si4 0.500000 0.821226 0.102127
Si Si5 0.733254 0.824102 0.750000
Si Si6 0.594520 0.178337 0.750000
Si Si7 0.067773 0.829392 0.142981
Si Si8 0.500000 0.178774 0.602127
O O1 0.790282 0.683652 0.500000
O O2 0.809460 0.500000 0.372899
O O3 0.878573 0.730785 0.392124
O O4 0.768642 0.763233 0.334453
O O5 0.809460 0.500000 0.872899
O O6 0.768642 0.763233 0.834453
O O7 0.878573 0.730785 0.892124
O O8 0.790282 0.683652 0.000000
O O9 0.069955 0.823749 0.750000
O O10 0.000000 0.786217 0.615847
O O11 0.076893 0.000000 0.617713
O O12 0.557503 0.776681 0.162121
O O13 0.500000 0.000000 0.099603
O O14 0.500000 0.770996 0.000000
O O15 0.663690 0.774768 0.750000
O O16 0.735224 0.000000 0.750000
O O17 0.557503 0.223319 0.662121
O O18 0.594021 0.000000 0.750000
O O19 0.000000 0.786217 0.115847
O O20 0.076893 0.000000 0.117713
O O21 0.500000 0.229004 0.500000
O O22 0.500000 0.000000 0.599603
#
# Coordination Sequence:
#
# PCOD9388468 Si02
#       8
#     8   8   8   4   8   8   8   4
#     4  11  24  39  55  78 109 146 187 229 276 330
#     4  11  24  39  55  78 109 146 187 229 276 330
#     4   9  18  34  57  83 108 136 174 224 283 339
#     4   8  13  25  46  73 109 144 170 206 260 318
#     4  11  22  37  57  81 112 147 186 230 271 318
#     4   8  16  28  45  75 109 141 176 213 260 316
#     4   9  18  34  57  83 108 136 174 224 283 339
#     4   8  13  25  46  73 109 144 170 206 260 318
#
# _framework density 18.302337999999999
#
# number of rings (size 3 to 8) (size 9 to 14) (size 15 to 20)
#    0.000    2.429    1.429    3.000    0.000    4.571 
#    0.000    7.143    0.000    0.000    0.000    8.000 
#    0.000   13.714    0.000    0.000    0.000    0.000 
#
# Total GULP energy -312452.044500 kJ/mol
# GULP energy per Si atom -5579.500795 kJ/mol
# Density = 1.826068 g / cm^3
# Si number density = 18.302338 Si / 1000 Ang^3
#
#
#
# Elastic Constant Matrix: (Units=GPa)
#
#
# Indices 1 2 3 4 5 6 
#
# 1 149.8891 53.5194 65.5158 0.0000 0.0000 0.0000
# 2 53.5194 60.8203 39.3832 0.0000 0.0000 0.0000
# 3 65.5158 39.3832 116.5649 0.0000 0.0000 0.0000
# 4 0.0000 0.0000 0.0000 26.3994 0.0000 0.0000
# 5 0.0000 0.0000 0.0000 0.0000 -84.8225 0.0000
# 6 0.0000 0.0000 0.0000 0.0000 0.0000 -8.7727
#
#
#
# Elastic Compliance Matrix: (Units=1/GPa)
#
#
# Indices 1 2 3 4 5 6 
#
# 1 0.010830 -0.007153 -0.003670 0.000000 0.000000 0.000000
# 2 -0.007153 0.025771 -0.004687 0.000000 0.000000 0.000000
# 3 -0.003670 -0.004687 0.012225 0.000000 0.000000 0.000000
# 4 0.000000 0.000000 0.000000 0.037880 0.000000 0.000000
# 5 0.000000 0.000000 0.000000 0.000000 -0.011789 0.000000
# 6 0.000000 0.000000 0.000000 0.000000 0.000000 -0.113990
#
#
# Mechanical properties :
#
#
# Convention : Reuss Voigt Hill
#
# Bulk Modulus (GPa) = 56.16042 71.56788 63.86415
# Shear Modulus (GPa) = -2361.22382 -2.18210 -1181.70296
#
# Velocity S-wave (km/s) = -35.95723 -1.09309 -25.43734
# Velocity P-wave (km/s) = 41.14784 6.13147 28.77108
#
# Compressibility (1/GPa) = 0.01780614
#
# Stress axis : x y z
#
# Youngs Moduli (GPa) = 92.33610 38.80279 81.79830
#
# Poissons Ratio (x) = 0.27757 0.30021
# Poissons Ratio (y) = 0.66052 0.38336
# Poissons Ratio (z) = 0.33889 0.18185
#
# Static dielectric constant tensor:
#      x y z
#    x 1.616080 0.000000 0.000000 
#    y 0.000000 1.601760 0.000000 
#    z 0.000000 0.000000 1.646260 
# 
# From -- ./inp_files/25252.got.cif
#   From: 2010.05.17/outbox.cif.g08.bks.cpg/sg47_13_cif.got.tgz:25252.got - 2010.06.03 20:15:42.
