data_PCOD9388912
_publ_section_title
;
Structure prediction by ZEFSAII (Michael W. Deem and Ramdas Pophale) SiO2 
 PCOD9388912
Probable space group: P M M M
;
_chemical_formula_sum "Si O2"
_cell_formula_units_Z 36
_cell_length_a 23.932838
_cell_length_b 7.413658
_cell_length_c 10.219237
_cell_angle_alpha 90.000000
_cell_angle_beta 90.000000
_cell_angle_gamma 90.000000
_cell_volume 1813.197953
_symmetry_space_group_name_H-M "P M M M"
_symmetry_group_IT_number 47
_symmetry_cell_setting 'orthorhombic'
loop_
_space_group_symop_operation_xyz
x,y,z
-x,-y,z
x,-y,-z
-x,y,-z
-x,-y,-z
x,y,-z
-x,y,z
x,-y,z
loop_
_atom_site_type_symbol
_atom_site_label
_atom_site_fract_x
_atom_site_fract_y
_atom_site_fract_z
Si Si1 0.063210 0.219929 0.150092
Si Si2 0.284513 0.220254 0.649861
Si Si3 0.157558 0.780169 0.649682
Si Si4 0.500000 0.285744 0.148845
Si Si5 0.377260 0.787014 0.149263
O O1 0.110647 0.282006 0.249530
O O2 0.000000 0.274889 0.185636
O O3 0.063730 0.000000 0.151648
O O4 0.073912 0.274303 0.000000
O O5 0.296157 0.275355 0.500000
O O6 0.220985 0.274075 0.683280
O O7 0.330204 0.285200 0.753453
O O8 0.285490 0.000000 0.650168
O O9 0.146107 0.725497 0.500000
O O10 0.156979 0.000000 0.651290
O O11 0.500000 0.500000 0.142369
O O12 0.559966 0.233209 0.205418
O O13 0.500000 0.210765 0.000000
O O14 0.367005 0.000000 0.138263
O O15 0.376025 0.712975 0.000000
#
# Coordination Sequence:
#
# PCOD9388912 Si02
#       5
#     8   8   8   4   8
#     4   8  13  19  25  35  54  81 113 149 187 223
#     4   8  14  24  36  51  72  95 119 152 195 235
#     4   8  13  20  29  41  58  82 113 148 184 222
#     4   9  17  29  44  61  82 106 128 153 190 232
#     4   9  16  26  42  62  79  97 127 163 192 223
#
# _framework density 19.854423000000001
#
# number of rings (size 3 to 8) (size 9 to 14) (size 15 to 20)
#    0.000    3.667    0.000    2.333    0.000    2.667 
#    0.000    7.222    0.000    4.000    0.000    0.000 
#    0.000    0.000    0.000    0.000    0.000    1.111 
#
# Total GULP energy -200600.884126 kJ/mol
# GULP energy per Si atom -5572.246781 kJ/mol
# Density = 1.980923 g / cm^3
# Si number density = 19.854423 Si / 1000 Ang^3
#
#
#
# Elastic Constant Matrix: (Units=GPa)
#
#
# Indices 1 2 3 4 5 6 
#
# 1 217.9215 2.4107 141.2188 0.0000 0.0000 0.0000
# 2 2.4107 64.4775 5.0621 0.0000 0.0000 0.0000
# 3 141.2188 5.0621 117.8023 0.0000 0.0000 0.0000
# 4 0.0000 0.0000 0.0000 -9.6401 0.0000 0.0000
# 5 0.0000 0.0000 0.0000 0.0000 24.3091 0.0000
# 6 0.0000 0.0000 0.0000 0.0000 0.0000 -38.0969
#
#
#
# Elastic Compliance Matrix: (Units=1/GPa)
#
#
# Indices 1 2 3 4 5 6 
#
# 1 0.020651 0.001175 -0.024807 0.000000 0.000000 0.000000
# 2 0.001175 0.015629 -0.002081 0.000000 0.000000 0.000000
# 3 -0.024807 -0.002081 0.038316 0.000000 0.000000 0.000000
# 4 0.000000 0.000000 0.000000 -0.103734 0.000000 0.000000
# 5 0.000000 0.000000 0.000000 0.000000 0.041137 0.000000
# 6 0.000000 0.000000 0.000000 0.000000 0.000000 -0.026249
#
#
# Mechanical properties :
#
#
# Convention : Reuss Voigt Hill
#
# Bulk Modulus (GPa) = 43.15566 77.50940 60.33253
# Shear Modulus (GPa) = 111.36246 12.08174 61.72210
#
# Velocity S-wave (km/s) = 7.49742 2.46949 5.58165
# Velocity P-wave (km/s) = 9.83522 6.87421 8.48488
#
# Compressibility (1/GPa) = 0.02317193
#
# Stress axis : x y z
#
# Youngs Moduli (GPa) = 48.42312 63.98490 26.09867
#
# Poissons Ratio (x) = -0.07521 0.64743
# Poissons Ratio (y) = -0.05692 0.05430
# Poissons Ratio (z) = 1.20122 0.13313
#
# Static dielectric constant tensor:
#      x y z
#    x 1.690820 0.000000 0.000000 
#    y 0.000000 1.741820 0.000000 
#    z 0.000000 0.000000 1.675820 
# 
# From -- ./inp_files/3744.got.cif
#   From: 2010.05.17/outbox.cif.g08.bks.cpg/sg47_2_cif.got.tgz:3744.got - 2010.06.03 20:15:42.
