data_PCOD9388965
_publ_section_title
;
Structure prediction by ZEFSAII (Michael W. Deem and Ramdas Pophale) SiO2 
 PCOD9388965
Probable space group: P M M M
;
_chemical_formula_sum "Si O2"
_cell_formula_units_Z 40
_cell_length_a 7.970472
_cell_length_b 7.420960
_cell_length_c 30.844351
_cell_angle_alpha 90.000000
_cell_angle_beta 90.000000
_cell_angle_gamma 90.000000
_cell_volume 1824.398757
_symmetry_space_group_name_H-M "P M M M"
_symmetry_group_IT_number 47
_symmetry_cell_setting 'orthorhombic'
loop_
_space_group_symop_operation_xyz
x,y,z
-x,-y,z
x,-y,-z
-x,y,-z
-x,-y,-z
x,y,-z
-x,y,z
x,-y,z
loop_
_atom_site_type_symbol
_atom_site_label
_atom_site_fract_x
_atom_site_fract_y
_atom_site_fract_z
Si Si1 0.189853 0.280476 0.549782
Si Si2 0.798948 0.205152 0.138918
Si Si3 0.189899 0.709751 0.235604
Si Si4 0.500000 0.720150 0.391782
Si Si5 0.500000 0.721564 0.708253
Si Si6 0.298645 0.211261 0.953384
O O1 0.224652 0.226651 0.500000
O O2 0.190561 0.500000 0.550140
O O3 0.334128 0.220876 0.582375
O O4 0.000000 0.224198 0.561018
O O5 0.750561 0.282481 0.185475
O O6 0.750888 0.290890 0.092953
O O7 0.000000 0.202750 0.139172
O O8 0.733591 0.000000 0.138502
O O9 0.174580 0.500000 0.246854
O O10 0.333196 0.784811 0.266690
O O11 0.000000 0.787190 0.238449
O O12 0.500000 0.500000 0.392287
O O13 0.500000 0.775034 0.341829
O O14 0.500000 0.500000 0.709841
O O15 0.500000 0.214841 0.954468
O O16 0.244762 0.000000 0.952653
O O17 0.238904 0.285468 0.000000
#
# Coordination Sequence:
#
# PCOD9388965 Si02
#       6
#     8   8   8   4   4   8
#     4   8  13  20  30  46  69  97 128 164 208 250
#     4   9  17  28  44  66  85 104 137 175 207 246
#     4   9  18  32  46  60  83 112 140 175 217 255
#     4   9  15  22  33  49  69  94 131 176 210 239
#     4   9  18  29  41  58  76 104 146 181 214 255
#     4   8  14  24  38  59  86 110 130 158 201 249
#
# _framework density 21.92503
#
# number of rings (size 3 to 8) (size 9 to 14) (size 15 to 20)
#    0.000    3.400    0.000    1.500    1.400    2.400 
#    0.000    6.000    0.000    0.600    0.000    4.200 
#    0.000    0.000    0.000    0.000    0.000    8.000 
#
# Total GULP energy -222956.705548 kJ/mol
# GULP energy per Si atom -5573.917639 kJ/mol
# Density = 2.187513 g / cm^3
# Si number density = 21.925030 Si / 1000 Ang^3
#
#
#
# Elastic Constant Matrix: (Units=GPa)
#
#
# Indices 1 2 3 4 5 6 
#
# 1 124.2892 8.9629 132.9037 0.0000 0.0000 0.0000
# 2 8.9629 66.8902 6.1176 0.0000 0.0000 0.0000
# 3 132.9037 6.1176 224.4000 0.0000 0.0000 0.0000
# 4 0.0000 0.0000 0.0000 8.2609 0.0000 0.0000
# 5 0.0000 0.0000 0.0000 0.0000 28.4441 0.0000
# 6 0.0000 0.0000 0.0000 0.0000 0.0000 -7.1877
#
#
#
# Elastic Compliance Matrix: (Units=1/GPa)
#
#
# Indices 1 2 3 4 5 6 
#
# 1 0.022149 -0.001773 -0.013070 0.000000 0.000000 0.000000
# 2 -0.001773 0.015129 0.000637 0.000000 0.000000 0.000000
# 3 -0.013070 0.000637 0.012180 0.000000 0.000000 0.000000
# 4 0.000000 0.000000 0.000000 0.121051 0.000000 0.000000
# 5 0.000000 0.000000 0.000000 0.000000 0.035157 0.000000
# 6 0.000000 0.000000 0.000000 0.000000 0.000000 -0.139127
#
#
# Mechanical properties :
#
#
# Convention : Reuss Voigt Hill
#
# Bulk Modulus (GPa) = 47.51041 79.06087 63.28564
# Shear Modulus (GPa) = 49.03588 23.74314 36.38951
#
# Velocity S-wave (km/s) = 4.73432 3.29435 4.07839
# Velocity P-wave (km/s) = 7.18343 7.11395 7.14877
#
# Compressibility (1/GPa) = 0.02104802
#
# Stress axis : x y z
#
# Youngs Moduli (GPa) = 45.14797 66.09784 82.10325
#
# Poissons Ratio (x) = 0.11716 1.07308
# Poissons Ratio (y) = 0.08003 -0.05233
# Poissons Ratio (z) = 0.59008 -0.04213
#
# Static dielectric constant tensor:
#      x y z
#    x 1.782620 0.000000 0.000000 
#    y 0.000000 1.923570 0.000000 
#    z 0.000000 0.000000 1.787920 
# 
# From -- ./inp_files/13008.got.cif
#   From: 2010.05.17/outbox.cif.g08.bks.cpg/sg47_7_cif.got.tgz:13008.got - 2010.06.03 20:15:42.
