data_PCOD9388421
_publ_section_title
;
Structure prediction by ZEFSAII (Michael W. Deem and Ramdas Pophale) SiO2 
 PCOD9388421
Probable space group: P M M M
;
_chemical_formula_sum "Si O2"
_cell_formula_units_Z 44
_cell_length_a 17.204010
_cell_length_b 15.765892
_cell_length_c 7.985893
_cell_angle_alpha 90.000000
_cell_angle_beta 90.000000
_cell_angle_gamma 90.000000
_cell_volume 2166.066175
_symmetry_space_group_name_H-M "P M M M"
_symmetry_group_IT_number 47
_symmetry_cell_setting 'orthorhombic'
loop_
_space_group_symop_operation_xyz
x,y,z
-x,-y,z
x,-y,-z
-x,y,-z
-x,-y,-z
x,y,-z
-x,y,z
x,-y,z
loop_
_atom_site_type_symbol
_atom_site_label
_atom_site_fract_x
_atom_site_fract_y
_atom_site_fract_z
Si Si1 0.410710 0.592157 0.704108
Si Si2 0.694309 0.745856 0.700301
Si Si3 0.131102 0.272120 0.196177
Si Si4 0.093181 0.090066 0.195034
Si Si5 0.588864 0.902158 0.797823
Si Si6 0.000000 0.403615 0.697934
O O1 0.410295 0.593565 0.500000
O O2 0.500000 0.597195 0.757206
O O3 0.378844 0.500000 0.755377
O O4 0.364250 0.673215 0.761689
O O5 0.702897 0.740630 0.500000
O O6 0.777084 0.722286 0.778546
O O7 0.654490 0.836153 0.740523
O O8 0.113276 0.179661 0.275497
O O9 0.076373 0.347835 0.258703
O O10 0.111908 0.266234 0.000000
O O11 0.000000 0.087700 0.190877
O O12 0.120614 0.000000 0.269247
O O13 0.120374 0.090907 0.000000
O O14 0.500000 0.878804 0.743219
O O15 0.602969 0.000000 0.744886
O O16 0.588777 0.901374 0.000000
O O17 0.000000 0.500000 0.770218
O O18 0.000000 0.412030 0.500000
#
# Coordination Sequence:
#
# PCOD9388421 Si02
#       6
#     8   8   8   8   8   4
#     4   8  15  30  52  76 103 138 180 224 273 333
#     4  11  22  34  53  85 120 152 187 235 292 348
#     4  11  22  38  60  86 115 150 192 237 284 344
#     4   8  14  28  53  81 104 131 172 219 266 318
#     4   9  19  37  59  82 113 158 208 251 294 348
#     4  11  25  45  66  85 110 148 193 245 306 362
#
# _framework density 20.313323
#
# number of rings (size 3 to 8) (size 9 to 14) (size 15 to 20)
#    0.000    2.455    0.909    3.545    0.000    3.636 
#    0.000    4.545    0.000    3.818    0.000    6.364 
#    0.000    0.000    0.000    0.000    0.000    0.000 
#
# Total GULP energy -245176.657870 kJ/mol
# GULP energy per Si atom -5572.196770 kJ/mol
# Density = 2.026709 g / cm^3
# Si number density = 20.313323 Si / 1000 Ang^3
#
#
#
# Elastic Constant Matrix: (Units=GPa)
#
#
# Indices 1 2 3 4 5 6 
#
# 1 92.3861 77.6795 -0.6337 0.0000 0.0000 0.0000
# 2 77.6795 182.9979 12.5318 0.0000 0.0000 0.0000
# 3 -0.6337 12.5318 26.2572 0.0000 0.0000 0.0000
# 4 0.0000 0.0000 0.0000 16.9870 0.0000 0.0000
# 5 0.0000 0.0000 0.0000 0.0000 25.1928 0.0000
# 6 0.0000 0.0000 0.0000 0.0000 0.0000 -8.3164
#
#
#
# Elastic Compliance Matrix: (Units=1/GPa)
#
#
# Indices 1 2 3 4 5 6 
#
# 1 0.017236 -0.007593 0.004040 0.000000 0.000000 0.000000
# 2 -0.007593 0.008994 -0.004476 0.000000 0.000000 0.000000
# 3 0.004040 -0.004476 0.040318 0.000000 0.000000 0.000000
# 4 0.000000 0.000000 0.000000 0.058868 0.000000 0.000000
# 5 0.000000 0.000000 0.000000 0.000000 0.039694 0.000000
# 6 0.000000 0.000000 0.000000 0.000000 0.000000 -0.120245
#
#
# Mechanical properties :
#
#
# Convention : Reuss Voigt Hill
#
# Bulk Modulus (GPa) = 19.80561 53.42181 36.61371
# Shear Modulus (GPa) = 64.30445 20.91026 42.60736
#
# Velocity S-wave (km/s) = 5.63250 3.21189 4.58482
# Velocity P-wave (km/s) = 7.21604 6.33332 6.78904
#
# Compressibility (1/GPa) = 0.05049074
#
# Stress axis : x y z
#
# Youngs Moduli (GPa) = 58.01717 111.18245 24.80253
#
# Poissons Ratio (x) = 0.84423 -0.10020
# Poissons Ratio (y) = 0.44053 0.11101
# Poissons Ratio (z) = -0.23439 0.49764
#
# Static dielectric constant tensor:
#      x y z
#    x 1.649890 0.000000 0.000000 
#    y 0.000000 1.788390 0.000000 
#    z 0.000000 0.000000 1.745640 
# 
# From -- ./inp_files/9013.got.cif
#   From: 2010.05.17/outbox.cif.g08.bks.cpg/sg47_5_cif.got.tgz:9013.got - 2010.06.03 20:15:42.
