data_PCOD9388701
_publ_section_title
;
Structure prediction by ZEFSAII (Michael W. Deem and Ramdas Pophale) SiO2 
 PCOD9388701
Probable space group: P M M M
;
_chemical_formula_sum "Si O2"
_cell_formula_units_Z 48
_cell_length_a 19.148077
_cell_length_b 14.400941
_cell_length_c 8.773247
_cell_angle_alpha 90.000000
_cell_angle_beta 90.000000
_cell_angle_gamma 90.000000
_cell_volume 2419.225730
_symmetry_space_group_name_H-M "P M M M"
_symmetry_group_IT_number 47
_symmetry_cell_setting 'orthorhombic'
loop_
_space_group_symop_operation_xyz
x,y,z
-x,-y,z
x,-y,-z
-x,y,-z
-x,-y,-z
x,y,-z
-x,y,z
x,-y,z
loop_
_atom_site_type_symbol
_atom_site_label
_atom_site_fract_x
_atom_site_fract_y
_atom_site_fract_z
Si Si1 0.082939 0.608386 0.831183
Si Si2 0.584629 0.099380 0.679860
Si Si3 0.079210 0.890959 0.816767
Si Si4 0.418251 0.695925 0.315361
Si Si5 0.710855 0.604092 0.818025
Si Si6 0.178023 0.258881 0.674346
O O1 0.099872 0.500000 0.822422
O O2 0.117062 0.665281 0.697422
O O3 0.000000 0.617429 0.828993
O O4 0.107273 0.642146 0.000000
O O5 0.602575 0.098716 0.500000
O O6 0.500000 0.099170 0.687246
O O7 0.605027 0.200464 0.739725
O O8 0.608992 0.000000 0.745967
O O9 0.142396 0.831656 0.748087
O O10 0.000000 0.860619 0.769049
O O11 0.085559 0.000000 0.778730
O O12 0.081110 0.882368 0.000000
O O13 0.412729 0.694054 0.500000
O O14 0.500000 0.682942 0.278265
O O15 0.367020 0.622038 0.242316
O O16 0.734099 0.500000 0.769401
O O17 0.757955 0.687931 0.754055
O O18 0.712815 0.606655 0.000000
O O19 0.195811 0.240895 0.500000
#
# Coordination Sequence:
#
# PCOD9388701 Si02
#       6
#     8   8   8   8   8   8
#     4   9  18  33  53  77 107 145 186 224 265 321
#     4   7  10  20  43  76 110 139 165 196 242 307
#     4   9  19  38  64  91 120 158 200 236 273 325
#     4   9  18  34  58  87 115 143 180 232 296 360
#     4  11  25  43  60  77 103 146 197 244 293 354
#     4  12  24  36  55  83 114 147 184 232 289 341
#
# _framework density 19.841059000000001
#
# number of rings (size 3 to 8) (size 9 to 14) (size 15 to 20)
#    0.000    2.500    0.000    5.500    0.000    7.333 
#    0.000    4.167    0.000    3.500    0.000    2.333 
#    0.000    0.000    0.000    0.000    0.000    0.000 
#
# Total GULP energy -267517.662313 kJ/mol
# GULP energy per Si atom -5573.284632 kJ/mol
# Density = 1.979590 g / cm^3
# Si number density = 19.841059 Si / 1000 Ang^3
#
#
#
# Elastic Constant Matrix: (Units=GPa)
#
#
# Indices 1 2 3 4 5 6 
#
# 1 87.6507 53.0717 30.3384 0.0000 0.0000 0.0000
# 2 53.0717 91.8627 31.3337 0.0000 0.0000 0.0000
# 3 30.3384 31.3337 43.9719 0.0000 0.0000 0.0000
# 4 0.0000 0.0000 0.0000 8.8857 0.0000 0.0000
# 5 0.0000 0.0000 0.0000 0.0000 25.1263 0.0000
# 6 0.0000 0.0000 0.0000 0.0000 0.0000 39.2286
#
#
#
# Elastic Compliance Matrix: (Units=1/GPa)
#
#
# Indices 1 2 3 4 5 6 
#
# 1 0.019051 -0.008617 -0.007004 0.000000 0.000000 0.000000
# 2 -0.008617 0.018279 -0.007080 0.000000 0.000000 0.000000
# 3 -0.007004 -0.007080 0.032619 0.000000 0.000000 0.000000
# 4 0.000000 0.000000 0.000000 0.112540 0.000000 0.000000
# 5 0.000000 0.000000 0.000000 0.000000 0.039799 0.000000
# 6 0.000000 0.000000 0.000000 0.000000 0.000000 0.025492
#
#
# Mechanical properties :
#
#
# Convention : Reuss Voigt Hill
#
# Bulk Modulus (GPa) = 40.73762 50.33034 45.53398
# Shear Modulus (GPa) = 16.59125 21.89756 19.24440
#
# Velocity S-wave (km/s) = 2.89486 3.32573 3.11775
# Velocity P-wave (km/s) = 5.63473 6.33791 5.99664
#
# Compressibility (1/GPa) = 0.02454734
#
# Stress axis : x y z
#
# Youngs Moduli (GPa) = 52.49135 54.70702 30.65703
#
# Poissons Ratio (x) = 0.47143 0.21471
# Poissons Ratio (y) = 0.45233 0.21705
# Poissons Ratio (z) = 0.36762 0.38732
#
# Static dielectric constant tensor:
#      x y z
#    x 1.711180 0.000000 0.000000 
#    y 0.000000 1.748030 0.000000 
#    z 0.000000 0.000000 1.691560 
# 
# From -- ./inp_files/9129.got.cif
#   From: 2010.05.17/outbox.cif.g08.bks.cpg/sg47_5_cif.got.tgz:9129.got - 2010.06.03 20:15:42.
