data_PCOD9388553
_publ_section_title
;
Structure prediction by ZEFSAII (Michael W. Deem and Ramdas Pophale) SiO2 
 PCOD9388553
Probable space group: P M M M
;
_chemical_formula_sum "Si O2"
_cell_formula_units_Z 56
_cell_length_a 22.524254
_cell_length_b 8.921158
_cell_length_c 15.153702
_cell_angle_alpha 90.000000
_cell_angle_beta 90.000000
_cell_angle_gamma 90.000000
_cell_volume 3045.021685
_symmetry_space_group_name_H-M "P M M M"
_symmetry_group_IT_number 47
_symmetry_cell_setting 'orthorhombic'
loop_
_space_group_symop_operation_xyz
x,y,z
-x,-y,z
x,-y,-z
-x,y,-z
-x,-y,-z
x,y,-z
-x,y,z
x,-y,z
loop_
_atom_site_type_symbol
_atom_site_label
_atom_site_fract_x
_atom_site_fract_y
_atom_site_fract_z
Si Si1 0.215759 0.679366 0.898684
Si Si2 0.164702 0.821979 0.728579
Si Si3 0.500000 0.674432 0.393864
Si Si4 0.259036 0.323703 0.400051
Si Si5 0.623294 0.825335 0.344493
Si Si6 0.656064 0.175227 0.138729
Si Si7 0.070699 0.321941 0.600976
Si Si8 0.430570 0.679756 0.000000
O O1 0.217804 0.500000 0.888786
O O2 0.173057 0.748413 0.824518
O O3 0.281524 0.745335 0.881695
O O4 0.198909 0.714135 0.000000
O O5 0.220467 0.768596 0.669332
O O6 0.107963 0.764522 0.674066
O O7 0.164813 0.000000 0.736615
O O8 0.500000 0.500000 0.366651
O O9 0.500000 0.680178 0.500000
O O10 0.558860 0.756369 0.360094
O O11 0.236698 0.302414 0.500000
O O12 0.255422 0.500000 0.378856
O O13 0.326533 0.268147 0.394979
O O14 0.640780 0.815583 0.241723
O O15 0.624569 0.000000 0.371032
O O16 0.660584 0.000000 0.114558
O O17 0.604133 0.253244 0.083443
O O18 0.085437 0.275786 0.500000
O O19 0.083793 0.500000 0.607785
O O20 0.000000 0.302779 0.612066
O O21 0.425653 0.500000 0.000000
O O22 0.500000 0.720188 0.000000
#
# Coordination Sequence:
#
# PCOD9388553 Si02
#       8
#     8   8   4   8   8   8   8   4
#     4  11  23  40  64  89 116 154 201 249 301 363
#     4  12  24  37  58  91 128 164 202 248 304 359
#     4  11  25  43  61  80 105 144 191 235 286 351
#     4  11  23  38  58  84 116 155 197 242 293 350
#     4  11  24  40  59  84 111 144 187 237 295 354
#     4  11  23  39  60  85 114 146 184 237 301 360
#     4   9  19  38  64  93 128 172 217 257 299 351
#     4  11  25  41  59  85 113 147 192 237 292 361
#
# _framework density 18.390673
#
# number of rings (size 3 to 8) (size 9 to 14) (size 15 to 20)
#    0.000    1.143    2.143    4.714    1.000    8.857 
#    0.000    0.714    0.000    0.429    0.000    3.000 
#    0.000    0.000    0.000    0.000    0.000    0.000 
#
# Total GULP energy -313178.074507 kJ/mol
# GULP energy per Si atom -5592.465616 kJ/mol
# Density = 1.834882 g / cm^3
# Si number density = 18.390673 Si / 1000 Ang^3
#
#
#
# Elastic Constant Matrix: (Units=GPa)
#
#
# Indices 1 2 3 4 5 6 
#
# 1 83.8594 49.6719 51.7832 0.0000 0.0000 0.0000
# 2 49.6719 114.2745 73.3447 0.0000 0.0000 0.0000
# 3 51.7832 73.3447 122.6933 0.0000 0.0000 0.0000
# 4 0.0000 0.0000 0.0000 33.6694 0.0000 0.0000
# 5 0.0000 0.0000 0.0000 0.0000 27.9117 0.0000
# 6 0.0000 0.0000 0.0000 0.0000 0.0000 53.0689
#
#
#
# Elastic Compliance Matrix: (Units=1/GPa)
#
#
# Indices 1 2 3 4 5 6 
#
# 1 0.017535 -0.004660 -0.004615 0.000000 0.000000 0.000000
# 2 -0.004660 0.015437 -0.007261 0.000000 0.000000 0.000000
# 3 -0.004615 -0.007261 0.014439 0.000000 0.000000 0.000000
# 4 0.000000 0.000000 0.000000 0.029701 0.000000 0.000000
# 5 0.000000 0.000000 0.000000 0.000000 0.035827 0.000000
# 6 0.000000 0.000000 0.000000 0.000000 0.000000 0.018843
#
#
# Mechanical properties :
#
#
# Convention : Reuss Voigt Hill
#
# Bulk Modulus (GPa) = 69.74364 74.49187 72.11775
# Shear Modulus (GPa) = 29.47540 32.66517 31.07028
#
# Velocity S-wave (km/s) = 4.00776 4.21905 4.11476
# Velocity P-wave (km/s) = 7.70856 8.02041 7.86603
#
# Compressibility (1/GPa) = 0.01433823
#
# Stress axis : x y z
#
# Youngs Moduli (GPa) = 57.03024 64.78011 69.25738
#
# Poissons Ratio (x) = 0.30186 0.31962
# Poissons Ratio (y) = 0.26575 0.50290
# Poissons Ratio (z) = 0.26319 0.47039
#
# Static dielectric constant tensor:
#      x y z
#    x 1.611400 0.000000 0.000000 
#    y 0.000000 1.614080 0.000000 
#    z 0.000000 0.000000 1.645580 
# 
# From -- ./inp_files/25177.got.cif
#   From: 2010.05.17/outbox.cif.g08.bks.cpg/sg47_13_cif.got.tgz:25177.got - 2010.06.03 20:15:42.
