data_PCOD9388952
_publ_section_title
;
Structure prediction by ZEFSAII (Michael W. Deem and Ramdas Pophale) SiO2 
 PCOD9388952
Probable space group: P M M M
;
_chemical_formula_sum "Si O2"
_cell_formula_units_Z 40
_cell_length_a 7.275377
_cell_length_b 13.670659
_cell_length_c 19.876144
_cell_angle_alpha 90.000000
_cell_angle_beta 90.000000
_cell_angle_gamma 90.000000
_cell_volume 1976.865343
_symmetry_space_group_name_H-M "P M M M"
_symmetry_group_IT_number 47
_symmetry_cell_setting 'orthorhombic'
loop_
_space_group_symop_operation_xyz
x,y,z
-x,-y,z
x,-y,-z
-x,y,-z
-x,-y,-z
x,y,-z
-x,y,z
x,-y,z
loop_
_atom_site_type_symbol
_atom_site_label
_atom_site_fract_x
_atom_site_fract_y
_atom_site_fract_z
Si Si1 0.223198 0.610362 0.206048
Si Si2 0.776466 0.890173 0.421850
Si Si3 0.500000 0.891596 0.081138
Si Si4 0.219577 0.727420 0.077477
Si Si5 0.223739 0.500000 0.577707
Si Si6 0.224062 0.697023 0.344008
O O1 0.284512 0.500000 0.219046
O O2 0.275690 0.647668 0.132429
O O3 0.280835 0.680382 0.266878
O O4 0.000000 0.609009 0.207146
O O5 0.723726 0.876153 0.500000
O O6 0.714828 0.798430 0.377411
O O7 0.000000 0.889778 0.420459
O O8 0.719181 0.000000 0.400971
O O9 0.322056 0.827070 0.097281
O O10 0.500000 0.000000 0.110114
O O11 0.500000 0.899807 0.000000
O O12 0.000000 0.739360 0.080139
O O13 0.268131 0.703009 0.000000
O O14 0.280017 0.500000 0.500000
O O15 0.280577 0.400077 0.614771
O O16 0.000000 0.500000 0.579254
O O17 0.000000 0.698091 0.345551
#
# Coordination Sequence:
#
# PCOD9388952 Si02
#       6
#     8   8   4   8   4   8
#     4   9  16  27  42  61  90 128 165 207 260 307
#     4   8  13  20  29  42  65 102 147 194 244 296
#     4   9  18  34  55  77 103 133 166 213 266 305
#     4   9  18  32  51  76 103 134 174 213 252 306
#     4   9  14  18  28  48  73 106 151 200 244 292
#     4   9  14  21  32  49  75 110 154 201 247 300
#
# _framework density 20.234055000000001
#
# number of rings (size 3 to 8) (size 9 to 14) (size 15 to 20)
#    0.000    3.200    1.000    1.200    0.000    3.200 
#    0.000    5.500    0.000    5.400    0.000    0.000 
#    0.000    0.000    0.000    4.500    0.000   19.200 
#
# Total GULP energy -223105.677567 kJ/mol
# GULP energy per Si atom -5577.641939 kJ/mol
# Density = 2.018800 g / cm^3
# Si number density = 20.234055 Si / 1000 Ang^3
#
#
#
# Elastic Constant Matrix: (Units=GPa)
#
#
# Indices 1 2 3 4 5 6 
#
# 1 80.2315 11.9887 12.2637 0.0000 0.0000 0.0000
# 2 11.9887 181.2940 97.4035 0.0000 0.0000 0.0000
# 3 12.2637 97.4035 135.8000 0.0000 0.0000 0.0000
# 4 0.0000 0.0000 0.0000 31.8259 0.0000 0.0000
# 5 0.0000 0.0000 0.0000 0.0000 -21.3924 0.0000
# 6 0.0000 0.0000 0.0000 0.0000 0.0000 -1.6493
#
#
#
# Elastic Compliance Matrix: (Units=1/GPa)
#
#
# Indices 1 2 3 4 5 6 
#
# 1 0.012653 -0.000363 -0.000883 0.000000 0.000000 0.000000
# 2 -0.000363 0.008985 -0.006412 0.000000 0.000000 0.000000
# 3 -0.000883 -0.006412 0.012042 0.000000 0.000000 0.000000
# 4 0.000000 0.000000 0.000000 0.031421 0.000000 0.000000
# 5 0.000000 0.000000 0.000000 0.000000 -0.046745 0.000000
# 6 0.000000 0.000000 0.000000 0.000000 0.000000 -0.606322
#
#
# Mechanical properties :
#
#
# Convention : Reuss Voigt Hill
#
# Bulk Modulus (GPa) = 54.44714 71.18193 62.81454
# Shear Modulus (GPa) = -8.82563 20.13482 5.65459
#
# Velocity S-wave (km/s) = -2.09075 3.15794 1.67352
# Velocity P-wave (km/s) = 4.59769 6.96795 5.90301
#
# Compressibility (1/GPa) = 0.01836644
#
# Stress axis : x y z
#
# Youngs Moduli (GPa) = 79.03258 111.30185 83.04142
#
# Poissons Ratio (x) = 0.04035 0.07330
# Poissons Ratio (y) = 0.02865 0.53242
# Poissons Ratio (z) = 0.06976 0.71361
#
# Static dielectric constant tensor:
#      x y z
#    x 1.788100 0.000000 0.000000 
#    y 0.000000 1.690780 0.000000 
#    z 0.000000 0.000000 1.692910 
# 
# From -- ./inp_files/29352.got.cif
#   From: 2010.05.17/outbox.cif.g08.bks.cpg/sg47_15_cif.got.tgz:29352.got - 2010.06.03 20:15:42.
