data_PCOD9388276
_publ_section_title
;
Structure prediction by ZEFSAII (Michael W. Deem and Ramdas Pophale) SiO2 
 PCOD9388276
Probable space group: P M M M
;
_chemical_formula_sum "Si O2"
_cell_formula_units_Z 52
_cell_length_a 27.430136
_cell_length_b 8.484369
_cell_length_c 12.704057
_cell_angle_alpha 90.000000
_cell_angle_beta 90.000000
_cell_angle_gamma 90.000000
_cell_volume 2956.582098
_symmetry_space_group_name_H-M "P M M M"
_symmetry_group_IT_number 47
_symmetry_cell_setting 'orthorhombic'
loop_
_space_group_symop_operation_xyz
x,y,z
-x,-y,z
x,-y,-z
-x,y,-z
-x,-y,-z
x,y,-z
-x,y,z
x,-y,z
loop_
_atom_site_type_symbol
_atom_site_label
_atom_site_fract_x
_atom_site_fract_y
_atom_site_fract_z
Si Si1 0.556224 0.689982 0.618646
Si Si2 0.672270 0.193066 0.000000
Si Si3 0.865121 0.810371 0.832935
Si Si4 0.785025 0.192012 0.000000
Si Si5 0.280216 0.689941 0.619814
Si Si6 0.638046 0.187378 0.773160
Si Si7 0.944473 0.807531 0.000000
Si Si8 0.833115 0.310328 0.383266
O O1 0.570899 0.742231 0.500000
O O2 0.500000 0.738749 0.635346
O O3 0.557406 0.500000 0.617904
O O4 0.592180 0.747211 0.708870
O O5 0.645986 0.245169 0.892662
O O6 0.729091 0.244623 0.000000
O O7 0.672831 0.000000 0.000000
O O8 0.816963 0.758384 0.898551
O O9 0.912443 0.759177 0.899009
O O10 0.863238 0.751978 0.714489
O O11 0.864503 0.000000 0.833466
O O12 0.784317 0.000000 0.000000
O O13 0.295258 0.730778 0.500000
O O14 0.283627 0.500000 0.628905
O O15 0.314404 0.767464 0.705656
O O16 0.223656 0.735670 0.631857
O O17 0.633634 0.000000 0.777200
O O18 0.000000 0.751930 0.000000
O O19 0.945413 0.000000 0.000000
O O20 0.848386 0.256449 0.500000
O O21 0.834294 0.500000 0.382932
#
# Coordination Sequence:
#
# PCOD9388276 Si02
#       8
#     8   4   8   4   8   8   4   8
#     4   9  19  37  58  75  92 117 148 186 237 290
#     4   9  19  32  43  62  98 135 155 176 221 274
#     4   9  16  27  48  73  92 119 160 201 238 275
#     4   8  14  27  45  65  92 123 155 191 229 268
#     4   9  18  32  48  67  95 129 159 189 231 281
#     4  11  21  32  49  72  97 125 157 193 231 271
#     4   8  15  29  49  73  99 124 153 196 250 297
#     4   9  18  31  45  64  95 132 161 188 230 281
#
# _framework density 17.587875
#
# number of rings (size 3 to 8) (size 9 to 14) (size 15 to 20)
#    0.000    2.846    0.000    4.154    0.000    4.923 
#    0.000    5.769    0.000    9.231    0.000    3.231 
#    0.000    0.000    0.000    0.000    0.000    0.000 
#
# Total GULP energy -289917.997117 kJ/mol
# GULP energy per Si atom -5575.346098 kJ/mol
# Density = 1.754784 g / cm^3
# Si number density = 17.587875 Si / 1000 Ang^3
#
#
#
# Elastic Constant Matrix: (Units=GPa)
#
#
# Indices 1 2 3 4 5 6 
#
# 1 111.0216 18.6991 95.5655 0.0000 0.0000 0.0000
# 2 18.6991 5.6268 22.5842 0.0000 0.0000 0.0000
# 3 95.5655 22.5842 186.1743 0.0000 0.0000 0.0000
# 4 0.0000 0.0000 0.0000 33.5435 0.0000 0.0000
# 5 0.0000 0.0000 0.0000 0.0000 14.0625 0.0000
# 6 0.0000 0.0000 0.0000 0.0000 0.0000 16.9176
#
#
#
# Elastic Compliance Matrix: (Units=1/GPa)
#
#
# Indices 1 2 3 4 5 6 
#
# 1 0.022484 -0.055342 -0.004828 0.000000 0.000000 0.000000
# 2 -0.055342 0.482581 -0.030133 0.000000 0.000000 0.000000
# 3 -0.004828 -0.030133 0.011505 0.000000 0.000000 0.000000
# 4 0.000000 0.000000 0.000000 0.029812 0.000000 0.000000
# 5 0.000000 0.000000 0.000000 0.000000 0.071111 0.000000
# 6 0.000000 0.000000 0.000000 0.000000 0.000000 0.059110
#
#
# Mechanical properties :
#
#
# Convention : Reuss Voigt Hill
#
# Bulk Modulus (GPa) = 2.97651 64.05781 33.51716
# Shear Modulus (GPa) = 5.15891 23.96964 14.56427
#
# Velocity S-wave (km/s) = 1.71452 3.69569 2.88077
# Velocity P-wave (km/s) = 2.36970 7.39672 5.49213
#
# Compressibility (1/GPa) = 0.33596440
#
# Stress axis : x y z
#
# Youngs Moduli (GPa) = 44.47540 2.07219 86.91943
#
# Poissons Ratio (x) = 0.11468 0.41965
# Poissons Ratio (y) = 2.46137 2.61911
# Poissons Ratio (z) = 0.21473 0.06244
#
# Static dielectric constant tensor:
#      x y z
#    x 1.588330 0.000000 0.000000 
#    y 0.000000 1.605550 0.000000 
#    z 0.000000 0.000000 1.608180 
# 
# From -- ./inp_files/19899.got.cif
#   From: 2010.05.17/outbox.cif.g08.bks.cpg/sg47_10_cif.got.tgz:19899.got - 2010.06.03 20:15:42.
