data_PCOD9388569
_publ_section_title
;
Structure prediction by ZEFSAII (Michael W. Deem and Ramdas Pophale) SiO2 
 PCOD9388569
Probable space group: P M M M
;
_chemical_formula_sum "Si O2"
_cell_formula_units_Z 56
_cell_length_a 15.906088
_cell_length_b 20.225426
_cell_length_c 8.681358
_cell_angle_alpha 90.000000
_cell_angle_beta 90.000000
_cell_angle_gamma 90.000000
_cell_volume 2792.857161
_symmetry_space_group_name_H-M "P M M M"
_symmetry_group_IT_number 47
_symmetry_cell_setting 'orthorhombic'
loop_
_space_group_symop_operation_xyz
x,y,z
-x,-y,z
x,-y,-z
-x,y,-z
-x,-y,-z
x,y,-z
-x,y,z
x,-y,z
loop_
_atom_site_type_symbol
_atom_site_label
_atom_site_fract_x
_atom_site_fract_y
_atom_site_fract_z
Si Si1 0.355526 0.424442 0.679079
Si Si2 0.407293 0.295931 0.820073
Si Si3 0.153110 0.574567 0.683064
Si Si4 0.737069 0.073455 0.320620
Si Si5 0.095109 0.713644 0.184243
Si Si6 0.258551 0.785535 0.683836
Si Si7 0.092355 0.079296 0.172415
O O1 0.372640 0.407184 0.500000
O O2 0.380728 0.500000 0.703030
O O3 0.400509 0.373862 0.790273
O O4 0.254318 0.420850 0.700764
O O5 0.500000 0.272541 0.771754
O O6 0.330776 0.265846 0.725401
O O7 0.395815 0.281234 0.000000
O O8 0.135353 0.579220 0.500000
O O9 0.127666 0.500000 0.733876
O O10 0.113076 0.637758 0.765322
O O11 0.714709 0.069728 0.500000
O O12 0.706237 0.143284 0.255480
O O13 0.836694 0.086919 0.299010
O O14 0.719164 0.000000 0.252766
O O15 0.169812 0.759964 0.248941
O O16 0.000000 0.731352 0.234762
O O17 0.098281 0.717691 0.000000
O O18 0.248960 0.790159 0.500000
O O19 0.000000 0.105920 0.208544
O O20 0.085035 0.000000 0.159674
O O21 0.117189 0.103174 0.000000
#
# Coordination Sequence:
#
# PCOD9388569 Si02
#       7
#     8   8   8   8   8   8   8
#     4   9  18  34  58  88 120 154 192 234 283 338
#     4  11  24  40  60  88 120 153 190 234 286 342
#     4   9  18  34  57  84 114 151 196 244 292 339
#     4   9  19  35  55  80 107 136 175 226 283 339
#     4  11  24  39  56  82 117 157 200 244 290 339
#     4  11  23  40  62  85 113 150 191 236 286 344
#     4   8  14  25  42  67 100 136 173 212 256 313
#
# _framework density 20.05115
#
# number of rings (size 3 to 8) (size 9 to 14) (size 15 to 20)
#    0.000    2.286    1.429    2.571    0.000    5.429 
#    0.000    8.571    0.000    0.429    0.000    3.000 
#    0.000    0.000    0.000    0.000    0.000    0.000 
#
# Total GULP energy -312091.256259 kJ/mol
# GULP energy per Si atom -5573.058147 kJ/mol
# Density = 2.000551 g / cm^3
# Si number density = 20.051150 Si / 1000 Ang^3
#
#
#
# Elastic Constant Matrix: (Units=GPa)
#
#
# Indices 1 2 3 4 5 6 
#
# 1 60.2562 26.7247 21.2009 0.0000 0.0000 0.0000
# 2 26.7247 120.7140 21.5841 0.0000 0.0000 0.0000
# 3 21.2009 21.5841 24.3035 0.0000 0.0000 0.0000
# 4 0.0000 0.0000 0.0000 -2.7846 0.0000 0.0000
# 5 0.0000 0.0000 0.0000 0.0000 23.0710 0.0000
# 6 0.0000 0.0000 0.0000 0.0000 0.0000 -3.1818
#
#
#
# Elastic Compliance Matrix: (Units=1/GPa)
#
#
# Indices 1 2 3 4 5 6 
#
# 1 0.024303 -0.001890 -0.019522 0.000000 0.000000 0.000000
# 2 -0.001890 0.009995 -0.007228 0.000000 0.000000 0.000000
# 3 -0.019522 -0.007228 0.064595 0.000000 0.000000 0.000000
# 4 0.000000 0.000000 0.000000 -0.359114 0.000000 0.000000
# 5 0.000000 0.000000 0.000000 0.000000 0.043344 0.000000
# 6 0.000000 0.000000 0.000000 0.000000 0.000000 -0.314286
#
#
# Mechanical properties :
#
#
# Convention : Reuss Voigt Hill
#
# Bulk Modulus (GPa) = 24.03060 38.25479 31.14269
# Shear Modulus (GPa) = -10.86928 12.47184 0.80128
#
# Velocity S-wave (km/s) = -2.33078 2.49670 0.63284
# Velocity P-wave (km/s) = 2.18341 5.23750 4.01240
#
# Compressibility (1/GPa) = 0.04161361
#
# Stress axis : x y z
#
# Youngs Moduli (GPa) = 41.14779 100.05206 15.48097
#
# Poissons Ratio (x) = 0.18907 0.30222
# Poissons Ratio (y) = 0.07776 0.11190
# Poissons Ratio (z) = 0.80328 0.72317
#
# Static dielectric constant tensor:
#      x y z
#    x 1.709570 0.000000 0.000000 
#    y 0.000000 1.788020 0.000000 
#    z 0.000000 0.000000 1.692660 
# 
# From -- ./inp_files/7191.got.cif
#   From: 2010.05.17/outbox.cif.g08.bks.cpg/sg47_4_cif.got.tgz:7191.got - 2010.06.03 20:15:42.
