data_PCOD9388707
_publ_section_title
;
Structure prediction by ZEFSAII (Michael W. Deem and Ramdas Pophale) SiO2 
 PCOD9388707
Probable space group: P M M M
;
_chemical_formula_sum "Si O2"
_cell_formula_units_Z 58
_cell_length_a 7.209545
_cell_length_b 16.360066
_cell_length_c 24.009607
_cell_angle_alpha 90.000000
_cell_angle_beta 90.000000
_cell_angle_gamma 90.000000
_cell_volume 2831.900301
_symmetry_space_group_name_H-M "P M M M"
_symmetry_group_IT_number 47
_symmetry_cell_setting 'orthorhombic'
loop_
_space_group_symop_operation_xyz
x,y,z
-x,-y,z
x,-y,-z
-x,y,-z
-x,-y,-z
x,y,-z
-x,y,z
x,-y,z
loop_
_atom_site_type_symbol
_atom_site_label
_atom_site_fract_x
_atom_site_fract_y
_atom_site_fract_z
Si Si1 0.275300 0.746670 0.238687
Si Si2 0.724336 0.687623 0.062870
Si Si3 0.723241 0.150429 0.132223
Si Si4 0.726402 0.248965 0.633992
Si Si5 0.725257 0.592414 0.435407
Si Si6 0.725249 0.908862 0.435484
Si Si7 0.274103 0.591007 0.830791
Si Si8 0.000000 0.000000 0.116051
O O1 0.500000 0.745848 0.239396
O O2 0.226212 0.816494 0.194132
O O3 0.214207 0.756260 0.301932
O O4 0.215648 0.660399 0.212487
O O5 0.500000 0.683694 0.061246
O O6 0.767908 0.775417 0.089897
O O7 0.783475 0.620048 0.107661
O O8 0.790971 0.678232 0.000000
O O9 0.500000 0.137753 0.130593
O O10 0.838725 0.071480 0.117557
O O11 0.500000 0.249605 0.633359
O O12 0.784976 0.332792 0.603535
O O13 0.785687 0.168151 0.600656
O O14 0.779095 0.605919 0.500000
O O15 0.500000 0.592520 0.434508
O O16 0.782499 0.500000 0.419192
O O17 0.779796 0.899075 0.500000
O O18 0.500000 0.908493 0.434563
O O19 0.782475 0.000000 0.416645
O O20 0.500000 0.591362 0.830336
O O21 0.213246 0.500000 0.817543
#
# Coordination Sequence:
#
# PCOD9388707 Si02
#       8
#     8   8   8   8   8   8   8   2
#     4   8  15  27  40  58  91 127 157 202 258 299
#     4   8  14  27  47  68  98 137 164 197 254 299
#     4   9  19  36  53  75 105 132 167 213 255 303
#     4   9  14  20  32  48  68 106 155 192 239 303
#     4   8  13  19  26  41  70 110 156 201 242 290
#     4   8  13  20  28  40  61  90 131 185 239 292
#     4   8  13  21  36  61  92 126 166 206 241 288
#     4  12  22  36  61  80  94 134 177 204 260 314
#
# _framework density 20.480948000000001
#
# number of rings (size 3 to 8) (size 9 to 14) (size 15 to 20)
#    0.000    3.586    0.000    3.103    0.000    2.483 
#    1.241    5.172    0.000    1.655    0.000    7.724 
#    0.000    4.414    0.000    5.517    0.000   16.414 
#
# Total GULP energy -323059.447005 kJ/mol
# GULP energy per Si atom -5569.990466 kJ/mol
# Density = 2.043433 g / cm^3
# Si number density = 20.480948 Si / 1000 Ang^3
#
#
#
# Elastic Constant Matrix: (Units=GPa)
#
#
# Indices 1 2 3 4 5 6 
#
# 1 103.9919 4.5567 -4.6552 0.0000 0.0000 0.0000
# 2 4.5567 82.5641 23.0969 0.0000 0.0000 0.0000
# 3 -4.6552 23.0969 95.1445 0.0000 0.0000 0.0000
# 4 0.0000 0.0000 0.0000 3.2299 0.0000 0.0000
# 5 0.0000 0.0000 0.0000 0.0000 -24.0447 0.0000
# 6 0.0000 0.0000 0.0000 0.0000 0.0000 -155.6184
#
#
#
# Elastic Compliance Matrix: (Units=1/GPa)
#
#
# Indices 1 2 3 4 5 6 
#
# 1 0.009676 -0.000715 0.000647 0.000000 0.000000 0.000000
# 2 -0.000715 0.013047 -0.003202 0.000000 0.000000 0.000000
# 3 0.000647 -0.003202 0.011319 0.000000 0.000000 0.000000
# 4 0.000000 0.000000 0.000000 0.309611 0.000000 0.000000
# 5 0.000000 0.000000 0.000000 0.000000 -0.041589 0.000000
# 6 0.000000 0.000000 0.000000 0.000000 0.000000 -0.006426
#
#
# Mechanical properties :
#
#
# Convention : Reuss Voigt Hill
#
# Bulk Modulus (GPa) = 36.36055 36.41082 36.38569
# Shear Modulus (GPa) = 16.05924 -18.03985 -0.99030
#
# Velocity S-wave (km/s) = 2.80323 -2.97107 -0.69611
# Velocity P-wave (km/s) = 5.31689 2.45903 4.14223
#
# Compressibility (1/GPa) = 0.02750233
#
# Stress axis : x y z
#
# Youngs Moduli (GPa) = 103.34389 76.64549 88.34425
#
# Poissons Ratio (x) = 0.05480 -0.05716
# Poissons Ratio (y) = 0.07390 0.28290
# Poissons Ratio (z) = -0.06687 0.24544
#
# Static dielectric constant tensor:
#      x y z
#    x 1.776390 0.000000 0.000000 
#    y 0.000000 1.683480 0.000000 
#    z 0.000000 0.000000 1.694140 
# 
# From -- ./inp_files/32059.got.cif
#   From: 2010.05.17/outbox.cif.g08.bks.cpg/sg47_17_cif.got.tgz:32059.got - 2010.06.03 20:15:42.
