data_PCOD9388725
_publ_section_title
;
Structure prediction by ZEFSAII (Michael W. Deem and Ramdas Pophale) SiO2 
 PCOD9388725
Probable space group: P M M M
;
_chemical_formula_sum "Si O2"
_cell_formula_units_Z 52
_cell_length_a 9.718790
_cell_length_b 7.385758
_cell_length_c 35.536006
_cell_angle_alpha 90.000000
_cell_angle_beta 90.000000
_cell_angle_gamma 90.000000
_cell_volume 2550.796934
_symmetry_space_group_name_H-M "P M M M"
_symmetry_group_IT_number 47
_symmetry_cell_setting 'orthorhombic'
loop_
_space_group_symop_operation_xyz
x,y,z
-x,-y,z
x,-y,-z
-x,y,-z
-x,-y,-z
x,y,-z
-x,y,z
x,-y,z
loop_
_atom_site_type_symbol
_atom_site_label
_atom_site_fract_x
_atom_site_fract_y
_atom_site_fract_z
Si Si1 0.666433 0.284217 0.040542
Si Si2 0.344296 0.283929 0.878398
Si Si3 0.159339 0.778453 0.417694
Si Si4 0.844856 0.216550 0.807104
Si Si5 0.840603 0.779434 0.723284
Si Si6 0.167256 0.790549 0.500000
Si Si7 0.341632 0.778735 0.346934
O O1 0.500000 0.263019 0.041330
O O2 0.693907 0.500000 0.039494
O O3 0.713545 0.214692 0.081369
O O4 0.714693 0.210721 0.000000
O O5 0.500000 0.214782 0.872850
O O6 0.354296 0.500000 0.882990
O O7 0.253061 0.254377 0.841907
O O8 0.205908 0.714674 0.459217
O O9 0.257606 0.722084 0.383932
O O10 0.000000 0.725347 0.411337
O O11 0.159253 0.000000 0.418731
O O12 0.800093 0.279618 0.765499
O O13 0.000000 0.284054 0.813986
O O14 0.852457 0.000000 0.804296
O O15 0.740022 0.719107 0.690299
O O16 0.000000 0.726818 0.716838
O O17 0.838695 0.000000 0.722643
O O18 0.000000 0.789773 0.500000
O O19 0.212745 0.000000 0.500000
O O20 0.500000 0.721175 0.347260
O O21 0.341188 0.000000 0.346853
#
# Coordination Sequence:
#
# PCOD9388725 Si02
#       7
#     8   8   8   8   8   4   8
#     4   7  10  19  37  60  84 108 134 166 202 237
#     4   9  17  28  44  68  92 111 136 171 209 249
#     4   8  12  18  27  36  48  70 100 134 173 217
#     4   9  18  31  45  61  82 110 143 175 208 249
#     4   8  14  25  38  49  63  87 120 155 189 227
#     4   7  10  16  25  35  45  63  97 135 168 209
#     4   9  15  20  27  42  61  78 101 138 184 229
#
# _framework density 20.385784999999998
#
# number of rings (size 3 to 8) (size 9 to 14) (size 15 to 20)
#    0.000    3.769    0.000    3.692    0.000    3.077 
#    0.000    1.923    0.000    3.231    0.000    5.385 
#    0.000    0.000    0.000    0.000    0.000    0.000 
#
# Total GULP energy -289615.174550 kJ/mol
# GULP energy per Si atom -5569.522588 kJ/mol
# Density = 2.033939 g / cm^3
# Si number density = 20.385785 Si / 1000 Ang^3
#
#
#
# Elastic Constant Matrix: (Units=GPa)
#
#
# Indices 1 2 3 4 5 6 
#
# 1 95.6763 3.6827 126.8643 0.0000 0.0000 0.0000
# 2 3.6827 67.9889 9.5281 0.0000 0.0000 0.0000
# 3 126.8643 9.5281 276.4365 0.0000 0.0000 0.0000
# 4 0.0000 0.0000 0.0000 4.7805 0.0000 0.0000
# 5 0.0000 0.0000 0.0000 0.0000 29.7351 0.0000
# 6 0.0000 0.0000 0.0000 0.0000 0.0000 -0.9567
#
#
#
# Elastic Compliance Matrix: (Units=1/GPa)
#
#
# Indices 1 2 3 4 5 6 
#
# 1 0.026704 0.000272 -0.012265 0.000000 0.000000 0.000000
# 2 0.000272 0.014782 -0.000634 0.000000 0.000000 0.000000
# 3 -0.012265 -0.000634 0.009268 0.000000 0.000000 0.000000
# 4 0.000000 0.000000 0.000000 0.209185 0.000000 0.000000
# 5 0.000000 0.000000 0.000000 0.000000 0.033630 0.000000
# 6 0.000000 0.000000 0.000000 0.000000 0.000000 -1.045228
#
#
# Mechanical properties :
#
#
# Convention : Reuss Voigt Hill
#
# Bulk Modulus (GPa) = 39.21445 80.02801 59.62123
# Shear Modulus (GPa) = -6.96472 26.71353 9.87441
#
# Velocity S-wave (km/s) = -1.85037 3.62387 2.20324
# Velocity P-wave (km/s) = 3.83572 7.54002 5.98183
#
# Compressibility (1/GPa) = 0.02550080
#
# Stress axis : x y z
#
# Youngs Moduli (GPa) = 37.44769 67.64775 107.89956
#
# Poissons Ratio (x) = -0.01842 1.32334
# Poissons Ratio (y) = -0.01020 0.06846
# Poissons Ratio (z) = 0.45928 0.04292
#
# Static dielectric constant tensor:
#      x y z
#    x 1.682570 0.000000 0.000000 
#    y 0.000000 1.887160 0.000000 
#    z 0.000000 0.000000 1.764450 
# 
# From -- ./inp_files/34275.got.cif
#   From: 2010.05.17/outbox.cif.g08.bks.cpg/sg47_18_cif.got.tgz:34275.got - 2010.06.03 20:15:42.
