data_PCOD9388289
_publ_section_title
;
Structure prediction by ZEFSAII (Michael W. Deem and Ramdas Pophale) SiO2 
 PCOD9388289
Probable space group: P M M M
;
_chemical_formula_sum "Si O2"
_cell_formula_units_Z 40
_cell_length_a 7.709629
_cell_length_b 24.501714
_cell_length_c 14.184935
_cell_angle_alpha 90.000000
_cell_angle_beta 90.000000
_cell_angle_gamma 90.000000
_cell_volume 2679.521807
_symmetry_space_group_name_H-M "P M M M"
_symmetry_group_IT_number 47
_symmetry_cell_setting 'orthorhombic'
loop_
_space_group_symop_operation_xyz
x,y,z
-x,-y,z
x,-y,-z
-x,y,-z
-x,-y,-z
x,y,-z
-x,y,z
x,-y,z
loop_
_atom_site_type_symbol
_atom_site_label
_atom_site_fract_x
_atom_site_fract_y
_atom_site_fract_z
Si Si1 0.210460 0.265431 0.391789
Si Si2 0.801198 0.856419 0.385470
Si Si3 0.709975 0.437732 0.890688
Si Si4 0.500000 0.564765 0.606583
Si Si5 0.799988 0.625636 0.287780
Si Si6 0.500000 0.062739 0.615043
O O1 0.268981 0.276656 0.500000
O O2 0.264737 0.204589 0.362025
O O3 0.255628 0.313565 0.319754
O O4 0.000000 0.262924 0.395453
O O5 0.805814 0.857124 0.500000
O O6 0.669677 0.903362 0.354899
O O7 0.000000 0.863889 0.353041
O O8 0.500000 0.435987 0.884996
O O9 0.762178 0.500000 0.863411
O O10 0.783095 0.392216 0.820839
O O11 0.758291 0.429852 0.000000
O O12 0.500000 0.500000 0.606969
O O13 0.500000 0.585393 0.500000
O O14 0.329671 0.585829 0.658433
O O15 0.000000 0.618932 0.317015
O O16 0.500000 0.062496 0.500000
O O17 0.500000 0.000000 0.645950
#
# Coordination Sequence:
#
# PCOD9388289 Si02
#       6
#     8   8   8   4   8   4
#     4   8  15  28  44  62  84 111 144 178 212 254
#     4   8  14  25  38  51  73 105 137 171 209 244
#     4   9  18  34  53  69  88 113 141 178 222 269
#     4  11  24  37  46  62  89 117 145 175 215 269
#     4  11  21  33  51  71  89 111 144 184 223 263
#     4   9  16  23  33  53  76 100 138 179 209 240
#
# _framework density 14.928036000000001
#
# number of rings (size 3 to 8) (size 9 to 14) (size 15 to 20)
#    0.000    2.800    1.000    3.000    0.000    4.400 
#    0.000    6.000    0.000    0.000    0.000    0.000 
#    0.000    0.000    0.000    0.000    0.000    2.000 
#
# Total GULP energy -222813.511957 kJ/mol
# GULP energy per Si atom -5570.337799 kJ/mol
# Density = 1.489406 g / cm^3
# Si number density = 14.928036 Si / 1000 Ang^3
#
#
#
# Elastic Constant Matrix: (Units=GPa)
#
#
# Indices 1 2 3 4 5 6 
#
# 1 66.5516 41.6690 18.3138 0.0000 0.0000 0.0000
# 2 41.6690 127.7281 44.0120 0.0000 0.0000 0.0000
# 3 18.3138 44.0120 50.6976 0.0000 0.0000 0.0000
# 4 0.0000 0.0000 0.0000 -4.8717 0.0000 0.0000
# 5 0.0000 0.0000 0.0000 0.0000 3.8620 0.0000
# 6 0.0000 0.0000 0.0000 0.0000 0.0000 22.9822
#
#
#
# Elastic Compliance Matrix: (Units=1/GPa)
#
#
# Indices 1 2 3 4 5 6 
#
# 1 0.019041 -0.005481 -0.002120 0.000000 0.000000 0.000000
# 2 -0.005481 0.012749 -0.009087 0.000000 0.000000 0.000000
# 3 -0.002120 -0.009087 0.028380 0.000000 0.000000 0.000000
# 4 0.000000 0.000000 0.000000 -0.205265 0.000000 0.000000
# 5 0.000000 0.000000 0.000000 0.000000 0.258936 0.000000
# 6 0.000000 0.000000 0.000000 0.000000 0.000000 0.043512
#
#
# Mechanical properties :
#
#
# Convention : Reuss Voigt Hill
#
# Bulk Modulus (GPa) = 37.32419 50.32966 43.82692
# Shear Modulus (GPa) = 25.04256 13.79331 19.41793
#
# Velocity S-wave (km/s) = 4.10024 3.04301 3.61053
# Velocity P-wave (km/s) = 6.89006 6.79225 6.84133
#
# Compressibility (1/GPa) = 0.02679228
#
# Stress axis : x y z
#
# Youngs Moduli (GPa) = 52.51748 78.43964 35.23664
#
# Poissons Ratio (x) = 0.42996 0.07469
# Poissons Ratio (y) = 0.28787 0.32021
# Poissons Ratio (z) = 0.11132 0.71281
#
# Static dielectric constant tensor:
#      x y z
#    x 1.536720 0.000000 0.000000 
#    y 0.000000 1.505180 0.000000 
#    z 0.000000 0.000000 1.485670 
# 
# From -- ./inp_files/21261.got.cif
#   From: 2010.05.17/outbox.cif.g08.bks.cpg/sg47_11_cif.got.tgz:21261.got - 2010.06.03 20:15:42.
