data_PCOD9388975
_publ_section_title
;
Structure prediction by ZEFSAII (Michael W. Deem and Ramdas Pophale) SiO2 
 PCOD9388975
Probable space group: P M M M
;
_chemical_formula_sum "Si O2"
_cell_formula_units_Z 52
_cell_length_a 7.491806
_cell_length_b 14.281903
_cell_length_c 24.881718
_cell_angle_alpha 90.000000
_cell_angle_beta 90.000000
_cell_angle_gamma 90.000000
_cell_volume 2662.275316
_symmetry_space_group_name_H-M "P M M M"
_symmetry_group_IT_number 47
_symmetry_cell_setting 'orthorhombic'
loop_
_space_group_symop_operation_xyz
x,y,z
-x,-y,z
x,-y,-z
-x,y,-z
-x,-y,-z
x,y,-z
-x,y,z
x,-y,z
loop_
_atom_site_type_symbol
_atom_site_label
_atom_site_fract_x
_atom_site_fract_y
_atom_site_fract_z
Si Si1 0.713864 0.394669 0.560531
Si Si2 0.217758 0.214118 0.832648
Si Si3 0.782495 0.602864 0.767538
Si Si4 0.287176 0.500000 0.062059
Si Si5 0.781716 0.104749 0.270706
Si Si6 0.210397 0.291920 0.939275
Si Si7 0.212392 0.713496 0.333899
O O1 0.778021 0.373138 0.500000
O O2 0.500000 0.399642 0.558056
O O3 0.778549 0.500000 0.575052
O O4 0.754798 0.318701 0.605720
O O5 0.272206 0.311980 0.805178
O O6 0.271815 0.135350 0.789845
O O7 0.281040 0.220948 0.894090
O O8 0.000000 0.211705 0.833917
O O9 0.718409 0.500000 0.782633
O O10 0.725524 0.633136 0.707571
O O11 0.000000 0.600651 0.768894
O O12 0.500000 0.500000 0.063081
O O13 0.226927 0.601111 0.082732
O O14 0.223328 0.500000 0.000000
O O15 0.721318 0.186329 0.311735
O O16 0.000000 0.104581 0.271468
O O17 0.722268 0.000000 0.283638
O O18 0.000000 0.274114 0.944034
O O19 0.286778 0.288005 0.000000
O O20 0.000000 0.717824 0.327245
#
# Coordination Sequence:
#
# PCOD9388975 Si02
#       7
#     8   8   8   4   8   8   8
#     4   9  18  31  45  63  91 126 153 169 197 247
#     4   8  14  22  35  57  80 108 140 169 210 259
#     4   8  13  20  32  54  81 104 129 167 209 246
#     4   9  17  27  37  51  75 109 143 169 202 251
#     4   8  14  26  44  66  89 110 138 180 227 269
#     4   9  16  25  38  57  80 106 142 183 212 242
#     4   9  16  26  43  67  87 107 143 186 220 247
#
# _framework density 19.532164999999999
#
# number of rings (size 3 to 8) (size 9 to 14) (size 15 to 20)
#    0.000    3.462    0.000    3.000    1.077    2.154 
#    0.000    0.769    0.000    5.077    0.000    6.462 
#    0.000    0.000    0.000    3.846    0.000    4.000 
#
# Total GULP energy -289602.991763 kJ/mol
# GULP energy per Si atom -5569.288303 kJ/mol
# Density = 1.948771 g / cm^3
# Si number density = 19.532165 Si / 1000 Ang^3
#
#
#
# Elastic Constant Matrix: (Units=GPa)
#
#
# Indices 1 2 3 4 5 6 
#
# 1 51.2022 2.8407 -0.3450 0.0000 0.0000 0.0000
# 2 2.8407 90.2510 44.4209 0.0000 0.0000 0.0000
# 3 -0.3450 44.4209 115.5654 0.0000 0.0000 0.0000
# 4 0.0000 0.0000 0.0000 19.5627 0.0000 0.0000
# 5 0.0000 0.0000 0.0000 0.0000 56.2081 0.0000
# 6 0.0000 0.0000 0.0000 0.0000 0.0000 -19.8788
#
#
#
# Elastic Compliance Matrix: (Units=1/GPa)
#
#
# Indices 1 2 3 4 5 6 
#
# 1 0.019577 -0.000795 0.000364 0.000000 0.000000 0.000000
# 2 -0.000795 0.013698 -0.005268 0.000000 0.000000 0.000000
# 3 0.000364 -0.005268 0.010679 0.000000 0.000000 0.000000
# 4 0.000000 0.000000 0.000000 0.051118 0.000000 0.000000
# 5 0.000000 0.000000 0.000000 0.000000 0.017791 0.000000
# 6 0.000000 0.000000 0.000000 0.000000 0.000000 -0.050305
#
#
# Mechanical properties :
#
#
# Convention : Reuss Voigt Hill
#
# Bulk Modulus (GPa) = 30.71607 38.98352 34.84980
# Shear Modulus (GPa) = 58.95719 25.18520 42.07120
#
# Velocity S-wave (km/s) = 5.50002 3.59475 4.64610
# Velocity P-wave (km/s) = 7.48957 6.10177 6.83100
#
# Compressibility (1/GPa) = 0.03255624
#
# Stress axis : x y z
#
# Youngs Moduli (GPa) = 51.08031 73.00390 93.64224
#
# Poissons Ratio (x) = 0.05807 -0.03410
# Poissons Ratio (y) = 0.04063 0.49327
# Poissons Ratio (z) = -0.01860 0.38455
#
# Static dielectric constant tensor:
#      x y z
#    x 1.741570 0.000000 0.000000 
#    y 0.000000 1.676980 0.000000 
#    z 0.000000 0.000000 1.728300 
# 
# From -- ./inp_files/31961.got.cif
#   From: 2010.05.17/outbox.cif.g08.bks.cpg/sg47_16_cif.got.tgz:31961.got - 2010.06.03 20:15:42.
