data_PCOD9388510
_publ_section_title
;
Structure prediction by ZEFSAII (Michael W. Deem and Ramdas Pophale) SiO2 
 PCOD9388510
Probable space group: P M M M
;
_chemical_formula_sum "Si O2"
_cell_formula_units_Z 64
_cell_length_a 9.527711
_cell_length_b 21.087567
_cell_length_c 17.619934
_cell_angle_alpha 90.000000
_cell_angle_beta 90.000000
_cell_angle_gamma 90.000000
_cell_volume 3540.130960
_symmetry_space_group_name_H-M "P M M M"
_symmetry_group_IT_number 47
_symmetry_cell_setting 'orthorhombic'
loop_
_space_group_symop_operation_xyz
x,y,z
-x,-y,z
x,-y,-z
-x,y,-z
-x,-y,-z
x,y,-z
-x,y,z
x,-y,z
loop_
_atom_site_type_symbol
_atom_site_label
_atom_site_fract_x
_atom_site_fract_y
_atom_site_fract_z
Si Si1 0.658777 0.738296 0.377920
Si Si2 0.834413 0.800454 0.086645
Si Si3 0.335218 0.926855 0.883207
Si Si4 0.654341 0.926009 0.701610
Si Si5 0.334230 0.708570 0.800238
Si Si6 0.329007 0.430746 0.752417
Si Si7 0.665700 0.592335 0.582355
Si Si8 0.833936 0.855266 0.582215
O O1 0.500000 0.759875 0.394566
O O2 0.674685 0.733300 0.286644
O O3 0.673087 0.668194 0.411144
O O4 0.771023 0.785348 0.411612
O O5 0.761485 0.869935 0.088207
O O6 0.755201 0.753178 0.144390
O O7 0.000000 0.805717 0.105534
O O8 0.822458 0.776527 0.000000
O O9 0.500000 0.917623 0.903807
O O10 0.326460 0.921985 0.791749
O O11 0.298041 0.000000 0.904119
O O12 0.500000 0.898987 0.684057
O O13 0.769857 0.892158 0.652573
O O14 0.654221 0.000000 0.682464
O O15 0.500000 0.710971 0.821447
O O16 0.287500 0.634324 0.794856
O O17 0.500000 0.427144 0.749367
O O18 0.291507 0.500000 0.785113
O O19 0.278898 0.429616 0.664346
O O20 0.724472 0.572725 0.500000
O O21 0.500000 0.575228 0.581620
O O22 0.792407 0.882939 0.500000
O O23 0.000000 0.854303 0.586591
#
# Coordination Sequence:
#
# PCOD9388510 Si02
#       8
#     8   8   8   8   8   8   8   8
#     4   9  17  30  48  68  91 123 165 207 244 290
#     4  11  24  38  53  78 110 139 167 202 245 295
#     4   9  19  37  60  84 108 134 166 203 243 294
#     4   9  19  36  55  72  90 117 157 200 240 289
#     4   9  18  33  54  78 102 132 171 212 254 304
#     4   8  14  25  43  70 102 133 168 213 260 302
#     4   8  13  21  36  62  96 132 166 199 241 294
#     4  11  23  33  42  63  94 125 161 208 257 298
#
# _framework density 18.078427000000001
#
# number of rings (size 3 to 8) (size 9 to 14) (size 15 to 20)
#    0.000    2.750    0.000    4.125    0.000    7.750 
#    0.000    5.000    0.000    0.750    0.000    2.625 
#    0.000    0.000    0.000   13.250    0.000   10.000 
#
# Total GULP energy -356632.012285 kJ/mol
# GULP energy per Si atom -5572.375192 kJ/mol
# Density = 1.803728 g / cm^3
# Si number density = 18.078427 Si / 1000 Ang^3
#
#
#
# Elastic Constant Matrix: (Units=GPa)
#
#
# Indices 1 2 3 4 5 6 
#
# 1 60.3186 40.6496 45.0717 0.0000 0.0000 0.0000
# 2 40.6496 101.4187 50.8166 0.0000 0.0000 0.0000
# 3 45.0717 50.8166 73.4948 0.0000 0.0000 0.0000
# 4 0.0000 0.0000 0.0000 0.9407 0.0000 0.0000
# 5 0.0000 0.0000 0.0000 0.0000 20.0841 0.0000
# 6 0.0000 0.0000 0.0000 0.0000 0.0000 24.5470
#
#
#
# Elastic Compliance Matrix: (Units=1/GPa)
#
#
# Indices 1 2 3 4 5 6 
#
# 1 0.031928 -0.004569 -0.016421 0.000000 0.000000 0.000000
# 2 -0.004569 0.015741 -0.008082 0.000000 0.000000 0.000000
# 3 -0.016421 -0.008082 0.029265 0.000000 0.000000 0.000000
# 4 0.000000 0.000000 0.000000 1.062988 0.000000 0.000000
# 5 0.000000 0.000000 0.000000 0.000000 0.049791 0.000000
# 6 0.000000 0.000000 0.000000 0.000000 0.000000 0.040738
#
#
# Mechanical properties :
#
#
# Convention : Reuss Voigt Hill
#
# Bulk Modulus (GPa) = 53.21989 56.47867 54.84928
# Shear Modulus (GPa) = 3.86143 15.69397 9.77770
#
# Velocity S-wave (km/s) = 1.46307 2.94956 2.32814
# Velocity P-wave (km/s) = 5.68826 6.55047 6.13453
#
# Compressibility (1/GPa) = 0.01878997
#
# Stress axis : x y z
#
# Youngs Moduli (GPa) = 31.32023 63.52903 34.17073
#
# Poissons Ratio (x) = 0.29028 0.56112
# Poissons Ratio (y) = 0.14311 0.27615
# Poissons Ratio (z) = 0.51431 0.51342
#
# Static dielectric constant tensor:
#      x y z
#    x 1.591920 0.000000 0.000000 
#    y 0.000000 1.650000 0.000000 
#    z 0.000000 0.000000 1.629830 
# 
# From -- ./inp_files/27029.got.cif
#   From: 2010.05.17/outbox.cif.g08.bks.cpg/sg47_14_cif.got.tgz:27029.got - 2010.06.03 20:15:42.
