data_PCOD9388925
_publ_section_title
;
Structure prediction by ZEFSAII (Michael W. Deem and Ramdas Pophale) SiO2 
 PCOD9388925
Probable space group: P M M M
;
_chemical_formula_sum "Si O2"
_cell_formula_units_Z 44
_cell_length_a 7.350750
_cell_length_b 31.737450
_cell_length_c 9.468432
_cell_angle_alpha 90.000000
_cell_angle_beta 90.000000
_cell_angle_gamma 90.000000
_cell_volume 2208.928949
_symmetry_space_group_name_H-M "P M M M"
_symmetry_group_IT_number 47
_symmetry_cell_setting 'orthorhombic'
loop_
_space_group_symop_operation_xyz
x,y,z
-x,-y,z
x,-y,-z
-x,y,-z
-x,-y,-z
x,y,-z
-x,y,z
x,-y,z
loop_
_atom_site_type_symbol
_atom_site_label
_atom_site_fract_x
_atom_site_fract_y
_atom_site_fract_z
Si Si1 0.721957 0.208661 0.837021
Si Si2 0.000000 0.951874 0.827553
Si Si3 0.721464 0.547262 0.663051
Si Si4 0.292466 0.884476 0.827906
Si Si5 0.277932 0.289972 0.337747
Si Si6 0.722197 0.628121 0.837820
O O1 0.500000 0.207827 0.837682
O O2 0.777905 0.161993 0.787394
O O3 0.780029 0.247227 0.740020
O O4 0.777989 0.215065 0.000000
O O5 0.172055 0.923829 0.783388
O O6 0.000000 0.000000 0.778520
O O7 0.000000 0.953023 0.000000
O O8 0.775092 0.554434 0.500000
O O9 0.500000 0.547413 0.664758
O O10 0.778517 0.500000 0.704674
O O11 0.781676 0.585028 0.762792
O O12 0.500000 0.889081 0.781031
O O13 0.292086 0.883633 0.000000
O O14 0.220105 0.291734 0.500000
O O15 0.500000 0.289897 0.337079
O O16 0.220692 0.331125 0.251003
O O17 0.500000 0.628017 0.837152
O O18 0.779699 0.630638 0.000000
#
# Coordination Sequence:
#
# PCOD9388925 Si02
#       6
#     8   4   8   8   8   8
#     4   8  13  22  35  49  68  96 127 158 198 249
#     4   9  16  24  36  58  87 117 149 183 220 265
#     4   8  13  20  27  33  44  67 102 146 196 246
#     4   8  14  24  37  54  79 112 146 180 220 264
#     4   9  15  21  30  45  64  84 110 149 196 245
#     4   9  15  20  26  37  54  77 106 143 191 247
#
# _framework density 19.919155
#
# number of rings (size 3 to 8) (size 9 to 14) (size 15 to 20)
#    0.000    3.545    0.000    2.727    0.000    5.091 
#    0.000    3.636    0.000    0.000    0.000    0.636 
#    0.000    1.455    0.000    7.091    0.000    7.273 
#
# Total GULP energy -245441.781748 kJ/mol
# GULP energy per Si atom -5578.222312 kJ/mol
# Density = 1.987382 g / cm^3
# Si number density = 19.919155 Si / 1000 Ang^3
#
#
#
# Elastic Constant Matrix: (Units=GPa)
#
#
# Indices 1 2 3 4 5 6 
#
# 1 79.0367 41.4270 18.3894 0.0000 0.0000 0.0000
# 2 41.4270 246.7498 111.4271 0.0000 0.0000 0.0000
# 3 18.3894 111.4271 104.9409 0.0000 0.0000 0.0000
# 4 0.0000 0.0000 0.0000 -8.7101 0.0000 0.0000
# 5 0.0000 0.0000 0.0000 0.0000 -9.2525 0.0000
# 6 0.0000 0.0000 0.0000 0.0000 0.0000**********
#
#
#
# Elastic Compliance Matrix: (Units=1/GPa)
#
#
# Indices 1 2 3 4 5 6 
#
# 1 0.013874 -0.002366 0.000081 0.000000 0.000000 0.000000
# 2 -0.002366 0.008189 -0.008281 0.000000 0.000000 0.000000
# 3 0.000081 -0.008281 0.018308 0.000000 0.000000 0.000000
# 4 0.000000 0.000000 0.000000 -0.114809 0.000000 0.000000
# 5 0.000000 0.000000 0.000000 0.000000 -0.108079 0.000000
# 6 0.000000 0.000000 0.000000 0.000000 0.000000 -0.000042
#
#
# Mechanical properties :
#
#
# Convention : Reuss Voigt Hill
#
# Bulk Modulus (GPa) = 51.97790 85.91270 68.94530
# Shear Modulus (GPa) = -32.25527 -4797.12329 -2414.68928
#
# Velocity S-wave (km/s) = -4.02843 -49.12764 -34.85508
# Velocity P-wave (km/s) = 2.12448 56.34544 39.81391
#
# Compressibility (1/GPa) = 0.01923895
#
# Stress axis : x y z
#
# Youngs Moduli (GPa) = 72.07964 122.10894 54.62135
#
# Poissons Ratio (x) = 0.28888 -0.00441
# Poissons Ratio (y) = 0.17052 0.45232
# Poissons Ratio (z) = -0.00583 1.01119
#
# Static dielectric constant tensor:
#      x y z
#    x 1.288850 0.000000 0.000000 
#    y 0.000000 1.678120 0.000000 
#    z 0.000000 0.000000 1.652270 
# 
# From -- ./inp_files/2286.got.cif
#   From: 2010.05.17/outbox.cif.g08.bks.cpg/sg47_2_cif.got.tgz:2286.got - 2010.06.03 20:15:42.
