data_PCOD9388048
_publ_section_title
;
Structure prediction by ZEFSAII (Michael W. Deem and Ramdas Pophale) SiO2 
 PCOD9388048
Probable space group: P M M M
;
_chemical_formula_sum "Si O2"
_cell_formula_units_Z 52
_cell_length_a 12.209015
_cell_length_b 30.359261
_cell_length_c 8.242241
_cell_angle_alpha 90.000000
_cell_angle_beta 90.000000
_cell_angle_gamma 90.000000
_cell_volume 3055.041627
_symmetry_space_group_name_H-M "P M M M"
_symmetry_group_IT_number 47
_symmetry_cell_setting 'orthorhombic'
loop_
_space_group_symop_operation_xyz
x,y,z
-x,-y,z
x,-y,-z
-x,y,-z
-x,-y,-z
x,y,-z
-x,y,z
x,-y,z
loop_
_atom_site_type_symbol
_atom_site_label
_atom_site_fract_x
_atom_site_fract_y
_atom_site_fract_z
Si Si1 0.133583 0.448881 0.500000
Si Si2 0.124121 0.130931 0.305195
Si Si3 0.867201 0.606047 0.814714
Si Si4 0.500000 0.083801 0.689314
Si Si5 0.272360 0.212432 0.307327
Si Si6 0.500000 0.181890 0.812737
Si Si7 0.125809 0.291913 0.194604
Si Si8 0.266498 0.049684 0.193211
O O1 0.165577 0.500000 0.500000
O O2 0.169886 0.424578 0.665934
O O3 0.000000 0.447183 0.500000
O O4 0.119210 0.134994 0.500000
O O5 0.198007 0.171624 0.245882
O O6 0.183911 0.085485 0.264642
O O7 0.000000 0.132742 0.241887
O O8 0.842764 0.657197 0.776383
O O9 0.000000 0.603207 0.819945
O O10 0.829549 0.595710 0.000000
O O11 0.500000 0.073099 0.500000
O O12 0.500000 0.136565 0.711566
O O13 0.609936 0.064335 0.766290
O O14 0.287413 0.207361 0.500000
O O15 0.390697 0.208870 0.226287
O O16 0.207408 0.257082 0.271882
O O17 0.500000 0.168543 0.000000
O O18 0.000000 0.285168 0.251430
O O19 0.126273 0.285919 0.000000
O O20 0.247586 0.000000 0.253948
O O21 0.253439 0.049835 0.000000
#
# Coordination Sequence:
#
# PCOD9388048 Si02
#       8
#     4   8   8   4   8   4   8   8
#     4   9  16  24  38  62  92 133 185 229 270 318
#     4  10  22  39  57  79 108 139 171 207 250 303
#     4   8  15  27  41  61  94 133 176 225 269 314
#     4  12  23  39  62  85 106 132 166 206 253 307
#     4  11  22  36  56  81 105 135 172 212 258 310
#     4  12  24  39  59  80 106 137 166 205 257 308
#     4   9  18  32  50  74 104 140 181 221 263 313
#     4  11  24  40  59  83 107 134 169 208 253 303
#
# _framework density 17.021042999999999
#
# number of rings (size 3 to 8) (size 9 to 14) (size 15 to 20)
#    0.000    1.923    1.538    3.923    1.077    4.615 
#    0.000    3.077    0.000    0.000    0.000    0.000 
#    0.000    0.000    0.000    1.385    0.000    8.923 
#
# Total GULP energy -290220.217661 kJ/mol
# GULP energy per Si atom -5581.158032 kJ/mol
# Density = 1.698230 g / cm^3
# Si number density = 17.021043 Si / 1000 Ang^3
#
#
#
# Elastic Constant Matrix: (Units=GPa)
#
#
# Indices 1 2 3 4 5 6 
#
# 1 98.7214 43.4351 22.3531 0.0000 0.0000 0.0000
# 2 43.4351 101.5511 39.5400 0.0000 0.0000 0.0000
# 3 22.3531 39.5400 45.7480 0.0000 0.0000 0.0000
# 4 0.0000 0.0000 0.0000 33.3654 0.0000 0.0000
# 5 0.0000 0.0000 0.0000 0.0000 16.3719 0.0000
# 6 0.0000 0.0000 0.0000 0.0000 0.0000 326.7737
#
#
#
# Elastic Compliance Matrix: (Units=1/GPa)
#
#
# Indices 1 2 3 4 5 6 
#
# 1 0.012631 -0.004521 -0.002264 0.000000 0.000000 0.000000
# 2 -0.004521 0.016460 -0.012017 0.000000 0.000000 0.000000
# 3 -0.002264 -0.012017 0.033352 0.000000 0.000000 0.000000
# 4 0.000000 0.000000 0.000000 0.029971 0.000000 0.000000
# 5 0.000000 0.000000 0.000000 0.000000 0.061080 0.000000
# 6 0.000000 0.000000 0.000000 0.000000 0.000000 0.003060
#
#
# Mechanical properties :
#
#
# Convention : Reuss Voigt Hill
#
# Bulk Modulus (GPa) = 40.26120 50.74188 45.50154
# Shear Modulus (GPa) = 24.69871 84.68169 54.69020
#
# Velocity S-wave (km/s) = 3.81342 7.06110 5.67456
# Velocity P-wave (km/s) = 6.56466 9.81605 8.35014
#
# Compressibility (1/GPa) = 0.02483781
#
# Stress axis : x y z
#
# Youngs Moduli (GPa) = 79.16810 60.75310 29.98326
#
# Poissons Ratio (x) = 0.27466 0.06789
# Poissons Ratio (y) = 0.35792 0.36032
# Poissons Ratio (z) = 0.17927 0.73010
#
# Static dielectric constant tensor:
#      x y z
#    x 1.538990 0.000000 0.000000 
#    y 0.000000 1.566530 0.000000 
#    z 0.000000 0.000000 1.593010 
# 
# From -- ./inp_files/4618.got.cif
#   From: 2010.05.17/outbox.cif.g08.bks.cpg/sg47_3_cif.got.tgz:4618.got - 2010.06.03 20:15:42.
