data_PCOD9388904
_publ_section_title
;
Structure prediction by ZEFSAII (Michael W. Deem and Ramdas Pophale) SiO2 
 PCOD9388904
Probable space group: P M M M
;
_chemical_formula_sum "Si O2"
_cell_formula_units_Z 44
_cell_length_a 7.612720
_cell_length_b 31.329696
_cell_length_c 10.119919
_cell_angle_alpha 90.000000
_cell_angle_beta 90.000000
_cell_angle_gamma 90.000000
_cell_volume 2413.643219
_symmetry_space_group_name_H-M "P M M M"
_symmetry_group_IT_number 47
_symmetry_cell_setting 'orthorhombic'
loop_
_space_group_symop_operation_xyz
x,y,z
-x,-y,z
x,-y,-z
-x,y,-z
-x,-y,-z
x,y,-z
-x,y,z
x,-y,z
loop_
_atom_site_type_symbol
_atom_site_label
_atom_site_fract_x
_atom_site_fract_y
_atom_site_fract_z
Si Si1 0.287702 0.792036 0.348290
Si Si2 0.714453 0.451883 0.651963
Si Si3 0.195899 0.112137 0.339405
Si Si4 0.500000 0.951060 0.661577
Si Si5 0.714437 0.621770 0.151723
Si Si6 0.285561 0.718258 0.848150
O O1 0.226126 0.786725 0.500000
O O2 0.500000 0.790717 0.351374
O O3 0.237270 0.839277 0.299594
O O4 0.225126 0.754467 0.252655
O O5 0.767144 0.444416 0.500000
O O6 0.500000 0.451471 0.653900
O O7 0.768343 0.500000 0.689940
O O8 0.775703 0.414925 0.749647
O O9 0.205329 0.112997 0.500000
O O10 0.333240 0.076740 0.295213
O O11 0.000000 0.100754 0.299798
O O12 0.500000 0.951872 0.500000
O O13 0.500000 0.000000 0.705692
O O14 0.500000 0.621395 0.153824
O O15 0.768321 0.669997 0.188164
O O16 0.767071 0.613858 0.000000
O O17 0.500000 0.718712 0.846623
O O18 0.232425 0.726309 0.000000
#
# Coordination Sequence:
#
# PCOD9388904 Si02
#       6
#     8   8   8   4   8   8
#     4   9  15  24  39  57  78 106 140 175 213 261
#     4   8  13  19  25  34  51  78 114 158 206 253
#     4   9  16  26  40  59  86 118 150 187 229 269
#     4   9  16  26  40  60  89 123 157 191 226 269
#     4   8  13  20  28  39  57  81 113 156 204 254
#     4   8  14  23  34  50  72  97 127 168 217 264
#
# _framework density 18.229703000000001
#
# number of rings (size 3 to 8) (size 9 to 14) (size 15 to 20)
#    0.000    3.545    0.909    1.636    0.000    1.455 
#    0.000    7.273    0.000    0.545    0.000    0.000 
#    0.000    1.455    0.000    1.636    0.000    2.727 
#
# Total GULP energy -245138.147985 kJ/mol
# GULP energy per Si atom -5571.321545 kJ/mol
# Density = 1.818821 g / cm^3
# Si number density = 18.229703 Si / 1000 Ang^3
#
#
#
# Elastic Constant Matrix: (Units=GPa)
#
#
# Indices 1 2 3 4 5 6 
#
# 1 57.9330 48.2725 22.3733 0.0000 0.0000 0.0000
# 2 48.2725 213.7222 95.4377 0.0000 0.0000 0.0000
# 3 22.3733 95.4377 59.2549 0.0000 0.0000 0.0000
# 4 0.0000 0.0000 0.0000 -4.6231 0.0000 0.0000
# 5 0.0000 0.0000 0.0000 0.0000 -3.4320 0.0000
# 6 0.0000 0.0000 0.0000 0.0000 0.0000 -13.4709
#
#
#
# Elastic Compliance Matrix: (Units=1/GPa)
#
#
# Indices 1 2 3 4 5 6 
#
# 1 0.021281 -0.004340 -0.001045 0.000000 0.000000 0.000000
# 2 -0.004340 0.017550 -0.026627 0.000000 0.000000 0.000000
# 3 -0.001045 -0.026627 0.060158 0.000000 0.000000 0.000000
# 4 0.000000 0.000000 0.000000 -0.216307 0.000000 0.000000
# 5 0.000000 0.000000 0.000000 0.000000 -0.291374 0.000000
# 6 0.000000 0.000000 0.000000 0.000000 0.000000 -0.074234
#
#
# Mechanical properties :
#
#
# Convention : Reuss Voigt Hill
#
# Bulk Modulus (GPa) = 28.60125 73.67522 51.13823
# Shear Modulus (GPa) = -12.27760 6.68324 -2.79718
#
# Velocity S-wave (km/s) = -2.59799 1.91679 -1.24006
# Velocity P-wave (km/s) = 2.59307 6.73806 5.10517
#
# Compressibility (1/GPa) = 0.03496351
#
# Stress axis : x y z
#
# Youngs Moduli (GPa) = 46.98975 56.98112 16.62296
#
# Poissons Ratio (x) = 0.24729 0.01738
# Poissons Ratio (y) = 0.20393 0.44263
# Poissons Ratio (z) = 0.04912 1.51726
#
# Static dielectric constant tensor:
#      x y z
#    x 1.709560 0.000000 0.000000 
#    y 0.000000 1.608780 0.000000 
#    z 0.000000 0.000000 1.596600 
# 
# From -- ./inp_files/15283.got.cif
#   From: 2010.05.17/outbox.cif.g08.bks.cpg/sg47_8_cif.got.tgz:15283.got - 2010.06.03 20:15:42.
