data_PCOD9388604
_publ_section_title
;
Structure prediction by ZEFSAII (Michael W. Deem and Ramdas Pophale) SiO2 
 PCOD9388604
Probable space group: P M M M
;
_chemical_formula_sum "Si O2"
_cell_formula_units_Z 64
_cell_length_a 7.669472
_cell_length_b 15.197130
_cell_length_c 29.780903
_cell_angle_alpha 90.000000
_cell_angle_beta 90.000000
_cell_angle_gamma 90.000000
_cell_volume 3471.082267
_symmetry_space_group_name_H-M "P M M M"
_symmetry_group_IT_number 47
_symmetry_cell_setting 'orthorhombic'
loop_
_space_group_symop_operation_xyz
x,y,z
-x,-y,z
x,-y,-z
-x,y,-z
-x,-y,-z
x,y,-z
-x,y,z
x,-y,z
loop_
_atom_site_type_symbol
_atom_site_label
_atom_site_fract_x
_atom_site_fract_y
_atom_site_fract_z
Si Si1 0.211004 0.900933 0.086692
Si Si2 0.290064 0.897232 0.548313
Si Si3 0.792671 0.401960 0.131841
Si Si4 0.786174 0.779196 0.271608
Si Si5 0.787799 0.099884 0.189410
Si Si6 0.213075 0.600017 0.233279
Si Si7 0.296624 0.717902 0.048339
Si Si8 0.207071 0.100803 0.353033
O O1 0.267960 0.883075 0.138236
O O2 0.271913 0.821743 0.055998
O O3 0.000000 0.900390 0.086335
O O4 0.266997 0.000000 0.074443
O O5 0.230886 0.859528 0.500000
O O6 0.500000 0.895550 0.548176
O O7 0.232857 0.862648 0.596599
O O8 0.235018 0.000000 0.548508
O O9 0.725408 0.500000 0.120331
O O10 0.729630 0.378538 0.181981
O O11 0.765854 0.333367 0.092197
O O12 0.000000 0.408547 0.136782
O O13 0.731290 0.831711 0.226842
O O14 0.730157 0.678200 0.265998
O O15 0.724997 0.833736 0.314857
O O16 0.000000 0.779427 0.272366
O O17 0.000000 0.101976 0.188816
O O18 0.736892 0.000000 0.201389
O O19 0.268143 0.500000 0.243546
O O20 0.000000 0.600026 0.233788
O O21 0.500000 0.698849 0.046201
O O22 0.216932 0.692528 0.000000
O O23 0.000000 0.093588 0.345757
O O24 0.277863 0.000000 0.350308
#
# Coordination Sequence:
#
# PCOD9388604 Si02
#       8
#     8   8   8   8   8   8   8   8
#     4   9  18  33  53  73  89 111 149 191 221 246
#     4   8  14  25  39  52  70 104 147 182 211 244
#     4   9  18  34  56  77  92 109 140 182 221 256
#     4   9  14  20  34  57  87 116 135 159 200 248
#     4   8  13  22  39  63  86 107 134 168 205 244
#     4   8  14  25  43  67  89 108 135 171 208 246
#     4  11  24  37  48  66  93 122 146 171 213 269
#     4   9  16  23  33  55  85 113 141 171 203 240
#
# _framework density 18.438054000000001
#
# number of rings (size 3 to 8) (size 9 to 14) (size 15 to 20)
#    0.000    3.125    0.000    3.375    0.000    5.750 
#    0.000    3.750    0.000    3.000    0.000    3.500 
#    0.000    0.500    0.000    6.250    0.000    1.250 
#
# Total GULP energy -356578.816938 kJ/mol
# GULP energy per Si atom -5571.544015 kJ/mol
# Density = 1.839609 g / cm^3
# Si number density = 18.438054 Si / 1000 Ang^3
#
#
#
# Elastic Constant Matrix: (Units=GPa)
#
#
# Indices 1 2 3 4 5 6 
#
# 1 27.7772 0.9538 2.4945 0.0000 0.0000 0.0000
# 2 0.9538 91.6116 69.4005 0.0000 0.0000 0.0000
# 3 2.4945 69.4005 95.3555 0.0000 0.0000 0.0000
# 4 0.0000 0.0000 0.0000 18.2286 0.0000 0.0000
# 5 0.0000 0.0000 0.0000 0.0000 19.0676 0.0000
# 6 0.0000 0.0000 0.0000 0.0000 0.0000 -36.1660
#
#
#
# Elastic Compliance Matrix: (Units=1/GPa)
#
#
# Indices 1 2 3 4 5 6 
#
# 1 0.036109 0.000757 -0.001496 0.000000 0.000000 0.000000
# 2 0.000757 0.024346 -0.017739 0.000000 0.000000 0.000000
# 3 -0.001496 -0.017739 0.023437 0.000000 0.000000 0.000000
# 4 0.000000 0.000000 0.000000 0.054859 0.000000 0.000000
# 5 0.000000 0.000000 0.000000 0.000000 0.052445 0.000000
# 6 0.000000 0.000000 0.000000 0.000000 0.000000 -0.027650
#
#
# Mechanical properties :
#
#
# Convention : Reuss Voigt Hill
#
# Bulk Modulus (GPa) = 21.30529 40.04909 30.67719
# Shear Modulus (GPa) = 23.13251 9.68575 16.40913
#
# Velocity S-wave (km/s) = 3.54589 2.29446 2.98646
# Velocity P-wave (km/s) = 5.32396 5.36539 5.34472
#
# Compressibility (1/GPa) = 0.04693671
#
# Stress axis : x y z
#
# Youngs Moduli (GPa) = 27.69390 41.07453 42.66794
#
# Poissons Ratio (x) = -0.03110 0.06381
# Poissons Ratio (y) = -0.02097 0.75689
# Poissons Ratio (z) = 0.04142 0.72862
#
# Static dielectric constant tensor:
#      x y z
#    x 1.691230 0.000000 0.000000 
#    y 0.000000 1.635130 0.000000 
#    z 0.000000 0.000000 1.673100 
# 
# From -- ./inp_files/8272.got.cif
#   From: 2010.05.17/outbox.cif.g08.bks.cpg/sg47_5_cif.got.tgz:8272.got - 2010.06.03 20:15:42.
