data_PCOD9388654
_publ_section_title
;
Structure prediction by ZEFSAII (Michael W. Deem and Ramdas Pophale) SiO2 
 PCOD9388654
Probable space group: P M M M
;
_chemical_formula_sum "Si O2"
_cell_formula_units_Z 44
_cell_length_a 9.543604
_cell_length_b 7.793173
_cell_length_c 29.973904
_cell_angle_alpha 90.000000
_cell_angle_beta 90.000000
_cell_angle_gamma 90.000000
_cell_volume 2229.307822
_symmetry_space_group_name_H-M "P M M M"
_symmetry_group_IT_number 47
_symmetry_cell_setting 'orthorhombic'
loop_
_space_group_symop_operation_xyz
x,y,z
-x,-y,z
x,-y,-z
-x,y,-z
-x,-y,-z
x,y,-z
-x,y,z
x,-y,z
loop_
_atom_site_type_symbol
_atom_site_label
_atom_site_fract_x
_atom_site_fract_y
_atom_site_fract_z
Si Si1 0.336877 0.289826 0.355071
Si Si2 0.162628 0.709130 0.270263
Si Si3 0.157715 0.702964 0.000000
Si Si4 0.160318 0.706613 0.829066
Si Si5 0.668868 0.706050 0.547975
Si Si6 0.657702 0.796692 0.085569
O O1 0.500000 0.242272 0.351285
O O2 0.332070 0.500000 0.355604
O O3 0.252754 0.229412 0.311976
O O4 0.281028 0.230950 0.403662
O O5 0.170343 0.500000 0.270521
O O6 0.205474 0.765745 0.220454
O O7 0.000000 0.754988 0.275959
O O8 0.245658 0.747169 0.043933
O O9 0.142829 0.500000 0.000000
O O10 0.000000 0.778733 0.000000
O O11 0.153997 0.500000 0.827499
O O12 0.264474 0.752856 0.868493
O O13 0.000000 0.767119 0.837451
O O14 0.720642 0.774297 0.500000
O O15 0.500000 0.730071 0.548501
O O16 0.691891 0.500000 0.547366
O O17 0.500000 0.722396 0.082964
O O18 0.645106 0.000000 0.083753
#
# Coordination Sequence:
#
# PCOD9388654 Si02
#       6
#     8   8   4   8   8   8
#     4   8  12  17  27  44  64  89 127 173 218 266
#     4   8  14  24  37  54  78 106 136 177 227 272
#     4  11  24  41  62  86 108 133 168 203 232 270
#     4   9  18  33  52  73  96 125 164 203 238 283
#     4   7   9  13  21  34  54  82 119 165 213 258
#     4  11  24  39  55  79 109 136 163 197 238 282
#
# _framework density 19.737065999999999
#
# number of rings (size 3 to 8) (size 9 to 14) (size 15 to 20)
#    0.000    3.182    0.000    4.364    0.000    6.545 
#    0.000    1.818    0.000    0.545    0.000    3.818 
#    0.000    0.000    0.000    0.000    0.000    0.909 
#
# Total GULP energy -245106.939554 kJ/mol
# GULP energy per Si atom -5570.612263 kJ/mol
# Density = 1.969214 g / cm^3
# Si number density = 19.737066 Si / 1000 Ang^3
#
#
#
# Elastic Constant Matrix: (Units=GPa)
#
#
# Indices 1 2 3 4 5 6 
#
# 1 104.0580 8.9938 118.5394 0.0000 0.0000 0.0000
# 2 8.9938 28.2242 13.2844 0.0000 0.0000 0.0000
# 3 118.5394 13.2844 251.5725 0.0000 0.0000 0.0000
# 4 0.0000 0.0000 0.0000 -79.7066 0.0000 0.0000
# 5 0.0000 0.0000 0.0000 0.0000 54.8484 0.0000
# 6 0.0000 0.0000 0.0000 0.0000 0.0000 11.6435
#
#
#
# Elastic Compliance Matrix: (Units=1/GPa)
#
#
# Indices 1 2 3 4 5 6 
#
# 1 0.020863 -0.002073 -0.009721 0.000000 0.000000 0.000000
# 2 -0.002073 0.036540 -0.000953 0.000000 0.000000 0.000000
# 3 -0.009721 -0.000953 0.008606 0.000000 0.000000 0.000000
# 4 0.000000 0.000000 0.000000 -0.012546 0.000000 0.000000
# 5 0.000000 0.000000 0.000000 0.000000 0.018232 0.000000
# 6 0.000000 0.000000 0.000000 0.000000 0.000000 0.085885
#
#
# Mechanical properties :
#
#
# Convention : Reuss Voigt Hill
#
# Bulk Modulus (GPa) = 24.68207 73.94331 49.31269
# Shear Modulus (GPa) = 25.43520 13.55953 19.49737
#
# Velocity S-wave (km/s) = 3.59374 2.62393 3.14643
# Velocity P-wave (km/s) = 5.45459 6.83561 6.18377
#
# Compressibility (1/GPa) = 0.04051524
#
# Stress axis : x y z
#
# Youngs Moduli (GPa) = 47.93133 27.36761 116.19991
#
# Poissons Ratio (x) = 0.05672 1.12960
# Poissons Ratio (y) = 0.09935 0.11072
# Poissons Ratio (z) = 0.46595 0.02608
#
# Static dielectric constant tensor:
#      x y z
#    x 1.687840 0.000000 0.000000 
#    y 0.000000 1.720860 0.000000 
#    z 0.000000 0.000000 1.664220 
# 
# From -- ./inp_files/33907.got.cif
#   From: 2010.05.17/outbox.cif.g08.bks.cpg/sg47_17_cif.got.tgz:33907.got - 2010.06.03 20:15:42.
