data_PCOD9388928
_publ_section_title
;
Structure prediction by ZEFSAII (Michael W. Deem and Ramdas Pophale) SiO2 
 PCOD9388928
Probable space group: P M M M
;
_chemical_formula_sum "Si O2"
_cell_formula_units_Z 44
_cell_length_a 29.083559
_cell_length_b 7.418473
_cell_length_c 10.102359
_cell_angle_alpha 90.000000
_cell_angle_beta 90.000000
_cell_angle_gamma 90.000000
_cell_volume 2179.640499
_symmetry_space_group_name_H-M "P M M M"
_symmetry_group_IT_number 47
_symmetry_cell_setting 'orthorhombic'
loop_
_space_group_symop_operation_xyz
x,y,z
-x,-y,z
x,-y,-z
-x,y,-z
-x,-y,-z
x,y,-z
-x,y,z
x,-y,z
loop_
_atom_site_type_symbol
_atom_site_label
_atom_site_fract_x
_atom_site_fract_y
_atom_site_fract_z
Si Si1 0.448861 0.715683 0.149434
Si Si2 0.814558 0.219728 0.150891
Si Si3 0.367107 0.214886 0.351130
Si Si4 0.735261 0.219763 0.653010
Si Si5 0.000000 0.779640 0.653092
Si Si6 0.080679 0.780393 0.848560
O O1 0.500000 0.780647 0.189574
O O2 0.451549 0.500000 0.141982
O O3 0.408286 0.753231 0.250749
O O4 0.439411 0.782102 0.000000
O O5 0.775824 0.282881 0.251981
O O6 0.866918 0.275283 0.181091
O O7 0.814599 0.000000 0.153884
O O8 0.804148 0.272877 0.000000
O O9 0.376637 0.283639 0.500000
O O10 0.316340 0.279274 0.308168
O O11 0.362876 0.000000 0.361238
O O12 0.742466 0.270863 0.500000
O O13 0.736038 0.000000 0.657430
O O14 0.044385 0.722367 0.738355
O O15 0.000000 0.721353 0.500000
O O16 0.000000 0.000000 0.651248
O O17 0.079951 0.000000 0.849329
O O18 0.069174 0.725343 0.000000
#
# Coordination Sequence:
#
# PCOD9388928 Si02
#       6
#     8   8   8   8   4   8
#     4   9  19  35  51  67  89 116 146 180 216 254
#     4   8  13  20  30  44  60  81 113 149 185 231
#     4   9  18  31  46  67  93 117 143 176 214 257
#     4   8  14  24  36  51  74 100 122 151 194 238
#     4   9  15  19  23  33  47  65  97 141 184 227
#     4   8  13  20  27  34  48  72 101 137 183 229
#
# _framework density 20.186813999999998
#
# number of rings (size 3 to 8) (size 9 to 14) (size 15 to 20)
#    0.000    3.545    0.000    3.000    0.000    4.000 
#    0.000    8.182    0.000    0.000    0.000    0.000 
#    0.000    0.000    0.000    0.000    0.000    0.000 
#
# Total GULP energy -245294.438794 kJ/mol
# GULP energy per Si atom -5574.873609 kJ/mol
# Density = 2.014087 g / cm^3
# Si number density = 20.186814 Si / 1000 Ang^3
#
#
#
# Elastic Constant Matrix: (Units=GPa)
#
#
# Indices 1 2 3 4 5 6 
#
# 1 220.8565 5.7040 167.3545 0.0000 0.0000 0.0000
# 2 5.7040 62.1430 4.5784 0.0000 0.0000 0.0000
# 3 167.3545 4.5784 166.4254 0.0000 0.0000 0.0000
# 4 0.0000 0.0000 0.0000 4.5846 0.0000 0.0000
# 5 0.0000 0.0000 0.0000 0.0000 64.6496 0.0000
# 6 0.0000 0.0000 0.0000 0.0000 0.0000 66.3719
#
#
#
# Elastic Compliance Matrix: (Units=1/GPa)
#
#
# Indices 1 2 3 4 5 6 
#
# 1 0.019030 -0.000338 -0.019127 0.000000 0.000000 0.000000
# 2 -0.000338 0.016131 -0.000104 0.000000 0.000000 0.000000
# 3 -0.019127 -0.000104 0.025245 0.000000 0.000000 0.000000
# 4 0.000000 0.000000 0.000000 0.218120 0.000000 0.000000
# 5 0.000000 0.000000 0.000000 0.000000 0.015468 0.000000
# 6 0.000000 0.000000 0.000000 0.000000 0.000000 0.015067
#
#
# Mechanical properties :
#
#
# Convention : Reuss Voigt Hill
#
# Bulk Modulus (GPa) = 47.01849 89.41096 68.21473
# Shear Modulus (GPa) = 14.07307 45.24044 29.65675
#
# Velocity S-wave (km/s) = 2.64321 4.73915 3.83706
# Velocity P-wave (km/s) = 5.71469 8.62171 7.31408
#
# Compressibility (1/GPa) = 0.02126823
#
# Stress axis : x y z
#
# Youngs Moduli (GPa) = 52.54823 61.99405 39.61114
#
# Poissons Ratio (x) = 0.02093 0.75765
# Poissons Ratio (y) = 0.01774 0.00413
# Poissons Ratio (z) = 1.00509 0.00647
#
# Static dielectric constant tensor:
#      x y z
#    x 1.705420 0.000000 0.000000 
#    y 0.000000 1.785610 0.000000 
#    z 0.000000 0.000000 1.685420 
# 
# From -- ./inp_files/13672.got.cif
#   From: 2010.05.17/outbox.cif.g08.bks.cpg/sg47_7_cif.got.tgz:13672.got - 2010.06.03 20:15:42.
