data_PCOD9388649
_publ_section_title
;
Structure prediction by ZEFSAII (Michael W. Deem and Ramdas Pophale) SiO2 
 PCOD9388649
Probable space group: P M M M
;
_chemical_formula_sum "Si O2"
_cell_formula_units_Z 48
_cell_length_a 9.211704
_cell_length_b 8.290313
_cell_length_c 33.556260
_cell_angle_alpha 90.000000
_cell_angle_beta 90.000000
_cell_angle_gamma 90.000000
_cell_volume 2562.621424
_symmetry_space_group_name_H-M "P M M M"
_symmetry_group_IT_number 47
_symmetry_cell_setting 'orthorhombic'
loop_
_space_group_symop_operation_xyz
x,y,z
-x,-y,z
x,-y,-z
-x,y,-z
-x,-y,-z
x,y,-z
-x,y,z
x,-y,z
loop_
_atom_site_type_symbol
_atom_site_label
_atom_site_fract_x
_atom_site_fract_y
_atom_site_fract_z
Si Si1 0.665265 0.807160 0.500000
Si Si2 0.832161 0.304801 0.266017
Si Si3 0.822912 0.500000 0.046160
Si Si4 0.165392 0.307128 0.421974
Si Si5 0.823381 0.687464 0.821831
Si Si6 0.177073 0.820359 0.906196
Si Si7 0.665679 0.192984 0.343999
O O1 0.500000 0.745015 0.500000
O O2 0.747757 0.752196 0.460423
O O3 0.660608 0.000000 0.500000
O O4 0.832562 0.500000 0.265518
O O5 0.778377 0.253773 0.222018
O O6 0.737379 0.245757 0.302580
O O7 0.000000 0.252197 0.271191
O O8 0.775779 0.665142 0.068072
O O9 0.000000 0.500000 0.047716
O O10 0.779948 0.500000 0.000000
O O11 0.161344 0.500000 0.423241
O O12 0.242937 0.255633 0.381347
O O13 0.000000 0.245598 0.422914
O O14 0.779691 0.500000 0.827253
O O15 0.779100 0.788416 0.860319
O O16 0.000000 0.687546 0.820851
O O17 0.000000 0.819434 0.907205
O O18 0.223344 0.000000 0.919274
O O19 0.500000 0.252212 0.346604
O O20 0.664526 0.000000 0.345771
#
# Coordination Sequence:
#
# PCOD9388649 Si02
#       7
#     4   8   4   8   8   8   8
#     4  11  24  41  62  90 120 147 178 215 260 316
#     4   9  18  32  52  77 101 128 167 214 261 311
#     4   9  16  24  32  44  70 108 149 199 253 300
#     4  11  24  41  62  87 112 140 180 225 265 310
#     4   8  13  24  41  60  85 113 144 193 252 302
#     4   9  15  22  34  51  72 104 148 195 247 305
#     4  11  24  39  54  76 108 144 179 215 260 314
#
# _framework density 18.730820999999999
#
# number of rings (size 3 to 8) (size 9 to 14) (size 15 to 20)
#    0.000    2.333    0.833    3.500    0.000    9.667 
#    0.000    3.333    0.000    0.000    0.000    0.000 
#    0.000    0.000    0.000    0.000    0.000    1.667 
#
# Total GULP energy -267790.906109 kJ/mol
# GULP energy per Si atom -5578.977211 kJ/mol
# Density = 1.868819 g / cm^3
# Si number density = 18.730821 Si / 1000 Ang^3
#
#
#
# Elastic Constant Matrix: (Units=GPa)
#
#
# Indices 1 2 3 4 5 6 
#
# 1 78.5759 28.2979 55.5147 0.0000 0.0000 0.0000
# 2 28.2979 87.6903 65.9887 0.0000 0.0000 0.0000
# 3 55.5147 65.9887 169.4331 0.0000 0.0000 0.0000
# 4 0.0000 0.0000 0.0000 -38.0267 0.0000 0.0000
# 5 0.0000 0.0000 0.0000 0.0000 -14.8184 0.0000
# 6 0.0000 0.0000 0.0000 0.0000 0.0000 17.3229
#
#
#
# Elastic Compliance Matrix: (Units=1/GPa)
#
#
# Indices 1 2 3 4 5 6 
#
# 1 0.016760 -0.001805 -0.004788 0.000000 0.000000 0.000000
# 2 -0.001805 0.016326 -0.005767 0.000000 0.000000 0.000000
# 3 -0.004788 -0.005767 0.009717 0.000000 0.000000 0.000000
# 4 0.000000 0.000000 0.000000 -0.026297 0.000000 0.000000
# 5 0.000000 0.000000 0.000000 0.000000 -0.067484 0.000000
# 6 0.000000 0.000000 0.000000 0.000000 0.000000 0.057727
#
#
# Mechanical properties :
#
#
# Convention : Reuss Voigt Hill
#
# Bulk Modulus (GPa) = 55.30404 70.58909 62.94657
# Shear Modulus (GPa) = 133.34391 5.28875 69.31633
#
# Velocity S-wave (km/s) = 8.44654 1.68217 6.08990
# Velocity P-wave (km/s) = 11.16760 6.44521 9.11746
#
# Compressibility (1/GPa) = 0.01808186
#
# Stress axis : x y z
#
# Youngs Moduli (GPa) = 59.66738 61.25162 102.91280
#
# Poissons Ratio (x) = 0.11057 0.49277
# Poissons Ratio (y) = 0.10771 0.59350
# Poissons Ratio (z) = 0.28570 0.35324
#
# Static dielectric constant tensor:
#      x y z
#    x 1.631500 0.000000 0.000000 
#    y 0.000000 1.657120 0.000000 
#    z 0.000000 0.000000 1.688830 
# 
# From -- ./inp_files/34107.got.cif
#   From: 2010.05.17/outbox.cif.g08.bks.cpg/sg47_18_cif.got.tgz:34107.got - 2010.06.03 20:15:42.
