data_PCOD9388398
_publ_section_title
;
Structure prediction by ZEFSAII (Michael W. Deem and Ramdas Pophale) SiO2 
 PCOD9388398
Probable space group: P M M M
;
_chemical_formula_sum "Si O2"
_cell_formula_units_Z 48
_cell_length_a 16.069725
_cell_length_b 17.327356
_cell_length_c 8.421704
_cell_angle_alpha 90.000000
_cell_angle_beta 90.000000
_cell_angle_gamma 90.000000
_cell_volume 2344.988494
_symmetry_space_group_name_H-M "P M M M"
_symmetry_group_IT_number 47
_symmetry_cell_setting 'orthorhombic'
loop_
_space_group_symop_operation_xyz
x,y,z
-x,-y,z
x,-y,-z
-x,y,-z
-x,-y,-z
x,y,-z
-x,y,z
x,-y,z
loop_
_atom_site_type_symbol
_atom_site_label
_atom_site_fract_x
_atom_site_fract_y
_atom_site_fract_z
Si Si1 0.098298 0.911074 0.000000
Si Si2 0.500000 0.910235 0.695494
Si Si3 0.407665 0.592518 0.187542
Si Si4 0.905743 0.411007 0.191244
Si Si5 0.160780 0.910744 0.673142
Si Si6 0.748219 0.318313 0.313056
Si Si7 0.329618 0.161067 0.685869
O O1 0.125050 0.874461 0.833316
O O2 0.000000 0.915590 0.000000
O O3 0.132418 0.000000 0.000000
O O4 0.500000 0.910006 0.500000
O O5 0.583084 0.867043 0.752865
O O6 0.500000 0.000000 0.742040
O O7 0.500000 0.619829 0.239264
O O8 0.406801 0.500000 0.200671
O O9 0.330582 0.626656 0.281428
O O10 0.398458 0.611017 0.000000
O O11 0.889182 0.500000 0.243267
O O12 0.831954 0.354835 0.243337
O O13 0.000000 0.390281 0.244133
O O14 0.906499 0.411707 0.000000
O O15 0.138969 0.876072 0.500000
O O16 0.260280 0.905492 0.687944
O O17 0.133205 0.000000 0.668998
O O18 0.762808 0.309350 0.500000
O O19 0.716452 0.236101 0.245544
O O20 0.346019 0.179324 0.500000
#
# Coordination Sequence:
#
# PCOD9388398 Si02
#       7
#     4   4   8   8   8   8   8
#     4   9  18  32  52  81 109 133 174 228 277 335
#     4   9  16  30  56  83 106 143 197 240 267 318
#     4   9  19  36  55  74 102 145 194 234 266 317
#     4   9  19  38  62  83 105 141 192 242 280 326
#     4   9  17  33  56  77 105 146 187 230 281 335
#     4  11  22  33  51  81 119 149 174 225 292 347
#     4   9  19  33  50  78 113 146 183 226 278 336
#
# _framework density 20.469183999999998
#
# number of rings (size 3 to 8) (size 9 to 14) (size 15 to 20)
#    0.000    2.667    0.000    2.500    1.167    5.667 
#    3.000    4.167    0.000    3.500    0.000    2.333 
#    0.000    0.000    0.000    0.000    0.000    0.000 
#
# Total GULP energy -267429.717455 kJ/mol
# GULP energy per Si atom -5571.452447 kJ/mol
# Density = 2.042260 g / cm^3
# Si number density = 20.469184 Si / 1000 Ang^3
#
#
#
# Elastic Constant Matrix: (Units=GPa)
#
#
# Indices 1 2 3 4 5 6 
#
# 1 137.5423 59.7923 39.9625 0.0000 0.0000 0.0000
# 2 59.7923 74.8347 13.4989 0.0000 0.0000 0.0000
# 3 39.9625 13.4989 72.6724 0.0000 0.0000 0.0000
# 4 0.0000 0.0000 0.0000 -34.8942 0.0000 0.0000
# 5 0.0000 0.0000 0.0000 0.0000 22.6200 0.0000
# 6 0.0000 0.0000 0.0000 0.0000 0.0000 12.4907
#
#
#
# Elastic Compliance Matrix: (Units=1/GPa)
#
#
# Indices 1 2 3 4 5 6 
#
# 1 0.012879 -0.009325 -0.005350 0.000000 0.000000 0.000000
# 2 -0.009325 0.020578 0.001305 0.000000 0.000000 0.000000
# 3 -0.005350 0.001305 0.016460 0.000000 0.000000 0.000000
# 4 0.000000 0.000000 0.000000 -0.028658 0.000000 0.000000
# 5 0.000000 0.000000 0.000000 0.000000 0.044209 0.000000
# 6 0.000000 0.000000 0.000000 0.000000 0.000000 0.080059
#
#
# Mechanical properties :
#
#
# Convention : Reuss Voigt Hill
#
# Bulk Modulus (GPa) = 43.14513 56.83963 49.99238
# Shear Modulus (GPa) = 27.77924 11.49634 19.63779
#
# Velocity S-wave (km/s) = 3.68791 2.37247 3.10075
# Velocity P-wave (km/s) = 6.26563 5.94420 6.10703
#
# Compressibility (1/GPa) = 0.02317759
#
# Stress axis : x y z
#
# Youngs Moduli (GPa) = 77.64846 48.59607 60.75420
#
# Poissons Ratio (x) = 0.45315 0.32502
# Poissons Ratio (y) = 0.72406 -0.07931
# Poissons Ratio (z) = 0.41540 -0.06344
#
# Static dielectric constant tensor:
#      x y z
#    x 1.714950 0.000000 0.000000 
#    y 0.000000 1.759160 0.000000 
#    z 0.000000 0.000000 1.760080 
# 
# From -- ./inp_files/6430.got.cif
#   From: 2010.05.17/outbox.cif.g08.bks.cpg/sg47_4_cif.got.tgz:6430.got - 2010.06.03 20:15:42.
