data_PCOD9388049
_publ_section_title
;
Structure prediction by ZEFSAII (Michael W. Deem and Ramdas Pophale) SiO2 
 PCOD9388049
Probable space group: P M M M
;
_chemical_formula_sum "Si O2"
_cell_formula_units_Z 48
_cell_length_a 35.643232
_cell_length_b 7.541924
_cell_length_c 9.381610
_cell_angle_alpha 90.000000
_cell_angle_beta 90.000000
_cell_angle_gamma 90.000000
_cell_volume 2521.950767
_symmetry_space_group_name_H-M "P M M M"
_symmetry_group_IT_number 47
_symmetry_cell_setting 'orthorhombic'
loop_
_space_group_symop_operation_xyz
x,y,z
-x,-y,z
x,-y,-z
-x,y,-z
-x,-y,-z
x,y,-z
-x,y,z
x,-y,z
loop_
_atom_site_type_symbol
_atom_site_label
_atom_site_fract_x
_atom_site_fract_y
_atom_site_fract_z
Si Si1 0.040326 0.286925 0.165968
Si Si2 0.408795 0.500000 0.329840
Si Si3 0.731631 0.791946 0.831371
Si Si4 0.877832 0.210712 0.837807
Si Si5 0.455614 0.210047 0.166332
Si Si6 0.669731 0.500000 0.169549
Si Si7 0.806214 0.216751 0.336821
O O1 0.039559 0.500000 0.165175
O O2 0.080659 0.236333 0.227299
O O3 0.000000 0.226295 0.226889
O O4 0.041074 0.226789 0.000000
O O5 0.407832 0.500000 0.500000
O O6 0.431019 0.330058 0.268761
O O7 0.367445 0.500000 0.262445
O O8 0.695835 0.670602 0.800864
O O9 0.768149 0.733332 0.744044
O O10 0.724413 0.000000 0.802026
O O11 0.740005 0.774902 0.000000
O O12 0.843352 0.279667 0.745339
O O13 0.872490 0.000000 0.848965
O O14 0.877448 0.283338 0.000000
O O15 0.500000 0.244093 0.187628
O O16 0.449344 0.000000 0.187049
O O17 0.447151 0.251109 0.000000
O O18 0.660574 0.500000 0.000000
O O19 0.806018 0.274763 0.500000
O O20 0.806948 0.000000 0.336225
#
# Coordination Sequence:
#
# PCOD9388049 Si02
#       7
#     8   4   8   8   8   4   8
#     4   8  14  25  40  59  85 115 146 183 228 276
#     4  12  25  37  54  85 126 164 194 237 297 354
#     4   9  18  35  58  79 100 130 171 221 272 317
#     4   9  16  26  43  67  91 114 146 190 234 280
#     4   9  19  38  64  90 116 154 206 256 298 344
#     4  10  22  39  57  80 108 143 191 235 270 324
#     4   9  17  30  49  71  96 126 155 190 245 308
#
# _framework density 19.032886000000001
#
# number of rings (size 3 to 8) (size 9 to 14) (size 15 to 20)
#    0.000    2.833    0.000    2.500    0.000    5.333 
#    1.500    4.167    0.000    0.500    0.000    3.500 
#    0.000    0.000    0.000    0.000    0.000    0.000 
#
# Total GULP energy -267692.293238 kJ/mol
# GULP energy per Si atom -5576.922776 kJ/mol
# Density = 1.898957 g / cm^3
# Si number density = 19.032886 Si / 1000 Ang^3
#
#
#
# Elastic Constant Matrix: (Units=GPa)
#
#
# Indices 1 2 3 4 5 6 
#
# 1 176.1902 60.0653 109.6708 0.0000 0.0000 0.0000
# 2 60.0653 68.1471 46.8439 0.0000 0.0000 0.0000
# 3 109.6708 46.8439 100.2148 0.0000 0.0000 0.0000
# 4 0.0000 0.0000 0.0000 4.5353 0.0000 0.0000
# 5 0.0000 0.0000 0.0000 0.0000 -10.2323 0.0000
# 6 0.0000 0.0000 0.0000 0.0000 0.0000 51.5548
#
#
#
# Elastic Compliance Matrix: (Units=1/GPa)
#
#
# Indices 1 2 3 4 5 6 
#
# 1 0.018350 -0.003492 -0.018449 0.000000 0.000000 0.000000
# 2 -0.003492 0.022286 -0.006596 0.000000 0.000000 0.000000
# 3 -0.018449 -0.006596 0.033252 0.000000 0.000000 0.000000
# 4 0.000000 0.000000 0.000000 0.220494 0.000000 0.000000
# 5 0.000000 0.000000 0.000000 0.000000 -0.097730 0.000000
# 6 0.000000 0.000000 0.000000 0.000000 0.000000 0.019397
#
#
# Mechanical properties :
#
#
# Convention : Reuss Voigt Hill
#
# Bulk Modulus (GPa) = 59.47522 86.41247 72.94384
# Shear Modulus (GPa) = 17.93874 17.70303 17.82089
#
# Velocity S-wave (km/s) = 3.07337 3.05311 3.06326
# Velocity P-wave (km/s) = 6.62651 7.61110 7.13581
#
# Compressibility (1/GPa) = 0.01681373
#
# Stress axis : x y z
#
# Youngs Moduli (GPa) = 54.49628 44.87153 30.07382
#
# Poissons Ratio (x) = 0.15669 0.55483
# Poissons Ratio (y) = 0.19030 0.19836
# Poissons Ratio (z) = 1.00541 0.29596
#
# Static dielectric constant tensor:
#      x y z
#    x 1.657290 0.000000 0.000000 
#    y 0.000000 1.689630 0.000000 
#    z 0.000000 0.000000 1.634600 
# 
# From -- ./inp_files/13992.got.cif
#   From: 2010.05.17/outbox.cif.g08.bks.cpg/sg47_7_cif.got.tgz:13992.got - 2010.06.03 20:15:42.
