data_PCOD9388007
_publ_section_title
;
Structure prediction by ZEFSAII (Michael W. Deem and Ramdas Pophale) SiO2 
 PCOD9388007
Probable space group: P M M M
;
_chemical_formula_sum "Si O2"
_cell_formula_units_Z 52
_cell_length_a 9.494086
_cell_length_b 20.068249
_cell_length_c 14.865801
_cell_angle_alpha 90.000000
_cell_angle_beta 90.000000
_cell_angle_gamma 90.000000
_cell_volume 2832.376335
_symmetry_space_group_name_H-M "P M M M"
_symmetry_group_IT_number 47
_symmetry_cell_setting 'orthorhombic'
loop_
_space_group_symop_operation_xyz
x,y,z
-x,-y,z
x,-y,-z
-x,y,-z
-x,-y,-z
x,y,-z
-x,y,z
x,-y,z
loop_
_atom_site_type_symbol
_atom_site_label
_atom_site_fract_x
_atom_site_fract_y
_atom_site_fract_z
Si Si1 0.335596 0.741589 0.744721
Si Si2 0.828871 0.000000 0.603966
Si Si3 0.160032 0.500000 0.609754
Si Si4 0.168590 0.123862 0.730719
Si Si5 0.332187 0.634135 0.892906
Si Si6 0.338630 0.375891 0.604500
Si Si7 0.659387 0.080054 0.898696
Si Si8 0.163265 0.500000 0.890661
O O1 0.500000 0.761010 0.755216
O O2 0.241589 0.804737 0.720019
O O3 0.293949 0.699056 0.833696
O O4 0.326179 0.689189 0.663820
O O5 0.786928 0.933366 0.658937
O O6 0.781079 0.000000 0.500000
O O7 0.000000 0.000000 0.603011
O O8 0.166076 0.500000 0.500000
O O9 0.238945 0.433915 0.639218
O O10 0.000000 0.500000 0.637982
O O11 0.224739 0.101066 0.827858
O O12 0.000000 0.128856 0.727826
O O13 0.500000 0.622235 0.878205
O O14 0.245692 0.567906 0.865490
O O15 0.311287 0.645252 0.000000
O O16 0.306611 0.361995 0.500000
O O17 0.500000 0.399873 0.609111
O O18 0.500000 0.101283 0.872832
O O19 0.657901 0.000000 0.901357
O O20 0.686291 0.104558 0.000000
O O21 0.000000 0.500000 0.861076
O O22 0.163010 0.500000 0.000000
#
# Coordination Sequence:
#
# PCOD9388007 Si02
#       8
#     8   4   4   8   8   8   8   4
#     4  10  22  37  53  77 108 143 182 224 271 327
#     4   9  20  40  62  83 110 146 185 223 272 337
#     4   9  17  30  51  78 105 133 170 219 271 326
#     4  11  22  37  58  84 113 145 183 230 278 327
#     4   9  18  34  54  74 101 142 187 224 262 316
#     4   9  18  34  54  74 101 138 177 220 272 327
#     4   9  18  34  58  85 112 144 177 212 262 321
#     4   9  17  30  51  78 107 139 178 229 277 310
#
# _framework density 18.359141999999999
#
# number of rings (size 3 to 8) (size 9 to 14) (size 15 to 20)
#    0.000    2.538    0.769    1.385    0.000    5.231 
#    0.000    5.385    0.000    3.231    0.000    0.000 
#    0.000    0.000    0.000    0.000    0.000    0.000 
#
# Total GULP energy -289999.179186 kJ/mol
# GULP energy per Si atom -5576.907292 kJ/mol
# Density = 1.831736 g / cm^3
# Si number density = 18.359142 Si / 1000 Ang^3
#
#
#
# Elastic Constant Matrix: (Units=GPa)
#
#
# Indices 1 2 3 4 5 6 
#
# 1 79.8540 73.2445 45.5493 0.0000 0.0000 0.0000
# 2 73.2445 130.9160 56.8079 0.0000 0.0000 0.0000
# 3 45.5493 56.8079 90.8676 0.0000 0.0000 0.0000
# 4 0.0000 0.0000 0.0000 6.2275 0.0000 0.0000
# 5 0.0000 0.0000 0.0000 0.0000 15.7437 0.0000
# 6 0.0000 0.0000 0.0000 0.0000 0.0000 44.7687
#
#
#
# Elastic Compliance Matrix: (Units=1/GPa)
#
#
# Indices 1 2 3 4 5 6 
#
# 1 0.027768 -0.013030 -0.005773 0.000000 0.000000 0.000000
# 2 -0.013030 0.016597 -0.003844 0.000000 0.000000 0.000000
# 3 -0.005773 -0.003844 0.016302 0.000000 0.000000 0.000000
# 4 0.000000 0.000000 0.000000 0.160578 0.000000 0.000000
# 5 0.000000 0.000000 0.000000 0.000000 0.063518 0.000000
# 6 0.000000 0.000000 0.000000 0.000000 0.000000 0.022337
#
#
# Mechanical properties :
#
#
# Convention : Reuss Voigt Hill
#
# Bulk Modulus (GPa) = 65.05454 72.53791 68.79622
# Shear Modulus (GPa) = 13.98534 21.75036 17.86785
#
# Velocity S-wave (km/s) = 2.76300 3.44570 3.12306
# Velocity P-wave (km/s) = 6.75946 7.44492 7.11045
#
# Compressibility (1/GPa) = 0.01537172
#
# Stress axis : x y z
#
# Youngs Moduli (GPa) = 36.01324 60.25299 61.34207
#
# Poissons Ratio (x) = 0.78511 0.35412
# Poissons Ratio (y) = 0.46926 0.23580
# Poissons Ratio (z) = 0.20790 0.23162
#
# Static dielectric constant tensor:
#      x y z
#    x 1.616040 0.000000 0.000000 
#    y 0.000000 1.598960 0.000000 
#    z 0.000000 0.000000 1.659000 
# 
# From -- ./inp_files/21557.got.cif
#   From: 2010.05.17/outbox.cif.g08.bks.cpg/sg47_11_cif.got.tgz:21557.got - 2010.06.03 20:15:42.
