data_PCOD9388094
_publ_section_title
;
Structure prediction by ZEFSAII (Michael W. Deem and Ramdas Pophale) SiO2 
 PCOD9388094
Probable space group: P M M M
;
_chemical_formula_sum "Si O2"
_cell_formula_units_Z 48
_cell_length_a 19.659892
_cell_length_b 9.319414
_cell_length_c 14.951428
_cell_angle_alpha 90.000000
_cell_angle_beta 90.000000
_cell_angle_gamma 90.000000
_cell_volume 2739.380794
_symmetry_space_group_name_H-M "P M M M"
_symmetry_group_IT_number 47
_symmetry_cell_setting 'orthorhombic'
loop_
_space_group_symop_operation_xyz
x,y,z
-x,-y,z
x,-y,-z
-x,y,-z
-x,-y,-z
x,y,-z
-x,y,z
x,-y,z
loop_
_atom_site_type_symbol
_atom_site_label
_atom_site_fract_x
_atom_site_fract_y
_atom_site_fract_z
Si Si1 0.297508 0.834590 0.897415
Si Si2 0.079495 0.350067 0.000000
Si Si3 0.691785 0.671733 0.714160
Si Si4 0.137517 0.844692 0.144222
Si Si5 0.829533 0.830290 0.651876
Si Si6 0.082075 0.673756 0.500000
Si Si7 0.580172 0.835096 0.393147
O O1 0.317956 0.732350 0.815357
O O2 0.215656 0.839476 0.888297
O O3 0.321112 0.000000 0.882803
O O4 0.314952 0.793166 0.000000
O O5 0.098762 0.272027 0.089971
O O6 0.117445 0.500000 0.000000
O O7 0.000000 0.364018 0.000000
O O8 0.700976 0.500000 0.714319
O O9 0.757157 0.750643 0.668262
O O10 0.626756 0.723003 0.658074
O O11 0.136965 0.828036 0.250054
O O12 0.109343 0.000000 0.120199
O O13 0.878302 0.746553 0.583531
O O14 0.819803 0.000000 0.627466
O O15 0.090438 0.500000 0.500000
O O16 0.000000 0.702688 0.500000
O O17 0.589341 0.821725 0.500000
O O18 0.500000 0.816594 0.374437
O O19 0.598900 0.000000 0.368575
#
# Coordination Sequence:
#
# PCOD9388094 Si02
#       7
#     8   4   8   8   8   4   8
#     4   9  17  33  56  79 106 140 183 230 274 325
#     4  11  23  33  45  71 105 139 170 209 272 339
#     4  11  22  34  54  87 122 151 184 231 286 336
#     4   9  18  35  55  75  98 130 176 225 268 314
#     4  10  22  40  61  82 107 145 192 235 274 328
#     4  11  25  43  61  83 112 143 178 231 297 351
#     4   9  19  37  60  84 113 153 197 235 275 329
#
# _framework density 17.522207999999999
#
# number of rings (size 3 to 8) (size 9 to 14) (size 15 to 20)
#    0.000    2.167    0.833    4.000    1.167    6.333 
#    0.000    4.167    0.000    0.500    0.000    3.500 
#    0.000    0.000    0.000    0.000    0.000    0.000 
#
# Total GULP energy -267474.044796 kJ/mol
# GULP energy per Si atom -5572.375933 kJ/mol
# Density = 1.748233 g / cm^3
# Si number density = 17.522208 Si / 1000 Ang^3
#
#
#
# Elastic Constant Matrix: (Units=GPa)
#
#
# Indices 1 2 3 4 5 6 
#
# 1 52.6664 56.2710 44.8595 0.0000 0.0000 0.0000
# 2 56.2710 148.4667 66.5772 0.0000 0.0000 0.0000
# 3 44.8595 66.5772 93.3017 0.0000 0.0000 0.0000
# 4 0.0000 0.0000 0.0000 65.8258 0.0000 0.0000
# 5 0.0000 0.0000 0.0000 0.0000 20.6890 0.0000
# 6 0.0000 0.0000 0.0000 0.0000 0.0000 24.5601
#
#
#
# Elastic Compliance Matrix: (Units=1/GPa)
#
#
# Indices 1 2 3 4 5 6 
#
# 1 0.039576 -0.009510 -0.012242 0.000000 0.000000 0.000000
# 2 -0.009510 0.012190 -0.004126 0.000000 0.000000 0.000000
# 3 -0.012242 -0.004126 0.019548 0.000000 0.000000 0.000000
# 4 0.000000 0.000000 0.000000 0.015192 0.000000 0.000000
# 5 0.000000 0.000000 0.000000 0.000000 0.048335 0.000000
# 6 0.000000 0.000000 0.000000 0.000000 0.000000 0.040716
#
#
# Mechanical properties :
#
#
# Convention : Reuss Voigt Hill
#
# Bulk Modulus (GPa) = 51.13048 69.98335 60.55692
# Shear Modulus (GPa) = 21.38280 30.66344 26.02312
#
# Velocity S-wave (km/s) = 3.49711 4.18781 3.85795
# Velocity P-wave (km/s) = 6.74908 7.96305 7.38107
#
# Compressibility (1/GPa) = 0.01955781
#
# Stress axis : x y z
#
# Youngs Moduli (GPa) = 25.26802 82.03264 51.15572
#
# Poissons Ratio (x) = 0.78014 0.62625
# Poissons Ratio (y) = 0.24030 0.21108
# Poissons Ratio (z) = 0.30933 0.33848
#
# Static dielectric constant tensor:
#      x y z
#    x 1.574480 0.000000 0.000000 
#    y 0.000000 1.674620 0.000000 
#    z 0.000000 0.000000 1.588770 
# 
# From -- ./inp_files/21099.got.cif
#   From: 2010.05.17/outbox.cif.g08.bks.cpg/sg47_11_cif.got.tgz:21099.got - 2010.06.03 20:15:42.
