data_PCOD9388390
_publ_section_title
;
Structure prediction by ZEFSAII (Michael W. Deem and Ramdas Pophale) SiO2 
 PCOD9388390
Probable space group: P M M M
;
_chemical_formula_sum "Si O2"
_cell_formula_units_Z 40
_cell_length_a 7.485097
_cell_length_b 7.794911
_cell_length_c 31.340045
_cell_angle_alpha 90.000000
_cell_angle_beta 90.000000
_cell_angle_gamma 90.000000
_cell_volume 1828.555765
_symmetry_space_group_name_H-M "P M M M"
_symmetry_group_IT_number 47
_symmetry_cell_setting 'orthorhombic'
loop_
_space_group_symop_operation_xyz
x,y,z
-x,-y,z
x,-y,-z
-x,y,-z
-x,-y,-z
x,y,-z
-x,y,z
x,-y,z
loop_
_atom_site_type_symbol
_atom_site_label
_atom_site_fract_x
_atom_site_fract_y
_atom_site_fract_z
Si Si1 0.718949 0.000000 0.292471
Si Si2 0.718736 0.697976 0.769923
Si Si3 0.703716 0.294703 0.862734
Si Si4 0.214010 0.306964 0.547762
Si Si5 0.708766 0.000000 0.388471
Si Si6 0.709224 0.793858 0.954118
O O1 0.773433 0.169555 0.266411
O O2 0.787320 0.000000 0.340948
O O3 0.500000 0.000000 0.292166
O O4 0.500000 0.697234 0.771659
O O5 0.773285 0.500000 0.762576
O O6 0.780320 0.759194 0.817043
O O7 0.500000 0.224331 0.864774
O O8 0.693427 0.500000 0.859426
O O9 0.789003 0.256816 0.908547
O O10 0.278431 0.258410 0.500000
O O11 0.279235 0.500000 0.557411
O O12 0.251930 0.166882 0.583271
O O13 0.000000 0.315764 0.545180
O O14 0.500000 0.000000 0.381418
O O15 0.500000 0.737791 0.953568
O O16 0.711765 0.000000 0.954957
O O17 0.783691 0.734078 0.000000
#
# Coordination Sequence:
#
# PCOD9388390 Si02
#       6
#     4   8   8   8   4   8
#     4   9  18  28  38  55  81 116 145 170 224 283
#     4   8  14  24  35  46  62  89 130 172 206 255
#     4   8  13  19  27  38  48  66 103 148 193 243
#     4   9  19  37  59  79 101 136 178 211 242 287
#     4  11  22  32  47  78 112 137 166 207 258 307
#     4   8  13  18  22  31  47  65  87 125 187 256
#
# _framework density 21.875187
#
# number of rings (size 3 to 8) (size 9 to 14) (size 15 to 20)
#    0.000    3.400    0.000    3.000    1.400    3.200 
#    0.000    5.000    0.000    0.000    0.000    0.000 
#    0.000    0.000    0.000    0.000    0.000    0.000 
#
# Total GULP energy -222918.610022 kJ/mol
# GULP energy per Si atom -5572.965251 kJ/mol
# Density = 2.182540 g / cm^3
# Si number density = 21.875187 Si / 1000 Ang^3
#
#
#
# Elastic Constant Matrix: (Units=GPa)
#
#
# Indices 1 2 3 4 5 6 
#
# 1 59.4988 4.3785 12.5502 0.0000 0.0000 0.0000
# 2 4.3785 104.2667 117.8371 0.0000 0.0000 0.0000
# 3 12.5502 117.8371 270.7891 0.0000 0.0000 0.0000
# 4 0.0000 0.0000 0.0000 -31.5654 0.0000 0.0000
# 5 0.0000 0.0000 0.0000 0.0000 50.2049 0.0000
# 6 0.0000 0.0000 0.0000 0.0000 0.0000 4.5066
#
#
#
# Elastic Compliance Matrix: (Units=1/GPa)
#
#
# Indices 1 2 3 4 5 6 
#
# 1 0.016979 0.000347 -0.000938 0.000000 0.000000 0.000000
# 2 0.000347 0.018879 -0.008232 0.000000 0.000000 0.000000
# 3 -0.000938 -0.008232 0.007318 0.000000 0.000000 0.000000
# 4 0.000000 0.000000 0.000000 -0.031680 0.000000 0.000000
# 5 0.000000 0.000000 0.000000 0.000000 0.019918 0.000000
# 6 0.000000 0.000000 0.000000 0.000000 0.000000 0.221898
#
#
# Mechanical properties :
#
#
# Convention : Reuss Voigt Hill
#
# Bulk Modulus (GPa) = 39.16667 78.23179 58.69923
# Shear Modulus (GPa) = 17.89112 24.61514 21.25313
#
# Velocity S-wave (km/s) = 2.86295 3.35812 3.12037
# Velocity P-wave (km/s) = 5.37328 7.13277 6.31461
#
# Compressibility (1/GPa) = 0.02553191
#
# Stress axis : x y z
#
# Youngs Moduli (GPa) = 58.89503 52.96857 136.64114
#
# Poissons Ratio (x) = -0.01838 0.12816
# Poissons Ratio (y) = -0.02044 1.12477
# Poissons Ratio (z) = 0.05524 0.43601
#
# Static dielectric constant tensor:
#      x y z
#    x 1.874740 0.000000 0.000000 
#    y 0.000000 1.690520 0.000000 
#    z 0.000000 0.000000 1.847610 
# 
# From -- ./inp_files/33051.got.cif
#   From: 2010.05.17/outbox.cif.g08.bks.cpg/sg47_17_cif.got.tgz:33051.got - 2010.06.03 20:15:42.
