data_PCOD9388637
_publ_section_title
;
Structure prediction by ZEFSAII (Michael W. Deem and Ramdas Pophale) SiO2 
 PCOD9388637
Probable space group: P M M M
;
_chemical_formula_sum "Si O2"
_cell_formula_units_Z 64
_cell_length_a 24.793493
_cell_length_b 8.778532
_cell_length_c 14.208748
_cell_angle_alpha 90.000000
_cell_angle_beta 90.000000
_cell_angle_gamma 90.000000
_cell_volume 3092.540704
_symmetry_space_group_name_H-M "P M M M"
_symmetry_group_IT_number 47
_symmetry_cell_setting 'orthorhombic'
loop_
_space_group_symop_operation_xyz
x,y,z
-x,-y,z
x,-y,-z
-x,y,-z
-x,-y,-z
x,y,-z
-x,y,z
x,-y,z
loop_
_atom_site_type_symbol
_atom_site_label
_atom_site_fract_x
_atom_site_fract_y
_atom_site_fract_z
Si Si1 0.108339 0.683410 0.108181
Si Si2 0.332726 0.820631 0.209212
Si Si3 0.160617 0.674823 0.613181
Si Si4 0.231452 0.324513 0.113279
Si Si5 0.435524 0.326232 0.400335
Si Si6 0.439340 0.684932 0.189183
Si Si7 0.058950 0.181370 0.712937
Si Si8 0.718311 0.315893 0.609350
O O1 0.104104 0.500000 0.111316
O O2 0.170130 0.720907 0.137186
O O3 0.068479 0.757650 0.181889
O O4 0.099995 0.730724 0.000000
O O5 0.277691 0.779368 0.155356
O O6 0.383061 0.748023 0.150855
O O7 0.322453 0.749256 0.313652
O O8 0.340601 0.000000 0.217070
O O9 0.158624 0.673922 0.500000
O O10 0.157233 0.500000 0.646827
O O11 0.109563 0.761475 0.653138
O O12 0.220680 0.733486 0.636680
O O13 0.240232 0.500000 0.145312
O O14 0.233979 0.324367 0.000000
O O15 0.416767 0.256547 0.500000
O O16 0.500000 0.341271 0.408541
O O17 0.413276 0.500000 0.396514
O O18 0.432518 0.256699 0.297046
O O19 0.500000 0.728111 0.155614
O O20 0.438346 0.500000 0.188769
O O21 0.000000 0.233967 0.678045
O O22 0.059394 0.000000 0.713216
O O23 0.708686 0.272615 0.500000
O O24 0.717658 0.500000 0.612503
#
# Coordination Sequence:
#
# PCOD9388637 Si02
#       8
#     8   8   8   8   8   8   8   8
#     4   9  19  37  61  86 109 137 177 226 277 323
#     4  12  24  34  51  82 118 149 174 213 272 332
#     4   9  19  37  60  82 103 135 185 242 290 324
#     4   9  19  38  63  87 109 135 174 225 274 323
#     4   7  10  19  38  63  86 110 151 207 253 285
#     4   9  18  33  52  72  97 137 187 227 260 309
#     4  11  24  37  50  76 115 155 190 223 266 325
#     4   9  19  37  59  81 107 142 186 233 276 322
#
# _framework density 20.694959000000001
#
# number of rings (size 3 to 8) (size 9 to 14) (size 15 to 20)
#    0.000    2.625    0.000    4.875    0.000    7.250 
#    0.000    6.250    0.000    0.375    0.000    5.250 
#    0.000    0.000    0.000    0.000    0.000    0.000 
#
# Total GULP energy -356786.310209 kJ/mol
# GULP energy per Si atom -5574.786097 kJ/mol
# Density = 2.064786 g / cm^3
# Si number density = 20.694959 Si / 1000 Ang^3
#
#
#
# Elastic Constant Matrix: (Units=GPa)
#
#
# Indices 1 2 3 4 5 6 
#
# 1 158.3628 41.5474 18.1631 0.0000 0.0000 0.0000
# 2 41.5474 37.9769 5.0085 0.0000 0.0000 0.0000
# 3 18.1631 5.0085 18.3104 0.0000 0.0000 0.0000
# 4 0.0000 0.0000 0.0000 135.8632 0.0000 0.0000
# 5 0.0000 0.0000 0.0000 0.0000 6.0221 0.0000
# 6 0.0000 0.0000 0.0000 0.0000 0.0000 54.6244
#
#
#
# Elastic Compliance Matrix: (Units=1/GPa)
#
#
# Indices 1 2 3 4 5 6 
#
# 1 0.009634 -0.009627 -0.006924 0.000000 0.000000 0.000000
# 2 -0.009627 0.036937 -0.000554 0.000000 0.000000 0.000000
# 3 -0.006924 -0.000554 0.061633 0.000000 0.000000 0.000000
# 4 0.000000 0.000000 0.000000 0.007360 0.000000 0.000000
# 5 0.000000 0.000000 0.000000 0.000000 0.166056 0.000000
# 6 0.000000 0.000000 0.000000 0.000000 0.000000 0.018307
#
#
# Mechanical properties :
#
#
# Convention : Reuss Voigt Hill
#
# Bulk Modulus (GPa) = 13.51434 38.23202 25.87318
# Shear Modulus (GPa) = 13.93524 49.29733 31.61628
#
# Velocity S-wave (km/s) = 2.59774 4.88596 3.91286
# Velocity P-wave (km/s) = 3.94235 7.09538 5.73962
#
# Compressibility (1/GPa) = 0.07399548
#
# Stress axis : x y z
#
# Youngs Moduli (GPa) = 103.79449 27.07311 16.22501
#
# Poissons Ratio (x) = 0.26064 0.11234
# Poissons Ratio (y) = 0.99924 0.00899
# Poissons Ratio (z) = 0.71863 0.01500
#
# Static dielectric constant tensor:
#      x y z
#    x 1.789200 0.000000 0.000000 
#    y 0.000000 1.702970 0.000000 
#    z 0.000000 0.000000 1.820730 
# 
# From -- ./inp_files/25609.got.cif
#   From: 2010.05.17/outbox.cif.g08.bks.cpg/sg47_13_cif.got.tgz:25609.got - 2010.06.03 20:15:42.
