data_PCOD9388630
_publ_section_title
;
Structure prediction by ZEFSAII (Michael W. Deem and Ramdas Pophale) SiO2 
 PCOD9388630
Probable space group: P M M M
;
_chemical_formula_sum "Si O2"
_cell_formula_units_Z 52
_cell_length_a 9.215148
_cell_length_b 20.309029
_cell_length_c 14.523525
_cell_angle_alpha 90.000000
_cell_angle_beta 90.000000
_cell_angle_gamma 90.000000
_cell_volume 2718.087986
_symmetry_space_group_name_H-M "P M M M"
_symmetry_group_IT_number 47
_symmetry_cell_setting 'orthorhombic'
loop_
_space_group_symop_operation_xyz
x,y,z
-x,-y,z
x,-y,-z
-x,y,-z
-x,-y,-z
x,y,-z
-x,y,z
x,-y,z
loop_
_atom_site_type_symbol
_atom_site_label
_atom_site_fract_x
_atom_site_fract_y
_atom_site_fract_z
Si Si1 0.327384 0.427959 0.715656
Si Si2 0.826263 0.840134 0.392617
Si Si3 0.834096 0.313836 0.390244
Si Si4 0.833276 0.770497 0.891300
Si Si5 0.170343 0.612919 0.894584
Si Si6 0.327228 0.880854 0.785018
Si Si7 0.172841 0.000000 0.110075
O O1 0.500000 0.424003 0.716397
O O2 0.284512 0.500000 0.677683
O O3 0.263358 0.367293 0.659030
O O4 0.265757 0.421778 0.818497
O O5 0.793877 0.854216 0.500000
O O6 0.794340 0.762524 0.375450
O O7 0.736338 0.880773 0.318383
O O8 0.000000 0.848878 0.379976
O O9 0.831302 0.324013 0.500000
O O10 0.000000 0.322100 0.357364
O O11 0.815344 0.692050 0.881857
O O12 0.722374 0.812226 0.831628
O O13 0.000000 0.786939 0.864331
O O14 0.817937 0.786067 0.000000
O O15 0.000000 0.597010 0.882358
O O16 0.209684 0.597412 0.000000
O O17 0.500000 0.888420 0.785878
O O18 0.248397 0.936841 0.844579
O O19 0.000000 0.000000 0.128180
O O20 0.193180 0.000000 0.000000
#
# Coordination Sequence:
#
# PCOD9388630 Si02
#       7
#     8   8   8   8   8   8   4
#     4  11  24  37  49  72 108 147 183 222 277 344
#     4   9  19  38  63  88 114 146 186 230 275 327
#     4   9  19  37  61  86 109 138 182 234 280 323
#     4   9  18  34  56  81 109 142 182 227 275 331
#     4   9  19  36  57  79 102 134 182 236 281 324
#     4  12  24  36  56  88 123 153 183 227 279 328
#     4  11  25  45  66  85 112 157 205 238 268 315
#
# _framework density 19.131094999999998
#
# number of rings (size 3 to 8) (size 9 to 14) (size 15 to 20)
#    0.000    2.077    0.000    5.308    0.000   10.462 
#    0.000    6.538    0.000    2.308    0.000    0.000 
#    0.000    0.000    0.000    0.000    0.000    0.000 
#
# Total GULP energy -290542.408143 kJ/mol
# GULP energy per Si atom -5587.354003 kJ/mol
# Density = 1.908755 g / cm^3
# Si number density = 19.131095 Si / 1000 Ang^3
#
#
#
# Elastic Constant Matrix: (Units=GPa)
#
#
# Indices 1 2 3 4 5 6 
#
# 1 94.9153 47.4210 66.4439 0.0000 0.0000 0.0000
# 2 47.4210 38.0587 46.9898 0.0000 0.0000 0.0000
# 3 66.4439 46.9898 93.9687 0.0000 0.0000 0.0000
# 4 0.0000 0.0000 0.0000 8.4336 0.0000 0.0000
# 5 0.0000 0.0000 0.0000 0.0000 -132.4765 0.0000
# 6 0.0000 0.0000 0.0000 0.0000 0.0000 30.4534
#
#
#
# Elastic Compliance Matrix: (Units=1/GPa)
#
#
# Indices 1 2 3 4 5 6 
#
# 1 0.029330 -0.028593 -0.006440 0.000000 0.000000 0.000000
# 2 -0.028593 0.096551 -0.028064 0.000000 0.000000 0.000000
# 3 -0.006440 -0.028064 0.029229 0.000000 0.000000 0.000000
# 4 0.000000 0.000000 0.000000 0.118574 0.000000 0.000000
# 5 0.000000 0.000000 0.000000 0.000000 -0.007549 0.000000
# 6 0.000000 0.000000 0.000000 0.000000 0.000000 0.032837
#
#
# Mechanical properties :
#
#
# Convention : Reuss Voigt Hill
#
# Bulk Modulus (GPa) = 34.58281 60.96135 47.77208
# Shear Modulus (GPa) = 11.49943 -14.31204 -1.40631
#
# Velocity S-wave (km/s) = 2.45436 -2.73812 -0.85830
# Velocity P-wave (km/s) = 5.11350 4.68379 4.90335
#
# Compressibility (1/GPa) = 0.02891610
#
# Stress axis : x y z
#
# Youngs Moduli (GPa) = 34.09526 10.35724 34.21233
#
# Poissons Ratio (x) = 0.29614 0.22034
# Poissons Ratio (y) = 0.97488 0.96012
# Poissons Ratio (z) = 0.21959 0.29066
#
# Static dielectric constant tensor:
#      x y z
#    x 1.627710 0.000000 0.000000 
#    y 0.000000 1.688670 0.000000 
#    z 0.000000 0.000000 1.672860 
# 
# From -- ./inp_files/21481.got.cif
#   From: 2010.05.17/outbox.cif.g08.bks.cpg/sg47_11_cif.got.tgz:21481.got - 2010.06.03 20:15:42.
