data_PCOD9388035
_publ_section_title
;
Structure prediction by ZEFSAII (Michael W. Deem and Ramdas Pophale) SiO2 
 PCOD9388035
Probable space group: P M M M
;
_chemical_formula_sum "Si O2"
_cell_formula_units_Z 45
_cell_length_a 7.931525
_cell_length_b 9.697324
_cell_length_c 29.672280
_cell_angle_alpha 90.000000
_cell_angle_beta 90.000000
_cell_angle_gamma 90.000000
_cell_volume 2282.230590
_symmetry_space_group_name_H-M "P M M M"
_symmetry_group_IT_number 47
_symmetry_cell_setting 'orthorhombic'
loop_
_space_group_symop_operation_xyz
x,y,z
-x,-y,z
x,-y,-z
-x,y,-z
-x,-y,-z
x,y,-z
-x,y,z
x,-y,z
loop_
_atom_site_type_symbol
_atom_site_label
_atom_site_fract_x
_atom_site_fract_y
_atom_site_fract_z
Si Si1 0.799107 0.153709 0.407924
Si Si2 0.704084 0.657629 0.324677
Si Si3 0.000000 0.500000 0.500000
Si Si4 0.701596 0.842079 0.241793
Si Si5 0.799861 0.157772 0.144605
Si Si6 0.297291 0.839123 0.951387
Si Si7 0.310074 0.277734 0.500000
O O1 0.754976 0.265606 0.370285
O O2 0.710446 0.188656 0.454762
O O3 0.000000 0.156554 0.415283
O O4 0.751474 0.000000 0.392047
O O5 0.500000 0.654886 0.322912
O O6 0.764191 0.500000 0.323740
O O7 0.766185 0.746275 0.281948
O O8 0.151739 0.381897 0.500000
O O9 0.500000 0.850297 0.246556
O O10 0.737480 0.783225 0.191938
O O11 0.768538 0.000000 0.244364
O O12 0.755621 0.223658 0.096416
O O13 0.000000 0.150389 0.147051
O O14 0.729156 0.000000 0.143555
O O15 0.500000 0.840120 0.951752
O O16 0.239661 0.000000 0.950831
O O17 0.240632 0.780626 0.000000
O O18 0.500000 0.338142 0.500000
#
# Coordination Sequence:
#
# PCOD9388035 Si02
#       7
#     8   8   1   8   8   8   4
#     4  11  24  43  65  92 127 163 203 252 299 350
#     4  10  22  38  58  85 114 146 189 238 292 352
#     4  12  26  48  66 102 144 168 208 264 300 362
#     4   9  17  31  50  70  97 135 178 223 271 330
#     4   9  16  24  37  59  87 120 162 210 259 313
#     4   8  13  21  33  51  79 117 158 198 246 307
#     4  12  26  44  72  99 130 175 213 252 303 357
#
# _framework density 19.717552000000001
#
# number of rings (size 3 to 8) (size 9 to 14) (size 15 to 20)
#    0.000    2.311    0.889    2.533    1.244    6.756 
#    0.000    3.556    0.000    0.000    0.000    0.000 
#    0.000    0.711    0.000    8.178    0.000   10.489 
#
# Total GULP energy -250588.954104 kJ/mol
# GULP energy per Si atom -5568.643425 kJ/mol
# Density = 1.967267 g / cm^3
# Si number density = 19.717552 Si / 1000 Ang^3
#
#
#
# Elastic Constant Matrix: (Units=GPa)
#
#
# Indices 1 2 3 4 5 6 
#
# 1 56.1560 20.5819 11.5841 0.0000 0.0000 0.0000
# 2 20.5819 85.6247 61.5170 0.0000 0.0000 0.0000
# 3 11.5841 61.5170 196.8463 0.0000 0.0000 0.0000
# 4 0.0000 0.0000 0.0000 -7.4891 0.0000 0.0000
# 5 0.0000 0.0000 0.0000 0.0000 67.1486 0.0000
# 6 0.0000 0.0000 0.0000 0.0000 0.0000 12.9269
#
#
#
# Elastic Compliance Matrix: (Units=1/GPa)
#
#
# Indices 1 2 3 4 5 6 
#
# 1 0.019554 -0.004995 0.000410 0.000000 0.000000 0.000000
# 2 -0.004995 0.016336 -0.004811 0.000000 0.000000 0.000000
# 3 0.000410 -0.004811 0.006560 0.000000 0.000000 0.000000
# 4 0.000000 0.000000 0.000000 -0.133527 0.000000 0.000000
# 5 0.000000 0.000000 0.000000 0.000000 0.014892 0.000000
# 6 0.000000 0.000000 0.000000 0.000000 0.000000 0.077358
#
#
# Mechanical properties :
#
#
# Convention : Reuss Voigt Hill
#
# Bulk Modulus (GPa) = 42.27005 58.44369 50.35687
# Shear Modulus (GPa) = 179.52876 30.84687 105.18781
#
# Velocity S-wave (km/s) = 9.55238 3.95959 7.31185
# Velocity P-wave (km/s) = 11.96445 7.11402 9.84270
#
# Compressibility (1/GPa) = 0.02365741
#
# Stress axis : x y z
#
# Youngs Moduli (GPa) = 51.14146 61.21366 152.44904
#
# Poissons Ratio (x) = 0.30576 -0.06255
# Poissons Ratio (y) = 0.25545 0.73348
# Poissons Ratio (z) = -0.02098 0.29452
#
# Static dielectric constant tensor:
#      x y z
#    x 1.696720 0.000000 0.000000 
#    y 0.000000 1.686230 0.000000 
#    z 0.000000 0.000000 1.726040 
# 
# From -- ./inp_files/34002.got.cif
#   From: 2010.05.17/outbox.cif.g08.bks.cpg/sg47_18_cif.got.tgz:34002.got - 2010.06.03 20:15:42.
