data_PCOD9388839
_publ_section_title
;
Structure prediction by ZEFSAII (Michael W. Deem and Ramdas Pophale) SiO2 
 PCOD9388839
Probable space group: P M M M
;
_chemical_formula_sum "Si O2"
_cell_formula_units_Z 52
_cell_length_a 7.323908
_cell_length_b 35.219024
_cell_length_c 9.504550
_cell_angle_alpha 90.000000
_cell_angle_beta 90.000000
_cell_angle_gamma 90.000000
_cell_volume 2451.612102
_symmetry_space_group_name_H-M "P M M M"
_symmetry_group_IT_number 47
_symmetry_cell_setting 'orthorhombic'
loop_
_space_group_symop_operation_xyz
x,y,z
-x,-y,z
x,-y,-z
-x,y,-z
-x,-y,-z
x,y,-z
-x,y,z
x,-y,z
loop_
_atom_site_type_symbol
_atom_site_label
_atom_site_fract_x
_atom_site_fract_y
_atom_site_fract_z
Si Si1 0.219860 0.959170 0.168316
Si Si2 0.222730 0.123697 0.163673
Si Si3 0.782136 0.268725 0.839894
Si Si4 0.717437 0.354488 0.839535
Si Si5 0.723065 0.426169 0.661806
Si Si6 0.722535 0.500000 0.162235
Si Si7 0.223233 0.197003 0.661438
O O1 0.283149 0.917847 0.218567
O O2 0.000000 0.959541 0.185263
O O3 0.287299 0.000000 0.223724
O O4 0.254407 0.958985 0.000000
O O5 0.281363 0.159345 0.255439
O O6 0.000000 0.123354 0.164280
O O7 0.276520 0.128021 0.000000
O O8 0.748680 0.311544 0.788701
O O9 0.715165 0.234960 0.741556
O O10 0.000000 0.264243 0.847852
O O11 0.711014 0.265887 0.000000
O O12 0.500000 0.359541 0.848383
O O13 0.784617 0.387510 0.737579
O O14 0.788951 0.357515 0.000000
O O15 0.781549 0.428763 0.500000
O O16 0.500000 0.426144 0.660393
O O17 0.779141 0.462419 0.753790
O O18 0.500000 0.500000 0.160534
O O19 0.781730 0.500000 0.000000
O O20 0.280777 0.196545 0.500000
O O21 0.000000 0.197020 0.662417
#
# Coordination Sequence:
#
# PCOD9388839 Si02
#       7
#     8   8   8   8   8   4   8
#     4   7   9  13  22  37  55  75 104 143 182 219
#     4   8  12  18  29  43  59  82 113 149 188 228
#     4   9  17  29  44  60  78 102 133 166 197 232
#     4   9  17  29  44  62  84 108 133 162 197 235
#     4   9  16  25  38  58  84 111 137 165 197 234
#     4   9  15  23  37  57  82 111 140 169 200 232
#     4   9  16  24  34  49  69  92 120 157 197 232
#
# _framework density 21.210533000000002
#
# number of rings (size 3 to 8) (size 9 to 14) (size 15 to 20)
#    0.000    3.462    0.000    2.538    0.000    5.231 
#    0.000    0.000    0.000    0.462    0.000    3.769 
#    0.000    4.308    0.000    0.000    0.000    0.769 
#
# Total GULP energy -290045.977334 kJ/mol
# GULP energy per Si atom -5577.807256 kJ/mol
# Density = 2.116226 g / cm^3
# Si number density = 21.210533 Si / 1000 Ang^3
#
#
#
# Elastic Constant Matrix: (Units=GPa)
#
#
# Indices 1 2 3 4 5 6 
#
# 1 82.3140 3.4765 5.5297 0.0000 0.0000 0.0000
# 2 3.4765 273.8969 140.9789 0.0000 0.0000 0.0000
# 3 5.5297 140.9789 132.7150 0.0000 0.0000 0.0000
# 4 0.0000 0.0000 0.0000 -97.0279 0.0000 0.0000
# 5 0.0000 0.0000 0.0000 0.0000 -16.0360 0.0000
# 6 0.0000 0.0000 0.0000 0.0000 0.0000 5.6740
#
#
#
# Elastic Compliance Matrix: (Units=1/GPa)
#
#
# Indices 1 2 3 4 5 6 
#
# 1 0.012190 0.000235 -0.000758 0.000000 0.000000 0.000000
# 2 0.000235 0.008060 -0.008572 0.000000 0.000000 0.000000
# 3 -0.000758 -0.008572 0.016672 0.000000 0.000000 0.000000
# 4 0.000000 0.000000 0.000000 -0.010306 0.000000 0.000000
# 5 0.000000 0.000000 0.000000 0.000000 -0.062360 0.000000
# 6 0.000000 0.000000 0.000000 0.000000 0.000000 0.176243
#
#
# Mechanical properties :
#
#
# Convention : Reuss Voigt Hill
#
# Bulk Modulus (GPa) = 53.38154 87.65511 70.51833
# Shear Modulus (GPa) = 30.31552 1.11806 15.71679
#
# Velocity S-wave (km/s) = 3.78467 0.72682 2.72507
# Velocity P-wave (km/s) = 6.65735 6.49001 6.57422
#
# Compressibility (1/GPa) = 0.01873307
#
# Stress axis : x y z
#
# Youngs Moduli (GPa) = 82.03725 124.06947 59.98098
#
# Poissons Ratio (x) = -0.02921 0.04546
# Poissons Ratio (y) = -0.01931 0.51414
# Poissons Ratio (z) = 0.06218 1.06348
#
# Static dielectric constant tensor:
#      x y z
#    x 1.927880 0.000000 0.000000 
#    y 0.000000 1.761510 0.000000 
#    z 0.000000 0.000000 1.704760 
# 
# From -- ./inp_files/4831.got.cif
#   From: 2010.05.17/outbox.cif.g08.bks.cpg/sg47_3_cif.got.tgz:4831.got - 2010.06.03 20:15:42.
