data_PCOD9388802
_publ_section_title
;
Structure prediction by ZEFSAII (Michael W. Deem and Ramdas Pophale) SiO2 
 PCOD9388802
Probable space group: P M M M
;
_chemical_formula_sum "Si O2"
_cell_formula_units_Z 52
_cell_length_a 27.591062
_cell_length_b 7.613021
_cell_length_c 14.379717
_cell_angle_alpha 90.000000
_cell_angle_beta 90.000000
_cell_angle_gamma 90.000000
_cell_volume 3020.478744
_symmetry_space_group_name_H-M "P M M M"
_symmetry_group_IT_number 47
_symmetry_cell_setting 'orthorhombic'
loop_
_space_group_symop_operation_xyz
x,y,z
-x,-y,z
x,-y,-z
-x,y,-z
-x,-y,-z
x,y,-z
-x,y,z
x,-y,z
loop_
_atom_site_type_symbol
_atom_site_label
_atom_site_fract_x
_atom_site_fract_y
_atom_site_fract_z
Si Si1 0.500000 0.202618 0.613115
Si Si2 0.202220 0.285091 0.604695
Si Si3 0.754702 0.714953 0.895098
Si Si4 0.849752 0.709548 0.786896
Si Si5 0.054241 0.789180 0.894780
Si Si6 0.605044 0.210674 0.605681
Si Si7 0.297906 0.289497 0.287698
O O1 0.500000 0.200228 0.500000
O O2 0.552393 0.280641 0.638177
O O3 0.500000 0.000000 0.646005
O O4 0.193296 0.224358 0.500000
O O5 0.201848 0.500000 0.602670
O O6 0.164159 0.226981 0.683629
O O7 0.255194 0.230077 0.642388
O O8 0.754411 0.500000 0.896866
O O9 0.807715 0.771563 0.857715
O O10 0.716617 0.771652 0.815803
O O11 0.745702 0.775007 0.000000
O O12 0.844412 0.500000 0.783875
O O13 0.902898 0.746002 0.824715
O O14 0.000000 0.726536 0.869690
O O15 0.052127 0.000000 0.899101
O O16 0.065329 0.725587 0.000000
O O17 0.615161 0.274829 0.500000
O O18 0.649655 0.245177 0.673135
O O19 0.599788 0.000000 0.599344
O O20 0.294635 0.500000 0.285546
#
# Coordination Sequence:
#
# PCOD9388802 Si02
#       7
#     4   8   8   8   8   8   8
#     4   7  12  24  39  53  72 103 136 158 189 241
#     4   8  14  25  40  59  85 112 132 154 192 238
#     4   8  14  25  40  59  84 109 130 156 195 239
#     4   9  16  26  44  66  81 100 135 170 192 219
#     4   9  18  31  44  59  82 109 130 153 198 252
#     4   9  16  26  40  57  79 106 133 162 196 234
#     4   9  16  25  40  61  81 105 135 162 192 232
#
# _framework density 17.215813000000001
#
# number of rings (size 3 to 8) (size 9 to 14) (size 15 to 20)
#    0.000    3.462    0.000    4.154    0.000    2.154 
#    0.000    4.231    0.000    4.615    0.000    3.769 
#    0.000    4.308    0.000    0.000    0.000    0.000 
#
# Total GULP energy -289526.479073 kJ/mol
# GULP energy per Si atom -5567.816905 kJ/mol
# Density = 1.717663 g / cm^3
# Si number density = 17.215813 Si / 1000 Ang^3
#
#
#
# Elastic Constant Matrix: (Units=GPa)
#
#
# Indices 1 2 3 4 5 6 
#
# 1 164.8298 1.8235 101.4889 0.0000 0.0000 0.0000
# 2 1.8235 30.6683 7.3741 0.0000 0.0000 0.0000
# 3 101.4889 7.3741 152.3256 0.0000 0.0000 0.0000
# 4 0.0000 0.0000 0.0000 26.1800 0.0000 0.0000
# 5 0.0000 0.0000 0.0000 0.0000 25.3042 0.0000
# 6 0.0000 0.0000 0.0000 0.0000 0.0000 19.5928
#
#
#
# Elastic Compliance Matrix: (Units=1/GPa)
#
#
# Indices 1 2 3 4 5 6 
#
# 1 0.010320 0.001052 -0.006927 0.000000 0.000000 0.000000
# 2 0.001052 0.033098 -0.002303 0.000000 0.000000 0.000000
# 3 -0.006927 -0.002303 0.011292 0.000000 0.000000 0.000000
# 4 0.000000 0.000000 0.000000 0.038197 0.000000 0.000000
# 5 0.000000 0.000000 0.000000 0.000000 0.039519 0.000000
# 6 0.000000 0.000000 0.000000 0.000000 0.000000 0.051039
#
#
# Mechanical properties :
#
#
# Convention : Reuss Voigt Hill
#
# Bulk Modulus (GPa) = 26.07310 63.24408 44.65859
# Shear Modulus (GPa) = 23.51763 30.02454 26.77109
#
# Velocity S-wave (km/s) = 3.70002 4.18066 3.94766
# Velocity P-wave (km/s) = 5.78198 7.75369 6.83926
#
# Compressibility (1/GPa) = 0.03835371
#
# Stress axis : x y z
#
# Youngs Moduli (GPa) = 96.89665 30.21310 88.56183
#
# Poissons Ratio (x) = -0.03178 0.61346
# Poissons Ratio (y) = -0.10193 0.20397
# Poissons Ratio (z) = 0.67120 0.06959
#
# Static dielectric constant tensor:
#      x y z
#    x 1.599130 0.000000 0.000000 
#    y 0.000000 1.653760 0.000000 
#    z 0.000000 0.000000 1.581200 
# 
# From -- ./inp_files/25459.got.cif
#   From: 2010.05.17/outbox.cif.g08.bks.cpg/sg47_13_cif.got.tgz:25459.got - 2010.06.03 20:15:42.
