data_PCOD9388535
_publ_section_title
;
Structure prediction by ZEFSAII (Michael W. Deem and Ramdas Pophale) SiO2 
 PCOD9388535
Probable space group: P M M M
;
_chemical_formula_sum "Si O2"
_cell_formula_units_Z 64
_cell_length_a 28.668710
_cell_length_b 9.023464
_cell_length_c 14.358490
_cell_angle_alpha 90.000000
_cell_angle_beta 90.000000
_cell_angle_gamma 90.000000
_cell_volume 3714.413179
_symmetry_space_group_name_H-M "P M M M"
_symmetry_group_IT_number 47
_symmetry_cell_setting 'orthorhombic'
loop_
_space_group_symop_operation_xyz
x,y,z
-x,-y,z
x,-y,-z
-x,y,-z
-x,-y,-z
x,y,-z
-x,y,z
x,-y,z
loop_
_atom_site_type_symbol
_atom_site_label
_atom_site_fract_x
_atom_site_fract_y
_atom_site_fract_z
Si Si1 0.554318 0.332616 0.388892
Si Si2 0.054115 0.321619 0.105866
Si Si3 0.279837 0.676099 0.728218
Si Si4 0.553289 0.323024 0.110246
Si Si5 0.226289 0.826046 0.890990
Si Si6 0.198489 0.179034 0.391171
Si Si7 0.132478 0.825839 0.775180
Si Si8 0.379591 0.826291 0.256374
O O1 0.557943 0.327037 0.500000
O O2 0.500000 0.314113 0.364492
O O3 0.568239 0.500000 0.358839
O O4 0.586023 0.211605 0.341244
O O5 0.056426 0.500000 0.107398
O O6 0.088231 0.257977 0.183714
O O7 0.000000 0.279211 0.120414
O O8 0.067362 0.273785 0.000000
O O9 0.280641 0.500000 0.718127
O O10 0.259001 0.724517 0.828156
O O11 0.244692 0.747009 0.652240
O O12 0.331255 0.743615 0.724084
O O13 0.500000 0.279745 0.136460
O O14 0.557178 0.500000 0.125650
O O15 0.592552 0.239249 0.168020
O O16 0.558287 0.296874 0.000000
O O17 0.174349 0.808573 0.849931
O O18 0.238969 0.000000 0.877378
O O19 0.228163 0.792572 0.000000
O O20 0.192117 0.215304 0.500000
O O21 0.155368 0.222451 0.323358
O O22 0.203198 0.000000 0.382857
O O23 0.121523 0.000000 0.767729
O O24 0.371436 0.000000 0.245462
#
# Coordination Sequence:
#
# PCOD9388535 Si02
#       8
#     8   8   8   8   8   8   8   8
#     4   9  19  37  59  80 102 129 161 198 242 294
#     4   9  18  31  46  69 106 149 185 216 255 302
#     4  11  23  37  53  75 103 133 169 211 252 302
#     4   9  19  37  59  80 103 134 172 212 253 299
#     4   9  18  34  54  75 103 136 168 207 255 305
#     4   9  19  38  60  78 101 133 168 212 266 318
#     4   9  17  30  51  79 104 130 170 214 257 306
#     4  12  24  36  53  77 106 138 168 203 251 303
#
# _framework density 17.230177999999999
#
# number of rings (size 3 to 8) (size 9 to 14) (size 15 to 20)
#    0.000    2.375    0.000    4.875    0.000    7.000 
#    0.000    1.875    0.000    0.375    0.000    2.625 
#    0.000    0.000    0.000    0.000    0.000    0.000 
#
# Total GULP energy -357057.557455 kJ/mol
# GULP energy per Si atom -5579.024335 kJ/mol
# Density = 1.719096 g / cm^3
# Si number density = 17.230178 Si / 1000 Ang^3
#
#
#
# Elastic Constant Matrix: (Units=GPa)
#
#
# Indices 1 2 3 4 5 6 
#
# 1 102.8278 51.0314 62.1768 0.0000 0.0000 0.0000
# 2 51.0314 60.9292 43.2950 0.0000 0.0000 0.0000
# 3 62.1768 43.2950 126.7129 0.0000 0.0000 0.0000
# 4 0.0000 0.0000 0.0000 28.8481 0.0000 0.0000
# 5 0.0000 0.0000 0.0000 0.0000 20.3488 0.0000
# 6 0.0000 0.0000 0.0000 0.0000 0.0000 32.7953
#
#
#
# Elastic Compliance Matrix: (Units=1/GPa)
#
#
# Indices 1 2 3 4 5 6 
#
# 1 0.018837 -0.012162 -0.005088 0.000000 0.000000 0.000000
# 2 -0.012162 0.029527 -0.004121 0.000000 0.000000 0.000000
# 3 -0.005088 -0.004121 0.011796 0.000000 0.000000 0.000000
# 4 0.000000 0.000000 0.000000 0.034664 0.000000 0.000000
# 5 0.000000 0.000000 0.000000 0.000000 0.049143 0.000000
# 6 0.000000 0.000000 0.000000 0.000000 0.000000 0.030492
#
#
# Mechanical properties :
#
#
# Convention : Reuss Voigt Hill
#
# Bulk Modulus (GPa) = 57.40757 67.05291 62.23024
# Shear Modulus (GPa) = 22.42076 25.32954 23.87515
#
# Velocity S-wave (km/s) = 3.61120 3.83831 3.72648
# Velocity P-wave (km/s) = 7.12587 7.65793 7.39669
#
# Compressibility (1/GPa) = 0.01741931
#
# Stress axis : x y z
#
# Youngs Moduli (GPa) = 53.08688 33.86733 84.77133
#
# Poissons Ratio (x) = 0.41189 0.43129
# Poissons Ratio (y) = 0.64563 0.34935
# Poissons Ratio (z) = 0.27009 0.13957
#
# Static dielectric constant tensor:
#      x y z
#    x 1.568780 0.000000 0.000000 
#    y 0.000000 1.580770 0.000000 
#    z 0.000000 0.000000 1.592100 
# 
# From -- ./inp_files/25525.got.cif
#   From: 2010.05.17/outbox.cif.g08.bks.cpg/sg47_13_cif.got.tgz:25525.got - 2010.06.03 20:15:42.
