data_PCOD9388986
_publ_section_title
;
Structure prediction by ZEFSAII (Michael W. Deem and Ramdas Pophale) SiO2 
 PCOD9388986
Probable space group: P M M M
;
_chemical_formula_sum "Si O2"
_cell_formula_units_Z 36
_cell_length_a 26.061811
_cell_length_b 7.711042
_cell_length_c 9.570006
_cell_angle_alpha 90.000000
_cell_angle_beta 90.000000
_cell_angle_gamma 90.000000
_cell_volume 1923.223999
_symmetry_space_group_name_H-M "P M M M"
_symmetry_group_IT_number 47
_symmetry_cell_setting 'orthorhombic'
loop_
_space_group_symop_operation_xyz
x,y,z
-x,-y,z
x,-y,-z
-x,y,-z
-x,-y,-z
x,y,-z
-x,y,z
x,-y,z
loop_
_atom_site_type_symbol
_atom_site_label
_atom_site_fract_x
_atom_site_fract_y
_atom_site_fract_z
Si Si1 0.632807 0.692962 0.670004
Si Si2 0.252818 0.790112 0.338782
Si Si3 0.057606 0.788412 0.338757
Si Si4 0.558886 0.000000 0.329094
Si Si5 0.845128 0.787568 0.160450
O O1 0.633947 0.701603 0.500000
O O2 0.618025 0.500000 0.711613
O O3 0.691310 0.731410 0.712901
O O4 0.591705 0.833870 0.716587
O O5 0.246002 0.733025 0.500000
O O6 0.205477 0.732119 0.244371
O O7 0.253346 0.000000 0.339892
O O8 0.066518 0.737228 0.500000
O O9 0.103378 0.729974 0.239567
O O10 0.000000 0.733547 0.298016
O O11 0.057806 0.000000 0.336827
O O12 0.500000 0.000000 0.282922
O O13 0.558188 0.000000 0.500000
O O14 0.845271 0.000000 0.162123
O O15 0.844176 0.732430 0.000000
#
# Coordination Sequence:
#
# PCOD9388986 Si02
#       5
#     8   8   8   4   8
#     4   9  16  26  41  62  88 120 159 197 233 278
#     4   9  15  25  41  57  79 114 152 189 231 280
#     4   8  13  21  32  47  72 109 151 191 232 282
#     4   9  16  26  40  62  95 129 158 191 234 281
#     4   9  16  23  33  53  79 108 146 192 240 286
#
# _framework density 18.718568000000001
#
# number of rings (size 3 to 8) (size 9 to 14) (size 15 to 20)
#    0.000    3.222    1.111    1.333    0.000    3.556 
#    0.000    4.444    0.000    0.667    0.000    0.000 
#    0.000    2.667    0.000   12.222    0.000   15.333 
#
# Total GULP energy -200704.563496 kJ/mol
# GULP energy per Si atom -5575.126764 kJ/mol
# Density = 1.867596 g / cm^3
# Si number density = 18.718568 Si / 1000 Ang^3
#
#
#
# Elastic Constant Matrix: (Units=GPa)
#
#
# Indices 1 2 3 4 5 6 
#
# 1 214.2008 62.8135 81.2039 0.0000 0.0000 0.0000
# 2 62.8135 67.0726 24.9172 0.0000 0.0000 0.0000
# 3 81.2039 24.9172 62.0237 0.0000 0.0000 0.0000
# 4 0.0000 0.0000 0.0000 -1.3085 0.0000 0.0000
# 5 0.0000 0.0000 0.0000 0.0000 -2.3484 0.0000
# 6 0.0000 0.0000 0.0000 0.0000 0.0000 -11.4544
#
#
#
# Elastic Compliance Matrix: (Units=1/GPa)
#
#
# Indices 1 2 3 4 5 6 
#
# 1 0.010880 -0.005756 -0.011932 0.000000 0.000000 0.000000
# 2 -0.005756 0.020570 -0.000727 0.000000 0.000000 0.000000
# 3 -0.011932 -0.000727 0.032037 0.000000 0.000000 0.000000
# 4 0.000000 0.000000 0.000000 -0.764211 0.000000 0.000000
# 5 0.000000 0.000000 0.000000 0.000000 -0.425828 0.000000
# 6 0.000000 0.000000 0.000000 0.000000 0.000000 -0.087302
#
#
# Mechanical properties :
#
#
# Convention : Reuss Voigt Hill
#
# Bulk Modulus (GPa) = 37.51531 75.68515 56.60023
# Shear Modulus (GPa) = -4.28032 8.60189 2.16079
#
# Velocity S-wave (km/s) = -1.51381 2.14601 1.07558
# Velocity P-wave (km/s) = 4.12671 6.83092 5.64319
#
# Compressibility (1/GPa) = 0.02665579
#
# Stress axis : x y z
#
# Youngs Moduli (GPa) = 91.91188 48.61370 31.21409
#
# Poissons Ratio (x) = 0.27984 0.37244
# Poissons Ratio (y) = 0.52909 0.02270
# Poissons Ratio (z) = 1.09669 0.03536
#
# Static dielectric constant tensor:
#      x y z
#    x 1.626450 0.000000 0.000000 
#    y 0.000000 1.692490 0.000000 
#    z 0.000000 0.000000 1.607330 
# 
# From -- ./inp_files/12069.got.cif
#   From: 2010.05.17/outbox.cif.g08.bks.cpg/sg47_7_cif.got.tgz:12069.got - 2010.06.03 20:15:42.
