data_PCOD9388323
_publ_section_title
;
Structure prediction by ZEFSAII (Michael W. Deem and Ramdas Pophale) SiO2 
 PCOD9388323
Probable space group: P M M M
;
_chemical_formula_sum "Si O2"
_cell_formula_units_Z 40
_cell_length_a 9.007631
_cell_length_b 22.363125
_cell_length_c 11.029969
_cell_angle_alpha 90.000000
_cell_angle_beta 90.000000
_cell_angle_gamma 90.000000
_cell_volume 2221.863477
_symmetry_space_group_name_H-M "P M M M"
_symmetry_group_IT_number 47
_symmetry_cell_setting 'orthorhombic'
loop_
_space_group_symop_operation_xyz
x,y,z
-x,-y,z
x,-y,-z
-x,y,-z
-x,-y,-z
x,y,-z
-x,y,z
x,-y,z
loop_
_atom_site_type_symbol
_atom_site_label
_atom_site_fract_x
_atom_site_fract_y
_atom_site_fract_z
Si Si1 0.819385 0.213385 0.138987
Si Si2 0.823617 0.349098 0.199672
Si Si3 0.668644 0.000000 0.646077
Si Si4 0.677123 0.568812 0.000000
Si Si5 0.669678 0.566438 0.643997
Si Si6 0.820557 0.874492 0.358115
O O1 0.776133 0.281668 0.169725
O O2 0.772851 0.171514 0.252011
O O3 0.000000 0.211429 0.137427
O O4 0.771298 0.198317 0.000000
O O5 0.744056 0.395652 0.111966
O O6 0.772070 0.377213 0.325660
O O7 0.000000 0.351410 0.184740
O O8 0.755036 0.060737 0.676151
O O9 0.500000 0.000000 0.693493
O O10 0.660658 0.000000 0.500000
O O11 0.722564 0.500000 0.000000
O O12 0.500000 0.571594 0.000000
O O13 0.661992 0.562587 0.500000
O O14 0.500000 0.575008 0.689152
O O15 0.720289 0.500000 0.687679
O O16 0.777540 0.860545 0.500000
O O17 0.000000 0.876938 0.357536
#
# Coordination Sequence:
#
# PCOD9388323 Si02
#       6
#     8   8   4   4   8   8
#     4   9  18  34  53  74 106 143 174 212 267 322
#     4  11  21  34  54  78 103 132 171 221 272 317
#     4   9  17  31  52  79 112 142 168 211 268 310
#     4  11  23  37  53  73  99 134 177 220 265 323
#     4   9  19  36  54  72 100 137 172 210 263 327
#     4   9  17  31  55  82 104 134 180 221 251 301
#
# _framework density 18.002907
#
# number of rings (size 3 to 8) (size 9 to 14) (size 15 to 20)
#    0.000    2.400    1.000    2.400    0.000    6.000 
#    0.000    5.500    0.000    5.400    0.000    0.000 
#    0.000    0.000    0.000    0.000    0.000    0.000 
#
# Total GULP energy -222706.074658 kJ/mol
# GULP energy per Si atom -5567.651866 kJ/mol
# Density = 1.796193 g / cm^3
# Si number density = 18.002907 Si / 1000 Ang^3
#
#
#
# Elastic Constant Matrix: (Units=GPa)
#
#
# Indices 1 2 3 4 5 6 
#
# 1 26.4729 39.2555 23.4485 0.0000 0.0000 0.0000
# 2 39.2555 158.7504 79.6523 0.0000 0.0000 0.0000
# 3 23.4485 79.6523 105.3862 0.0000 0.0000 0.0000
# 4 0.0000 0.0000 0.0000 156.3268 0.0000 0.0000
# 5 0.0000 0.0000 0.0000 0.0000 20.4584 0.0000
# 6 0.0000 0.0000 0.0000 0.0000 0.0000 -65.8178
#
#
#
# Elastic Compliance Matrix: (Units=1/GPa)
#
#
# Indices 1 2 3 4 5 6 
#
# 1 0.060421 -0.013202 -0.003465 0.000000 0.000000 0.000000
# 2 -0.013202 0.013032 -0.006912 0.000000 0.000000 0.000000
# 3 -0.003465 -0.006912 0.015484 0.000000 0.000000 0.000000
# 4 0.000000 0.000000 0.000000 0.006397 0.000000 0.000000
# 5 0.000000 0.000000 0.000000 0.000000 0.048880 0.000000
# 6 0.000000 0.000000 0.000000 0.000000 0.000000 -0.015193
#
#
# Mechanical properties :
#
#
# Convention : Reuss Voigt Hill
#
# Bulk Modulus (GPa) = 23.93623 63.92468 43.93046
# Shear Modulus (GPa) = 26.30123 32.07702 29.18913
#
# Velocity S-wave (km/s) = 3.82638 4.22568 4.03098
# Velocity P-wave (km/s) = 5.73116 7.70672 6.79116
#
# Compressibility (1/GPa) = 0.04177767
#
# Stress axis : x y z
#
# Youngs Moduli (GPa) = 16.55064 76.73432 64.58123
#
# Poissons Ratio (x) = 1.01304 0.22380
# Poissons Ratio (y) = 0.21850 0.44641
# Poissons Ratio (z) = 0.05735 0.53041
#
# Static dielectric constant tensor:
#      x y z
#    x 1.604760 0.000000 0.000000 
#    y 0.000000 1.598720 0.000000 
#    z 0.000000 0.000000 1.926090 
# 
# From -- ./inp_files/15139.got.cif
#   From: 2010.05.17/outbox.cif.g08.bks.cpg/sg47_8_cif.got.tgz:15139.got - 2010.06.03 20:15:42.
