data_PCOD9388626
_publ_section_title
;
Structure prediction by ZEFSAII (Michael W. Deem and Ramdas Pophale) SiO2 
 PCOD9388626
Probable space group: P M M M
;
_chemical_formula_sum "Si O2"
_cell_formula_units_Z 40
_cell_length_a 7.908713
_cell_length_b 26.398009
_cell_length_c 9.925192
_cell_angle_alpha 90.000000
_cell_angle_beta 90.000000
_cell_angle_gamma 90.000000
_cell_volume 2072.124783
_symmetry_space_group_name_H-M "P M M M"
_symmetry_group_IT_number 47
_symmetry_cell_setting 'orthorhombic'
loop_
_space_group_symop_operation_xyz
x,y,z
-x,-y,z
x,-y,-z
-x,y,-z
-x,-y,-z
x,y,-z
-x,y,z
x,-y,z
loop_
_atom_site_type_symbol
_atom_site_label
_atom_site_fract_x
_atom_site_fract_y
_atom_site_fract_z
Si Si1 0.703516 0.261103 0.653112
Si Si2 0.293591 0.852948 0.655085
Si Si3 0.703746 0.557586 0.348153
Si Si4 0.706501 0.056583 0.844233
Si Si5 0.200614 0.352225 0.151968
O O1 0.763438 0.272641 0.500000
O O2 0.500000 0.259594 0.646701
O O3 0.761349 0.204239 0.690433
O O4 0.749134 0.303542 0.760216
O O5 0.246115 0.862328 0.500000
O O6 0.500000 0.853109 0.660201
O O7 0.233116 0.897506 0.751908
O O8 0.761606 0.571840 0.500000
O O9 0.500000 0.556603 0.352171
O O10 0.761896 0.500000 0.320635
O O11 0.752846 0.597883 0.236371
O O12 0.500000 0.057066 0.841159
O O13 0.758882 0.000000 0.800363
O O14 0.756047 0.063367 0.000000
O O15 0.000000 0.351422 0.141087
O O16 0.272834 0.351919 0.000000
#
# Coordination Sequence:
#
# PCOD9388626 Si02
#       5
#     8   8   8   8   8
#     4   9  18  33  52  72  94 123 163 208 248 290
#     4   8  14  24  38  58  83 111 147 192 238 281
#     4   9  19  37  60  83 104 128 162 201 238 281
#     4   8  13  20  30  48  78 115 151 185 224 275
#     4  11  24  37  49  72 105 135 164 200 241 286
#
# _framework density 19.303856
#
# number of rings (size 3 to 8) (size 9 to 14) (size 15 to 20)
#    0.000    3.000    0.000    3.600    0.000    6.800 
#    0.000    7.000    0.000    0.000    0.000    0.000 
#    0.000    0.800    0.000    8.800    0.000   14.400 
#
# Total GULP energy -223023.514408 kJ/mol
# GULP energy per Si atom -5575.587860 kJ/mol
# Density = 1.925992 g / cm^3
# Si number density = 19.303856 Si / 1000 Ang^3
#
#
#
# Elastic Constant Matrix: (Units=GPa)
#
#
# Indices 1 2 3 4 5 6 
#
# 1 19.0280 12.8632 11.6373 0.0000 0.0000 0.0000
# 2 12.8632 192.3882 146.8965 0.0000 0.0000 0.0000
# 3 11.6373 146.8965 160.9586 0.0000 0.0000 0.0000
# 4 0.0000 0.0000 0.0000 -71.7934 0.0000 0.0000
# 5 0.0000 0.0000 0.0000 0.0000 21.1893 0.0000
# 6 0.0000 0.0000 0.0000 0.0000 0.0000 -56.3240
#
#
#
# Elastic Compliance Matrix: (Units=1/GPa)
#
#
# Indices 1 2 3 4 5 6 
#
# 1 0.055248 -0.002124 -0.002056 0.000000 0.000000 0.000000
# 2 -0.002124 0.017227 -0.015568 0.000000 0.000000 0.000000
# 3 -0.002056 -0.015568 0.020570 0.000000 0.000000 0.000000
# 4 0.000000 0.000000 0.000000 -0.013929 0.000000 0.000000
# 5 0.000000 0.000000 0.000000 0.000000 0.047194 0.000000
# 6 0.000000 0.000000 0.000000 0.000000 0.000000 -0.017754
#
#
# Mechanical properties :
#
#
# Convention : Reuss Voigt Hill
#
# Bulk Modulus (GPa) = 18.67502 79.46319 49.06911
# Shear Modulus (GPa) = 30.13862 -7.98712 11.07575
#
# Velocity S-wave (km/s) = 3.95558 -2.03631 2.39792
# Velocity P-wave (km/s) = 5.52788 5.97704 5.75684
#
# Compressibility (1/GPa) = 0.05354746
#
# Stress axis : x y z
#
# Youngs Moduli (GPa) = 18.10035 58.04880 48.61549
#
# Poissons Ratio (x) = 0.12331 0.09994
# Poissons Ratio (y) = 0.03845 0.75686
# Poissons Ratio (z) = 0.03721 0.90372
#
# Static dielectric constant tensor:
#      x y z
#    x 1.702720 0.000000 0.000000 
#    y 0.000000 1.672480 0.000000 
#    z 0.000000 0.000000 1.665990 
# 
# From -- ./inp_files/1664.got.cif
#   From: 2010.05.17/outbox.cif.g08.bks.cpg/sg47_1_cif.got.tgz:1664.got - 2010.06.03 20:15:42.
