data_PCOD9388676
_publ_section_title
;
Structure prediction by ZEFSAII (Michael W. Deem and Ramdas Pophale) SiO2 
 PCOD9388676
Probable space group: P M M M
;
_chemical_formula_sum "Si O2"
_cell_formula_units_Z 48
_cell_length_a 9.928188
_cell_length_b 17.727014
_cell_length_c 14.713126
_cell_angle_alpha 90.000000
_cell_angle_beta 90.000000
_cell_angle_gamma 90.000000
_cell_volume 2589.467915
_symmetry_space_group_name_H-M "P M M M"
_symmetry_group_IT_number 47
_symmetry_cell_setting 'orthorhombic'
loop_
_space_group_symop_operation_xyz
x,y,z
-x,-y,z
x,-y,-z
-x,y,-z
-x,-y,-z
x,y,-z
-x,y,z
x,-y,z
loop_
_atom_site_type_symbol
_atom_site_label
_atom_site_fract_x
_atom_site_fract_y
_atom_site_fract_z
Si Si1 0.843538 0.589377 0.891427
Si Si2 0.000000 0.091013 0.609666
Si Si3 0.255297 0.157188 0.714114
Si Si4 0.500000 0.089877 0.603503
Si Si5 0.849411 0.590625 0.605414
Si Si6 0.337346 0.670379 0.254224
Si Si7 0.841577 0.090698 0.101417
O O1 0.826068 0.500000 0.870319
O O2 0.736947 0.638417 0.835707
O O3 0.000000 0.608602 0.869071
O O4 0.827825 0.598296 0.000000
O O5 0.125353 0.132480 0.656417
O O6 0.000000 0.098273 0.500000
O O7 0.000000 0.000000 0.630113
O O8 0.373634 0.118226 0.659099
O O9 0.288318 0.244998 0.724680
O O10 0.238511 0.125415 0.815716
O O11 0.500000 0.118917 0.500000
O O12 0.500000 0.000000 0.599700
O O13 0.835647 0.613084 0.500000
O O14 0.849028 0.500000 0.609261
O O15 0.728517 0.621329 0.665256
O O16 0.000000 0.615550 0.636728
O O17 0.500000 0.666329 0.249381
O O18 0.000000 0.110197 0.111595
O O19 0.832675 0.000000 0.105551
O O20 0.798570 0.114595 0.000000
#
# Coordination Sequence:
#
# PCOD9388676 Si02
#       7
#     8   4   8   4   8   8   8
#     4   9  20  41  70  99 125 161 211 261 307 361
#     4  11  24  42  67  95 118 151 211 279 331 380
#     4  12  24  41  60  93 128 162 207 260 320 373
#     4  11  24  44  67  85 116 169 215 257 319 388
#     4   9  20  40  65  90 116 154 204 255 306 360
#     4  12  26  40  55  89 131 171 206 245 305 372
#     4   9  18  35  62  92 118 148 191 247 309 369
#
# _framework density 18.536626999999999
#
# number of rings (size 3 to 8) (size 9 to 14) (size 15 to 20)
#    0.000    1.667    1.667    4.500    2.333    6.667 
#    0.000    3.750    0.000    1.500    0.000    0.000 
#    0.000    0.000    0.000    0.000    0.000    0.000 
#
# Total GULP energy -267967.628525 kJ/mol
# GULP energy per Si atom -5582.658928 kJ/mol
# Density = 1.849444 g / cm^3
# Si number density = 18.536627 Si / 1000 Ang^3
#
#
#
# Elastic Constant Matrix: (Units=GPa)
#
#
# Indices 1 2 3 4 5 6 
#
# 1 174.5586 65.9605 82.8135 0.0000 0.0000 0.0000
# 2 65.9605 74.2814 53.2596 0.0000 0.0000 0.0000
# 3 82.8135 53.2596 143.9238 0.0000 0.0000 0.0000
# 4 0.0000 0.0000 0.0000 -446.2913 0.0000 0.0000
# 5 0.0000 0.0000 0.0000 0.0000 67.9430 0.0000
# 6 0.0000 0.0000 0.0000 0.0000 0.0000 29.3779
#
#
#
# Elastic Compliance Matrix: (Units=1/GPa)
#
#
# Indices 1 2 3 4 5 6 
#
# 1 0.009610 -0.006219 -0.003228 0.000000 0.000000 0.000000
# 2 -0.006219 0.022349 -0.004692 0.000000 0.000000 0.000000
# 3 -0.003228 -0.004692 0.010542 0.000000 0.000000 0.000000
# 4 0.000000 0.000000 0.000000 -0.002241 0.000000 0.000000
# 5 0.000000 0.000000 0.000000 0.000000 0.014718 0.000000
# 6 0.000000 0.000000 0.000000 0.000000 0.000000 0.034039
#
#
# Mechanical properties :
#
#
# Convention : Reuss Voigt Hill
#
# Bulk Modulus (GPa) = 70.31097 88.53678 79.42387
# Shear Modulus (GPa) = 40.97114 -57.07875 -8.05381
#
# Velocity S-wave (km/s) = 4.70646 -5.55511 -2.08668
# Velocity P-wave (km/s) = 8.21873 2.59252 6.09380
#
# Compressibility (1/GPa) = 0.01422253
#
# Stress axis : x y z
#
# Youngs Moduli (GPa) = 104.05475 44.74523 94.85903
#
# Poissons Ratio (x) = 0.27827 0.30624
# Poissons Ratio (y) = 0.64712 0.44506
# Poissons Ratio (z) = 0.33593 0.20994
#
# Static dielectric constant tensor:
#      x y z
#    x 1.594320 0.000000 0.000000 
#    y 0.000000 1.641820 0.000000 
#    z 0.000000 0.000000 1.649540 
# 
# From -- ./inp_files/21158.got.cif
#   From: 2010.05.17/outbox.cif.g08.bks.cpg/sg47_11_cif.got.tgz:21158.got - 2010.06.03 20:15:42.
