data_PCOD9388774
_publ_section_title
;
Structure prediction by ZEFSAII (Michael W. Deem and Ramdas Pophale) SiO2 
 PCOD9388774
Probable space group: P M M M
;
_chemical_formula_sum "Si O2"
_cell_formula_units_Z 44
_cell_length_a 7.363123
_cell_length_b 30.067093
_cell_length_c 9.444346
_cell_angle_alpha 90.000000
_cell_angle_beta 90.000000
_cell_angle_gamma 90.000000
_cell_volume 2090.862077
_symmetry_space_group_name_H-M "P M M M"
_symmetry_group_IT_number 47
_symmetry_cell_setting 'orthorhombic'
loop_
_space_group_symop_operation_xyz
x,y,z
-x,-y,z
x,-y,-z
-x,y,-z
-x,-y,-z
x,y,-z
-x,y,z
x,-y,z
loop_
_atom_site_type_symbol
_atom_site_label
_atom_site_fract_x
_atom_site_fract_y
_atom_site_fract_z
Si Si1 0.221746 0.364576 0.837479
Si Si2 0.281935 0.904548 0.163297
Si Si3 0.777909 0.277758 0.662667
Si Si4 0.283540 0.000000 0.171936
Si Si5 0.215284 0.193089 0.161596
Si Si6 0.778874 0.549858 0.663539
O O1 0.278110 0.321627 0.747920
O O2 0.281402 0.410170 0.763064
O O3 0.000000 0.364773 0.836992
O O4 0.279448 0.361618 0.000000
O O5 0.500000 0.907543 0.159035
O O6 0.214790 0.951886 0.223608
O O7 0.240086 0.856299 0.225491
O O8 0.216235 0.902362 0.000000
O O9 0.719867 0.278995 0.500000
O O10 0.715677 0.233263 0.742920
O O11 0.000000 0.277519 0.662092
O O12 0.500000 0.000000 0.198323
O O13 0.260581 0.000000 0.000000
O O14 0.000000 0.199763 0.150019
O O15 0.288919 0.193967 0.000000
O O16 0.725415 0.557308 0.500000
O O17 0.721872 0.500000 0.705605
O O18 0.000000 0.550022 0.665340
#
# Coordination Sequence:
#
# PCOD9388774 Si02
#       6
#     8   8   8   4   8   8
#     4   9  15  21  30  44  61  82 112 152 193 229
#     4   8  13  22  37  56  78 104 130 154 185 228
#     4   9  16  25  36  48  64  90 122 152 185 230
#     4   7  10  18  33  53  76 101 128 154 180 219
#     4   9  16  25  37  55  78  99 122 158 198 227
#     4   8  13  20  28  38  55  81 113 149 188 229
#
# _framework density 21.043949999999999
#
# number of rings (size 3 to 8) (size 9 to 14) (size 15 to 20)
#    0.000    3.545    0.000    2.727    0.000    4.727 
#    0.000    2.273    0.000    3.273    0.000    0.636 
#    0.000    5.091    0.000    0.000    0.000    0.909 
#
# Total GULP energy -245242.889549 kJ/mol
# GULP energy per Si atom -5573.702035 kJ/mol
# Density = 2.099605 g / cm^3
# Si number density = 21.043950 Si / 1000 Ang^3
#
#
#
# Elastic Constant Matrix: (Units=GPa)
#
#
# Indices 1 2 3 4 5 6 
#
# 1 75.6572 4.6774 5.2059 0.0000 0.0000 0.0000
# 2 4.6774 268.0292 123.6572 0.0000 0.0000 0.0000
# 3 5.2059 123.6572 112.5740 0.0000 0.0000 0.0000
# 4 0.0000 0.0000 0.0000 -20.0260 0.0000 0.0000
# 5 0.0000 0.0000 0.0000 0.0000 -9.7329 0.0000
# 6 0.0000 0.0000 0.0000 0.0000 0.0000 15.1314
#
#
#
# Elastic Compliance Matrix: (Units=1/GPa)
#
#
# Indices 1 2 3 4 5 6 
#
# 1 0.013261 0.000104 -0.000728 0.000000 0.000000 0.000000
# 2 0.000104 0.007565 -0.008315 0.000000 0.000000 0.000000
# 3 -0.000728 -0.008315 0.018050 0.000000 0.000000 0.000000
# 4 0.000000 0.000000 0.000000 -0.049935 0.000000 0.000000
# 5 0.000000 0.000000 0.000000 0.000000 -0.102744 0.000000
# 6 0.000000 0.000000 0.000000 0.000000 0.000000 0.066088
#
#
# Mechanical properties :
#
#
# Convention : Reuss Voigt Hill
#
# Bulk Modulus (GPa) = 47.61957 80.37127 63.99542
# Shear Modulus (GPa) = -218.93398 18.58915 -100.17242
#
# Velocity S-wave (km/s) = -10.21090 2.97534 -6.90687
# Velocity P-wave (km/s) = 10.78605 7.07662 5.75588
#
# Compressibility (1/GPa) = 0.02099977
#
# Stress axis : x y z
#
# Youngs Moduli (GPa) = 75.40823 132.18330 55.40093
#
# Poissons Ratio (x) = -0.01380 0.04033
# Poissons Ratio (y) = -0.00787 0.46065
# Poissons Ratio (z) = 0.05489 1.09909
#
# Static dielectric constant tensor:
#      x y z
#    x 1.844830 0.000000 0.000000 
#    y 0.000000 1.779440 0.000000 
#    z 0.000000 0.000000 1.701000 
# 
# From -- ./inp_files/2080.got.cif
#   From: 2010.05.17/outbox.cif.g08.bks.cpg/sg47_2_cif.got.tgz:2080.got - 2010.06.03 20:15:42.
