data_PCOD9388620
_publ_section_title
;
Structure prediction by ZEFSAII (Michael W. Deem and Ramdas Pophale) SiO2 
 PCOD9388620
Probable space group: P M M M
;
_chemical_formula_sum "Si O2"
_cell_formula_units_Z 40
_cell_length_a 7.687596
_cell_length_b 26.541688
_cell_length_c 9.858980
_cell_angle_alpha 90.000000
_cell_angle_beta 90.000000
_cell_angle_gamma 90.000000
_cell_volume 2011.643774
_symmetry_space_group_name_H-M "P M M M"
_symmetry_group_IT_number 47
_symmetry_cell_setting 'orthorhombic'
loop_
_space_group_symop_operation_xyz
x,y,z
-x,-y,z
x,-y,-z
-x,y,-z
-x,-y,-z
x,y,-z
-x,y,z
x,-y,z
loop_
_atom_site_type_symbol
_atom_site_label
_atom_site_fract_x
_atom_site_fract_y
_atom_site_fract_z
Si Si1 0.209557 0.295323 0.654378
Si Si2 0.294240 0.000000 0.347624
Si Si3 0.291674 0.591357 0.344914
Si Si4 0.286601 0.500000 0.843581
Si Si5 0.787611 0.205340 0.843760
Si Si6 0.791263 0.907579 0.153709
O O1 0.274214 0.290301 0.500000
O O2 0.253625 0.351725 0.701060
O O3 0.274808 0.250139 0.748078
O O4 0.000000 0.291950 0.651153
O O5 0.248598 0.049265 0.260595
O O6 0.500000 0.000000 0.360540
O O7 0.218019 0.000000 0.500000
O O8 0.224409 0.585206 0.500000
O O9 0.500000 0.585846 0.352299
O O10 0.228830 0.549079 0.240887
O O11 0.500000 0.500000 0.845159
O O12 0.230168 0.500000 0.000000
O O13 0.730575 0.148620 0.806477
O O14 0.000000 0.205625 0.838878
O O15 0.738318 0.213941 0.000000
O O16 0.000000 0.904995 0.145020
O O17 0.727695 0.918978 0.000000
#
# Coordination Sequence:
#
# PCOD9388620 Si02
#       6
#     8   4   8   4   8   8
#     4   9  17  29  46  69  95 122 152 185 223 269
#     4  11  24  37  48  70 104 135 162 197 244 292
#     4   9  17  30  47  65  87 118 153 186 224 271
#     4   9  17  29  46  67  88 112 148 193 232 266
#     4   8  15  29  49  72  96 121 151 189 231 274
#     4   9  18  34  56  78  97 123 164 206 240 283
#
# _framework density 19.884236000000001
#
# number of rings (size 3 to 8) (size 9 to 14) (size 15 to 20)
#    0.000    3.000    0.000    2.100    0.000    5.200 
#    0.000    3.500    0.000    6.600    0.000    0.000 
#    0.000    0.000    0.000    0.000    0.000    0.000 
#
# Total GULP energy -223080.235947 kJ/mol
# GULP energy per Si atom -5577.005899 kJ/mol
# Density = 1.983898 g / cm^3
# Si number density = 19.884236 Si / 1000 Ang^3
#
#
#
# Elastic Constant Matrix: (Units=GPa)
#
#
# Indices 1 2 3 4 5 6 
#
# 1 32.2398 5.1637 6.8989 0.0000 0.0000 0.0000
# 2 5.1637 228.1289 150.8878 0.0000 0.0000 0.0000
# 3 6.8989 150.8878 141.0712 0.0000 0.0000 0.0000
# 4 0.0000 0.0000 0.0000 41.4714 0.0000 0.0000
# 5 0.0000 0.0000 0.0000 0.0000 69.2206 0.0000
# 6 0.0000 0.0000 0.0000 0.0000 0.0000 26.9219
#
#
#
# Elastic Compliance Matrix: (Units=1/GPa)
#
#
# Indices 1 2 3 4 5 6 
#
# 1 0.031418 0.001043 -0.002652 0.000000 0.000000 0.000000
# 2 0.001043 0.015018 -0.016114 0.000000 0.000000 0.000000
# 3 -0.002652 -0.016114 0.024453 0.000000 0.000000 0.000000
# 4 0.000000 0.000000 0.000000 0.024113 0.000000 0.000000
# 5 0.000000 0.000000 0.000000 0.000000 0.014447 0.000000
# 6 0.000000 0.000000 0.000000 0.000000 0.000000 0.037145
#
#
# Mechanical properties :
#
#
# Convention : Reuss Voigt Hill
#
# Bulk Modulus (GPa) = 28.21390 80.81562 54.51476
# Shear Modulus (GPa) = 25.79266 43.42207 34.60737
#
# Velocity S-wave (km/s) = 3.60549 4.67812 4.17639
# Velocity P-wave (km/s) = 5.61717 8.36128 7.12263
#
# Compressibility (1/GPa) = 0.03544352
#
# Stress axis : x y z
#
# Youngs Moduli (GPa) = 31.82891 66.58758 40.89403
#
# Poissons Ratio (x) = -0.06944 0.10844
# Poissons Ratio (y) = -0.03319 0.65896
# Poissons Ratio (z) = 0.08440 1.07298
#
# Static dielectric constant tensor:
#      x y z
#    x 1.741570 0.000000 0.000000 
#    y 0.000000 1.689950 0.000000 
#    z 0.000000 0.000000 1.697880 
# 
# From -- ./inp_files/1715.got.cif
#   From: 2010.05.17/outbox.cif.g08.bks.cpg/sg47_1_cif.got.tgz:1715.got - 2010.06.03 20:15:42.
