data_PCOD9388191
_publ_section_title
;
Structure prediction by ZEFSAII (Michael W. Deem and Ramdas Pophale) SiO2 
 PCOD9388191
Probable space group: P M M M
;
_chemical_formula_sum "Si O2"
_cell_formula_units_Z 52
_cell_length_a 28.092948
_cell_length_b 8.508579
_cell_length_c 12.517181
_cell_angle_alpha 90.000000
_cell_angle_beta 90.000000
_cell_angle_gamma 90.000000
_cell_volume 2991.995135
_symmetry_space_group_name_H-M "P M M M"
_symmetry_group_IT_number 47
_symmetry_cell_setting 'orthorhombic'
loop_
_space_group_symop_operation_xyz
x,y,z
-x,-y,z
x,-y,-z
-x,y,-z
-x,-y,-z
x,y,-z
-x,y,z
x,-y,z
loop_
_atom_site_type_symbol
_atom_site_label
_atom_site_fract_x
_atom_site_fract_y
_atom_site_fract_z
Si Si1 0.325861 0.809766 0.124446
Si Si2 0.944654 0.811571 0.000000
Si Si3 0.052338 0.308583 0.621716
Si Si4 0.119097 0.311927 0.194967
Si Si5 0.500000 0.811155 0.875486
Si Si6 0.217902 0.811296 0.875375
Si Si7 0.444282 0.691352 0.500000
Si Si8 0.411946 0.688601 0.735487
O O1 0.271668 0.761786 0.152314
O O2 0.363497 0.743715 0.208164
O O3 0.327980 0.000000 0.126152
O O4 0.335544 0.763114 0.000000
O O5 0.914337 0.753353 0.101057
O O6 0.000000 0.756475 0.000000
O O7 0.945211 0.000000 0.000000
O O8 0.056868 0.256082 0.500000
O O9 0.052735 0.500000 0.620830
O O10 0.094645 0.255507 0.696266
O O11 0.000000 0.261166 0.662919
O O12 0.117389 0.500000 0.189355
O O13 0.173475 0.259479 0.185876
O O14 0.454298 0.751384 0.810617
O O15 0.500000 0.000000 0.875644
O O16 0.500000 0.759136 0.000000
O O17 0.216128 0.000000 0.866737
O O18 0.210839 0.770746 0.000000
O O19 0.443582 0.500000 0.500000
O O20 0.500000 0.738908 0.500000
O O21 0.420263 0.741916 0.612200
O O22 0.413856 0.500000 0.735108
#
# Coordination Sequence:
#
# PCOD9388191 Si02
#       8
#     8   4   8   8   4   8   4   8
#     4   9  19  36  56  78 106 140 173 211 262 313
#     4  11  23  35  47  69 107 149 177 202 255 324
#     4   8  15  29  48  70  98 131 164 203 256 310
#     4  11  20  30  51  80 104 129 169 221 262 300
#     4  11  23  36  51  76 114 149 174 209 260 317
#     4   9  18  34  54  73 101 143 176 202 252 321
#     4   9  18  36  56  76 108 146 176 210 263 314
#     4  11  21  35  57  81 106 139 179 222 262 305
#
# _framework density 17.379708000000001
#
# number of rings (size 3 to 8) (size 9 to 14) (size 15 to 20)
#    0.000    2.231    1.538    3.692    0.000    4.615 
#    0.000    3.462    1.692    1.846    0.000    5.385 
#    0.000    0.000    0.000    0.000    0.000    0.000 
#
# Total GULP energy -289986.929357 kJ/mol
# GULP energy per Si atom -5576.671718 kJ/mol
# Density = 1.734015 g / cm^3
# Si number density = 17.379708 Si / 1000 Ang^3
#
#
#
# Elastic Constant Matrix: (Units=GPa)
#
#
# Indices 1 2 3 4 5 6 
#
# 1 169.0620 31.5546 98.6113 0.0000 0.0000 0.0000
# 2 31.5546 20.3144 26.3577 0.0000 0.0000 0.0000
# 3 98.6113 26.3577 131.0885 0.0000 0.0000 0.0000
# 4 0.0000 0.0000 0.0000 -31.1508 0.0000 0.0000
# 5 0.0000 0.0000 0.0000 0.0000 343.6175 0.0000
# 6 0.0000 0.0000 0.0000 0.0000 0.0000 26.6389
#
#
#
# Elastic Compliance Matrix: (Units=1/GPa)
#
#
# Indices 1 2 3 4 5 6 
#
# 1 0.011666 -0.009111 -0.006943 0.000000 0.000000 0.000000
# 2 -0.009111 0.073718 -0.007968 0.000000 0.000000 0.000000
# 3 -0.006943 -0.007968 0.014454 0.000000 0.000000 0.000000
# 4 0.000000 0.000000 0.000000 -0.032102 0.000000 0.000000
# 5 0.000000 0.000000 0.000000 0.000000 0.002910 0.000000
# 6 0.000000 0.000000 0.000000 0.000000 0.000000 0.037539
#
#
# Mechanical properties :
#
#
# Convention : Reuss Voigt Hill
#
# Bulk Modulus (GPa) = 19.30838 70.39022 44.84930
# Shear Modulus (GPa) = 28.81945 78.75055 53.78500
#
# Velocity S-wave (km/s) = 4.07655 6.73871 5.56904
# Velocity P-wave (km/s) = 5.76988 10.05665 8.19840
#
# Compressibility (1/GPa) = 0.05179098
#
# Stress axis : x y z
#
# Youngs Moduli (GPa) = 85.72247 13.56529 69.18598
#
# Poissons Ratio (x) = 0.12360 0.48039
# Poissons Ratio (y) = 0.78104 0.55130
# Poissons Ratio (z) = 0.59521 0.10809
#
# Static dielectric constant tensor:
#      x y z
#    x 1.589880 0.000000 0.000000 
#    y 0.000000 1.599960 0.000000 
#    z 0.000000 0.000000 1.589210 
# 
# From -- ./inp_files/19890.got.cif
#   From: 2010.05.17/outbox.cif.g08.bks.cpg/sg47_10_cif.got.tgz:19890.got - 2010.06.03 20:15:42.
