data_PCOD9388760
_publ_section_title
;
Structure prediction by ZEFSAII (Michael W. Deem and Ramdas Pophale) SiO2 
 PCOD9388760
Probable space group: P M M M
;
_chemical_formula_sum "Si O2"
_cell_formula_units_Z 40
_cell_length_a 7.353877
_cell_length_b 31.842041
_cell_length_c 7.518116
_cell_angle_alpha 90.000000
_cell_angle_beta 90.000000
_cell_angle_gamma 90.000000
_cell_volume 1760.460484
_symmetry_space_group_name_H-M "P M M M"
_symmetry_group_IT_number 47
_symmetry_cell_setting 'orthorhombic'
loop_
_space_group_symop_operation_xyz
x,y,z
-x,-y,z
x,-y,-z
-x,y,-z
-x,-y,-z
x,y,-z
-x,y,z
x,-y,z
loop_
_atom_site_type_symbol
_atom_site_label
_atom_site_fract_x
_atom_site_fract_y
_atom_site_fract_z
Si Si1 0.210850 0.794777 0.785988
Si Si2 0.777988 0.451988 0.500000
Si Si3 0.500000 0.951894 0.718318
Si Si4 0.781180 0.295213 0.213161
Si Si5 0.222023 0.386750 0.205481
Si Si6 0.204763 0.886643 0.288170
O O1 0.287954 0.750045 0.721287
O O2 0.287796 0.840264 0.740786
O O3 0.000000 0.796589 0.724793
O O4 0.210915 0.792101 0.000000
O O5 0.716978 0.500000 0.500000
O O6 0.721141 0.425009 0.671166
O O7 0.000000 0.452655 0.500000
O O8 0.500000 0.952182 0.500000
O O9 0.672697 0.924617 0.778043
O O10 0.500000 0.000000 0.776133
O O11 0.718880 0.340831 0.277134
O O12 0.000000 0.293684 0.239002
O O13 0.750008 0.296690 0.000000
O O14 0.000000 0.385781 0.206478
O O15 0.277311 0.391520 0.000000
O O16 0.192636 0.891660 0.500000
O O17 0.000000 0.887240 0.213923
#
# Coordination Sequence:
#
# PCOD9388760 Si02
#       6
#     8   4   4   8   8   8
#     4   8  13  23  40  60  83 110 134 163 215 275
#     4   9  16  22  26  36  54  80 122 171 219 270
#     4   9  18  32  49  67  89 121 155 189 233 274
#     4   7  10  18  32  48  66  90 120 152 195 257
#     4   8  13  21  30  39  55  81 116 162 213 264
#     4   9  17  29  45  67  91 112 145 191 230 272
#
# _framework density 22.721329000000001
#
# number of rings (size 3 to 8) (size 9 to 14) (size 15 to 20)
#    0.000    3.800    0.000    2.400    0.000    0.800 
#    1.800    4.500    0.000    1.200    0.000    2.800 
#    0.000    0.000    0.000    0.000    0.000    0.000 
#
# Total GULP energy -222993.582283 kJ/mol
# GULP energy per Si atom -5574.839557 kJ/mol
# Density = 2.266961 g / cm^3
# Si number density = 22.721329 Si / 1000 Ang^3
#
#
#
# Elastic Constant Matrix: (Units=GPa)
#
#
# Indices 1 2 3 4 5 6 
#
# 1 89.1147 54.2514 9.8279 0.0000 0.0000 0.0000
# 2 54.2514 302.7569 51.5571 0.0000 0.0000 0.0000
# 3 9.8279 51.5571 74.8674 0.0000 0.0000 0.0000
# 4 0.0000 0.0000 0.0000 28.5272 0.0000 0.0000
# 5 0.0000 0.0000 0.0000 0.0000 -51.3525 0.0000
# 6 0.0000 0.0000 0.0000 0.0000 0.0000 133.9720
#
#
#
# Elastic Compliance Matrix: (Units=1/GPa)
#
#
# Indices 1 2 3 4 5 6 
#
# 1 0.012596 -0.002238 -0.000112 0.000000 0.000000 0.000000
# 2 -0.002238 0.004139 -0.002557 0.000000 0.000000 0.000000
# 3 -0.000112 -0.002557 0.015132 0.000000 0.000000 0.000000
# 4 0.000000 0.000000 0.000000 0.035054 0.000000 0.000000
# 5 0.000000 0.000000 0.000000 0.000000 -0.019473 0.000000
# 6 0.000000 0.000000 0.000000 0.000000 0.000000 0.007464
#
#
# Mechanical properties :
#
#
# Convention : Reuss Voigt Hill
#
# Bulk Modulus (GPa) = 45.34351 77.55689 61.45020
# Shear Modulus (GPa) = 69.36821 45.63617 57.50219
#
# Velocity S-wave (km/s) = 5.53139 4.48651 5.03612
# Velocity P-wave (km/s) = 7.79710 7.81322 7.80516
#
# Compressibility (1/GPa) = 0.02205387
#
# Stress axis : x y z
#
# Youngs Moduli (GPa) = 79.38801 241.57971 66.08328
#
# Poissons Ratio (x) = 0.54066 0.00742
# Poissons Ratio (y) = 0.17767 0.16896
# Poissons Ratio (z) = 0.00892 0.61767
#
# Static dielectric constant tensor:
#      x y z
#    x 1.796440 0.000000 0.000000 
#    y 0.000000 1.839000 0.000000 
#    z 0.000000 0.000000 1.914080 
# 
# From -- ./inp_files/1682.got.cif
#   From: 2010.05.17/outbox.cif.g08.bks.cpg/sg47_1_cif.got.tgz:1682.got - 2010.06.03 20:15:42.
