data_PCOD9388375
_publ_section_title
;
Structure prediction by ZEFSAII (Michael W. Deem and Ramdas Pophale) SiO2 
 PCOD9388375
Probable space group: P M M M
;
_chemical_formula_sum "Si O2"
_cell_formula_units_Z 45
_cell_length_a 7.629769
_cell_length_b 11.313960
_cell_length_c 24.224300
_cell_angle_alpha 90.000000
_cell_angle_beta 90.000000
_cell_angle_gamma 90.000000
_cell_volume 2091.111857
_symmetry_space_group_name_H-M "P M M M"
_symmetry_group_IT_number 47
_symmetry_cell_setting 'orthorhombic'
loop_
_space_group_symop_operation_xyz
x,y,z
-x,-y,z
x,-y,-z
-x,y,-z
-x,-y,-z
x,y,-z
-x,y,z
x,-y,z
loop_
_atom_site_type_symbol
_atom_site_label
_atom_site_fract_x
_atom_site_fract_y
_atom_site_fract_z
Si Si1 0.500000 0.500000 0.500000
Si Si2 0.207167 0.856355 0.500000
Si Si3 0.191587 0.500000 0.407666
Si Si4 0.788028 0.863468 0.381708
Si Si5 0.701742 0.666587 0.311808
Si Si6 0.197803 0.857831 0.000000
Si Si7 0.714857 0.368676 0.812876
Si Si8 0.295527 0.864175 0.876673
O O1 0.345854 0.500000 0.451522
O O2 0.278556 0.813641 0.558764
O O3 0.000000 0.828969 0.500000
O O4 0.220339 0.000000 0.500000
O O5 0.205568 0.392775 0.363906
O O6 0.000000 0.500000 0.433833
O O7 0.715375 0.802794 0.327567
O O8 0.000000 0.855973 0.381812
O O9 0.740491 0.000000 0.381584
O O10 0.500000 0.629514 0.313096
O O11 0.769991 0.638508 0.251332
O O12 0.283788 0.829729 0.941451
O O13 0.000000 0.811219 0.000000
O O14 0.191762 0.000000 0.000000
O O15 0.500000 0.366047 0.814160
O O16 0.766235 0.500000 0.834212
O O17 0.777263 0.248992 0.843279
O O18 0.500000 0.872835 0.861749
O O19 0.222847 0.000000 0.869852
#
# Coordination Sequence:
#
# PCOD9388375 Si02
#       8
#     1   4   4   8   8   4   8   8
#     4  12  26  48  68  98 126 148 206 270 312 376
#     4   7  12  27  49  68  93 131 171 213 266 334
#     4  12  25  45  69  92 121 160 201 254 323 383
#     4   9  18  33  53  79 110 146 189 236 291 357
#     4  11  21  38  60  84 119 156 199 251 304 375
#     4   9  17  31  52  79 118 162 192 233 310 374
#     4   9  18  34  58  80 110 158 201 244 304 364
#     4   9  17  31  55  87 115 149 205 260 298 350
#
# _framework density 21.519652000000001
#
# number of rings (size 3 to 8) (size 9 to 14) (size 15 to 20)
#    0.000    2.489    1.778    2.000    0.000    2.844 
#    0.000    5.778    0.000    6.400    0.000    0.000 
#    0.000    0.000    0.000    0.000    0.000    0.000 
#
# Total GULP energy -250511.154243 kJ/mol
# GULP energy per Si atom -5566.914539 kJ/mol
# Density = 2.147067 g / cm^3
# Si number density = 21.519652 Si / 1000 Ang^3
#
#
#
# Elastic Constant Matrix: (Units=GPa)
#
#
# Indices 1 2 3 4 5 6 
#
# 1 74.7694 11.0484 16.5330 0.0000 0.0000 0.0000
# 2 11.0484 129.5472 75.2839 0.0000 0.0000 0.0000
# 3 16.5330 75.2839 114.5306 0.0000 0.0000 0.0000
# 4 0.0000 0.0000 0.0000 -12.2913 0.0000 0.0000
# 5 0.0000 0.0000 0.0000 0.0000 -13.8654 0.0000
# 6 0.0000 0.0000 0.0000 0.0000 0.0000 10.1596
#
#
#
# Elastic Compliance Matrix: (Units=1/GPa)
#
#
# Indices 1 2 3 4 5 6 
#
# 1 0.013816 -0.000031 -0.001974 0.000000 0.000000 0.000000
# 2 -0.000031 0.012491 -0.008206 0.000000 0.000000 0.000000
# 3 -0.001974 -0.008206 0.014410 0.000000 0.000000 0.000000
# 4 0.000000 0.000000 0.000000 -0.081359 0.000000 0.000000
# 5 0.000000 0.000000 0.000000 0.000000 -0.072122 0.000000
# 6 0.000000 0.000000 0.000000 0.000000 0.000000 0.098429
#
#
# Mechanical properties :
#
#
# Convention : Reuss Voigt Hill
#
# Bulk Modulus (GPa) = 49.27460 58.28645 53.78052
# Shear Modulus (GPa) = 389.06307 11.19938 200.13123
#
# Velocity S-wave (km/s) = 13.46056 2.28376 9.65408
# Velocity P-wave (km/s) = 16.26437 5.83936 12.21940
#
# Compressibility (1/GPa) = 0.02029443
#
# Stress axis : x y z
#
# Youngs Moduli (GPa) = 72.38241 80.06074 69.39563
#
# Poissons Ratio (x) = 0.00250 0.13697
# Poissons Ratio (y) = 0.00226 0.56945
# Poissons Ratio (z) = 0.14287 0.65697
#
# Static dielectric constant tensor:
#      x y z
#    x 1.815940 0.000000 0.000000 
#    y 0.000000 1.959870 0.000000 
#    z 0.000000 0.000000 1.766000 
# 
# From -- ./inp_files/31903.got.cif
#   From: 2010.05.17/outbox.cif.g08.bks.cpg/sg47_16_cif.got.tgz:31903.got - 2010.06.03 20:15:42.
