data_PCOD9388432
_publ_section_title
;
Structure prediction by ZEFSAII (Michael W. Deem and Ramdas Pophale) SiO2 
 PCOD9388432
Probable space group: P M M M
;
_chemical_formula_sum "Si O2"
_cell_formula_units_Z 36
_cell_length_a 10.434696
_cell_length_b 11.264232
_cell_length_c 19.693714
_cell_angle_alpha 90.000000
_cell_angle_beta 90.000000
_cell_angle_gamma 90.000000
_cell_volume 2314.776232
_symmetry_space_group_name_H-M "P M M M"
_symmetry_group_IT_number 47
_symmetry_cell_setting 'orthorhombic'
loop_
_space_group_symop_operation_xyz
x,y,z
-x,-y,z
x,-y,-z
-x,y,-z
-x,-y,-z
x,y,-z
-x,y,z
x,-y,z
loop_
_atom_site_type_symbol
_atom_site_label
_atom_site_fract_x
_atom_site_fract_y
_atom_site_fract_z
Si Si1 0.500000 0.640394 0.576500
Si Si2 0.151802 0.356653 0.927115
Si Si3 0.844323 0.358068 0.776313
Si Si4 0.251778 0.752282 0.358563
Si Si5 0.000000 0.635121 0.580674
Si Si6 0.655363 0.000000 0.418264
O O1 0.500000 0.500000 0.570763
O O2 0.500000 0.693368 0.500000
O O3 0.625874 0.679908 0.615565
O O4 0.161444 0.500000 0.927392
O O5 0.198611 0.321205 0.852487
O O6 0.000000 0.329267 0.927659
O O7 0.205887 0.314022 0.000000
O O8 0.818203 0.500000 0.766479
O O9 0.776386 0.278093 0.719849
O O10 0.000000 0.345615 0.771523
O O11 0.283483 0.885463 0.381857
O O12 0.125797 0.703157 0.395654
O O13 0.000000 0.500000 0.608616
O O14 0.000000 0.628098 0.500000
O O15 0.500000 0.000000 0.409903
O O16 0.680226 0.000000 0.500000
#
# Coordination Sequence:
#
# PCOD9388432 Si02
#       6
#     4   8   8   8   4   4
#     4  11  22  35  53  75  98 129 171 216 261 316
#     4   7  10  18  36  65 102 141 170 189 227 296
#     4   9  16  28  47  75 111 139 161 203 258 307
#     4  12  22  36  55  75 101 135 175 214 264 310
#     4  11  22  35  53  79 108 131 157 204 267 330
#     4  11  24  43  59  69  92 133 184 236 267 297
#
# _framework density 15.552258999999999
#
# number of rings (size 3 to 8) (size 9 to 14) (size 15 to 20)
#    0.000    2.111    2.222    6.000    0.000    2.222 
#    0.000    1.111    0.000    0.000    0.000    1.556 
#    0.000    8.889    0.000    0.000    0.000    0.000 
#
# Total GULP energy -200455.695742 kJ/mol
# GULP energy per Si atom -5568.213771 kJ/mol
# Density = 1.551686 g / cm^3
# Si number density = 15.552259 Si / 1000 Ang^3
#
#
#
# Elastic Constant Matrix: (Units=GPa)
#
#
# Indices 1 2 3 4 5 6 
#
# 1 88.5002 41.3528 45.9527 0.0000 0.0000 0.0000
# 2 41.3528 95.1421 54.1094 0.0000 0.0000 0.0000
# 3 45.9527 54.1094 182.0777 0.0000 0.0000 0.0000
# 4 0.0000 0.0000 0.0000 -66.5528 0.0000 0.0000
# 5 0.0000 0.0000 0.0000 0.0000 16.9061 0.0000
# 6 0.0000 0.0000 0.0000 0.0000 0.0000 17.2576
#
#
#
# Elastic Compliance Matrix: (Units=1/GPa)
#
#
# Indices 1 2 3 4 5 6 
#
# 1 0.014881 -0.005213 -0.002206 0.000000 0.000000 0.000000
# 2 -0.005213 0.014475 -0.002986 0.000000 0.000000 0.000000
# 3 -0.002206 -0.002986 0.006936 0.000000 0.000000 0.000000
# 4 0.000000 0.000000 0.000000 -0.015026 0.000000 0.000000
# 5 0.000000 0.000000 0.000000 0.000000 0.059150 0.000000
# 6 0.000000 0.000000 0.000000 0.000000 0.000000 0.057945
#
#
# Mechanical properties :
#
#
# Convention : Reuss Voigt Hill
#
# Bulk Modulus (GPa) = 64.59463 72.06109 68.32786
# Shear Modulus (GPa) = 30.42601 8.47583 19.45092
#
# Velocity S-wave (km/s) = 4.42789 2.33704 3.54033
# Velocity P-wave (km/s) = 8.23199 7.32924 7.79370
#
# Compressibility (1/GPa) = 0.01548116
#
# Stress axis : x y z
#
# Youngs Moduli (GPa) = 67.20005 69.08693 144.16805
#
# Poissons Ratio (x) = 0.36015 0.31810
# Poissons Ratio (y) = 0.35032 0.43046
# Poissons Ratio (z) = 0.14827 0.20628
#
# Static dielectric constant tensor:
#      x y z
#    x 1.494210 0.000000 0.000000 
#    y 0.000000 1.520440 0.000000 
#    z 0.000000 0.000000 1.586550 
# 
# From -- ./inp_files/29307.got.cif
#   From: 2010.05.17/outbox.cif.g08.bks.cpg/sg47_15_cif.got.tgz:29307.got - 2010.06.03 20:15:42.
