data_PCOD9388737
_publ_section_title
;
Structure prediction by ZEFSAII (Michael W. Deem and Ramdas Pophale) SiO2 
 PCOD9388737
Probable space group: P M M M
;
_chemical_formula_sum "Si O2"
_cell_formula_units_Z 44
_cell_length_a 7.321491
_cell_length_b 19.056819
_cell_length_c 13.075348
_cell_angle_alpha 90.000000
_cell_angle_beta 90.000000
_cell_angle_gamma 90.000000
_cell_volume 1824.329153
_symmetry_space_group_name_H-M "P M M M"
_symmetry_group_IT_number 47
_symmetry_cell_setting 'orthorhombic'
loop_
_space_group_symop_operation_xyz
x,y,z
-x,-y,z
x,-y,-z
-x,y,-z
-x,-y,-z
x,y,-z
-x,y,z
x,-y,z
loop_
_atom_site_type_symbol
_atom_site_label
_atom_site_fract_x
_atom_site_fract_y
_atom_site_fract_z
Si Si1 0.211396 0.076209 0.168963
Si Si2 0.287150 0.585250 0.000000
Si Si3 0.724212 0.580854 0.773042
Si Si4 0.778359 0.772200 0.110911
Si Si5 0.278640 0.863798 0.611530
Si Si6 0.704064 0.287269 0.327976
O O1 0.283903 0.146659 0.117712
O O2 0.217461 0.092227 0.290684
O O3 0.000000 0.073080 0.137862
O O4 0.292945 0.000000 0.147503
O O5 0.210816 0.603040 0.887544
O O6 0.282061 0.500000 0.000000
O O7 0.500000 0.604996 0.000000
O O8 0.500000 0.583023 0.774898
O O9 0.775426 0.500000 0.755748
O O10 0.785840 0.635399 0.685671
O O11 0.696187 0.735497 0.208881
O O12 0.000000 0.770955 0.121121
O O13 0.731044 0.742757 0.000000
O O14 0.226686 0.891384 0.500000
O O15 0.500000 0.861834 0.617072
O O16 0.213765 0.782603 0.621882
O O17 0.500000 0.294702 0.371010
#
# Coordination Sequence:
#
# PCOD9388737 Si02
#       6
#     8   4   8   8   8   8
#     4   9  18  32  49  69  90 111 142 182 215 250
#     4   7  10  16  26  46  77 105 126 157 204 246
#     4   8  13  21  35  58  86 111 139 179 220 251
#     4   9  18  31  45  63  90 121 146 171 211 259
#     4   9  18  32  47  64  89 118 144 174 220 271
#     4   9  17  28  45  66  85 112 151 188 215 250
#
# _framework density 24.118455999999998
#
# number of rings (size 3 to 8) (size 9 to 14) (size 15 to 20)
#    0.000    3.364    0.000    1.091    1.273    1.818 
#    0.000    3.636    0.000    1.091    0.000   10.182 
#    0.000    0.000    0.000    9.091    0.000    9.455 
#
# Total GULP energy -245439.790701 kJ/mol
# GULP energy per Si atom -5578.177061 kJ/mol
# Density = 2.406356 g / cm^3
# Si number density = 24.118456 Si / 1000 Ang^3
#
#
#
# Elastic Constant Matrix: (Units=GPa)
#
#
# Indices 1 2 3 4 5 6 
#
# 1 101.1554 -0.3063 -3.3294 0.0000 0.0000 0.0000
# 2 -0.3063 101.3039 -16.5857 0.0000 0.0000 0.0000
# 3 -3.3294 -16.5857 63.6460 0.0000 0.0000 0.0000
# 4 0.0000 0.0000 0.0000 5.0766 0.0000 0.0000
# 5 0.0000 0.0000 0.0000 0.0000 0.8076 0.0000
# 6 0.0000 0.0000 0.0000 0.0000 0.0000 1.9460
#
#
#
# Elastic Compliance Matrix: (Units=1/GPa)
#
#
# Indices 1 2 3 4 5 6 
#
# 1 0.009904 0.000120 0.000549 0.000000 0.000000 0.000000
# 2 0.000120 0.010313 0.002694 0.000000 0.000000 0.000000
# 3 0.000549 0.002694 0.016443 0.000000 0.000000 0.000000
# 4 0.000000 0.000000 0.000000 0.196982 0.000000 0.000000
# 5 0.000000 0.000000 0.000000 0.000000 1.238264 0.000000
# 6 0.000000 0.000000 0.000000 0.000000 0.000000 0.513865
#
#
# Mechanical properties :
#
#
# Convention : Reuss Voigt Hill
#
# Bulk Modulus (GPa) = 23.04930 25.07363 24.06146
# Shear Modulus (GPa) = 2.50814 20.65450 11.58132
#
# Velocity S-wave (km/s) = 1.02087 2.92957 2.19369
# Velocity P-wave (km/s) = 3.31165 4.67566 4.05147
#
# Compressibility (1/GPa) = 0.04338527
#
# Stress axis : x y z
#
# Youngs Moduli (GPa) = 100.96707 96.96818 60.81770
#
# Poissons Ratio (x) = -0.01163 -0.03341
# Poissons Ratio (y) = -0.01210 -0.16382
# Poissons Ratio (z) = -0.05547 -0.26120
#
# Static dielectric constant tensor:
#      x y z
#    x 1.982080 0.000000 0.000000 
#    y 0.000000 1.984260 0.000000 
#    z 0.000000 0.000000 1.875430 
# 
# From -- ./inp_files/21287.got.cif
#   From: 2010.05.17/outbox.cif.g08.bks.cpg/sg47_11_cif.got.tgz:21287.got - 2010.06.03 20:15:42.
