data_PCOD9388161
_publ_section_title
;
Structure prediction by ZEFSAII (Michael W. Deem and Ramdas Pophale) SiO2 
 PCOD9388161
Probable space group: P M M M
;
_chemical_formula_sum "Si O2"
_cell_formula_units_Z 36
_cell_length_a 14.141103
_cell_length_b 13.018336
_cell_length_c 14.141125
_cell_angle_alpha 90.000000
_cell_angle_beta 90.000000
_cell_angle_gamma 90.000000
_cell_volume 2603.291037
_symmetry_space_group_name_H-M "P M M M"
_symmetry_group_IT_number 47
_symmetry_cell_setting 'orthorhombic'
loop_
_space_group_symop_operation_xyz
x,y,z
-x,-y,z
x,-y,-z
-x,y,-z
-x,-y,-z
x,y,-z
-x,y,z
x,-y,z
loop_
_atom_site_type_symbol
_atom_site_label
_atom_site_fract_x
_atom_site_fract_y
_atom_site_fract_z
Si Si1 0.609378 0.123395 0.610886
Si Si2 0.387913 0.000000 0.112087
Si Si3 0.288858 0.194409 0.211142
Si Si4 0.611823 0.380076 0.888178
Si Si5 0.110886 0.876605 0.890622
O O1 0.622954 0.146182 0.500000
O O2 0.500000 0.149251 0.635783
O O3 0.682187 0.178533 0.680188
O O4 0.618787 0.000000 0.622556
O O5 0.343019 0.101598 0.156981
O O6 0.500000 0.000000 0.129229
O O7 0.370768 0.000000 0.000000
O O8 0.327704 0.301463 0.172297
O O9 0.180188 0.178533 0.182187
O O10 0.500000 0.362284 0.871456
O O11 0.631324 0.500000 0.868676
O O12 0.628546 0.362284 0.000000
O O13 0.000000 0.853818 0.877046
O O14 0.122557 0.000000 0.881213
O O15 0.135783 0.850748 0.000000
#
# Coordination Sequence:
#
# PCOD9388161 Si02
#       5
#     8   4   8   8   8
#     4   9  17  28  41  61  90 118 143 174 219 273
#     4  11  20  24  34  66  96 105 124 172 220 253
#     4  12  18  27  46  63  83 116 150 181 213 258
#     4   9  18  30  42  60  89 122 149 172 209 267
#     4   9  17  28  41  61  90 118 143 174 219 273
#
# _framework density 13.82865
#
# number of rings (size 3 to 8) (size 9 to 14) (size 15 to 20)
#    0.000    2.111    2.222    6.000    0.000    1.778 
#    0.000    0.000    0.000    2.000    0.000    9.333 
#    0.000    0.000    0.000    2.000    0.000    0.667 
#
# Total GULP energy -200780.210652 kJ/mol
# GULP energy per Si atom -5577.228074 kJ/mol
# Density = 1.379718 g / cm^3
# Si number density = 13.828650 Si / 1000 Ang^3
#
#
#
# Elastic Constant Matrix: (Units=GPa)
#
#
# Indices 1 2 3 4 5 6 
#
# 1 71.0977 27.9062 52.8827 0.0000 0.0000 0.0000
# 2 27.9062 43.6999 27.9065 0.0000 0.0000 0.0000
# 3 52.8827 27.9065 71.0986 0.0000 0.0000 0.0000
# 4 0.0000 0.0000 0.0000 17.2247 0.0000 0.0000
# 5 0.0000 0.0000 0.0000 0.0000 21.4609 0.0000
# 6 0.0000 0.0000 0.0000 0.0000 0.0000 17.2246
#
#
#
# Elastic Compliance Matrix: (Units=1/GPa)
#
#
# Indices 1 2 3 4 5 6 
#
# 1 0.033109 -0.007229 -0.021789 0.000000 0.000000 0.000000
# 2 -0.007229 0.032116 -0.007229 0.000000 0.000000 0.000000
# 3 -0.021789 -0.007229 0.033109 0.000000 0.000000 0.000000
# 4 0.000000 0.000000 0.000000 0.058056 0.000000 0.000000
# 5 0.000000 0.000000 0.000000 0.000000 0.046596 0.000000
# 6 0.000000 0.000000 0.000000 0.000000 0.000000 0.058056
#
#
# Mechanical properties :
#
#
# Convention : Reuss Voigt Hill
#
# Bulk Modulus (GPa) = 38.69893 44.80965 41.75429
# Shear Modulus (GPa) = 14.61345 16.32876 15.47111
#
# Velocity S-wave (km/s) = 3.25430 3.43999 3.34843
# Velocity P-wave (km/s) = 6.49353 6.94636 6.72376
#
# Compressibility (1/GPa) = 0.02584051
#
# Stress axis : x y z
#
# Youngs Moduli (GPa) = 30.20292 31.13724 30.20324
#
# Poissons Ratio (x) = 0.22508 0.65810
# Poissons Ratio (y) = 0.21833 0.21834
# Poissons Ratio (z) = 0.65810 0.22509
#
# Static dielectric constant tensor:
#      x y z
#    x 1.460530 0.000000 0.000000 
#    y 0.000000 1.430310 0.000000 
#    z 0.000000 0.000000 1.460530 
# 
# From -- ./inp_files/23429.got.cif
#   From: 2010.05.17/outbox.cif.g08.bks.cpg/sg47_12_cif.got.tgz:23429.got - 2010.06.03 20:15:42.
