data_PCOD9388944
_publ_section_title
;
Structure prediction by ZEFSAII (Michael W. Deem and Ramdas Pophale) SiO2 
 PCOD9388944
Probable space group: P M M M
;
_chemical_formula_sum "Si O2"
_cell_formula_units_Z 40
_cell_length_a 19.886224
_cell_length_b 13.030310
_cell_length_c 7.376225
_cell_angle_alpha 90.000000
_cell_angle_beta 90.000000
_cell_angle_gamma 90.000000
_cell_volume 1911.354444
_symmetry_space_group_name_H-M "P M M M"
_symmetry_group_IT_number 47
_symmetry_cell_setting 'orthorhombic'
loop_
_space_group_symop_operation_xyz
x,y,z
-x,-y,z
x,-y,-z
-x,y,-z
-x,-y,-z
x,y,-z
-x,y,z
x,-y,z
loop_
_atom_site_type_symbol
_atom_site_label
_atom_site_fract_x
_atom_site_fract_y
_atom_site_fract_z
Si Si1 0.811073 0.881075 0.778189
Si Si2 0.576835 0.000000 0.778930
Si Si3 0.576530 0.617043 0.779165
Si Si4 0.076593 0.500000 0.284768
Si Si5 0.923578 0.274177 0.213728
Si Si6 0.334969 0.805247 0.778865
O O1 0.873477 0.812108 0.714729
O O2 0.740758 0.829925 0.721411
O O3 0.814520 0.000000 0.722653
O O4 0.811328 0.880962 0.000000
O O5 0.617162 0.899009 0.723340
O O6 0.500000 0.000000 0.718435
O O7 0.576160 0.000000 0.000000
O O8 0.500000 0.645221 0.725691
O O9 0.589471 0.500000 0.722122
O O10 0.631336 0.699226 0.718662
O O11 0.576951 0.617540 0.000000
O O12 0.073342 0.500000 0.500000
O O13 0.105697 0.610371 0.232407
O O14 0.000000 0.500000 0.209856
O O15 0.000000 0.272891 0.288954
O O16 0.929358 0.255155 0.000000
O O17 0.334309 0.804025 0.000000
#
# Coordination Sequence:
#
# PCOD9388944 Si02
#       6
#     8   4   8   4   8   8
#     4   9  16  26  38  54  81 114 147 186 226 259
#     4   9  14  18  28  44  61  91 138 183 215 247
#     4   8  13  20  28  38  56  86 127 174 216 253
#     4   9  17  31  51  71  91 115 144 183 228 268
#     4   9  17  29  46  68  92 118 150 185 219 261
#     4   9  14  21  30  43  66  96 134 181 219 251
#
# _framework density 20.927568000000001
#
# number of rings (size 3 to 8) (size 9 to 14) (size 15 to 20)
#    0.000    3.200    1.000    1.500    0.000    4.000 
#    1.800    2.000    0.000    0.600    0.000    2.800 
#    0.000    0.000    0.000    0.000    0.000    9.000 
#
# Total GULP energy -223149.940010 kJ/mol
# GULP energy per Si atom -5578.748500 kJ/mol
# Density = 2.087994 g / cm^3
# Si number density = 20.927568 Si / 1000 Ang^3
#
#
#
# Elastic Constant Matrix: (Units=GPa)
#
#
# Indices 1 2 3 4 5 6 
#
# 1 153.1494 120.6934 7.7228 0.0000 0.0000 0.0000
# 2 120.6934 195.0175 1.9403 0.0000 0.0000 0.0000
# 3 7.7228 1.9403 74.3331 0.0000 0.0000 0.0000
# 4 0.0000 0.0000 0.0000 -50.5382 0.0000 0.0000
# 5 0.0000 0.0000 0.0000 0.0000 -14.2960 0.0000
# 6 0.0000 0.0000 0.0000 0.0000 0.0000 30.3623
#
#
#
# Elastic Compliance Matrix: (Units=1/GPa)
#
#
# Indices 1 2 3 4 5 6 
#
# 1 0.012840 -0.007935 -0.001127 0.000000 0.000000 0.000000
# 2 -0.007935 0.010033 0.000563 0.000000 0.000000 0.000000
# 3 -0.001127 0.000563 0.013555 0.000000 0.000000 0.000000
# 4 0.000000 0.000000 0.000000 -0.019787 0.000000 0.000000
# 5 0.000000 0.000000 0.000000 0.000000 -0.069949 0.000000
# 6 0.000000 0.000000 0.000000 0.000000 0.000000 0.032936
#
#
# Mechanical properties :
#
#
# Convention : Reuss Voigt Hill
#
# Bulk Modulus (GPa) = 51.46863 75.91255 63.69059
# Shear Modulus (GPa) = 1611.19366 12.58183 811.88775
#
# Velocity S-wave (km/s) = 27.77700 2.45462 19.71785
# Velocity P-wave (km/s) = 32.45607 6.66230 23.42843
#
# Compressibility (1/GPa) = 0.01942931
#
# Stress axis : x y z
#
# Youngs Moduli (GPa) = 77.88174 99.66951 73.77157
#
# Poissons Ratio (x) = 0.79090 0.08313
# Poissons Ratio (y) = 0.61801 -0.04150
# Poissons Ratio (z) = 0.08776 -0.05607
#
# Static dielectric constant tensor:
#      x y z
#    x 1.724360 0.000000 0.000000 
#    y 0.000000 1.727690 0.000000 
#    z 0.000000 0.000000 1.787260 
# 
# From -- ./inp_files/10697.got.cif
#   From: 2010.05.17/outbox.cif.g08.bks.cpg/sg47_6_cif.got.tgz:10697.got - 2010.06.03 20:15:42.
