data_PCOD9388488
_publ_section_title
;
Structure prediction by ZEFSAII (Michael W. Deem and Ramdas Pophale) SiO2 
 PCOD9388488
Probable space group: P M M M
;
_chemical_formula_sum "Si O2"
_cell_formula_units_Z 40
_cell_length_a 8.738621
_cell_length_b 10.203470
_cell_length_c 25.169147
_cell_angle_alpha 90.000000
_cell_angle_beta 90.000000
_cell_angle_gamma 90.000000
_cell_volume 2244.188297
_symmetry_space_group_name_H-M "P M M M"
_symmetry_group_IT_number 47
_symmetry_cell_setting 'orthorhombic'
loop_
_space_group_symop_operation_xyz
x,y,z
-x,-y,z
x,-y,-z
-x,y,-z
-x,-y,-z
x,y,-z
-x,y,z
x,-y,z
loop_
_atom_site_type_symbol
_atom_site_label
_atom_site_fract_x
_atom_site_fract_y
_atom_site_fract_z
Si Si1 0.816638 0.500000 0.561938
Si Si2 0.179580 0.658650 0.941979
Si Si3 0.316877 0.248292 0.620355
Si Si4 0.686649 0.847708 0.737163
Si Si5 0.177972 0.000000 0.436662
Si Si6 0.684162 0.348068 0.830040
O O1 0.764823 0.500000 0.500000
O O2 0.756829 0.625279 0.593764
O O3 0.000000 0.500000 0.561364
O O4 0.189872 0.500000 0.942960
O O5 0.264920 0.698461 0.888515
O O6 0.000000 0.691843 0.937966
O O7 0.236562 0.705101 0.000000
O O8 0.500000 0.261380 0.619748
O O9 0.269117 0.216674 0.680925
O O10 0.263379 0.125558 0.585906
O O11 0.500000 0.850478 0.738154
O O12 0.737828 0.753294 0.785038
O O13 0.736995 0.000000 0.740728
O O14 0.181584 0.000000 0.500000
O O15 0.000000 0.000000 0.419770
O O16 0.500000 0.351106 0.828292
O O17 0.736719 0.500000 0.821787
#
# Coordination Sequence:
#
# PCOD9388488 Si02
#       6
#     4   8   8   8   4   8
#     4  11  25  43  59  81 117 151 176 217 284 341
#     4   8  14  26  44  67  99 135 167 206 258 308
#     4  11  22  38  62  87 109 142 189 232 268 322
#     4   9  18  34  54  77 106 138 172 216 269 314
#     4  11  23  39  59  83 115 149 178 221 280 331
#     4   9  17  28  48  76 102 131 169 213 259 309
#
# _framework density 17.823816000000001
#
# number of rings (size 3 to 8) (size 9 to 14) (size 15 to 20)
#    0.000    2.400    1.000    2.400    1.400    4.400 
#    0.000    4.000    0.000    0.600    0.000    4.200 
#    0.000    0.000    0.000    0.000    0.000    0.000 
#
# Total GULP energy -222986.620588 kJ/mol
# GULP energy per Si atom -5574.665515 kJ/mol
# Density = 1.778325 g / cm^3
# Si number density = 17.823816 Si / 1000 Ang^3
#
#
#
# Elastic Constant Matrix: (Units=GPa)
#
#
# Indices 1 2 3 4 5 6 
#
# 1 24.6279 25.2649 36.3087 0.0000 0.0000 0.0000
# 2 25.2649 136.5118 91.8306 0.0000 0.0000 0.0000
# 3 36.3087 91.8306 176.7612 0.0000 0.0000 0.0000
# 4 0.0000 0.0000 0.0000 30.5445 0.0000 0.0000
# 5 0.0000 0.0000 0.0000 0.0000 80.0811 0.0000
# 6 0.0000 0.0000 0.0000 0.0000 0.0000 12.5753
#
#
#
# Elastic Compliance Matrix: (Units=1/GPa)
#
#
# Indices 1 2 3 4 5 6 
#
# 1 0.059851 -0.004315 -0.010052 0.000000 0.000000 0.000000
# 2 -0.004315 0.011572 -0.005125 0.000000 0.000000 0.000000
# 3 -0.010052 -0.005125 0.010385 0.000000 0.000000 0.000000
# 4 0.000000 0.000000 0.000000 0.032739 0.000000 0.000000
# 5 0.000000 0.000000 0.000000 0.000000 0.012487 0.000000
# 6 0.000000 0.000000 0.000000 0.000000 0.000000 0.079521
#
#
# Mechanical properties :
#
#
# Convention : Reuss Voigt Hill
#
# Bulk Modulus (GPa) = 23.35227 71.63436 47.49332
# Shear Modulus (GPa) = 19.24451 36.93996 28.09224
#
# Velocity S-wave (km/s) = 3.28946 4.55742 3.97433
# Velocity P-wave (km/s) = 5.24953 8.24445 6.91117
#
# Compressibility (1/GPa) = 0.04282238
#
# Stress axis : x y z
#
# Youngs Moduli (GPa) = 16.70824 86.41717 96.29259
#
# Poissons Ratio (x) = 0.37286 0.96798
# Poissons Ratio (y) = 0.07209 0.49355
# Poissons Ratio (z) = 0.16796 0.44293
#
# Static dielectric constant tensor:
#      x y z
#    x 1.605420 0.000000 0.000000 
#    y 0.000000 1.569650 0.000000 
#    z 0.000000 0.000000 1.620450 
# 
# From -- ./inp_files/33045.got.cif
#   From: 2010.05.17/outbox.cif.g08.bks.cpg/sg47_17_cif.got.tgz:33045.got - 2010.06.03 20:15:42.
