data_PCOD9388166
_publ_section_title
;
Structure prediction by ZEFSAII (Michael W. Deem and Ramdas Pophale) SiO2 
 PCOD9388166
Probable space group: P M M M
;
_chemical_formula_sum "Si O2"
_cell_formula_units_Z 36
_cell_length_a 12.739457
_cell_length_b 11.794247
_cell_length_c 17.121440
_cell_angle_alpha 90.000000
_cell_angle_beta 90.000000
_cell_angle_gamma 90.000000
_cell_volume 2572.535782
_symmetry_space_group_name_H-M "P M M M"
_symmetry_group_IT_number 47
_symmetry_cell_setting 'orthorhombic'
loop_
_space_group_symop_operation_xyz
x,y,z
-x,-y,z
x,-y,-z
-x,y,-z
-x,-y,-z
x,y,-z
-x,y,z
x,-y,z
loop_
_atom_site_type_symbol
_atom_site_label
_atom_site_fract_x
_atom_site_fract_y
_atom_site_fract_z
Si Si1 0.622482 0.500000 0.906620
Si Si2 0.500000 0.135757 0.908377
Si Si3 0.372635 0.634504 0.328116
Si Si4 0.124125 0.866125 0.091545
Si Si5 0.378602 0.637523 0.500000
Si Si6 0.693341 0.732862 0.832268
O O1 0.500000 0.500000 0.880084
O O2 0.676983 0.612227 0.874472
O O3 0.623266 0.500000 0.000000
O O4 0.398210 0.186876 0.866377
O O5 0.500000 0.000000 0.904795
O O6 0.500000 0.169995 0.000000
O O7 0.500000 0.644492 0.325294
O O8 0.349978 0.500000 0.316762
O O9 0.335104 0.669680 0.415101
O O10 0.324089 0.707629 0.258897
O O11 0.197127 0.789667 0.145185
O O12 0.000000 0.846399 0.102524
O O13 0.144038 0.000000 0.105002
O O14 0.148916 0.843777 0.000000
O O15 0.379866 0.500000 0.500000
O O16 0.500000 0.674862 0.500000
#
# Coordination Sequence:
#
# PCOD9388166 Si02
#       6
#     4   4   8   8   4   8
#     4  11  20  28  39  62  98 134 150 163 219 289
#     4  11  22  31  41  62  91 121 156 195 226 258
#     4   9  15  26  41  66  95 124 151 179 216 271
#     4   9  19  36  53  65  82 116 163 208 239 260
#     4   7  12  22  40  60  89 122 153 181 210 254
#     4  12  19  29  46  68  93 121 153 187 228 275
#
# _framework density 13.993975000000001
#
# number of rings (size 3 to 8) (size 9 to 14) (size 15 to 20)
#    0.000    2.111    3.333    4.667    0.000    1.778 
#    0.000    0.556    0.000    2.000    0.000    4.667 
#    0.000    4.444    0.000    0.000    0.000    0.000 
#
# Total GULP energy -200630.522401 kJ/mol
# GULP energy per Si atom -5573.070067 kJ/mol
# Density = 1.396212 g / cm^3
# Si number density = 13.993975 Si / 1000 Ang^3
#
#
#
# Elastic Constant Matrix: (Units=GPa)
#
#
# Indices 1 2 3 4 5 6 
#
# 1 47.9904 33.8722 44.9970 0.0000 0.0000 0.0000
# 2 33.8722 59.2541 50.9023 0.0000 0.0000 0.0000
# 3 44.9970 50.9023 142.6031 0.0000 0.0000 0.0000
# 4 0.0000 0.0000 0.0000 3.5399 0.0000 0.0000
# 5 0.0000 0.0000 0.0000 0.0000 16.3167 0.0000
# 6 0.0000 0.0000 0.0000 0.0000 0.0000 16.4780
#
#
#
# Elastic Compliance Matrix: (Units=1/GPa)
#
#
# Indices 1 2 3 4 5 6 
#
# 1 0.038357 -0.016628 -0.006168 0.000000 0.000000 0.000000
# 2 -0.016628 0.031548 -0.006014 0.000000 0.000000 0.000000
# 3 -0.006168 -0.006014 0.011106 0.000000 0.000000 0.000000
# 4 0.000000 0.000000 0.000000 0.282494 0.000000 0.000000
# 5 0.000000 0.000000 0.000000 0.000000 0.061287 0.000000
# 6 0.000000 0.000000 0.000000 0.000000 0.000000 0.060687
#
#
# Mechanical properties :
#
#
# Convention : Reuss Voigt Hill
#
# Bulk Modulus (GPa) = 42.75258 56.59895 49.67577
# Shear Modulus (GPa) = 9.07613 15.27199 12.17406
#
# Velocity S-wave (km/s) = 2.54947 3.30711 2.95269
# Velocity P-wave (km/s) = 6.26765 7.42399 6.87019
#
# Compressibility (1/GPa) = 0.02339040
#
# Stress axis : x y z
#
# Youngs Moduli (GPa) = 26.07104 31.69730 90.04537
#
# Poissons Ratio (x) = 0.52706 0.55538
# Poissons Ratio (y) = 0.43351 0.54157
# Poissons Ratio (z) = 0.16080 0.19064
#
# Static dielectric constant tensor:
#      x y z
#    x 1.444900 0.000000 0.000000 
#    y 0.000000 1.448040 0.000000 
#    z 0.000000 0.000000 1.485630 
# 
# From -- ./inp_files/18331.got.cif
#   From: 2010.05.17/outbox.cif.g08.bks.cpg/sg47_10_cif.got.tgz:18331.got - 2010.06.03 20:15:42.
