data_PCOD9388732
_publ_section_title
;
Structure prediction by ZEFSAII (Michael W. Deem and Ramdas Pophale) SiO2 
 PCOD9388732
Probable space group: P M M M
;
_chemical_formula_sum "Si O2"
_cell_formula_units_Z 36
_cell_length_a 24.062856
_cell_length_b 10.216045
_cell_length_c 7.504714
_cell_angle_alpha 90.000000
_cell_angle_beta 90.000000
_cell_angle_gamma 90.000000
_cell_volume 1844.862977
_symmetry_space_group_name_H-M "P M M M"
_symmetry_group_IT_number 47
_symmetry_cell_setting 'orthorhombic'
loop_
_space_group_symop_operation_xyz
x,y,z
-x,-y,z
x,-y,-z
-x,y,-z
-x,-y,-z
x,y,-z
-x,y,z
x,-y,z
loop_
_atom_site_type_symbol
_atom_site_label
_atom_site_fract_x
_atom_site_fract_y
_atom_site_fract_z
Si Si1 0.282931 0.150782 0.282677
Si Si2 0.062028 0.352376 0.213462
Si Si3 0.841809 0.853217 0.287139
Si Si4 0.500000 0.340959 0.294071
Si Si5 0.378335 0.348538 0.718584
O O1 0.283666 0.154005 0.500000
O O2 0.220108 0.184506 0.223614
O O3 0.329547 0.252393 0.222621
O O4 0.293981 0.000000 0.231121
O O5 0.074175 0.500000 0.278810
O O6 0.110069 0.249910 0.252471
O O7 0.000000 0.314691 0.277775
O O8 0.058966 0.359403 0.000000
O O9 0.837274 0.862245 0.500000
O O10 0.854795 0.000000 0.219997
O O11 0.500000 0.500000 0.294735
O O12 0.500000 0.296804 0.500000
O O13 0.560186 0.304464 0.218675
O O14 0.379798 0.347758 0.500000
O O15 0.369127 0.500000 0.770539
#
# Coordination Sequence:
#
# PCOD9388732 Si02
#       5
#     8   8   8   4   8
#     4   8  14  24  35  49  74 104 131 165 208 246
#     4   9  19  35  51  67  89 115 142 175 216 259
#     4   9  18  31  46  66  91 117 146 180 216 255
#     4   7  10  16  25  39  61  89 124 167 206 237
#     4   8  12  18  29  44  63  92 131 169 203 242
#
# _framework density 19.513642999999998
#
# number of rings (size 3 to 8) (size 9 to 14) (size 15 to 20)
#    0.000    3.667    0.000    3.333    0.000    2.667 
#    0.000    6.111    0.000    3.333    0.000    0.000 
#    0.000    0.000    0.000    1.000    0.000   20.667 
#
# Total GULP energy -200495.133972 kJ/mol
# GULP energy per Si atom -5569.309277 kJ/mol
# Density = 1.946923 g / cm^3
# Si number density = 19.513643 Si / 1000 Ang^3
#
#
#
# Elastic Constant Matrix: (Units=GPa)
#
#
# Indices 1 2 3 4 5 6 
#
# 1 236.9475 149.9893 8.2560 0.0000 0.0000 0.0000
# 2 149.9893 125.0853 4.4186 0.0000 0.0000 0.0000
# 3 8.2560 4.4186 48.7747 0.0000 0.0000 0.0000
# 4 0.0000 0.0000 0.0000 12.3605 0.0000 0.0000
# 5 0.0000 0.0000 0.0000 0.0000 68.5622 0.0000
# 6 0.0000 0.0000 0.0000 0.0000 0.0000 351.3601
#
#
#
# Elastic Compliance Matrix: (Units=1/GPa)
#
#
# Indices 1 2 3 4 5 6 
#
# 1 0.017570 -0.021030 -0.001069 0.000000 0.000000 0.000000
# 2 -0.021030 0.033192 0.000553 0.000000 0.000000 0.000000
# 3 -0.001069 0.000553 0.020633 0.000000 0.000000 0.000000
# 4 0.000000 0.000000 0.000000 0.080903 0.000000 0.000000
# 5 0.000000 0.000000 0.000000 0.000000 0.014585 0.000000
# 6 0.000000 0.000000 0.000000 0.000000 0.000000 0.002846
#
#
# Mechanical properties :
#
#
# Convention : Reuss Voigt Hill
#
# Bulk Modulus (GPa) = 35.33211 81.79283 58.56247
# Shear Modulus (GPa) = 22.49661 102.99948 62.74805
#
# Velocity S-wave (km/s) = 3.39907 7.27309 5.67678
# Velocity P-wave (km/s) = 5.79229 10.60836 8.54657
#
# Compressibility (1/GPa) = 0.02830287
#
# Stress axis : x y z
#
# Youngs Moduli (GPa) = 56.91596 30.12766 48.46542
#
# Poissons Ratio (x) = 0.63359 0.05180
# Poissons Ratio (y) = 1.19695 -0.02679
# Poissons Ratio (z) = 0.06084 -0.01665
#
# Static dielectric constant tensor:
#      x y z
#    x 1.698360 0.000000 0.000000 
#    y 0.000000 1.656360 0.000000 
#    z 0.000000 0.000000 1.751470 
# 
# From -- ./inp_files/3748.got.cif
#   From: 2010.05.17/outbox.cif.g08.bks.cpg/sg47_2_cif.got.tgz:3748.got - 2010.06.03 20:15:42.
