data_PCOD9388224
_publ_section_title
;
Structure prediction by ZEFSAII (Michael W. Deem and Ramdas Pophale) SiO2 
 PCOD9388224
Probable space group: P M M M
;
_chemical_formula_sum "Si O2"
_cell_formula_units_Z 64
_cell_length_a 20.000024
_cell_length_b 7.662305
_cell_length_c 24.363704
_cell_angle_alpha 90.000000
_cell_angle_beta 90.000000
_cell_angle_gamma 90.000000
_cell_volume 3733.647100
_symmetry_space_group_name_H-M "P M M M"
_symmetry_group_IT_number 47
_symmetry_cell_setting 'orthorhombic'
loop_
_space_group_symop_operation_xyz
x,y,z
-x,-y,z
x,-y,-z
-x,y,-z
-x,-y,-z
x,y,-z
-x,y,z
x,-y,z
loop_
_atom_site_type_symbol
_atom_site_label
_atom_site_fract_x
_atom_site_fract_y
_atom_site_fract_z
Si Si1 0.710831 0.286332 0.938025
Si Si2 0.150851 0.800251 0.329119
Si Si3 0.716034 0.710176 0.274407
Si Si4 0.204877 0.713693 0.834732
Si Si5 0.925535 0.297474 0.222447
Si Si6 0.573773 0.287105 0.245866
Si Si7 0.573998 0.712535 0.882548
Si Si8 0.923692 0.710452 0.561747
O O1 0.710609 0.500000 0.937724
O O2 0.764565 0.230354 0.892486
O O3 0.637252 0.229592 0.917723
O O4 0.724342 0.229732 0.000000
O O5 0.228933 0.762825 0.318989
O O6 0.106816 0.702656 0.283300
O O7 0.125511 0.764558 0.390073
O O8 0.138775 0.000000 0.315929
O O9 0.714683 0.500000 0.274299
O O10 0.746314 0.764952 0.215384
O O11 0.639685 0.772517 0.278068
O O12 0.204078 0.500000 0.834625
O O13 0.131218 0.777621 0.817836
O O14 0.931786 0.500000 0.206759
O O15 0.000000 0.220197 0.222154
O O16 0.500000 0.228391 0.264159
O O17 0.573289 0.500000 0.247368
O O18 0.581753 0.239364 0.181573
O O19 0.500000 0.769341 0.901033
O O20 0.574299 0.500000 0.883865
O O21 0.906141 0.769454 0.500000
O O22 0.924726 0.500000 0.561013
O O23 0.000000 0.768918 0.573556
#
# Coordination Sequence:
#
# PCOD9388224 Si02
#       8
#     8   8   8   8   8   8   8   8
#     4   9  14  18  26  42  68 102 134 164 202 251
#     4  11  21  29  41  65  94 117 140 175 213 246
#     4   9  15  26  43  58  79 113 147 177 211 253
#     4   8  13  22  34  49  69  96 133 169 204 250
#     4   9  17  29  45  60  75 102 139 175 211 256
#     4   8  12  19  35  57  77 101 139 182 215 246
#     4   8  12  17  25  41  68 100 132 164 199 245
#     4   9  18  33  51  68  89 121 156 180 198 232
#
# _framework density 17.141416
#
# number of rings (size 3 to 8) (size 9 to 14) (size 15 to 20)
#    0.000    3.125    1.250    3.375    0.000    2.500 
#    0.000    1.875    0.000    0.750    0.000    2.625 
#    0.000    8.500    0.000   10.250    0.000   22.625 
#
# Total GULP energy -356515.976596 kJ/mol
# GULP energy per Si atom -5570.562134 kJ/mol
# Density = 1.710240 g / cm^3
# Si number density = 17.141416 Si / 1000 Ang^3
#
#
#
# Elastic Constant Matrix: (Units=GPa)
#
#
# Indices 1 2 3 4 5 6 
#
# 1 163.1049 6.9057 83.0120 0.0000 0.0000 0.0000
# 2 6.9057 31.0616 0.7160 0.0000 0.0000 0.0000
# 3 83.0120 0.7160 104.6876 0.0000 0.0000 0.0000
# 4 0.0000 0.0000 0.0000 -42.2849 0.0000 0.0000
# 5 0.0000 0.0000 0.0000 0.0000 28.4396 0.0000
# 6 0.0000 0.0000 0.0000 0.0000 0.0000 -15.3976
#
#
#
# Elastic Compliance Matrix: (Units=1/GPa)
#
#
# Indices 1 2 3 4 5 6 
#
# 1 0.010418 -0.002126 -0.008246 0.000000 0.000000 0.000000
# 2 -0.002126 0.032633 0.001463 0.000000 0.000000 0.000000
# 3 -0.008246 0.001463 0.016081 0.000000 0.000000 0.000000
# 4 0.000000 0.000000 0.000000 -0.023649 0.000000 0.000000
# 5 0.000000 0.000000 0.000000 0.000000 0.035162 0.000000
# 6 0.000000 0.000000 0.000000 0.000000 0.000000 -0.064945
#
#
# Mechanical properties :
#
#
# Convention : Reuss Voigt Hill
#
# Bulk Modulus (GPa) = 24.20562 53.34684 38.77623
# Shear Modulus (GPa) = 134.08155 8.03279 71.05717
#
# Velocity S-wave (km/s) = 8.85385 2.16711 6.44542
# Velocity P-wave (km/s) = 10.89370 6.11972 8.83526
#
# Compressibility (1/GPa) = 0.04131272
#
# Stress axis : x y z
#
# Youngs Moduli (GPa) = 95.98708 30.64374 62.18420
#
# Poissons Ratio (x) = 0.06515 0.51280
# Poissons Ratio (y) = 0.20408 -0.09096
# Poissons Ratio (z) = 0.79155 -0.04482
#
# Static dielectric constant tensor:
#      x y z
#    x 1.618370 0.000000 0.000000 
#    y 0.000000 1.638120 0.000000 
#    z 0.000000 0.000000 1.551920 
# 
# From -- ./inp_files/32962.got.cif
#   From: 2010.05.17/outbox.cif.g08.bks.cpg/sg47_17_cif.got.tgz:32962.got - 2010.06.03 20:15:42.
