data_PCOD9388849
_publ_section_title
;
Structure prediction by ZEFSAII (Michael W. Deem and Ramdas Pophale) SiO2 
 PCOD9388849
Probable space group: P M M M
;
_chemical_formula_sum "Si O2"
_cell_formula_units_Z 36
_cell_length_a 26.830247
_cell_length_b 7.401023
_cell_length_c 7.864270
_cell_angle_alpha 90.000000
_cell_angle_beta 90.000000
_cell_angle_gamma 90.000000
_cell_volume 1561.618122
_symmetry_space_group_name_H-M "P M M M"
_symmetry_group_IT_number 47
_symmetry_cell_setting 'orthorhombic'
loop_
_space_group_symop_operation_xyz
x,y,z
-x,-y,z
x,-y,-z
-x,y,-z
-x,-y,-z
x,y,-z
-x,y,z
x,-y,z
loop_
_atom_site_type_symbol
_atom_site_label
_atom_site_fract_x
_atom_site_fract_y
_atom_site_fract_z
Si Si1 0.875601 0.779327 0.314267
Si Si2 0.057159 0.220889 0.000000
Si Si3 0.339717 0.716282 0.196154
Si Si4 0.231529 0.784490 0.194337
Si Si5 0.553662 0.715740 0.793420
O O1 0.892704 0.722945 0.500000
O O2 0.818556 0.719488 0.283855
O O3 0.875204 0.000000 0.310779
O O4 0.911850 0.720843 0.164609
O O5 0.000000 0.279442 0.000000
O O6 0.056959 0.000000 0.000000
O O7 0.344276 0.500000 0.188646
O O8 0.285752 0.751692 0.275272
O O9 0.392509 0.783418 0.269772
O O10 0.336606 0.783848 0.000000
O O11 0.226822 0.000000 0.184353
O O12 0.231986 0.713402 0.000000
O O13 0.500000 0.788557 0.734190
O O14 0.552365 0.500000 0.760387
O O15 0.554820 0.736880 0.000000
#
# Coordination Sequence:
#
# PCOD9388849 Si02
#       5
#     8   4   8   8   8
#     4   9  16  26  40  58  82 113 146 176 210 255
#     4   9  16  26  40  60  87 115 144 179 214 248
#     4   8  13  20  32  52  75 101 137 177 213 252
#     4   9  15  24  38  54  77 109 140 170 208 254
#     4   7   9  14  25  42  66  96 129 166 208 252
#
# _framework density 23.053011999999999
#
# number of rings (size 3 to 8) (size 9 to 14) (size 15 to 20)
#    0.000    3.667    1.111    2.000    0.000    0.444 
#    0.000    2.222    0.000    1.333    0.000    4.667 
#    0.000    2.667    0.000   13.111    0.000   12.444 
#
# Total GULP energy -200617.541793 kJ/mol
# GULP energy per Si atom -5572.709494 kJ/mol
# Density = 2.300054 g / cm^3
# Si number density = 23.053012 Si / 1000 Ang^3
#
#
#
# Elastic Constant Matrix: (Units=GPa)
#
#
# Indices 1 2 3 4 5 6 
#
# 1 262.6587 5.3483 88.9404 0.0000 0.0000 0.0000
# 2 5.3483 75.6069 2.4430 0.0000 0.0000 0.0000
# 3 88.9404 2.4430 100.2051 0.0000 0.0000 0.0000
# 4 0.0000 0.0000 0.0000 -7.5649 0.0000 0.0000
# 5 0.0000 0.0000 0.0000 0.0000 -17.8340 0.0000
# 6 0.0000 0.0000 0.0000 0.0000 0.0000 13.4685
#
#
#
# Elastic Compliance Matrix: (Units=1/GPa)
#
#
# Indices 1 2 3 4 5 6 
#
# 1 0.005447 -0.000229 -0.004829 0.000000 0.000000 0.000000
# 2 -0.000229 0.013246 -0.000119 0.000000 0.000000 0.000000
# 3 -0.004829 -0.000119 0.014269 0.000000 0.000000 0.000000
# 4 0.000000 0.000000 0.000000 -0.132190 0.000000 0.000000
# 5 0.000000 0.000000 0.000000 0.000000 -0.056073 0.000000
# 6 0.000000 0.000000 0.000000 0.000000 0.000000 0.074247
#
#
# Mechanical properties :
#
#
# Convention : Reuss Voigt Hill
#
# Bulk Modulus (GPa) = 44.23515 70.21488 57.22501
# Shear Modulus (GPa) = -79.16155 20.39654 -29.38251
#
# Velocity S-wave (km/s) = -5.86630 2.97773 -3.57397
# Velocity P-wave (km/s) = 5.16280 6.50743 2.80108
#
# Compressibility (1/GPa) = 0.02260646
#
# Stress axis : x y z
#
# Youngs Moduli (GPa) = 183.58286 75.49228 70.08318
#
# Poissons Ratio (x) = 0.01731 0.33845
# Poissons Ratio (y) = 0.04209 0.00837
# Poissons Ratio (z) = 0.88656 0.00902
#
# Static dielectric constant tensor:
#      x y z
#    x 1.898330 0.000000 0.000000 
#    y 0.000000 1.916300 0.000000 
#    z 0.000000 0.000000 1.852390 
# 
# From -- ./inp_files/3915.got.cif
#   From: 2010.05.17/outbox.cif.g08.bks.cpg/sg47_2_cif.got.tgz:3915.got - 2010.06.03 20:15:42.
