data_PCOD9388903
_publ_section_title
;
Structure prediction by ZEFSAII (Michael W. Deem and Ramdas Pophale) SiO2 
 PCOD9388903
Probable space group: P M M M
;
_chemical_formula_sum "Si O2"
_cell_formula_units_Z 44
_cell_length_a 32.290599
_cell_length_b 8.161155
_cell_length_c 7.419421
_cell_angle_alpha 90.000000
_cell_angle_beta 90.000000
_cell_angle_gamma 90.000000
_cell_volume 1955.229506
_symmetry_space_group_name_H-M "P M M M"
_symmetry_group_IT_number 47
_symmetry_cell_setting 'orthorhombic'
loop_
_space_group_symop_operation_xyz
x,y,z
-x,-y,z
x,-y,-z
-x,y,-z
-x,-y,-z
x,y,-z
-x,y,z
x,-y,z
loop_
_atom_site_type_symbol
_atom_site_label
_atom_site_fract_x
_atom_site_fract_y
_atom_site_fract_z
Si Si1 0.455447 0.803469 0.287421
Si Si2 0.278218 0.696625 0.712150
Si Si3 0.190743 0.196198 0.705695
Si Si4 0.902154 0.186024 0.791204
Si Si5 0.048133 0.500000 0.220857
Si Si6 0.367356 0.696408 0.286840
O O1 0.455080 0.755767 0.500000
O O2 0.500000 0.744204 0.214158
O O3 0.411363 0.750786 0.209389
O O4 0.456112 0.000000 0.279306
O O5 0.277497 0.746237 0.500000
O O6 0.279152 0.500000 0.718799
O O7 0.234134 0.748895 0.790340
O O8 0.322748 0.755766 0.785630
O O9 0.189831 0.259432 0.500000
O O10 0.146206 0.237659 0.786168
O O11 0.192318 0.000000 0.702995
O O12 0.929296 0.333986 0.714641
O O13 0.905636 0.000000 0.713743
O O14 0.914165 0.171624 0.000000
O O15 0.000000 0.500000 0.268706
O O16 0.050950 0.500000 0.000000
O O17 0.367539 0.742195 0.500000
O O18 0.366977 0.500000 0.276628
#
# Coordination Sequence:
#
# PCOD9388903 Si02
#       6
#     8   8   8   8   4   8
#     4   8  13  19  25  34  49  72 106 148 193 238
#     4   8  14  23  34  50  72  98 128 164 206 248
#     4   9  17  28  43  64  87 113 147 181 214 257
#     4   9  18  32  49  70  96 122 148 183 223 259
#     4   9  18  32  51  75  97 119 153 189 218 257
#     4   8  13  20  28  39  57  81 112 151 194 239
#
# _framework density 22.503751999999999
#
# number of rings (size 3 to 8) (size 9 to 14) (size 15 to 20)
#    0.000    3.545    0.000    1.636    1.273    1.455 
#    0.000    7.273    0.000    1.091    0.000    2.545 
#    0.000    0.000    0.000    0.000    0.000    0.909 
#
# Total GULP energy -245008.051275 kJ/mol
# GULP energy per Si atom -5568.364802 kJ/mol
# Density = 2.245253 g / cm^3
# Si number density = 22.503752 Si / 1000 Ang^3
#
#
#
# Elastic Constant Matrix: (Units=GPa)
#
#
# Indices 1 2 3 4 5 6 
#
# 1 248.5370 91.9292 10.4936 0.0000 0.0000 0.0000
# 2 91.9292 51.9257 11.8538 0.0000 0.0000 0.0000
# 3 10.4936 11.8538 69.0933 0.0000 0.0000 0.0000
# 4 0.0000 0.0000 0.0000 -12.1920 0.0000 0.0000
# 5 0.0000 0.0000 0.0000 0.0000 10.1706 0.0000
# 6 0.0000 0.0000 0.0000 0.0000 0.0000 48.6014
#
#
#
# Elastic Compliance Matrix: (Units=1/GPa)
#
#
# Indices 1 2 3 4 5 6 
#
# 1 0.011887 -0.021473 0.001879 0.000000 0.000000 0.000000
# 2 -0.021473 0.058834 -0.006832 0.000000 0.000000 0.000000
# 3 0.001879 -0.006832 0.015360 0.000000 0.000000 0.000000
# 4 0.000000 0.000000 0.000000 -0.082021 0.000000 0.000000
# 5 0.000000 0.000000 0.000000 0.000000 0.098323 0.000000
# 6 0.000000 0.000000 0.000000 0.000000 0.000000 0.020576
#
#
# Mechanical properties :
#
#
# Convention : Reuss Voigt Hill
#
# Bulk Modulus (GPa) = 30.09606 66.45659 48.27632
# Shear Modulus (GPa) = 26.75414 26.33463 26.54439
#
# Velocity S-wave (km/s) = 3.45175 3.42458 3.43819
# Velocity P-wave (km/s) = 5.41192 6.72551 6.10415
#
# Compressibility (1/GPa) = 0.03322694
#
# Stress axis : x y z
#
# Youngs Moduli (GPa) = 84.12758 16.99702 65.10395
#
# Poissons Ratio (x) = 0.36498 -0.12231
# Poissons Ratio (y) = 1.80648 0.44482
# Poissons Ratio (z) = -0.15805 0.11613
#
# Static dielectric constant tensor:
#      x y z
#    x 1.871570 0.000000 0.000000 
#    y 0.000000 1.799930 0.000000 
#    z 0.000000 0.000000 1.943050 
# 
# From -- ./inp_files/13625.got.cif
#   From: 2010.05.17/outbox.cif.g08.bks.cpg/sg47_7_cif.got.tgz:13625.got - 2010.06.03 20:15:42.
