data_PCOD9388790
_publ_section_title
;
Structure prediction by ZEFSAII (Michael W. Deem and Ramdas Pophale) SiO2 
 PCOD9388790
Probable space group: P M M M
;
_chemical_formula_sum "Si O2"
_cell_formula_units_Z 40
_cell_length_a 7.430625
_cell_length_b 20.908598
_cell_length_c 13.082586
_cell_angle_alpha 90.000000
_cell_angle_beta 90.000000
_cell_angle_gamma 90.000000
_cell_volume 2032.562250
_symmetry_space_group_name_H-M "P M M M"
_symmetry_group_IT_number 47
_symmetry_cell_setting 'orthorhombic'
loop_
_space_group_symop_operation_xyz
x,y,z
-x,-y,z
x,-y,-z
-x,y,-z
-x,-y,-z
x,y,-z
-x,y,z
x,-y,z
loop_
_atom_site_type_symbol
_atom_site_label
_atom_site_fract_x
_atom_site_fract_y
_atom_site_fract_z
Si Si1 0.216049 0.638611 0.884183
Si Si2 0.292313 0.742237 0.500000
Si Si3 0.292498 0.101976 0.500000
Si Si4 0.792028 0.500000 0.875504
Si Si5 0.284846 0.253087 0.720022
Si Si6 0.719638 0.000000 0.117295
Si Si7 0.279357 0.107308 0.275380
O O1 0.286199 0.569150 0.846949
O O2 0.252762 0.696583 0.808779
O O3 0.000000 0.632113 0.890238
O O4 0.281140 0.650627 0.000000
O O5 0.500000 0.720069 0.500000
O O6 0.292825 0.820127 0.500000
O O7 0.212379 0.724134 0.390457
O O8 0.500000 0.080159 0.500000
O O9 0.217590 0.084550 0.388520
O O10 0.000000 0.500000 0.840821
O O11 0.791756 0.500000 0.000000
O O12 0.500000 0.247276 0.707786
O O13 0.221400 0.180742 0.740914
O O14 0.775571 0.938583 0.183656
O O15 0.500000 0.000000 0.115114
O O16 0.780355 0.000000 0.000000
O O17 0.500000 0.106380 0.278833
#
# Coordination Sequence:
#
# PCOD9388790 Si02
#       7
#     8   4   4   4   8   4   8
#     4   9  17  29  45  65  87 110 137 170 208 248
#     4   7  12  24  40  58  83 112 136 165 210 254
#     4   7  10  19  34  50  68  93 129 169 206 239
#     4   7  12  26  45  60  79 110 140 165 202 249
#     4   9  16  27  44  64  85 110 141 175 210 248
#     4   9  16  23  29  43  74 111 137 160 200 249
#     4   8  14  23  35  52  74 101 133 169 205 240
#
# _framework density 19.679593000000001
#
# number of rings (size 3 to 8) (size 9 to 14) (size 15 to 20)
#    0.000    3.800    0.000    3.600    0.000    1.600 
#    0.000    5.000    0.000    2.400    0.000    4.900 
#    0.000    2.400    0.000    7.200    0.000    8.000 
#
# Total GULP energy -222695.524065 kJ/mol
# GULP energy per Si atom -5567.388102 kJ/mol
# Density = 1.963480 g / cm^3
# Si number density = 19.679593 Si / 1000 Ang^3
#
#
#
# Elastic Constant Matrix: (Units=GPa)
#
#
# Indices 1 2 3 4 5 6 
#
# 1 60.1408 3.4436 5.5401 0.0000 0.0000 0.0000
# 2 3.4436 139.4587 110.6386 0.0000 0.0000 0.0000
# 3 5.5401 110.6386 189.5705 0.0000 0.0000 0.0000
# 4 0.0000 0.0000 0.0000 -43.7202 0.0000 0.0000
# 5 0.0000 0.0000 0.0000 0.0000 14.3773 0.0000
# 6 0.0000 0.0000 0.0000 0.0000 0.0000 8.7981
#
#
#
# Elastic Compliance Matrix: (Units=1/GPa)
#
#
# Indices 1 2 3 4 5 6 
#
# 1 0.016673 -0.000047 -0.000460 0.000000 0.000000 0.000000
# 2 -0.000047 0.013354 -0.007792 0.000000 0.000000 0.000000
# 3 -0.000460 -0.007792 0.009836 0.000000 0.000000 0.000000
# 4 0.000000 0.000000 0.000000 -0.022873 0.000000 0.000000
# 5 0.000000 0.000000 0.000000 0.000000 0.069554 0.000000
# 6 0.000000 0.000000 0.000000 0.000000 0.000000 0.113662
#
#
# Mechanical properties :
#
#
# Convention : Reuss Voigt Hill
#
# Bulk Modulus (GPa) = 42.98352 69.82384 56.40368
# Shear Modulus (GPa) = 22.26593 13.86087 18.06340
#
# Velocity S-wave (km/s) = 3.36731 2.65680 3.03293
# Velocity P-wave (km/s) = 6.08338 6.70588 6.40220
#
# Compressibility (1/GPa) = 0.02326473
#
# Stress axis : x y z
#
# Youngs Moduli (GPa) = 59.97834 74.88623 101.66485
#
# Poissons Ratio (x) = 0.00350 0.04676
# Poissons Ratio (y) = 0.00281 0.79219
# Poissons Ratio (z) = 0.02759 0.58353
#
# Static dielectric constant tensor:
#      x y z
#    x 1.787050 0.000000 0.000000 
#    y 0.000000 1.694160 0.000000 
#    z 0.000000 0.000000 1.704940 
# 
# From -- ./inp_files/15183.got.cif
#   From: 2010.05.17/outbox.cif.g08.bks.cpg/sg47_8_cif.got.tgz:15183.got - 2010.06.03 20:15:42.
