data_PCOD9388712
_publ_section_title
;
Structure prediction by ZEFSAII (Michael W. Deem and Ramdas Pophale) SiO2 
 PCOD9388712
Probable space group: P M M M
;
_chemical_formula_sum "Si O2"
_cell_formula_units_Z 29
_cell_length_a 11.975226
_cell_length_b 15.182325
_cell_length_c 7.887206
_cell_angle_alpha 90.000000
_cell_angle_beta 90.000000
_cell_angle_gamma 90.000000
_cell_volume 1433.986908
_symmetry_space_group_name_H-M "P M M M"
_symmetry_group_IT_number 47
_symmetry_cell_setting 'orthorhombic'
loop_
_space_group_symop_operation_xyz
x,y,z
-x,-y,z
x,-y,-z
-x,y,-z
-x,-y,-z
x,y,-z
-x,y,z
x,-y,z
loop_
_atom_site_type_symbol
_atom_site_label
_atom_site_fract_x
_atom_site_fract_y
_atom_site_fract_z
Si Si1 0.375010 0.898635 0.204405
Si Si2 0.000000 0.500000 0.500000
Si Si3 0.791555 0.748261 0.310693
Si Si4 0.000000 0.646498 0.811700
Si Si5 0.368059 0.598809 0.797059
O O1 0.500000 0.869102 0.261160
O O2 0.275222 0.835460 0.258249
O O3 0.360206 0.000000 0.259608
O O4 0.377384 0.897948 0.000000
O O5 0.000000 0.422311 0.653651
O O6 0.834417 0.759861 0.500000
O O7 0.892442 0.709957 0.201936
O O8 0.699171 0.671473 0.301153
O O9 0.000000 0.604780 0.000000
O O10 0.500000 0.603816 0.764029
O O11 0.329056 0.500000 0.754895
O O12 0.353269 0.611669 0.000000
#
# Coordination Sequence:
#
# PCOD9388712 Si02
#       5
#     8   1   8   4   8
#     4   9  19  38  65  95 126 166 217 268 326 396
#     4  12  26  52  68 102 124 160 238 276 316 388
#     4  12  24  39  58  89 128 162 214 270 314 387
#     4  12  27  47  70  93 130 175 217 274 330 378
#     4   9  19  35  55  81 113 155 205 252 311 381
#
# _framework density 20.223334999999999
#
# number of rings (size 3 to 8) (size 9 to 14) (size 15 to 20)
#    0.000    1.655    1.379    5.172    1.931    5.517 
#    0.000    3.448    0.000    4.138    0.000    0.000 
#    0.000    0.000    0.000    0.000    0.000    0.000 
#
# Total GULP energy -161681.968996 kJ/mol
# GULP energy per Si atom -5575.240310 kJ/mol
# Density = 2.017731 g / cm^3
# Si number density = 20.223335 Si / 1000 Ang^3
#
#
#
# Elastic Constant Matrix: (Units=GPa)
#
#
# Indices 1 2 3 4 5 6 
#
# 1 73.4924 60.9928 27.7765 0.0000 0.0000 0.0000
# 2 60.9928 97.8670 34.9618 0.0000 0.0000 0.0000
# 3 27.7765 34.9618 93.9277 0.0000 0.0000 0.0000
# 4 0.0000 0.0000 0.0000 42.1512 0.0000 0.0000
# 5 0.0000 0.0000 0.0000 0.0000 22.3279 0.0000
# 6 0.0000 0.0000 0.0000 0.0000 0.0000 16.7788
#
#
#
# Elastic Compliance Matrix: (Units=1/GPa)
#
#
# Indices 1 2 3 4 5 6 
#
# 1 0.028539 -0.017036 -0.002098 0.000000 0.000000 0.000000
# 2 -0.017036 0.021955 -0.003134 0.000000 0.000000 0.000000
# 3 -0.002098 -0.003134 0.012434 0.000000 0.000000 0.000000
# 4 0.000000 0.000000 0.000000 0.023724 0.000000 0.000000
# 5 0.000000 0.000000 0.000000 0.000000 0.044787 0.000000
# 6 0.000000 0.000000 0.000000 0.000000 0.000000 0.059599
#
#
# Mechanical properties :
#
#
# Convention : Reuss Voigt Hill
#
# Bulk Modulus (GPa) = 54.37771 56.97217 55.67494
# Shear Modulus (GPa) = 20.68639 25.68864 23.18751
#
# Velocity S-wave (km/s) = 3.20175 3.56792 3.38978
# Velocity P-wave (km/s) = 6.37301 6.72354 6.55062
#
# Compressibility (1/GPa) = 0.01838989
#
# Stress axis : x y z
#
# Youngs Moduli (GPa) = 35.04008 45.54768 80.42756
#
# Poissons Ratio (x) = 0.77597 0.16876
# Poissons Ratio (y) = 0.59696 0.25207
# Poissons Ratio (z) = 0.07352 0.14275
#
# Static dielectric constant tensor:
#      x y z
#    x 1.497890 0.000000 0.000000 
#    y 0.000000 1.704290 0.000000 
#    z 0.000000 0.000000 1.762240 
# 
# From -- ./inp_files/3237.got.cif
#   From: 2010.05.17/outbox.cif.g08.bks.cpg/sg47_2_cif.got.tgz:3237.got - 2010.06.03 20:15:42.
