data_PCOD9388026
_publ_section_title
;
Structure prediction by ZEFSAII (Michael W. Deem and Ramdas Pophale) SiO2 
 PCOD9388026
Probable space group: P M M M
;
_chemical_formula_sum "Si O2"
_cell_formula_units_Z 56
_cell_length_a 21.290992
_cell_length_b 15.618503
_cell_length_c 7.545855
_cell_angle_alpha 90.000000
_cell_angle_beta 90.000000
_cell_angle_gamma 90.000000
_cell_volume 2509.248988
_symmetry_space_group_name_H-M "P M M M"
_symmetry_group_IT_number 47
_symmetry_cell_setting 'orthorhombic'
loop_
_space_group_symop_operation_xyz
x,y,z
-x,-y,z
x,-y,-z
-x,y,-z
-x,-y,-z
x,y,-z
-x,y,z
x,-y,z
loop_
_atom_site_type_symbol
_atom_site_label
_atom_site_fract_x
_atom_site_fract_y
_atom_site_fract_z
Si Si1 0.298982 0.102664 0.702498
Si Si2 0.071187 0.247714 0.787389
Si Si3 0.567468 0.358596 0.707285
Si Si4 0.840652 0.902868 0.208235
Si Si5 0.837524 0.402239 0.713384
Si Si6 0.702605 0.397778 0.701741
Si Si7 0.432482 0.847013 0.292568
O O1 0.299798 0.134883 0.500000
O O2 0.231562 0.128183 0.777537
O O3 0.365450 0.127926 0.787150
O O4 0.298586 0.000000 0.702110
O O5 0.112098 0.167797 0.716796
O O6 0.108080 0.335681 0.753932
O O7 0.000000 0.248949 0.719366
O O8 0.068121 0.238439 0.000000
O O9 0.568449 0.387178 0.500000
O O10 0.500000 0.388380 0.781637
O O11 0.634756 0.382403 0.787097
O O12 0.565978 0.255753 0.708585
O O13 0.845326 0.000000 0.283125
O O14 0.854251 0.910151 0.000000
O O15 0.831273 0.406089 0.500000
O O16 0.849318 0.500000 0.775229
O O17 0.769212 0.369513 0.781198
O O18 0.698484 0.361950 0.500000
O O19 0.709412 0.500000 0.689994
O O20 0.431456 0.875356 0.500000
O O21 0.500000 0.877067 0.218420
#
# Coordination Sequence:
#
# PCOD9388026 Si02
#       7
#     8   8   8   8   8   8   8
#     4   9  17  28  45  70  95 124 165 206 245 292
#     4  10  22  38  56  80 104 129 166 206 249 304
#     4   8  13  20  31  52  84 121 158 194 235 281
#     4   9  19  36  55  75 102 133 164 205 256 307
#     4   9  19  35  54  78 108 140 172 206 247 298
#     4   8  14  24  38  59  88 123 161 196 234 282
#     4   8  14  23  35  57  90 124 158 198 244 290
#
# _framework density 22.317436000000001
#
# number of rings (size 3 to 8) (size 9 to 14) (size 15 to 20)
#    0.000    3.286    0.000    1.714    2.000    2.286 
#    0.000    5.714    0.000    0.429    0.000    5.000 
#    0.000    0.571    0.000    3.143    0.000    3.143 
#
# Total GULP energy -311978.095203 kJ/mol
# GULP energy per Si atom -5571.037414 kJ/mol
# Density = 2.226664 g / cm^3
# Si number density = 22.317436 Si / 1000 Ang^3
#
#
#
# Elastic Constant Matrix: (Units=GPa)
#
#
# Indices 1 2 3 4 5 6 
#
# 1 265.2825 91.7000 10.9854 0.0000 0.0000 0.0000
# 2 91.7000 78.5668 4.7921 0.0000 0.0000 0.0000
# 3 10.9854 4.7921 53.9659 0.0000 0.0000 0.0000
# 4 0.0000 0.0000 0.0000 13.6916 0.0000 0.0000
# 5 0.0000 0.0000 0.0000 0.0000 17.2618 0.0000
# 6 0.0000 0.0000 0.0000 0.0000 0.0000 55.0310
#
#
#
# Elastic Compliance Matrix: (Units=1/GPa)
#
#
# Indices 1 2 3 4 5 6 
#
# 1 0.006341 -0.007362 -0.000637 0.000000 0.000000 0.000000
# 2 -0.007362 0.021345 -0.000397 0.000000 0.000000 0.000000
# 3 -0.000637 -0.000397 0.018695 0.000000 0.000000 0.000000
# 4 0.000000 0.000000 0.000000 0.073038 0.000000 0.000000
# 5 0.000000 0.000000 0.000000 0.000000 0.057931 0.000000
# 6 0.000000 0.000000 0.000000 0.000000 0.000000 0.018172
#
#
# Mechanical properties :
#
#
# Convention : Reuss Voigt Hill
#
# Bulk Modulus (GPa) = 33.79601 68.08556 50.94079
# Shear Modulus (GPa) = 22.50478 36.55272 29.52875
#
# Velocity S-wave (km/s) = 3.17897 4.05143 3.64142
# Velocity P-wave (km/s) = 5.35263 7.24289 6.36829
#
# Compressibility (1/GPa) = 0.02958929
#
# Stress axis : x y z
#
# Youngs Moduli (GPa) = 157.71230 46.85044 53.48985
#
# Poissons Ratio (x) = 0.34490 0.03407
# Poissons Ratio (y) = 1.16103 0.02122
# Poissons Ratio (z) = 0.10046 0.01859
#
# Static dielectric constant tensor:
#      x y z
#    x 1.875180 0.000000 0.000000 
#    y 0.000000 1.799070 0.000000 
#    z 0.000000 0.000000 1.893420 
# 
# From -- ./inp_files/11275.got.cif
#   From: 2010.05.17/outbox.cif.g08.bks.cpg/sg47_6_cif.got.tgz:11275.got - 2010.06.03 20:15:42.
