data_PCOD9388662
_publ_section_title
;
Structure prediction by ZEFSAII (Michael W. Deem and Ramdas Pophale) SiO2 
 PCOD9388662
Probable space group: P M M M
;
_chemical_formula_sum "Si O2"
_cell_formula_units_Z 33
_cell_length_a 8.091963
_cell_length_b 21.340117
_cell_length_c 9.624505
_cell_angle_alpha 90.000000
_cell_angle_beta 90.000000
_cell_angle_gamma 90.000000
_cell_volume 1661.992605
_symmetry_space_group_name_H-M "P M M M"
_symmetry_group_IT_number 47
_symmetry_cell_setting 'orthorhombic'
loop_
_space_group_symop_operation_xyz
x,y,z
-x,-y,z
x,-y,-z
-x,y,-z
-x,-y,-z
x,y,-z
-x,y,z
x,-y,z
loop_
_atom_site_type_symbol
_atom_site_label
_atom_site_fract_x
_atom_site_fract_y
_atom_site_fract_z
Si Si1 0.500000 0.500000 0.000000
Si Si2 0.699789 0.762530 0.339869
Si Si3 0.802730 0.880812 0.159061
Si Si4 0.302901 0.000000 0.340795
Si Si5 0.185695 0.500000 0.209172
Si Si6 0.690002 0.375166 0.333881
O O1 0.350057 0.500000 0.883926
O O2 0.755799 0.773837 0.500000
O O3 0.500000 0.760218 0.344110
O O4 0.751229 0.817346 0.237038
O O5 0.755291 0.693359 0.290501
O O6 0.000000 0.882488 0.151737
O O7 0.748055 0.939007 0.253771
O O8 0.738246 0.884481 0.000000
O O9 0.500000 0.000000 0.350340
O O10 0.237149 0.000000 0.500000
O O11 0.205498 0.564724 0.293205
O O12 0.000000 0.500000 0.149409
O O13 0.681408 0.371995 0.500000
O O14 0.500000 0.381896 0.281971
#
# Coordination Sequence:
#
# PCOD9388662 Si02
#       6
#     1   8   8   4   4   8
#     4  12  26  48  58  78 128 172 206 256 316 378
#     4   9  19  37  62  90 120 158 204 247 297 359
#     4  11  24  40  57  85 123 160 197 243 296 354
#     4  11  24  41  64  90 114 145 194 249 300 362
#     4  12  24  40  64  91 119 162 214 260 313 377
#     4   9  18  37  64  91 122 158 197 256 320 367
#
# _framework density 19.855685000000001
#
# number of rings (size 3 to 8) (size 9 to 14) (size 15 to 20)
#    0.000    1.818    1.212    4.182    0.000   10.667 
#    2.182    2.424    0.000    0.000    0.000    0.000 
#    0.000    0.000    0.000    0.000    0.000    0.000 
#
# Total GULP energy -183819.589833 kJ/mol
# GULP energy per Si atom -5570.290601 kJ/mol
# Density = 1.981049 g / cm^3
# Si number density = 19.855685 Si / 1000 Ang^3
#
#
#
# Elastic Constant Matrix: (Units=GPa)
#
#
# Indices 1 2 3 4 5 6 
#
# 1 78.2967 38.2576 27.5959 0.0000 0.0000 0.0000
# 2 38.2576 211.7951 99.3541 0.0000 0.0000 0.0000
# 3 27.5959 99.3541 123.6514 0.0000 0.0000 0.0000
# 4 0.0000 0.0000 0.0000 -17.5609 0.0000 0.0000
# 5 0.0000 0.0000 0.0000 0.0000 42.5223 0.0000
# 6 0.0000 0.0000 0.0000 0.0000 0.0000-2756.4099
#
#
#
# Elastic Compliance Matrix: (Units=1/GPa)
#
#
# Indices 1 2 3 4 5 6 
#
# 1 0.014250 -0.001737 -0.001785 0.000000 0.000000 0.000000
# 2 -0.001737 0.007790 -0.005871 0.000000 0.000000 0.000000
# 3 -0.001785 -0.005871 0.013203 0.000000 0.000000 0.000000
# 4 0.000000 0.000000 0.000000 -0.056945 0.000000 0.000000
# 5 0.000000 0.000000 0.000000 0.000000 0.023517 0.000000
# 6 0.000000 0.000000 0.000000 0.000000 0.000000 -0.000363
#
#
# Mechanical properties :
#
#
# Convention : Reuss Voigt Hill
#
# Bulk Modulus (GPa) = 60.76514 82.68426 71.72470
# Shear Modulus (GPa) = 194.38058 -529.72067 -167.67005
#
# Velocity S-wave (km/s) = 9.90501 -16.35129 -9.19933
# Velocity P-wave (km/s) = 12.70756 17.74128 8.75417
#
# Compressibility (1/GPa) = 0.01645681
#
# Stress axis : x y z
#
# Youngs Moduli (GPa) = 70.17754 128.37763 75.73967
#
# Poissons Ratio (x) = 0.22297 0.13517
# Poissons Ratio (y) = 0.12188 0.44469
# Poissons Ratio (z) = 0.12524 0.75374
#
# Static dielectric constant tensor:
#      x y z
#    x 1.703090 0.000000 0.000000 
#    y 0.000000 1.727160 0.000000 
#    z 0.000000 0.000000 1.696120 
# 
# From -- ./inp_files/1169.got.cif
#   From: 2010.05.17/outbox.cif.g08.bks.cpg/sg47_1_cif.got.tgz:1169.got - 2010.06.03 20:15:42.
