data_PCOD9388101
_publ_section_title
;
Structure prediction by ZEFSAII (Michael W. Deem and Ramdas Pophale) SiO2 
 PCOD9388101
Probable space group: P M M M
;
_chemical_formula_sum "Si O2"
_cell_formula_units_Z 64
_cell_length_a 27.097574
_cell_length_b 8.554683
_cell_length_c 14.523269
_cell_angle_alpha 90.000000
_cell_angle_beta 90.000000
_cell_angle_gamma 90.000000
_cell_volume 3366.655771
_symmetry_space_group_name_H-M "P M M M"
_symmetry_group_IT_number 47
_symmetry_cell_setting 'orthorhombic'
loop_
_space_group_symop_operation_xyz
x,y,z
-x,-y,z
x,-y,-z
-x,y,-z
-x,-y,-z
x,y,-z
-x,y,z
x,-y,z
loop_
_atom_site_type_symbol
_atom_site_label
_atom_site_fract_x
_atom_site_fract_y
_atom_site_fract_z
Si Si1 0.850524 0.313459 0.607336
Si Si2 0.555668 0.311498 0.392914
Si Si3 0.798395 0.678012 0.888106
Si Si4 0.308797 0.689320 0.894419
Si Si5 0.053813 0.813351 0.288696
Si Si6 0.254429 0.188416 0.607600
Si Si7 0.648288 0.186717 0.282314
Si Si8 0.092739 0.309875 0.893812
O O1 0.853579 0.263882 0.500000
O O2 0.848940 0.500000 0.611517
O O3 0.899142 0.256067 0.659072
O O4 0.798097 0.250118 0.644237
O O5 0.562705 0.266980 0.500000
O O6 0.500000 0.263808 0.365652
O O7 0.557775 0.500000 0.388271
O O8 0.599007 0.241839 0.332380
O O9 0.798964 0.500000 0.851760
O O10 0.745761 0.751040 0.864543
O O11 0.851755 0.747705 0.867737
O O12 0.797406 0.667501 0.000000
O O13 0.306316 0.500000 0.893154
O O14 0.347399 0.748309 0.820637
O O15 0.318189 0.736326 0.000000
O O16 0.057539 0.758380 0.182944
O O17 0.000000 0.763743 0.326072
O O18 0.056616 0.000000 0.293232
O O19 0.258616 0.236504 0.500000
O O20 0.302852 0.242885 0.662181
O O21 0.253182 0.000000 0.610309
O O22 0.649704 0.000000 0.280881
O O23 0.092932 0.500000 0.889738
O O24 0.082218 0.267703 0.000000
#
# Coordination Sequence:
#
# PCOD9388101 Si02
#       8
#     8   8   8   8   8   8   8   8
#     4  10  22  40  62  85 106 133 175 229 282 328
#     4   9  19  37  60  85 114 150 194 241 282 324
#     4   7  12  26  48  73  99 129 169 216 264 313
#     4   9  18  33  52  75 108 151 195 235 275 322
#     4  11  25  41  56  77 107 143 180 219 269 334
#     4   9  19  36  55  79 116 153 179 210 263 335
#     4  11  22  33  52  85 121 155 188 227 277 331
#     4   9  18  34  57  83 109 138 176 224 273 320
#
# _framework density 19.009962000000002
#
# number of rings (size 3 to 8) (size 9 to 14) (size 15 to 20)
#    0.000    2.625    0.000    3.375    1.750    4.750 
#    0.000    4.375    0.000    2.625    0.000    2.625 
#    0.000    0.000    0.000    0.000    0.000    0.000 
#
# Total GULP energy -357051.769950 kJ/mol
# GULP energy per Si atom -5578.933905 kJ/mol
# Density = 1.896669 g / cm^3
# Si number density = 19.009962 Si / 1000 Ang^3
#
#
#
# Elastic Constant Matrix: (Units=GPa)
#
#
# Indices 1 2 3 4 5 6 
#
# 1 152.4705 27.6395 74.8342 0.0000 0.0000 0.0000
# 2 27.6395 14.1981 19.6745 0.0000 0.0000 0.0000
# 3 74.8342 19.6745 82.7340 0.0000 0.0000 0.0000
# 4 0.0000 0.0000 0.0000 12.9720 0.0000 0.0000
# 5 0.0000 0.0000 0.0000 0.0000 31.8684 0.0000
# 6 0.0000 0.0000 0.0000 0.0000 0.0000 24.0196
#
#
#
# Elastic Compliance Matrix: (Units=1/GPa)
#
#
# Indices 1 2 3 4 5 6 
#
# 1 0.013404 -0.013861 -0.008828 0.000000 0.000000 0.000000
# 2 -0.013861 0.119381 -0.015852 0.000000 0.000000 0.000000
# 3 -0.008828 -0.015852 0.023842 0.000000 0.000000 0.000000
# 4 0.000000 0.000000 0.000000 0.077089 0.000000 0.000000
# 5 0.000000 0.000000 0.000000 0.000000 0.031379 0.000000
# 6 0.000000 0.000000 0.000000 0.000000 0.000000 0.041633
#
#
# Mechanical properties :
#
#
# Convention : Reuss Voigt Hill
#
# Bulk Modulus (GPa) = 12.57149 54.85544 33.71347
# Shear Modulus (GPa) = 12.18547 22.25563 17.22055
#
# Velocity S-wave (km/s) = 2.53455 3.42531 3.01303
# Velocity P-wave (km/s) = 3.89779 6.67551 5.46604
#
# Compressibility (1/GPa) = 0.07954508
#
# Stress axis : x y z
#
# Youngs Moduli (GPa) = 74.60304 8.37656 41.94305
#
# Poissons Ratio (x) = 0.11611 0.37028
# Poissons Ratio (y) = 1.03405 0.66488
# Poissons Ratio (z) = 0.65861 0.13278
#
# Static dielectric constant tensor:
#      x y z
#    x 1.672570 0.000000 0.000000 
#    y 0.000000 1.645900 0.000000 
#    z 0.000000 0.000000 1.676500 
# 
# From -- ./inp_files/25538.got.cif
#   From: 2010.05.17/outbox.cif.g08.bks.cpg/sg47_13_cif.got.tgz:25538.got - 2010.06.03 20:15:42.
