data_PCOD9388520
_publ_section_title
;
Structure prediction by ZEFSAII (Michael W. Deem and Ramdas Pophale) SiO2 
 PCOD9388520
Probable space group: P M M M
;
_chemical_formula_sum "Si O2"
_cell_formula_units_Z 44
_cell_length_a 21.978461
_cell_length_b 14.262429
_cell_length_c 7.774587
_cell_angle_alpha 90.000000
_cell_angle_beta 90.000000
_cell_angle_gamma 90.000000
_cell_volume 2437.070551
_symmetry_space_group_name_H-M "P M M M"
_symmetry_group_IT_number 47
_symmetry_cell_setting 'orthorhombic'
loop_
_space_group_symop_operation_xyz
x,y,z
-x,-y,z
x,-y,-z
-x,y,-z
-x,-y,-z
x,y,-z
-x,y,z
x,-y,z
loop_
_atom_site_type_symbol
_atom_site_label
_atom_site_fract_x
_atom_site_fract_y
_atom_site_fract_z
Si Si1 0.312391 0.105669 0.710517
Si Si2 0.252336 0.604881 0.289488
Si Si3 0.374746 0.706606 0.706179
Si Si4 0.067568 0.893179 0.793258
Si Si5 0.500000 0.393650 0.796252
Si Si6 0.190340 0.791245 0.294174
O O1 0.313049 0.104053 0.500000
O O2 0.358723 0.187835 0.766520
O O3 0.244872 0.139938 0.765033
O O4 0.325189 0.000000 0.769092
O O5 0.251778 0.603258 0.500000
O O6 0.239245 0.500000 0.229832
O O7 0.319604 0.639231 0.235669
O O8 0.206420 0.686579 0.232551
O O9 0.370636 0.709908 0.500000
O O10 0.439610 0.663608 0.748963
O O11 0.123857 0.828276 0.747142
O O12 0.000000 0.863812 0.732920
O O13 0.078386 0.000000 0.731354
O O14 0.065392 0.896672 0.000000
O O15 0.500000 0.500000 0.722152
O O16 0.500000 0.402446 0.000000
O O17 0.195675 0.789278 0.500000
#
# Coordination Sequence:
#
# PCOD9388520 Si02
#       6
#     8   8   8   8   4   8
#     4   8  14  26  45  70  97 117 137 175 222 259
#     4   8  14  26  45  69  94 115 139 178 223 260
#     4   9  17  30  50  71  87 113 152 181 206 255
#     4   9  18  31  44  60  87 121 150 177 215 261
#     4  11  23  35  46  63  90 118 141 179 234 269
#     4   9  16  26  45  71  92 113 144 181 219 257
#
# _framework density 18.054462999999998
#
# number of rings (size 3 to 8) (size 9 to 14) (size 15 to 20)
#    0.000    3.182    0.000    4.091    0.000    2.909 
#    0.000    5.000    0.000    6.545    0.000    3.818 
#    0.000    0.000    0.000    0.000    0.000    0.000 
#
# Total GULP energy -245146.838171 kJ/mol
# GULP energy per Si atom -5571.519049 kJ/mol
# Density = 1.801337 g / cm^3
# Si number density = 18.054463 Si / 1000 Ang^3
#
#
#
# Elastic Constant Matrix: (Units=GPa)
#
#
# Indices 1 2 3 4 5 6 
#
# 1 163.5196 109.6098 1.9177 0.0000 0.0000 0.0000
# 2 109.6098 185.2343 9.5355 0.0000 0.0000 0.0000
# 3 1.9177 9.5355 18.7115 0.0000 0.0000 0.0000
# 4 0.0000 0.0000 0.0000 6.1843 0.0000 0.0000
# 5 0.0000 0.0000 0.0000 0.0000 40.5599 0.0000
# 6 0.0000 0.0000 0.0000 0.0000 0.0000 22.6427
#
#
#
# Elastic Compliance Matrix: (Units=1/GPa)
#
#
# Indices 1 2 3 4 5 6 
#
# 1 0.010215 -0.006152 0.002088 0.000000 0.000000 0.000000
# 2 -0.006152 0.009249 -0.004083 0.000000 0.000000 0.000000
# 3 0.002088 -0.004083 0.055310 0.000000 0.000000 0.000000
# 4 0.000000 0.000000 0.000000 0.161699 0.000000 0.000000
# 5 0.000000 0.000000 0.000000 0.000000 0.024655 0.000000
# 6 0.000000 0.000000 0.000000 0.000000 0.000000 0.044164
#
#
# Mechanical properties :
#
#
# Convention : Reuss Voigt Hill
#
# Bulk Modulus (GPa) = 17.09976 67.73237 42.41607
# Shear Modulus (GPa) = 14.65940 30.30423 22.48182
#
# Velocity S-wave (km/s) = 2.85257 4.10138 3.53260
# Velocity P-wave (km/s) = 4.51014 7.74761 6.33904
#
# Compressibility (1/GPa) = 0.05848034
#
# Stress axis : x y z
#
# Youngs Moduli (GPa) = 97.89816 108.11929 18.07997
#
# Poissons Ratio (x) = 0.66514 -0.03775
# Poissons Ratio (y) = 0.60226 0.07382
# Poissons Ratio (z) = -0.20443 0.44144
#
# Static dielectric constant tensor:
#      x y z
#    x 1.614630 0.000000 0.000000 
#    y 0.000000 1.636310 0.000000 
#    z 0.000000 0.000000 1.664050 
# 
# From -- ./inp_files/8977.got.cif
#   From: 2010.05.17/outbox.cif.g08.bks.cpg/sg47_5_cif.got.tgz:8977.got - 2010.06.03 20:15:42.
