data_PCOD9388825
_publ_section_title
;
Structure prediction by ZEFSAII (Michael W. Deem and Ramdas Pophale) SiO2 
 PCOD9388825
Probable space group: P M M M
;
_chemical_formula_sum "Si O2"
_cell_formula_units_Z 40
_cell_length_a 19.559268
_cell_length_b 7.308505
_cell_length_c 19.150743
_cell_angle_alpha 90.000000
_cell_angle_beta 90.000000
_cell_angle_gamma 90.000000
_cell_volume 2737.579714
_symmetry_space_group_name_H-M "P M M M"
_symmetry_group_IT_number 47
_symmetry_cell_setting 'orthorhombic'
loop_
_space_group_symop_operation_xyz
x,y,z
-x,-y,z
x,-y,-z
-x,y,-z
-x,-y,-z
x,y,-z
-x,y,z
x,-y,z
loop_
_atom_site_type_symbol
_atom_site_label
_atom_site_fract_x
_atom_site_fract_y
_atom_site_fract_z
Si Si1 0.422528 0.000000 0.915393
Si Si2 0.837505 0.277010 0.863510
Si Si3 0.920316 0.723281 0.271885
Si Si4 0.918498 0.720487 0.424913
Si Si5 0.691459 0.283044 0.082915
Si Si6 0.921409 0.276859 0.000000
O O1 0.376297 0.174282 0.896212
O O2 0.500000 0.000000 0.888584
O O3 0.426737 0.000000 0.000000
O O4 0.837836 0.500000 0.863668
O O5 0.873421 0.217261 0.792197
O O6 0.759073 0.223187 0.875700
O O7 0.881873 0.219263 0.930408
O O8 0.920471 0.500000 0.271965
O O9 0.894716 0.783345 0.348653
O O10 0.000000 0.777078 0.262536
O O11 0.891150 0.787167 0.500000
O O12 0.910970 0.500000 0.425408
O O13 0.000000 0.757120 0.424886
O O14 0.682353 0.500000 0.091396
O O15 0.704236 0.249713 0.000000
O O16 0.921095 0.500000 0.000000
O O17 0.000000 0.218822 0.000000
#
# Coordination Sequence:
#
# PCOD9388825 Si02
#       6
#     4   8   8   8   8   4
#     4   9  18  30  44  62  76  90 119 152 183 221
#     4   9  14  20  29  44  66  92 121 151 186 222
#     4   8  12  16  23  38  60  85 119 162 192 214
#     4   7   9  13  20  30  48  78 114 150 189 225
#     4   9  16  27  41  56  76  99 121 148 184 224
#     4   9  14  18  26  41  61  86 119 157 188 214
#
# _framework density 14.611446000000001
#
# number of rings (size 3 to 8) (size 9 to 14) (size 15 to 20)
#    0.000    3.600    1.000    2.400    0.000    2.800 
#    0.000    2.000    0.000    0.000    0.000    3.500 
#    0.000    0.000    0.000    0.900    0.000   12.700 
#
# Total GULP energy -222739.675840 kJ/mol
# GULP energy per Si atom -5568.491896 kJ/mol
# Density = 1.457819 g / cm^3
# Si number density = 14.611446 Si / 1000 Ang^3
#
#
#
# Elastic Constant Matrix: (Units=GPa)
#
#
# Indices 1 2 3 4 5 6 
#
# 1 112.1210 23.3015 60.7334 0.0000 0.0000 0.0000
# 2 23.3015 58.0858 17.8166 0.0000 0.0000 0.0000
# 3 60.7334 17.8166 130.3282 0.0000 0.0000 0.0000
# 4 0.0000 0.0000 0.0000 -9.3855 0.0000 0.0000
# 5 0.0000 0.0000 0.0000 0.0000 4.0987 0.0000
# 6 0.0000 0.0000 0.0000 0.0000 0.0000 22.5401
#
#
#
# Elastic Compliance Matrix: (Units=1/GPa)
#
#
# Indices 1 2 3 4 5 6 
#
# 1 0.012535 -0.003378 -0.005380 0.000000 0.000000 0.000000
# 2 -0.003378 0.018880 -0.001007 0.000000 0.000000 0.000000
# 3 -0.005380 -0.001007 0.010317 0.000000 0.000000 0.000000
# 4 0.000000 0.000000 0.000000 -0.106548 0.000000 0.000000
# 5 0.000000 0.000000 0.000000 0.000000 0.243979 0.000000
# 6 0.000000 0.000000 0.000000 0.000000 0.000000 0.044365
#
#
# Mechanical properties :
#
#
# Convention : Reuss Voigt Hill
#
# Bulk Modulus (GPa) = 45.03850 56.02645 50.53247
# Shear Modulus (GPa) = 19.96331 16.69624 18.32977
#
# Velocity S-wave (km/s) = 3.70033 3.38403 3.54571
# Velocity P-wave (km/s) = 7.01054 7.32778 7.17091
#
# Compressibility (1/GPa) = 0.02220323
#
# Stress axis : x y z
#
# Youngs Moduli (GPa) = 79.77651 52.96621 96.92347
#
# Poissons Ratio (x) = 0.17894 0.52140
# Poissons Ratio (y) = 0.26952 0.09757
# Poissons Ratio (z) = 0.42916 0.05332
#
# Static dielectric constant tensor:
#      x y z
#    x 1.445600 0.000000 0.000000 
#    y 0.000000 1.562710 0.000000 
#    z 0.000000 0.000000 1.503880 
# 
# From -- ./inp_files/9396.got.cif
#   From: 2010.05.17/outbox.cif.g08.bks.cpg/sg47_5_cif.got.tgz:9396.got - 2010.06.03 20:15:42.
