data_PCOD9388133
_publ_section_title
;
Structure prediction by ZEFSAII (Michael W. Deem and Ramdas Pophale) SiO2 
 PCOD9388133
Probable space group: P M M M
;
_chemical_formula_sum "Si O2"
_cell_formula_units_Z 37
_cell_length_a 14.682050
_cell_length_b 7.512628
_cell_length_c 17.235633
_cell_angle_alpha 90.000000
_cell_angle_beta 90.000000
_cell_angle_gamma 90.000000
_cell_volume 1901.103762
_symmetry_space_group_name_H-M "P M M M"
_symmetry_group_IT_number 47
_symmetry_cell_setting 'orthorhombic'
loop_
_space_group_symop_operation_xyz
x,y,z
-x,-y,z
x,-y,-z
-x,y,-z
-x,-y,-z
x,y,-z
-x,y,z
x,-y,z
loop_
_atom_site_type_symbol
_atom_site_label
_atom_site_fract_x
_atom_site_fract_y
_atom_site_fract_z
Si Si1 0.168143 0.717670 0.500000
Si Si2 0.000000 0.000000 0.500000
Si Si3 0.397561 0.211495 0.783361
Si Si4 0.244689 0.713096 0.334049
Si Si5 0.743119 0.786346 0.087593
Si Si6 0.897092 0.713334 0.794274
O O1 0.149122 0.500000 0.500000
O O2 0.224587 0.761264 0.422209
O O3 0.079434 0.841503 0.500000
O O4 0.500000 0.283589 0.781065
O O5 0.340113 0.235771 0.704736
O O6 0.334601 0.283027 0.853572
O O7 0.404181 0.000000 0.795776
O O8 0.240853 0.500000 0.330332
O O9 0.164329 0.782304 0.277180
O O10 0.839784 0.749725 0.128194
O O11 0.733558 0.000000 0.084443
O O12 0.736744 0.718020 0.000000
O O13 0.902386 0.500000 0.786003
O O14 0.000000 0.782743 0.794777
#
# Coordination Sequence:
#
# PCOD9388133 Si02
#       6
#     4   1   8   8   8   8
#     4  10  23  41  58  85 122 152 190 238 274 322
#     4  12  26  36  60  94 114 160 192 228 284 330
#     4   9  18  33  54  78 103 134 175 224 274 329
#     4   9  19  36  56  76 106 142 176 223 274 321
#     4   9  18  32  48  70 101 134 170 216 269 323
#     4   9  18  32  50  71  96 134 176 213 262 318
#
# _framework density 19.462378999999999
#
# number of rings (size 3 to 8) (size 9 to 14) (size 15 to 20)
#    0.000    2.811    0.000    0.162    3.027    2.162 
#    0.000    4.865    0.000    3.243    0.000    6.054 
#    0.000    0.000    0.000    0.000    0.000    0.000 
#
# Total GULP energy -206026.295136 kJ/mol
# GULP energy per Si atom -5568.278247 kJ/mol
# Density = 1.941808 g / cm^3
# Si number density = 19.462379 Si / 1000 Ang^3
#
#
#
# Elastic Constant Matrix: (Units=GPa)
#
#
# Indices 1 2 3 4 5 6 
#
# 1 181.1310 9.3639 85.1314 0.0000 0.0000 0.0000
# 2 9.3639 60.2928 11.4201 0.0000 0.0000 0.0000
# 3 85.1314 11.4201 153.5460 0.0000 0.0000 0.0000
# 4 0.0000 0.0000 0.0000 6.7088 0.0000 0.0000
# 5 0.0000 0.0000 0.0000 0.0000 -1.3664 0.0000
# 6 0.0000 0.0000 0.0000 0.0000 0.0000 51.9050
#
#
#
# Elastic Compliance Matrix: (Units=1/GPa)
#
#
# Indices 1 2 3 4 5 6 
#
# 1 0.007475 -0.000381 -0.004116 0.000000 0.000000 0.000000
# 2 -0.000381 0.016842 -0.001041 0.000000 0.000000 0.000000
# 3 -0.004116 -0.001041 0.008872 0.000000 0.000000 0.000000
# 4 0.000000 0.000000 0.000000 0.149059 0.000000 0.000000
# 5 0.000000 0.000000 0.000000 0.000000 -0.731870 0.000000
# 6 0.000000 0.000000 0.000000 0.000000 0.000000 0.019266
#
#
# Mechanical properties :
#
#
# Convention : Reuss Voigt Hill
#
# Bulk Modulus (GPa) = 45.22383 67.42231 56.32307
# Shear Modulus (GPa) = -9.76739 30.71977 10.47619
#
# Velocity S-wave (km/s) = -2.24265 3.97724 2.32260
# Velocity P-wave (km/s) = 4.07198 7.47053 6.01622
#
# Compressibility (1/GPa) = 0.02211224
#
# Stress axis : x y z
#
# Youngs Moduli (GPa) = 133.77646 59.37482 112.71058
#
# Poissons Ratio (x) = 0.02264 0.46393
# Poissons Ratio (y) = 0.05101 0.11736
# Poissons Ratio (z) = 0.55064 0.06182
#
# Static dielectric constant tensor:
#      x y z
#    x 1.668580 0.000000 0.000000 
#    y 0.000000 1.738350 0.000000 
#    z 0.000000 0.000000 1.675420 
# 
# From -- ./inp_files/20585.got.cif
#   From: 2010.05.17/outbox.cif.g08.bks.cpg/sg47_11_cif.got.tgz:20585.got - 2010.06.03 20:15:42.
