data_PCOD9388958
_publ_section_title
;
Structure prediction by ZEFSAII (Michael W. Deem and Ramdas Pophale) SiO2 
 PCOD9388958
Probable space group: P M M M
;
_chemical_formula_sum "Si O2"
_cell_formula_units_Z 52
_cell_length_a 9.390882
_cell_length_b 7.336502
_cell_length_c 35.461615
_cell_angle_alpha 90.000000
_cell_angle_beta 90.000000
_cell_angle_gamma 90.000000
_cell_volume 2443.171391
_symmetry_space_group_name_H-M "P M M M"
_symmetry_group_IT_number 47
_symmetry_cell_setting 'orthorhombic'
loop_
_space_group_symop_operation_xyz
x,y,z
-x,-y,z
x,-y,-z
-x,y,-z
-x,-y,-z
x,y,-z
-x,y,z
x,-y,z
loop_
_atom_site_type_symbol
_atom_site_label
_atom_site_fract_x
_atom_site_fract_y
_atom_site_fract_z
Si Si1 0.834426 0.278068 0.041496
Si Si2 0.335484 0.281578 0.803576
Si Si3 0.335721 0.777748 0.425643
Si Si4 0.337503 0.215266 0.720758
Si Si5 0.333656 0.721911 0.885334
Si Si6 0.835530 0.777620 0.500000
Si Si7 0.163771 0.777189 0.351350
O O1 0.829601 0.500000 0.041784
O O2 0.748881 0.213682 0.077853
O O3 0.000000 0.226865 0.044424
O O4 0.781070 0.221059 0.000000
O O5 0.500000 0.216606 0.802330
O O6 0.338685 0.500000 0.805168
O O7 0.273585 0.236086 0.762763
O O8 0.276096 0.219933 0.844079
O O9 0.500000 0.719235 0.426455
O O10 0.248643 0.720428 0.462579
O O11 0.254927 0.721285 0.387683
O O12 0.336821 0.000000 0.425765
O O13 0.500000 0.289811 0.720246
O O14 0.240261 0.285418 0.687005
O O15 0.350122 0.000000 0.714362
O O16 0.500000 0.771508 0.887397
O O17 0.327957 0.500000 0.885944
O O18 0.000000 0.719551 0.500000
O O19 0.836467 0.000000 0.500000
O O20 0.000000 0.719043 0.353725
O O21 0.162495 0.000000 0.351229
#
# Coordination Sequence:
#
# PCOD9388958 Si02
#       7
#     8   8   8   8   8   4   8
#     4   8  13  20  29  43  66  94 119 144 178 218
#     4   8  14  25  40  57  78 103 128 156 193 233
#     4   9  15  22  32  46  65  91 125 161 193 229
#     4   9  16  26  41  59  76  97 129 164 193 226
#     4   8  13  21  33  48  66  91 122 150 177 216
#     4   9  15  21  29  43  65  93 124 157 194 235
#     4   9  16  25  36  50  70  96 124 156 196 236
#
# _framework density 21.283811
#
# number of rings (size 3 to 8) (size 9 to 14) (size 15 to 20)
#    0.000    3.462    0.000    2.538    0.000    4.923 
#    0.000    2.308    0.000    1.385    0.000    0.000 
#    0.000    0.615    0.000    8.385    0.000   24.000 
#
# Total GULP energy -289976.230415 kJ/mol
# GULP energy per Si atom -5576.465970 kJ/mol
# Density = 2.123537 g / cm^3
# Si number density = 21.283811 Si / 1000 Ang^3
#
#
#
# Elastic Constant Matrix: (Units=GPa)
#
#
# Indices 1 2 3 4 5 6 
#
# 1 128.6568 4.4026 125.0233 0.0000 0.0000 0.0000
# 2 4.4026 80.1853 4.0514 0.0000 0.0000 0.0000
# 3 125.0233 4.0514 277.5314 0.0000 0.0000 0.0000
# 4 0.0000 0.0000 0.0000 4.9175 0.0000 0.0000
# 5 0.0000 0.0000 0.0000 0.0000 -49.8573 0.0000
# 6 0.0000 0.0000 0.0000 0.0000 0.0000 -12.6292
#
#
#
# Elastic Compliance Matrix: (Units=1/GPa)
#
#
# Indices 1 2 3 4 5 6 
#
# 1 0.013840 -0.000445 -0.006228 0.000000 0.000000 0.000000
# 2 -0.000445 0.012495 0.000018 0.000000 0.000000 0.000000
# 3 -0.006228 0.000018 0.006409 0.000000 0.000000 0.000000
# 4 0.000000 0.000000 0.000000 0.203354 0.000000 0.000000
# 5 0.000000 0.000000 0.000000 0.000000 -0.020057 0.000000
# 6 0.000000 0.000000 0.000000 0.000000 0.000000 -0.079182
#
#
# Mechanical properties :
#
#
# Convention : Reuss Voigt Hill
#
# Bulk Modulus (GPa) = 51.45917 83.70311 67.58114
# Shear Modulus (GPa) = 31.91900 12.01263 21.96582
#
# Velocity S-wave (km/s) = 3.87678 2.37829 3.21603
# Velocity P-wave (km/s) = 6.65352 6.85231 6.75365
#
# Compressibility (1/GPa) = 0.01943288
#
# Stress axis : x y z
#
# Youngs Moduli (GPa) = 72.25289 80.03428 156.03824
#
# Poissons Ratio (x) = 0.03563 0.97186
# Poissons Ratio (y) = 0.03217 -0.00283
# Poissons Ratio (z) = 0.45001 -0.00145
#
# Static dielectric constant tensor:
#      x y z
#    x 1.711850 0.000000 0.000000 
#    y 0.000000 1.932260 0.000000 
#    z 0.000000 0.000000 1.773650 
# 
# From -- ./inp_files/34273.got.cif
#   From: 2010.05.17/outbox.cif.g08.bks.cpg/sg47_18_cif.got.tgz:34273.got - 2010.06.03 20:15:42.
