data_PCOD9388397
_publ_section_title
;
Structure prediction by ZEFSAII (Michael W. Deem and Ramdas Pophale) SiO2 
 PCOD9388397
Probable space group: P M M M
;
_chemical_formula_sum "Si O2"
_cell_formula_units_Z 48
_cell_length_a 7.544637
_cell_length_b 39.315761
_cell_length_c 7.886825
_cell_angle_alpha 90.000000
_cell_angle_beta 90.000000
_cell_angle_gamma 90.000000
_cell_volume 2339.414837
_symmetry_space_group_name_H-M "P M M M"
_symmetry_group_IT_number 47
_symmetry_cell_setting 'orthorhombic'
loop_
_space_group_symop_operation_xyz
x,y,z
-x,-y,z
x,-y,-z
-x,y,-z
-x,-y,-z
x,y,-z
-x,y,z
x,-y,z
loop_
_atom_site_type_symbol
_atom_site_label
_atom_site_fract_x
_atom_site_fract_y
_atom_site_fract_z
Si Si1 0.787550 0.711018 0.308532
Si Si2 0.207634 0.412394 0.000000
Si Si3 0.287632 0.210819 0.308577
Si Si4 0.283032 0.086149 0.000000
Si Si5 0.712494 0.461714 0.309638
Si Si6 0.717510 0.835604 0.000000
Si Si7 0.283881 0.038855 0.692641
Si Si8 0.781672 0.664376 0.000000
O O1 0.718691 0.705409 0.500000
O O2 0.749138 0.750069 0.260588
O O3 0.723349 0.684875 0.167049
O O4 0.000000 0.707588 0.315534
O O5 0.248518 0.434463 0.833835
O O6 0.283985 0.374393 0.000000
O O7 0.000000 0.407255 0.000000
O O8 0.218544 0.205374 0.500000
O O9 0.500000 0.207058 0.315639
O O10 0.222729 0.184810 0.166772
O O11 0.226816 0.125246 0.000000
O O12 0.225267 0.065482 0.166467
O O13 0.500000 0.086043 0.000000
O O14 0.776631 0.453165 0.500000
O O15 0.500000 0.463656 0.318103
O O16 0.776567 0.500000 0.266379
O O17 0.500000 0.835222 0.000000
O O18 0.228338 0.046741 0.500000
O O19 0.500000 0.039076 0.693440
O O20 0.230580 0.000000 0.732747
O O21 0.000000 0.664858 0.000000
#
# Coordination Sequence:
#
# PCOD9388397 Si02
#       8
#     8   4   8   4   8   4   8   4
#     4   9  17  31  51  69  85 113 154 190 217 257
#     4  11  22  33  50  79 110 135 160 198 250 299
#     4   9  17  29  44  62  85 110 137 175 220 258
#     4   9  15  21  30  44  63  90 125 162 199 243
#     4   9  19  37  58  76  98 134 176 211 243 284
#     4   9  17  26  36  53  77 106 136 166 208 261
#     4   8  13  20  29  41  58  83 119 164 206 237
#     4   9  19  33  47  68  98 127 151 180 227 281
#
# _framework density 20.517951
#
# number of rings (size 3 to 8) (size 9 to 14) (size 15 to 20)
#    0.000    3.000    0.000    2.250    0.000    4.000 
#    0.000    7.500    0.000    2.000    0.000    0.000 
#    0.000    0.000    0.000    0.000    0.000    6.667 
#
# Total GULP energy -267843.989078 kJ/mol
# GULP energy per Si atom -5580.083106 kJ/mol
# Density = 2.047125 g / cm^3
# Si number density = 20.517951 Si / 1000 Ang^3
#
#
#
# Elastic Constant Matrix: (Units=GPa)
#
#
# Indices 1 2 3 4 5 6 
#
# 1 48.5102 4.0311 6.4768 0.0000 0.0000 0.0000
# 2 4.0311 213.8645 167.6946 0.0000 0.0000 0.0000
# 3 6.4768 167.6946 182.6813 0.0000 0.0000 0.0000
# 4 0.0000 0.0000 0.0000 -27.0128 0.0000 0.0000
# 5 0.0000 0.0000 0.0000 0.0000 13.4383 0.0000
# 6 0.0000 0.0000 0.0000 0.0000 0.0000 9.7929
#
#
#
# Elastic Compliance Matrix: (Units=1/GPa)
#
#
# Indices 1 2 3 4 5 6 
#
# 1 0.020739 0.000662 -0.001343 0.000000 0.000000 0.000000
# 2 0.000662 0.016708 -0.015361 0.000000 0.000000 0.000000
# 3 -0.001343 -0.015361 0.019622 0.000000 0.000000 0.000000
# 4 0.000000 0.000000 0.000000 -0.037020 0.000000 0.000000
# 5 0.000000 0.000000 0.000000 0.000000 0.074414 0.000000
# 6 0.000000 0.000000 0.000000 0.000000 0.000000 0.102114
#
#
# Mechanical properties :
#
#
# Convention : Reuss Voigt Hill
#
# Bulk Modulus (GPa) = 40.02340 89.05122 64.53731
# Shear Modulus (GPa) = 21.09791 17.03392 19.06591
#
# Velocity S-wave (km/s) = 3.21014 2.88444 3.05164
# Velocity P-wave (km/s) = 5.76965 7.38845 6.62865
#
# Compressibility (1/GPa) = 0.02498539
#
# Stress axis : x y z
#
# Youngs Moduli (GPa) = 48.21940 59.85116 50.96217
#
# Poissons Ratio (x) = -0.03965 0.06846
# Poissons Ratio (y) = -0.03195 0.78283
# Poissons Ratio (z) = 0.06478 0.91937
#
# Static dielectric constant tensor:
#      x y z
#    x 1.799560 0.000000 0.000000 
#    y 0.000000 1.696870 0.000000 
#    z 0.000000 0.000000 1.830940 
# 
# From -- ./inp_files/2839.got.cif
#   From: 2010.05.17/outbox.cif.g08.bks.cpg/sg47_2_cif.got.tgz:2839.got - 2010.06.03 20:15:42.
