data_PCOD9388778
_publ_section_title
;
Structure prediction by ZEFSAII (Michael W. Deem and Ramdas Pophale) SiO2 
 PCOD9388778
Probable space group: P M M M
;
_chemical_formula_sum "Si O2"
_cell_formula_units_Z 52
_cell_length_a 34.492446
_cell_length_b 7.551209
_cell_length_c 10.245776
_cell_angle_alpha 90.000000
_cell_angle_beta 90.000000
_cell_angle_gamma 90.000000
_cell_volume 2668.611422
_symmetry_space_group_name_H-M "P M M M"
_symmetry_group_IT_number 47
_symmetry_cell_setting 'orthorhombic'
loop_
_space_group_symop_operation_xyz
x,y,z
-x,-y,z
x,-y,-z
-x,y,-z
-x,-y,-z
x,y,-z
-x,y,z
x,-y,z
loop_
_atom_site_type_symbol
_atom_site_label
_atom_site_fract_x
_atom_site_fract_y
_atom_site_fract_z
Si Si1 0.697051 0.783630 0.150025
Si Si2 0.456657 0.287726 0.352840
Si Si3 0.150160 0.287763 0.351588
Si Si4 0.000000 0.704279 0.158518
Si Si5 0.390085 0.788277 0.853527
Si Si6 0.915051 0.717488 0.849076
Si Si7 0.761458 0.212498 0.351832
O O1 0.653182 0.725906 0.183880
O O2 0.729444 0.720469 0.250786
O O3 0.697630 0.000000 0.152525
O O4 0.704764 0.731739 0.000000
O O5 0.447973 0.222986 0.500000
O O6 0.500000 0.223836 0.316163
O O7 0.458717 0.500000 0.359624
O O8 0.423440 0.247903 0.249787
O O9 0.144932 0.219780 0.500000
O O10 0.145934 0.500000 0.356877
O O11 0.118527 0.222792 0.248400
O O12 0.194378 0.250318 0.311328
O O13 0.041984 0.779590 0.194418
O O14 0.000000 0.500000 0.203538
O O15 0.000000 0.702467 0.000000
O O16 0.387203 0.000000 0.862254
O O17 0.399091 0.721599 0.000000
O O18 0.915985 0.500000 0.848855
O O19 0.908439 0.769548 0.000000
O O20 0.756294 0.280333 0.500000
O O21 0.757441 0.000000 0.356978
#
# Coordination Sequence:
#
# PCOD9388778 Si02
#       7
#     8   8   8   4   8   8   8
#     4   8  15  29  47  66  89 114 140 176 219 256
#     4   9  19  35  51  68  94 127 160 192 225 263
#     4   9  17  28  40  57  84 111 132 164 211 250
#     4   7  10  18  33  53  76 101 130 164 200 239
#     4   9  18  32  50  73  98 121 148 186 231 275
#     4   8  13  22  37  56  78 105 135 165 200 245
#     4   9  17  29  45  63  82 109 145 176 203 246
#
# _framework density 19.485789
#
# number of rings (size 3 to 8) (size 9 to 14) (size 15 to 20)
#    0.000    3.462    0.000    2.308    0.000    2.462 
#    0.000    5.000    0.000    5.077    0.000    0.538 
#    0.000    4.308    0.000    0.000    0.000    0.000 
#
# Total GULP energy -289717.481791 kJ/mol
# GULP energy per Si atom -5571.490034 kJ/mol
# Density = 1.944144 g / cm^3
# Si number density = 19.485789 Si / 1000 Ang^3
#
#
#
# Elastic Constant Matrix: (Units=GPa)
#
#
# Indices 1 2 3 4 5 6 
#
# 1 225.6362 4.9777 149.8667 0.0000 0.0000 0.0000
# 2 4.9777 44.2649 5.1837 0.0000 0.0000 0.0000
# 3 149.8667 5.1837 126.2041 0.0000 0.0000 0.0000
# 4 0.0000 0.0000 0.0000 10.4595 0.0000 0.0000
# 5 0.0000 0.0000 0.0000 0.0000 91.1196 0.0000
# 6 0.0000 0.0000 0.0000 0.0000 0.0000 15.9067
#
#
#
# Elastic Compliance Matrix: (Units=1/GPa)
#
#
# Indices 1 2 3 4 5 6 
#
# 1 0.020991 0.000561 -0.024950 0.000000 0.000000 0.000000
# 2 0.000561 0.022715 -0.001600 0.000000 0.000000 0.000000
# 3 -0.024950 -0.001600 0.037617 0.000000 0.000000 0.000000
# 4 0.000000 0.000000 0.000000 0.095607 0.000000 0.000000
# 5 0.000000 0.000000 0.000000 0.000000 0.010975 0.000000
# 6 0.000000 0.000000 0.000000 0.000000 0.000000 0.062867
#
#
# Mechanical properties :
#
#
# Convention : Reuss Voigt Hill
#
# Bulk Modulus (GPa) = 34.07442 79.57348 56.82395
# Shear Modulus (GPa) = 15.99841 39.23565 27.61703
#
# Velocity S-wave (km/s) = 2.86847 4.49213 3.76878
# Velocity P-wave (km/s) = 5.33813 8.23596 6.93998
#
# Compressibility (1/GPa) = 0.02934753
#
# Stress axis : x y z
#
# Youngs Moduli (GPa) = 47.63884 44.02290 26.58341
#
# Poissons Ratio (x) = -0.02471 0.66326
# Poissons Ratio (y) = -0.02674 0.04252
# Poissons Ratio (z) = 1.18859 0.07042
#
# Static dielectric constant tensor:
#      x y z
#    x 1.678430 0.000000 0.000000 
#    y 0.000000 1.757020 0.000000 
#    z 0.000000 0.000000 1.667970 
# 
# From -- ./inp_files/14135.got.cif
#   From: 2010.05.17/outbox.cif.g08.bks.cpg/sg47_8_cif.got.tgz:14135.got - 2010.06.03 20:15:42.
