data_PCOD9388846
_publ_section_title
;
Structure prediction by ZEFSAII (Michael W. Deem and Ramdas Pophale) SiO2 
 PCOD9388846
Probable space group: P M M M
;
_chemical_formula_sum "Si O2"
_cell_formula_units_Z 64
_cell_length_a 14.583002
_cell_length_b 29.595400
_cell_length_c 7.328590
_cell_angle_alpha 90.000000
_cell_angle_beta 90.000000
_cell_angle_gamma 90.000000
_cell_volume 3162.944527
_symmetry_space_group_name_H-M "P M M M"
_symmetry_group_IT_number 47
_symmetry_cell_setting 'orthorhombic'
loop_
_space_group_symop_operation_xyz
x,y,z
-x,-y,z
x,-y,-z
-x,y,-z
-x,-y,-z
x,y,-z
-x,y,z
x,-y,z
loop_
_atom_site_type_symbol
_atom_site_label
_atom_site_fract_x
_atom_site_fract_y
_atom_site_fract_z
Si Si1 0.782975 0.138773 0.215608
Si Si2 0.604217 0.186652 0.222222
Si Si3 0.895984 0.225261 0.222742
Si Si4 0.700618 0.448268 0.777000
Si Si5 0.282787 0.724309 0.221683
Si Si6 0.397654 0.360002 0.222553
Si Si7 0.097907 0.445499 0.217076
Si Si8 0.896842 0.949130 0.718475
O O1 0.680565 0.150110 0.283140
O O2 0.854618 0.176797 0.282916
O O3 0.823324 0.089193 0.240351
O O4 0.778108 0.146625 0.000000
O O5 0.500000 0.180751 0.286083
O O6 0.648233 0.235034 0.272910
O O7 0.600416 0.185832 0.000000
O O8 0.819645 0.261895 0.278995
O O9 0.000000 0.232183 0.284325
O O10 0.898167 0.225421 0.000000
O O11 0.684396 0.500000 0.718687
O O12 0.628423 0.410627 0.721274
O O13 0.802002 0.431998 0.715806
O O14 0.702248 0.449433 0.000000
O O15 0.323650 0.676850 0.282990
O O16 0.281440 0.723673 0.000000
O O17 0.500000 0.347448 0.279597
O O18 0.396634 0.359596 0.000000
O O19 0.097437 0.500000 0.237808
O O20 0.000000 0.428547 0.290285
O O21 0.097210 0.436291 0.000000
O O22 0.901523 0.951246 0.500000
O O23 0.000000 0.937003 0.783604
O O24 0.875391 0.000000 0.783457
#
# Coordination Sequence:
#
# PCOD9388846 Si02
#       8
#     8   8   8   8   8   8   8   8
#     4   9  16  25  41  64  83 102 133 170 203 234
#     4   8  13  22  37  56  76  95 117 152 197 238
#     4   8  13  21  33  50  72  91 106 135 181 226
#     4   8  13  19  24  30  40  55  81 119 159 197
#     4   8  13  20  29  42  60  82 105 128 166 224
#     4   9  15  20  25  32  44  65  93 124 159 205
#     4   7   9  14  23  30  34  42  59  89 132 178
#     4   9  18  31  44  59  83 114 141 164 196 238
#
# _framework density 20.234310000000001
#
# number of rings (size 3 to 8) (size 9 to 14) (size 15 to 20)
#    0.000    3.750    0.000    3.750    0.000    2.750 
#    0.000    2.500    0.000    4.500    0.000    2.625 
#    0.000    0.000    0.000    0.000    0.000    0.000 
#
# Total GULP energy -356550.215195 kJ/mol
# GULP energy per Si atom -5571.097112 kJ/mol
# Density = 2.018826 g / cm^3
# Si number density = 20.234310 Si / 1000 Ang^3
#
#
#
# Elastic Constant Matrix: (Units=GPa)
#
#
# Indices 1 2 3 4 5 6 
#
# 1 183.5524 89.1714 6.5074 0.0000 0.0000 0.0000
# 2 89.1714 117.3671 -1.2982 0.0000 0.0000 0.0000
# 3 6.5074 -1.2982 73.3401 0.0000 0.0000 0.0000
# 4 0.0000 0.0000 0.0000 -78.6434 0.0000 0.0000
# 5 0.0000 0.0000 0.0000 0.0000 -3.9307 0.0000
# 6 0.0000 0.0000 0.0000 0.0000 0.0000 27.6537
#
#
#
# Elastic Compliance Matrix: (Units=1/GPa)
#
#
# Indices 1 2 3 4 5 6 
#
# 1 0.008693 -0.006614 -0.000888 0.000000 0.000000 0.000000
# 2 -0.006614 0.013555 0.000827 0.000000 0.000000 0.000000
# 3 -0.000888 0.000827 0.013729 0.000000 0.000000 0.000000
# 4 0.000000 0.000000 0.000000 -0.012716 0.000000 0.000000
# 5 0.000000 0.000000 0.000000 0.000000 -0.254406 0.000000
# 6 0.000000 0.000000 0.000000 0.000000 0.000000 0.036162
#
#
# Mechanical properties :
#
#
# Convention : Reuss Voigt Hill
#
# Bulk Modulus (GPa) = 44.20016 62.55786 53.37901
# Shear Modulus (GPa) = -28.72059 7.67451 -10.52304
#
# Velocity S-wave (km/s) = -3.77158 1.94963 -2.28295
# Velocity P-wave (km/s) = 1.71031 6.00432 4.41458
#
# Compressibility (1/GPa) = 0.02262435
#
# Stress axis : x y z
#
# Youngs Moduli (GPa) = 115.03729 73.77484 72.84078
#
# Poissons Ratio (x) = 0.48797 0.06471
# Poissons Ratio (y) = 0.76089 -0.06023
# Poissons Ratio (z) = 0.10220 -0.06100
#
# Static dielectric constant tensor:
#      x y z
#    x 1.733870 0.000000 0.000000 
#    y 0.000000 1.688020 0.000000 
#    z 0.000000 0.000000 1.674410 
# 
# From -- ./inp_files/8283.got.cif
#   From: 2010.05.17/outbox.cif.g08.bks.cpg/sg47_5_cif.got.tgz:8283.got - 2010.06.03 20:15:42.
