data_PCOD9388815
_publ_section_title
;
Structure prediction by ZEFSAII (Michael W. Deem and Ramdas Pophale) SiO2 
 PCOD9388815
Probable space group: P M M M
;
_chemical_formula_sum "Si O2"
_cell_formula_units_Z 40
_cell_length_a 7.341106
_cell_length_b 30.347003
_cell_length_c 7.350395
_cell_angle_alpha 90.000000
_cell_angle_beta 90.000000
_cell_angle_gamma 90.000000
_cell_volume 1637.525157
_symmetry_space_group_name_H-M "P M M M"
_symmetry_group_IT_number 47
_symmetry_cell_setting 'orthorhombic'
loop_
_space_group_symop_operation_xyz
x,y,z
-x,-y,z
x,-y,-z
-x,y,-z
-x,-y,-z
x,y,-z
-x,y,z
x,-y,z
loop_
_atom_site_type_symbol
_atom_site_label
_atom_site_fract_x
_atom_site_fract_y
_atom_site_fract_z
Si Si1 0.221291 0.810095 0.716564
Si Si2 0.500000 0.550491 0.776981
Si Si3 0.219145 0.000000 0.719119
Si Si4 0.780694 0.905043 0.718935
Si Si5 0.204810 0.618921 0.784281
Si Si6 0.789546 0.715633 0.281590
O O1 0.259525 0.811129 0.500000
O O2 0.284719 0.857537 0.788701
O O3 0.286748 0.762505 0.785513
O O4 0.000000 0.809216 0.735346
O O5 0.500000 0.500000 0.718459
O O6 0.327313 0.579177 0.715813
O O7 0.500000 0.550209 0.000000
O O8 0.287055 0.952519 0.786678
O O9 0.246798 0.000000 0.500000
O O10 0.000000 0.000000 0.747854
O O11 0.751353 0.905011 0.500000
O O12 0.000000 0.905112 0.745884
O O13 0.288569 0.667717 0.759662
O O14 0.000000 0.618905 0.708136
O O15 0.191551 0.612805 0.000000
O O16 0.791278 0.719007 0.500000
O O17 0.000000 0.713427 0.217545
#
# Coordination Sequence:
#
# PCOD9388815 Si02
#       6
#     8   4   4   8   8   8
#     4   7   9  13  22  37  57  83 117 154 189 228
#     4   9  18  32  49  69  91 113 139 170 201 236
#     4   7   8   8  10  18  36  66 103 142 183 222
#     4   7   8   9  13  23  42  70 106 146 184 222
#     4   9  17  29  46  67  88 110 137 169 203 237
#     4   8  13  22  37  56  78 105 135 166 202 243
#
# _framework density 24.427106999999999
#
# number of rings (size 3 to 8) (size 9 to 14) (size 15 to 20)
#    0.000    4.200    0.000    3.600    0.000    0.400 
#    0.000    2.500    0.000    1.200    0.000    2.800 
#    0.000    0.000    0.000    0.900    0.000   30.800 
#
# Total GULP energy -222877.377152 kJ/mol
# GULP energy per Si atom -5571.934429 kJ/mol
# Density = 2.437151 g / cm^3
# Si number density = 24.427107 Si / 1000 Ang^3
#
#
#
# Elastic Constant Matrix: (Units=GPa)
#
#
# Indices 1 2 3 4 5 6 
#
# 1 99.0711 68.7125 3.8091 0.0000 0.0000 0.0000
# 2 68.7125 356.4864 9.6000 0.0000 0.0000 0.0000
# 3 3.8091 9.6000 88.2769 0.0000 0.0000 0.0000
# 4 0.0000 0.0000 0.0000 17.0539 0.0000 0.0000
# 5 0.0000 0.0000 0.0000 0.0000 -13.7640 0.0000
# 6 0.0000 0.0000 0.0000 0.0000 0.0000 128.5281
#
#
#
# Elastic Compliance Matrix: (Units=1/GPa)
#
#
# Indices 1 2 3 4 5 6 
#
# 1 0.011657 -0.002240 -0.000259 0.000000 0.000000 0.000000
# 2 -0.002240 0.003244 -0.000256 0.000000 0.000000 0.000000
# 3 -0.000259 -0.000256 0.011367 0.000000 0.000000 0.000000
# 4 0.000000 0.000000 0.000000 0.058638 0.000000 0.000000
# 5 0.000000 0.000000 0.000000 0.000000 -0.072653 0.000000
# 6 0.000000 0.000000 0.000000 0.000000 0.000000 0.007780
#
#
# Mechanical properties :
#
#
# Convention : Reuss Voigt Hill
#
# Bulk Modulus (GPa) = 48.17607 78.67528 63.42568
# Shear Modulus (GPa) = 154.02219 57.14445 105.58332
#
# Velocity S-wave (km/s) = 7.94926 4.84197 6.58162
# Velocity P-wave (km/s) = 10.19899 7.97105 9.15306
#
# Compressibility (1/GPa) = 0.02075719
#
# Stress axis : x y z
#
# Youngs Moduli (GPa) = 85.78323 308.28026 87.97369
#
# Poissons Ratio (x) = 0.69053 0.02282
# Poissons Ratio (y) = 0.19215 0.02253
# Poissons Ratio (z) = 0.02225 0.07895
#
# Static dielectric constant tensor:
#      x y z
#    x 1.707180 0.000000 0.000000 
#    y 0.000000 1.971730 0.000000 
#    z 0.000000 0.000000 2.022700 
# 
# From -- ./inp_files/15379.got.cif
#   From: 2010.05.17/outbox.cif.g08.bks.cpg/sg47_8_cif.got.tgz:15379.got - 2010.06.03 20:15:42.
