data_PCOD9388843
_publ_section_title
;
Structure prediction by ZEFSAII (Michael W. Deem and Ramdas Pophale) SiO2 
 PCOD9388843
Probable space group: P M M M
;
_chemical_formula_sum "Si O2"
_cell_formula_units_Z 56
_cell_length_a 7.459483
_cell_length_b 14.187065
_cell_length_c 30.713206
_cell_angle_alpha 90.000000
_cell_angle_beta 90.000000
_cell_angle_gamma 90.000000
_cell_volume 3250.322392
_symmetry_space_group_name_H-M "P M M M"
_symmetry_group_IT_number 47
_symmetry_cell_setting 'orthorhombic'
loop_
_space_group_symop_operation_xyz
x,y,z
-x,-y,z
x,-y,-z
-x,y,-z
-x,-y,-z
x,y,-z
-x,y,z
x,-y,z
loop_
_atom_site_type_symbol
_atom_site_label
_atom_site_fract_x
_atom_site_fract_y
_atom_site_fract_z
Si Si1 0.713170 0.207743 0.770794
Si Si2 0.215685 0.393796 0.722671
Si Si3 0.715935 0.112783 0.953167
Si Si4 0.284300 0.106044 0.316732
Si Si5 0.719201 0.110214 0.141895
Si Si6 0.786875 0.708214 0.364853
Si Si7 0.781462 0.609550 0.548591
O O1 0.500000 0.191753 0.771639
O O2 0.741749 0.317069 0.759518
O O3 0.783357 0.148665 0.729240
O O4 0.782005 0.170300 0.816870
O O5 0.280646 0.500000 0.729942
O O6 0.283319 0.351087 0.676669
O O7 0.000000 0.397417 0.719880
O O8 0.500000 0.124907 0.953596
O O9 0.779981 0.145845 0.905781
O O10 0.748133 0.000000 0.952947
O O11 0.783508 0.149432 0.000000
O O12 0.500000 0.102475 0.313919
O O13 0.241420 0.182553 0.353563
O O14 0.219183 0.000000 0.324050
O O15 0.500000 0.111898 0.141168
O O16 0.769016 0.000000 0.147220
O O17 0.717288 0.672079 0.411089
O O18 0.000000 0.691901 0.365620
O O19 0.722324 0.637718 0.500000
O O20 0.732489 0.500000 0.555570
O O21 0.000000 0.612567 0.548147
#
# Coordination Sequence:
#
# PCOD9388843 Si02
#       7
#     8   8   8   8   8   8   8
#     4   9  16  25  38  56  75  96 125 157 184 211
#     4   9  17  28  40  54  75 101 123 145 179 222
#     4   7   9  13  22  39  65  95 122 145 172 210
#     4   9  17  28  40  54  75 103 131 156 182 213
#     4   8  12  18  30  48  71  99 126 150 178 213
#     4   9  16  26  42  62  79  96 122 153 181 213
#     4   8  13  22  39  63  85 100 116 144 184 226
#
# _framework density 17.22906
#
# number of rings (size 3 to 8) (size 9 to 14) (size 15 to 20)
#    0.000    3.571    0.000    2.571    0.000    4.000 
#    0.000    0.000    0.000    3.429    0.000    4.000 
#    0.000    1.143    0.000   10.714    0.000    4.286 
#
# Total GULP energy -311801.922874 kJ/mol
# GULP energy per Si atom -5567.891480 kJ/mol
# Density = 1.718985 g / cm^3
# Si number density = 17.229060 Si / 1000 Ang^3
#
#
#
# Elastic Constant Matrix: (Units=GPa)
#
#
# Indices 1 2 3 4 5 6 
#
# 1 48.0234 -4.3225 7.2721 0.0000 0.0000 0.0000
# 2 -4.3225 105.2390 93.9235 0.0000 0.0000 0.0000
# 3 7.2721 93.9235 185.1852 0.0000 0.0000 0.0000
# 4 0.0000 0.0000 0.0000 22.5377 0.0000 0.0000
# 5 0.0000 0.0000 0.0000 0.0000 6.9874 0.0000
# 6 0.0000 0.0000 0.0000 0.0000 0.0000 10.1408
#
#
#
# Elastic Compliance Matrix: (Units=1/GPa)
#
#
# Indices 1 2 3 4 5 6 
#
# 1 0.021448 0.002983 -0.002355 0.000000 0.000000 0.000000
# 2 0.002983 0.017775 -0.009133 0.000000 0.000000 0.000000
# 3 -0.002355 -0.009133 0.010124 0.000000 0.000000 0.000000
# 4 0.000000 0.000000 0.000000 0.044370 0.000000 0.000000
# 5 0.000000 0.000000 0.000000 0.000000 0.143114 0.000000
# 6 0.000000 0.000000 0.000000 0.000000 0.000000 0.098612
#
#
# Mechanical properties :
#
#
# Convention : Reuss Voigt Hill
#
# Bulk Modulus (GPa) = 30.92303 59.13264 45.02784
# Shear Modulus (GPa) = 13.76526 24.03815 18.90170
#
# Velocity S-wave (km/s) = 2.82965 3.73930 3.31582
# Velocity P-wave (km/s) = 5.35379 7.28280 6.39148
#
# Compressibility (1/GPa) = 0.03233835
#
# Stress axis : x y z
#
# Youngs Moduli (GPa) = 46.62376 56.25799 98.77158
#
# Poissons Ratio (x) = -0.16781 0.23262
# Poissons Ratio (y) = -0.13907 0.90203
# Poissons Ratio (z) = 0.10980 0.51378
#
# Static dielectric constant tensor:
#      x y z
#    x 1.680340 0.000000 0.000000 
#    y 0.000000 1.553700 0.000000 
#    z 0.000000 0.000000 1.620720 
# 
# From -- ./inp_files/8124.got.cif
#   From: 2010.05.17/outbox.cif.g08.bks.cpg/sg47_5_cif.got.tgz:8124.got - 2010.06.03 20:15:42.
