data_PCOD9388706
_publ_section_title
;
Structure prediction by ZEFSAII (Michael W. Deem and Ramdas Pophale) SiO2 
 PCOD9388706
Probable space group: P M M M
;
_chemical_formula_sum "Si O2"
_cell_formula_units_Z 48
_cell_length_a 15.646760
_cell_length_b 8.827761
_cell_length_c 17.496967
_cell_angle_alpha 90.000000
_cell_angle_beta 90.000000
_cell_angle_gamma 90.000000
_cell_volume 2416.783574
_symmetry_space_group_name_H-M "P M M M"
_symmetry_group_IT_number 47
_symmetry_cell_setting 'orthorhombic'
loop_
_space_group_symop_operation_xyz
x,y,z
-x,-y,z
x,-y,-z
-x,y,-z
-x,-y,-z
x,y,-z
-x,y,z
x,-y,z
loop_
_atom_site_type_symbol
_atom_site_label
_atom_site_fract_x
_atom_site_fract_y
_atom_site_fract_z
Si Si1 0.904113 0.173687 0.591539
Si Si2 0.317533 0.327419 0.090971
Si Si3 0.000000 0.681903 0.909743
Si Si4 0.167243 0.823036 0.167174
Si Si5 0.400944 0.182656 0.410744
Si Si6 0.500000 0.684423 0.087435
Si Si7 0.756524 0.677683 0.678872
O O1 0.906540 0.172741 0.500000
O O2 0.831442 0.285518 0.618737
O O3 0.000000 0.211420 0.619559
O O4 0.884640 0.000000 0.616086
O O5 0.297436 0.500000 0.117521
O O6 0.242582 0.213089 0.107903
O O7 0.409287 0.276032 0.124148
O O8 0.328870 0.338047 0.000000
O O9 0.917046 0.742418 0.865187
O O10 0.000000 0.500000 0.908700
O O11 0.000000 0.728885 0.000000
O O12 0.206556 0.754653 0.244728
O O13 0.150439 0.000000 0.176136
O O14 0.383328 0.224066 0.500000
O O15 0.500000 0.224341 0.394296
O O16 0.331279 0.253796 0.354407
O O17 0.394809 0.000000 0.406229
O O18 0.500000 0.500000 0.083580
O O19 0.500000 0.743404 0.000000
O O20 0.745944 0.500000 0.690663
#
# Coordination Sequence:
#
# PCOD9388706 Si02
#       7
#     8   8   4   8   8   4   8
#     4   9  19  37  61  87 117 156 199 242 294 358
#     4   9  17  34  60  88 118 152 193 242 295 354
#     4  11  25  47  73  97 122 155 200 257 317 379
#     4  12  26  42  61  87 121 163 204 249 306 367
#     4   9  19  39  67  95 125 165 212 261 314 374
#     4   7  12  26  53  85 113 145 182 223 278 341
#     4  12  25  39  58  87 125 164 205 256 309 361
#
# _framework density 19.861108000000002
#
# number of rings (size 3 to 8) (size 9 to 14) (size 15 to 20)
#    0.000    2.000    0.000    6.250    1.167    6.333 
#    1.500    2.083    0.000    1.500    0.000    0.000 
#    0.000    0.000    0.000    0.000    0.000    0.000 
#
# Total GULP energy -267831.324886 kJ/mol
# GULP energy per Si atom -5579.819268 kJ/mol
# Density = 1.981590 g / cm^3
# Si number density = 19.861108 Si / 1000 Ang^3
#
#
#
# Elastic Constant Matrix: (Units=GPa)
#
#
# Indices 1 2 3 4 5 6 
#
# 1 159.4458 59.0304 62.7196 0.0000 0.0000 0.0000
# 2 59.0304 88.6533 43.4860 0.0000 0.0000 0.0000
# 3 62.7196 43.4860 79.7301 0.0000 0.0000 0.0000
# 4 0.0000 0.0000 0.0000 27.4502 0.0000 0.0000
# 5 0.0000 0.0000 0.0000 0.0000 22.7249 0.0000
# 6 0.0000 0.0000 0.0000 0.0000 0.0000 -2.4482
#
#
#
# Elastic Compliance Matrix: (Units=1/GPa)
#
#
# Indices 1 2 3 4 5 6 
#
# 1 0.009938 -0.003799 -0.005746 0.000000 0.000000 0.000000
# 2 -0.003799 0.016852 -0.006203 0.000000 0.000000 0.000000
# 3 -0.005746 -0.006203 0.020446 0.000000 0.000000 0.000000
# 4 0.000000 0.000000 0.000000 0.036430 0.000000 0.000000
# 5 0.000000 0.000000 0.000000 0.000000 0.044005 0.000000
# 6 0.000000 0.000000 0.000000 0.000000 0.000000 -0.408471
#
#
# Mechanical properties :
#
#
# Convention : Reuss Voigt Hill
#
# Bulk Modulus (GPa) = 63.53139 73.14456 68.33798
# Shear Modulus (GPa) = -20.48695 20.38493 -0.05101
#
# Velocity S-wave (km/s) = -3.21520 3.20718 -0.16043
# Velocity P-wave (km/s) = 4.27480 7.11496 5.86927
#
# Compressibility (1/GPa) = 0.01574025
#
# Stress axis : x y z
#
# Youngs Moduli (GPa) = 100.61892 59.33951 48.91038
#
# Poissons Ratio (x) = 0.22544 0.28104
# Poissons Ratio (y) = 0.38226 0.30338
# Poissons Ratio (z) = 0.57816 0.36808
#
# Static dielectric constant tensor:
#      x y z
#    x 1.732940 0.000000 0.000000 
#    y 0.000000 1.684440 0.000000 
#    z 0.000000 0.000000 1.653880 
# 
# From -- ./inp_files/28006.got.cif
#   From: 2010.05.17/outbox.cif.g08.bks.cpg/sg47_15_cif.got.tgz:28006.got - 2010.06.03 20:15:42.
