data_PCOD9388314
_publ_section_title
;
Structure prediction by ZEFSAII (Michael W. Deem and Ramdas Pophale) SiO2 
 PCOD9388314
Probable space group: P M M M
;
_chemical_formula_sum "Si O2"
_cell_formula_units_Z 36
_cell_length_a 24.080600
_cell_length_b 12.606968
_cell_length_c 7.651659
_cell_angle_alpha 90.000000
_cell_angle_beta 90.000000
_cell_angle_gamma 90.000000
_cell_volume 2322.916300
_symmetry_space_group_name_H-M "P M M M"
_symmetry_group_IT_number 47
_symmetry_cell_setting 'orthorhombic'
loop_
_space_group_symop_operation_xyz
x,y,z
-x,-y,z
x,-y,-z
-x,y,-z
-x,-y,-z
x,y,-z
-x,y,z
x,-y,z
loop_
_atom_site_type_symbol
_atom_site_label
_atom_site_fract_x
_atom_site_fract_y
_atom_site_fract_z
Si Si1 0.142470 0.809267 0.202394
Si Si2 0.437346 0.871028 0.200494
Si Si3 0.774523 0.870837 0.500000
Si Si4 0.062453 0.000000 0.788013
Si Si5 0.062420 0.623413 0.711403
Si Si6 0.354565 0.129068 0.500000
O O1 0.194092 0.824629 0.330712
O O2 0.110666 0.697852 0.217586
O O3 0.097151 0.896683 0.261691
O O4 0.157223 0.829611 0.000000
O O5 0.500000 0.839630 0.254459
O O6 0.389568 0.835211 0.331309
O O7 0.436926 0.000000 0.202487
O O8 0.428436 0.838285 0.000000
O O9 0.709736 0.841143 0.500000
O O10 0.779164 0.000000 0.500000
O O11 0.000000 0.000000 0.719985
O O12 0.059601 0.000000 0.000000
O O13 0.063899 0.629040 0.500000
O O14 0.068967 0.500000 0.760234
O O15 0.000000 0.657740 0.766912
O O16 0.355334 0.000000 0.500000
#
# Coordination Sequence:
#
# PCOD9388314 Si02
#       6
#     8   8   4   4   8   4
#     4  11  21  34  50  67  90 118 151 190 229 276
#     4   8  13  22  37  58  81 104 137 184 231 265
#     4  11  22  35  45  61  88 124 164 195 227 265
#     4   9  18  31  47  67  86 109 145 186 228 274
#     4   9  18  33  53  75  95 113 138 181 239 297
#     4   9  17  26  39  55  78 112 151 187 222 263
#
# _framework density 15.49776
#
# number of rings (size 3 to 8) (size 9 to 14) (size 15 to 20)
#    0.000    2.556    2.222    2.333    0.000    4.000 
#    0.000    3.889    0.000    0.000    0.000    0.000 
#    0.000    0.000    0.000    0.000    0.000    8.889 
#
# Total GULP energy -200666.483480 kJ/mol
# GULP energy per Si atom -5574.068986 kJ/mol
# Density = 1.546249 g / cm^3
# Si number density = 15.497760 Si / 1000 Ang^3
#
#
#
# Elastic Constant Matrix: (Units=GPa)
#
#
# Indices 1 2 3 4 5 6 
#
# 1 157.8888 30.3430 77.3529 0.0000 0.0000 0.0000
# 2 30.3430 35.9306 15.7351 0.0000 0.0000 0.0000
# 3 77.3529 15.7351 89.7260 0.0000 0.0000 0.0000
# 4 0.0000 0.0000 0.0000 5.2975 0.0000 0.0000
# 5 0.0000 0.0000 0.0000 0.0000 3.0452 0.0000
# 6 0.0000 0.0000 0.0000 0.0000 0.0000 10.9168
#
#
#
# Elastic Compliance Matrix: (Units=1/GPa)
#
#
# Indices 1 2 3 4 5 6 
#
# 1 0.012089 -0.006115 -0.009350 0.000000 0.000000 0.000000
# 2 -0.006115 0.033240 -0.000558 0.000000 0.000000 0.000000
# 3 -0.009350 -0.000558 0.019303 0.000000 0.000000 0.000000
# 4 0.000000 0.000000 0.000000 0.188769 0.000000 0.000000
# 5 0.000000 0.000000 0.000000 0.000000 0.328382 0.000000
# 6 0.000000 0.000000 0.000000 0.000000 0.000000 0.091602
#
#
# Mechanical properties :
#
#
# Convention : Reuss Voigt Hill
#
# Bulk Modulus (GPa) = 30.68641 58.93415 44.81028
# Shear Modulus (GPa) = 6.98039 14.52620 10.75329
#
# Velocity S-wave (km/s) = 2.12460 3.06487 2.63698
# Velocity P-wave (km/s) = 5.08548 7.11580 6.18453
#
# Compressibility (1/GPa) = 0.03258771
#
# Stress axis : x y z
#
# Youngs Moduli (GPa) = 82.71673 30.08466 51.80419
#
# Poissons Ratio (x) = 0.18396 0.48437
# Poissons Ratio (y) = 0.50580 0.02889
# Poissons Ratio (z) = 0.77340 0.01677
#
# Static dielectric constant tensor:
#      x y z
#    x 1.503840 0.000000 0.000000 
#    y 0.000000 1.501370 0.000000 
#    z 0.000000 0.000000 1.552550 
# 
# From -- ./inp_files/10614.got.cif
#   From: 2010.05.17/outbox.cif.g08.bks.cpg/sg47_6_cif.got.tgz:10614.got - 2010.06.03 20:15:42.
