data_PCOD9388799
_publ_section_title
;
Structure prediction by ZEFSAII (Michael W. Deem and Ramdas Pophale) SiO2 
 PCOD9388799
Probable space group: P M M M
;
_chemical_formula_sum "Si O2"
_cell_formula_units_Z 52
_cell_length_a 9.946546
_cell_length_b 7.538074
_cell_length_c 35.048032
_cell_angle_alpha 90.000000
_cell_angle_beta 90.000000
_cell_angle_gamma 90.000000
_cell_volume 2627.824326
_symmetry_space_group_name_H-M "P M M M"
_symmetry_group_IT_number 47
_symmetry_cell_setting 'orthorhombic'
loop_
_space_group_symop_operation_xyz
x,y,z
-x,-y,z
x,-y,-z
-x,y,-z
-x,-y,-z
x,y,-z
-x,y,z
x,-y,z
loop_
_atom_site_type_symbol
_atom_site_label
_atom_site_fract_x
_atom_site_fract_y
_atom_site_fract_z
Si Si1 0.152715 0.713119 0.957574
Si Si2 0.345010 0.282460 0.500000
Si Si3 0.344580 0.782252 0.277740
Si Si4 0.347982 0.787792 0.112075
Si Si5 0.336234 0.205618 0.805615
Si Si6 0.846861 0.711752 0.567853
Si Si7 0.152653 0.213177 0.654671
O O1 0.147590 0.500000 0.959134
O O2 0.252063 0.757532 0.923489
O O3 0.000000 0.776571 0.950653
O O4 0.194918 0.775368 0.000000
O O5 0.347366 0.500000 0.500000
O O6 0.500000 0.224622 0.500000
O O7 0.260263 0.223515 0.537003
O O8 0.500000 0.730631 0.283262
O O9 0.297792 0.719567 0.235691
O O10 0.251581 0.722236 0.312372
O O11 0.343104 0.000000 0.276819
O O12 0.500000 0.721319 0.105047
O O13 0.296947 0.717076 0.153216
O O14 0.357573 0.000000 0.116934
O O15 0.500000 0.206998 0.805933
O O16 0.291979 0.000000 0.805112
O O17 0.854829 0.500000 0.562717
O O18 0.804934 0.745373 0.611453
O O19 0.000000 0.781454 0.562657
O O20 0.000000 0.279954 0.659436
O O21 0.148746 0.000000 0.657819
#
# Coordination Sequence:
#
# PCOD9388799 Si02
#       7
#     8   4   8   8   8   8   8
#     4   9  19  35  50  63  85 120 157 188 221 267
#     4   9  17  29  46  67  86 104 134 177 214 242
#     4   8  13  23  41  62  84 114 147 173 203 249
#     4   9  17  29  47  72  97 117 143 185 231 270
#     4   7  11  22  40  62  88 115 141 171 210 255
#     4   9  17  30  47  63  81 110 143 169 201 252
#     4   9  17  28  42  63  89 112 138 176 214 243
#
# _framework density 19.788233000000002
#
# number of rings (size 3 to 8) (size 9 to 14) (size 15 to 20)
#    0.000    3.462    0.000    2.538    0.000    2.769 
#    0.000    3.462    0.000    6.000    0.000    4.308 
#    0.000    0.000    0.000    0.000    0.000    0.000 
#
# Total GULP energy -289663.958527 kJ/mol
# GULP energy per Si atom -5570.460741 kJ/mol
# Density = 1.974319 g / cm^3
# Si number density = 19.788233 Si / 1000 Ang^3
#
#
#
# Elastic Constant Matrix: (Units=GPa)
#
#
# Indices 1 2 3 4 5 6 
#
# 1 99.2114 5.2331 131.7283 0.0000 0.0000 0.0000
# 2 5.2331 47.1364 4.3863 0.0000 0.0000 0.0000
# 3 131.7283 4.3863 246.6461 0.0000 0.0000 0.0000
# 4 0.0000 0.0000 0.0000 25.3365 0.0000 0.0000
# 5 0.0000 0.0000 0.0000 0.0000 90.6948 0.0000
# 6 0.0000 0.0000 0.0000 0.0000 0.0000 10.0318
#
#
#
# Elastic Compliance Matrix: (Units=1/GPa)
#
#
# Indices 1 2 3 4 5 6 
#
# 1 0.034867 -0.002142 -0.018583 0.000000 0.000000 0.000000
# 2 -0.002142 0.021382 0.000764 0.000000 0.000000 0.000000
# 3 -0.018583 0.000764 0.013966 0.000000 0.000000 0.000000
# 4 0.000000 0.000000 0.000000 0.039469 0.000000 0.000000
# 5 0.000000 0.000000 0.000000 0.000000 0.011026 0.000000
# 6 0.000000 0.000000 0.000000 0.000000 0.000000 0.099683
#
#
# Mechanical properties :
#
#
# Convention : Reuss Voigt Hill
#
# Bulk Modulus (GPa) = 33.01289 75.07658 54.04474
# Shear Modulus (GPa) = 18.49031 41.98904 30.23967
#
# Velocity S-wave (km/s) = 3.06013 4.61143 3.91342
# Velocity P-wave (km/s) = 5.40418 8.14715 6.91307
#
# Compressibility (1/GPa) = 0.03029120
#
# Stress axis : x y z
#
# Youngs Moduli (GPa) = 28.68064 46.76884 71.60324
#
# Poissons Ratio (x) = 0.10016 1.33064
# Poissons Ratio (y) = 0.06142 -0.05467
# Poissons Ratio (z) = 0.53299 -0.03571
#
# Static dielectric constant tensor:
#      x y z
#    x 1.667430 0.000000 0.000000 
#    y 0.000000 1.760710 0.000000 
#    z 0.000000 0.000000 1.716480 
# 
# From -- ./inp_files/34309.got.cif
#   From: 2010.05.17/outbox.cif.g08.bks.cpg/sg47_18_cif.got.tgz:34309.got - 2010.06.03 20:15:42.
