data_PCOD9388766
_publ_section_title
;
Structure prediction by ZEFSAII (Michael W. Deem and Ramdas Pophale) SiO2 
 PCOD9388766
Probable space group: P M M M
;
_chemical_formula_sum "Si O2"
_cell_formula_units_Z 40
_cell_length_a 7.381680
_cell_length_b 20.745839
_cell_length_c 13.166500
_cell_angle_alpha 90.000000
_cell_angle_beta 90.000000
_cell_angle_gamma 90.000000
_cell_volume 2016.306550
_symmetry_space_group_name_H-M "P M M M"
_symmetry_group_IT_number 47
_symmetry_cell_setting 'orthorhombic'
loop_
_space_group_symop_operation_xyz
x,y,z
-x,-y,z
x,-y,-z
-x,y,-z
-x,-y,-z
x,y,-z
-x,y,z
x,-y,z
loop_
_atom_site_type_symbol
_atom_site_label
_atom_site_fract_x
_atom_site_fract_y
_atom_site_fract_z
Si Si1 0.722270 0.858854 0.382943
Si Si2 0.279733 0.253145 0.000000
Si Si3 0.709842 0.000000 0.376603
Si Si4 0.221409 0.500000 0.383408
Si Si5 0.216545 0.396422 0.778485
Si Si6 0.283582 0.755861 0.779138
Si Si7 0.791511 0.404684 0.000000
O O1 0.776228 0.848744 0.500000
O O2 0.500000 0.860260 0.382992
O O3 0.784621 0.930065 0.347641
O O4 0.784731 0.802061 0.309371
O O5 0.220005 0.224828 0.892332
O O6 0.500000 0.255155 0.000000
O O7 0.213184 0.326828 0.000000
O O8 0.500000 0.000000 0.344009
O O9 0.712336 0.000000 0.500000
O O10 0.282583 0.500000 0.500000
O O11 0.279473 0.561675 0.316741
O O12 0.000000 0.500000 0.386445
O O13 0.248669 0.320244 0.765076
O O14 0.000000 0.404900 0.784397
O O15 0.288014 0.420136 0.888943
O O16 0.500000 0.762957 0.779167
O O17 0.000000 0.426678 0.000000
#
# Coordination Sequence:
#
# PCOD9388766 Si02
#       7
#     8   4   4   4   8   8   4
#     4   8  13  21  35  56  79 102 129 161 194 225
#     4   8  14  24  37  54  79 108 127 144 186 240
#     4   7  10  18  32  51  76 102 127 157 192 226
#     4   9  18  31  44  58  79 107 132 154 190 239
#     4   9  17  29  44  60  78 101 130 162 193 227
#     4   9  16  26  41  60  81 103 128 159 193 229
#     4   8  14  25  42  62  77  91 122 166 198 217
#
# _framework density 19.838253999999999
#
# number of rings (size 3 to 8) (size 9 to 14) (size 15 to 20)
#    0.000    3.600    0.000    1.200    0.000    1.200 
#    0.000    2.500    0.000    1.200    0.000   11.900 
#    0.000    2.400    0.000   14.700    0.000   10.200 
#
# Total GULP energy -222746.884163 kJ/mol
# GULP energy per Si atom -5568.672104 kJ/mol
# Density = 1.979310 g / cm^3
# Si number density = 19.838254 Si / 1000 Ang^3
#
#
#
# Elastic Constant Matrix: (Units=GPa)
#
#
# Indices 1 2 3 4 5 6 
#
# 1 70.4947 0.4581 9.3074 0.0000 0.0000 0.0000
# 2 0.4581 135.8083 109.6353 0.0000 0.0000 0.0000
# 3 9.3074 109.6353 197.8218 0.0000 0.0000 0.0000
# 4 0.0000 0.0000 0.0000 -66.7805 0.0000 0.0000
# 5 0.0000 0.0000 0.0000 0.0000 -1.4348 0.0000
# 6 0.0000 0.0000 0.0000 0.0000 0.0000 3.3335
#
#
#
# Elastic Compliance Matrix: (Units=1/GPa)
#
#
# Indices 1 2 3 4 5 6 
#
# 1 0.014334 0.000898 -0.001172 0.000000 0.000000 0.000000
# 2 0.000898 0.013381 -0.007458 0.000000 0.000000 0.000000
# 3 -0.001172 -0.007458 0.009244 0.000000 0.000000 0.000000
# 4 0.000000 0.000000 0.000000 -0.014974 0.000000 0.000000
# 5 0.000000 0.000000 0.000000 0.000000 -0.696947 0.000000
# 6 0.000000 0.000000 0.000000 0.000000 0.000000 0.299985
#
#
# Mechanical properties :
#
#
# Convention : Reuss Voigt Hill
#
# Bulk Modulus (GPa) = 46.52402 71.43626 58.98014
# Shear Modulus (GPa) = -14.19057 6.00524 -4.09266
#
# Velocity S-wave (km/s) = -2.67744 1.74174 -1.43788
# Velocity P-wave (km/s) = 3.73422 6.33502 5.19985
#
# Compressibility (1/GPa) = 0.02149427
#
# Stress axis : x y z
#
# Youngs Moduli (GPa) = 69.76237 74.73178 108.18232
#
# Poissons Ratio (x) = -0.06709 0.12679
# Poissons Ratio (y) = -0.06263 0.80685
# Poissons Ratio (z) = 0.08176 0.55737
#
# Static dielectric constant tensor:
#      x y z
#    x 1.758310 0.000000 0.000000 
#    y 0.000000 1.693390 0.000000 
#    z 0.000000 0.000000 1.716440 
# 
# From -- ./inp_files/15148.got.cif
#   From: 2010.05.17/outbox.cif.g08.bks.cpg/sg47_8_cif.got.tgz:15148.got - 2010.06.03 20:15:42.
