data_PCOD9388160
_publ_section_title
;
Structure prediction by ZEFSAII (Michael W. Deem and Ramdas Pophale) SiO2 
 PCOD9388160
Probable space group: P M M M
;
_chemical_formula_sum "Si O2"
_cell_formula_units_Z 38
_cell_length_a 10.102966
_cell_length_b 22.726527
_cell_length_c 7.890990
_cell_angle_alpha 90.000000
_cell_angle_beta 90.000000
_cell_angle_gamma 90.000000
_cell_volume 1811.813360
_symmetry_space_group_name_H-M "P M M M"
_symmetry_group_IT_number 47
_symmetry_cell_setting 'orthorhombic'
loop_
_space_group_symop_operation_xyz
x,y,z
-x,-y,z
x,-y,-z
-x,y,-z
-x,-y,-z
x,y,-z
-x,y,z
x,-y,z
loop_
_atom_site_type_symbol
_atom_site_label
_atom_site_fract_x
_atom_site_fract_y
_atom_site_fract_z
Si Si1 0.703299 0.128875 0.809228
Si Si2 0.850653 0.432166 0.295181
Si Si3 0.650461 0.330691 0.200714
Si Si4 0.500000 0.153053 0.500000
Si Si5 0.340539 0.000000 0.704628
Si Si6 0.857125 0.231917 0.700018
O O1 0.612304 0.149077 0.651839
O O2 0.719683 0.059363 0.779204
O O3 0.829697 0.170611 0.791958
O O4 0.649856 0.137404 0.000000
O O5 0.851533 0.430539 0.500000
O O6 0.829047 0.500000 0.243256
O O7 0.735093 0.389214 0.236736
O O8 0.000000 0.414914 0.239279
O O9 0.500000 0.332004 0.270150
O O10 0.737709 0.276750 0.267180
O O11 0.641188 0.323584 0.000000
O O12 0.500000 0.000000 0.739932
O O13 0.329481 0.000000 0.500000
O O14 0.861705 0.221813 0.500000
O O15 0.000000 0.257338 0.752418
#
# Coordination Sequence:
#
# PCOD9388160 Si02
#       6
#     8   8   8   2   4   8
#     4  12  24  39  65  95 128 171 215 264 320 384
#     4   9  19  38  63  90 121 161 208 255 308 373
#     4  11  25  40  59  91 127 163 206 259 315 373
#     4  12  22  41  60  98 136 168 205 270 320 386
#     4  11  19  37  60  91 133 168 207 263 322 380
#     4  11  25  46  67  90 124 165 210 263 323 386
#
# _framework density 20.973462999999999
#
# number of rings (size 3 to 8) (size 9 to 14) (size 15 to 20)
#    0.000    1.158    3.158    3.158    1.474    7.579 
#    0.000    3.684    0.000    3.158    0.000    0.000 
#    0.000    0.000    0.000    0.000    0.000    0.000 
#
# Total GULP energy -211693.903433 kJ/mol
# GULP energy per Si atom -5570.892196 kJ/mol
# Density = 2.092573 g / cm^3
# Si number density = 20.973463 Si / 1000 Ang^3
#
#
#
# Elastic Constant Matrix: (Units=GPa)
#
#
# Indices 1 2 3 4 5 6 
#
# 1 161.1073 84.2927 35.0758 0.0000 0.0000 0.0000
# 2 84.2927 125.4487 22.6922 0.0000 0.0000 0.0000
# 3 35.0758 22.6922 124.1085 0.0000 0.0000 0.0000
# 4 0.0000 0.0000 0.0000 41.2607 0.0000 0.0000
# 5 0.0000 0.0000 0.0000 0.0000 75.1970 0.0000
# 6 0.0000 0.0000 0.0000 0.0000 0.0000 28.0061
#
#
#
# Elastic Compliance Matrix: (Units=1/GPa)
#
#
# Indices 1 2 3 4 5 6 
#
# 1 0.009882 -0.006345 -0.001633 0.000000 0.000000 0.000000
# 2 -0.006345 0.012318 -0.000459 0.000000 0.000000 0.000000
# 3 -0.001633 -0.000459 0.008603 0.000000 0.000000 0.000000
# 4 0.000000 0.000000 0.000000 0.024236 0.000000 0.000000
# 5 0.000000 0.000000 0.000000 0.000000 0.013298 0.000000
# 6 0.000000 0.000000 0.000000 0.000000 0.000000 0.035706
#
#
# Mechanical properties :
#
#
# Convention : Reuss Voigt Hill
#
# Bulk Modulus (GPa) = 71.79020 77.19843 74.49431
# Shear Modulus (GPa) = 39.82157 46.79968 43.31063
#
# Velocity S-wave (km/s) = 4.36209 4.72887 4.54918
# Velocity P-wave (km/s) = 7.72489 8.16724 7.94914
#
# Compressibility (1/GPa) = 0.01392948
#
# Stress axis : x y z
#
# Youngs Moduli (GPa) = 101.19227 81.18431 116.24031
#
# Poissons Ratio (x) = 0.51510 0.18980
# Poissons Ratio (y) = 0.64204 0.05336
# Poissons Ratio (z) = 0.16523 0.03726
#
# Static dielectric constant tensor:
#      x y z
#    x 1.792650 0.000000 0.000000 
#    y 0.000000 1.762780 0.000000 
#    z 0.000000 0.000000 1.749340 
# 
# From -- ./inp_files/1473.got.cif
#   From: 2010.05.17/outbox.cif.g08.bks.cpg/sg47_1_cif.got.tgz:1473.got - 2010.06.03 20:15:42.
