data_PCOD9388756
_publ_section_title
;
Structure prediction by ZEFSAII (Michael W. Deem and Ramdas Pophale) SiO2 
 PCOD9388756
Probable space group: P M M M
;
_chemical_formula_sum "Si O2"
_cell_formula_units_Z 36
_cell_length_a 10.597653
_cell_length_b 7.414184
_cell_length_c 23.369776
_cell_angle_alpha 90.000000
_cell_angle_beta 90.000000
_cell_angle_gamma 90.000000
_cell_volume 1836.232225
_symmetry_space_group_name_H-M "P M M M"
_symmetry_group_IT_number 47
_symmetry_cell_setting 'orthorhombic'
loop_
_space_group_symop_operation_xyz
x,y,z
-x,-y,z
x,-y,-z
-x,y,-z
-x,-y,-z
x,y,-z
-x,y,z
x,-y,z
loop_
_atom_site_type_symbol
_atom_site_label
_atom_site_fract_x
_atom_site_fract_y
_atom_site_fract_z
Si Si1 0.653253 0.714779 0.000000
Si Si2 0.500000 0.219793 0.565440
Si Si3 0.354886 0.785597 0.751547
Si Si4 0.000000 0.220592 0.566405
Si Si5 0.249892 0.779751 0.633179
Si Si6 0.354829 0.716523 0.122804
O O1 0.698763 0.783861 0.061928
O O2 0.677673 0.500000 0.000000
O O3 0.500000 0.736362 0.000000
O O4 0.500000 0.279153 0.500000
O O5 0.625760 0.275377 0.598342
O O6 0.500000 0.000000 0.565460
O O7 0.500000 0.713848 0.749072
O O8 0.271566 0.719599 0.698571
O O9 0.299578 0.756689 0.814977
O O10 0.365486 0.000000 0.744107
O O11 0.875651 0.279287 0.600679
O O12 0.000000 0.277264 0.500000
O O13 0.000000 0.000000 0.565685
O O14 0.246056 0.000000 0.633044
O O15 0.500000 0.782898 0.125907
O O16 0.359348 0.500000 0.118611
#
# Coordination Sequence:
#
# PCOD9388756 Si02
#       6
#     4   4   8   4   8   8
#     4   7  10  18  31  47  69  98 127 156 190 224
#     4   9  14  20  32  48  67  94 125 154 188 233
#     4   9  15  23  34  50  75 104 128 152 190 235
#     4   9  16  24  34  50  73 100 129 162 196 229
#     4   9  15  23  33  48  72 100 127 156 193 233
#     4   8  13  21  34  51  72  99 131 161 188 222
#
# _framework density 19.605363000000001
#
# number of rings (size 3 to 8) (size 9 to 14) (size 15 to 20)
#    0.000    3.444    1.111    2.000    0.000    2.667 
#    0.000    0.556    0.000    3.333    0.000    0.778 
#    0.000    6.222    0.000   11.111    0.000    4.000 
#
# Total GULP energy -200452.083854 kJ/mol
# GULP energy per Si atom -5568.113440 kJ/mol
# Density = 1.956074 g / cm^3
# Si number density = 19.605363 Si / 1000 Ang^3
#
#
#
# Elastic Constant Matrix: (Units=GPa)
#
#
# Indices 1 2 3 4 5 6 
#
# 1 98.2376 3.3058 84.6387 0.0000 0.0000 0.0000
# 2 3.3058 62.0380 4.9581 0.0000 0.0000 0.0000
# 3 84.6387 4.9581 267.2850 0.0000 0.0000 0.0000
# 4 0.0000 0.0000 0.0000 18.0184 0.0000 0.0000
# 5 0.0000 0.0000 0.0000 0.0000 15.4549 0.0000
# 6 0.0000 0.0000 0.0000 0.0000 0.0000 -6.2322
#
#
#
# Elastic Compliance Matrix: (Units=1/GPa)
#
#
# Indices 1 2 3 4 5 6 
#
# 1 0.014008 -0.000393 -0.004429 0.000000 0.000000 0.000000
# 2 -0.000393 0.016154 -0.000175 0.000000 0.000000 0.000000
# 3 -0.004429 -0.000175 0.005147 0.000000 0.000000 0.000000
# 4 0.000000 0.000000 0.000000 0.055499 0.000000 0.000000
# 5 0.000000 0.000000 0.000000 0.000000 0.064704 0.000000
# 6 0.000000 0.000000 0.000000 0.000000 0.000000 -0.160458
#
#
# Mechanical properties :
#
#
# Convention : Reuss Voigt Hill
#
# Bulk Modulus (GPa) = 39.50026 68.15175 53.82601
# Shear Modulus (GPa) = 370.75873 27.75877 199.25875
#
# Velocity S-wave (km/s) = 13.76668 3.76690 10.09235
# Velocity P-wave (km/s) = 16.51928 7.33189 12.77973
#
# Compressibility (1/GPa) = 0.02531629
#
# Stress axis : x y z
#
# Youngs Moduli (GPa) = 71.38723 61.90383 194.29093
#
# Poissons Ratio (x) = 0.02430 0.86042
# Poissons Ratio (y) = 0.02802 0.03407
# Poissons Ratio (z) = 0.31614 0.01086
#
# Static dielectric constant tensor:
#      x y z
#    x 1.637930 0.000000 0.000000 
#    y 0.000000 1.768950 0.000000 
#    z 0.000000 0.000000 1.754370 
# 
# From -- ./inp_files/3982.got.cif
#   From: 2010.05.17/outbox.cif.g08.bks.cpg/sg47_2_cif.got.tgz:3982.got - 2010.06.03 20:15:42.
