data_PCOD9388852
_publ_section_title
;
Structure prediction by ZEFSAII (Michael W. Deem and Ramdas Pophale) SiO2 
 PCOD9388852
Probable space group: P M M M
;
_chemical_formula_sum "Si O2"
_cell_formula_units_Z 44
_cell_length_a 7.388479
_cell_length_b 7.602846
_cell_length_c 33.083863
_cell_angle_alpha 90.000000
_cell_angle_beta 90.000000
_cell_angle_gamma 90.000000
_cell_volume 1858.435320
_symmetry_space_group_name_H-M "P M M M"
_symmetry_group_IT_number 47
_symmetry_cell_setting 'orthorhombic'
loop_
_space_group_symop_operation_xyz
x,y,z
-x,-y,z
x,-y,-z
-x,y,-z
-x,-y,-z
x,y,-z
-x,y,z
x,-y,z
loop_
_atom_site_type_symbol
_atom_site_label
_atom_site_fract_x
_atom_site_fract_y
_atom_site_fract_z
Si Si1 0.278391 0.702652 0.607914
Si Si2 0.720873 0.000000 0.546210
Si Si3 0.294479 0.290528 0.304955
Si Si4 0.283291 0.798607 0.782876
Si Si5 0.784144 0.201933 0.129830
Si Si6 0.215317 0.785934 0.956473
O O1 0.500000 0.704170 0.609671
O O2 0.223671 0.500000 0.601817
O O3 0.215238 0.769354 0.652238
O O4 0.223244 0.829679 0.571884
O O5 0.500000 0.000000 0.545583
O O6 0.781923 0.000000 0.500000
O O7 0.500000 0.217981 0.303188
O O8 0.306016 0.500000 0.309767
O O9 0.212169 0.262935 0.260630
O O10 0.500000 0.790621 0.780154
O O11 0.243868 0.712627 0.826311
O O12 0.221903 0.000000 0.786172
O O13 0.715791 0.278445 0.087174
O O14 0.000000 0.191286 0.125303
O O15 0.713151 0.000000 0.132309
O O16 0.000000 0.747982 0.957659
O O17 0.233256 0.000000 0.955457
O O18 0.289588 0.726690 0.000000
#
# Coordination Sequence:
#
# PCOD9388852 Si02
#       6
#     8   4   8   8   8   8
#     4   8  14  23  33  45  63  89 122 160 197 234
#     4   9  16  22  30  46  66  92 125 161 202 241
#     4   8  14  24  36  49  65  88 119 153 187 221
#     4   9  16  23  34  53  72  91 118 154 190 222
#     4   8  13  21  32  47  70  97 121 147 184 229
#     4   7   9  14  26  43  61  85 119 151 174 207
#
# _framework density 23.675829
#
# number of rings (size 3 to 8) (size 9 to 14) (size 15 to 20)
#    0.000    3.909    0.000    2.727    1.273    0.364 
#    0.000    1.818    0.000    1.091    0.000    3.818 
#    0.000    0.727    0.000    9.091    0.000   10.182 
#
# Total GULP energy -244982.097834 kJ/mol
# GULP energy per Si atom -5567.774951 kJ/mol
# Density = 2.362194 g / cm^3
# Si number density = 23.675829 Si / 1000 Ang^3
#
#
#
# Elastic Constant Matrix: (Units=GPa)
#
#
# Indices 1 2 3 4 5 6 
#
# 1 78.7497 0.7266 13.0992 0.0000 0.0000 0.0000
# 2 0.7266 69.7140 69.9516 0.0000 0.0000 0.0000
# 3 13.0992 69.9516 342.8549 0.0000 0.0000 0.0000
# 4 0.0000 0.0000 0.0000 105.9860 0.0000 0.0000
# 5 0.0000 0.0000 0.0000 0.0000 5.6256 0.0000
# 6 0.0000 0.0000 0.0000 0.0000 0.0000 -11.4772
#
#
#
# Elastic Compliance Matrix: (Units=1/GPa)
#
#
# Indices 1 2 3 4 5 6 
#
# 1 0.012791 0.000449 -0.000580 0.000000 0.000000 0.000000
# 2 0.000449 0.018053 -0.003700 0.000000 0.000000 0.000000
# 3 -0.000580 -0.003700 0.003694 0.000000 0.000000 0.000000
# 4 0.000000 0.000000 0.000000 0.009435 0.000000 0.000000
# 5 0.000000 0.000000 0.000000 0.000000 0.177759 0.000000
# 6 0.000000 0.000000 0.000000 0.000000 0.000000 -0.087129
#
#
# Mechanical properties :
#
#
# Convention : Reuss Voigt Hill
#
# Bulk Modulus (GPa) = 37.21084 73.20815 55.20950
# Shear Modulus (GPa) = 33.06365 47.19628 40.12997
#
# Velocity S-wave (km/s) = 3.74105 4.46964 4.12148
# Velocity P-wave (km/s) = 5.86614 7.59112 6.78368
#
# Compressibility (1/GPa) = 0.02687389
#
# Stress axis : x y z
#
# Youngs Moduli (GPa) = 78.18088 55.39358 270.72162
#
# Poissons Ratio (x) = -0.02487 0.15710
# Poissons Ratio (y) = -0.03510 1.00177
# Poissons Ratio (z) = 0.04537 0.20498
#
# Static dielectric constant tensor:
#      x y z
#    x 2.003550 0.000000 0.000000 
#    y 0.000000 1.979580 0.000000 
#    z 0.000000 0.000000 1.975320 
# 
# From -- ./inp_files/34482.got.cif
#   From: 2010.05.17/outbox.cif.g08.bks.cpg/sg47_18_cif.got.tgz:34482.got - 2010.06.03 20:15:42.
