data_PCOD9388817
_publ_section_title
;
Structure prediction by ZEFSAII (Michael W. Deem and Ramdas Pophale) SiO2 
 PCOD9388817
Probable space group: P M M M
;
_chemical_formula_sum "Si O2"
_cell_formula_units_Z 44
_cell_length_a 7.350908
_cell_length_b 7.330589
_cell_length_c 33.328136
_cell_angle_alpha 90.000000
_cell_angle_beta 90.000000
_cell_angle_gamma 90.000000
_cell_volume 1795.936111
_symmetry_space_group_name_H-M "P M M M"
_symmetry_group_IT_number 47
_symmetry_cell_setting 'orthorhombic'
loop_
_space_group_symop_operation_xyz
x,y,z
-x,-y,z
x,-y,-z
-x,y,-z
-x,-y,-z
x,y,-z
-x,y,z
x,-y,z
loop_
_atom_site_type_symbol
_atom_site_label
_atom_site_fract_x
_atom_site_fract_y
_atom_site_fract_z
Si Si1 0.278489 0.711173 0.610286
Si Si2 0.722389 0.000000 0.545814
Si Si3 0.282617 0.289826 0.302524
Si Si4 0.216927 0.708906 0.784575
Si Si5 0.784162 0.278012 0.129678
Si Si6 0.218989 0.719530 0.956775
O O1 0.500000 0.717531 0.610046
O O2 0.226083 0.500000 0.607290
O O3 0.218965 0.827765 0.572442
O O4 0.220011 0.783170 0.654323
O O5 0.500000 0.000000 0.544796
O O6 0.783886 0.000000 0.500000
O O7 0.500000 0.294632 0.305017
O O8 0.215464 0.500000 0.300944
O O9 0.244720 0.205273 0.259110
O O10 0.287298 0.500000 0.781720
O O11 0.286055 0.786526 0.826969
O O12 0.000000 0.699539 0.789328
O O13 0.767517 0.500000 0.130640
O O14 0.710932 0.215497 0.086498
O O15 0.000000 0.236734 0.128442
O O16 0.245995 0.500000 0.956838
O O17 0.000000 0.748809 0.956768
O O18 0.286781 0.787395 0.000000
#
# Coordination Sequence:
#
# PCOD9388817 Si02
#       6
#     8   4   8   8   8   8
#     4   8  14  24  36  51  74 102 128 156 191 228
#     4   9  16  24  36  56  79 103 131 159 190 231
#     4   8  13  21  32  45  64  91 117 140 173 217
#     4   8  12  17  26  41  60  80 105 141 181 217
#     4   7   9  12  17  27  45  67  90 123 169 210
#     4   7   8   9  13  21  35  58  87 117 154 204
#
# _framework density 24.499759999999998
#
# number of rings (size 3 to 8) (size 9 to 14) (size 15 to 20)
#    0.000    4.273    0.000    3.818    0.000    0.364 
#    0.000    1.818    0.000    0.000    0.000    0.636 
#    0.000    2.182    0.000   17.273    0.000   16.364 
#
# Total GULP energy -245091.418042 kJ/mol
# GULP energy per Si atom -5570.259501 kJ/mol
# Density = 2.444400 g / cm^3
# Si number density = 24.499760 Si / 1000 Ang^3
#
#
#
# Elastic Constant Matrix: (Units=GPa)
#
#
# Indices 1 2 3 4 5 6 
#
# 1 87.4738 -0.2729 13.0451 0.0000 0.0000 0.0000
# 2 -0.2729 100.3167 67.6836 0.0000 0.0000 0.0000
# 3 13.0451 67.6836 378.2220 0.0000 0.0000 0.0000
# 4 0.0000 0.0000 0.0000 154.3695 0.0000 0.0000
# 5 0.0000 0.0000 0.0000 0.0000 8.3365 0.0000
# 6 0.0000 0.0000 0.0000 0.0000 0.0000 -13.7852
#
#
#
# Elastic Compliance Matrix: (Units=1/GPa)
#
#
# Indices 1 2 3 4 5 6 
#
# 1 0.011501 0.000340 -0.000458 0.000000 0.000000 0.000000
# 2 0.000340 0.011347 -0.002042 0.000000 0.000000 0.000000
# 3 -0.000458 -0.002042 0.003025 0.000000 0.000000 0.000000
# 4 0.000000 0.000000 0.000000 0.006478 0.000000 0.000000
# 5 0.000000 0.000000 0.000000 0.000000 0.119954 0.000000
# 6 0.000000 0.000000 0.000000 0.000000 0.000000 -0.072542
#
#
# Mechanical properties :
#
#
# Convention : Reuss Voigt Hill
#
# Bulk Modulus (GPa) = 46.39502 80.76936 63.58219
# Shear Modulus (GPa) = 54.78338 62.15461 58.46900
#
# Velocity S-wave (km/s) = 4.73385 5.04228 4.89049
# Velocity P-wave (km/s) = 6.98979 8.18159 7.60906
#
# Compressibility (1/GPa) = 0.02155404
#
# Stress axis : x y z
#
# Youngs Moduli (GPa) = 86.94676 88.12649 330.55512
#
# Poissons Ratio (x) = -0.02996 0.15124
# Poissons Ratio (y) = -0.02956 0.67511
# Poissons Ratio (z) = 0.03978 0.17999
#
# Static dielectric constant tensor:
#      x y z
#    x 2.102280 0.000000 0.000000 
#    y 0.000000 1.838870 0.000000 
#    z 0.000000 0.000000 1.996610 
# 
# From -- ./inp_files/34480.got.cif
#   From: 2010.05.17/outbox.cif.g08.bks.cpg/sg47_18_cif.got.tgz:34480.got - 2010.06.03 20:15:42.
