data_PCOD9388615
_publ_section_title
;
Structure prediction by ZEFSAII (Michael W. Deem and Ramdas Pophale) SiO2 
 PCOD9388615
Probable space group: P M M M
;
_chemical_formula_sum "Si O2"
_cell_formula_units_Z 36
_cell_length_a 9.597657
_cell_length_b 24.615799
_cell_length_c 8.074141
_cell_angle_alpha 90.000000
_cell_angle_beta 90.000000
_cell_angle_gamma 90.000000
_cell_volume 1907.548072
_symmetry_space_group_name_H-M "P M M M"
_symmetry_group_IT_number 47
_symmetry_cell_setting 'orthorhombic'
loop_
_space_group_symop_operation_xyz
x,y,z
-x,-y,z
x,-y,-z
-x,y,-z
-x,-y,-z
x,y,-z
-x,y,z
x,-y,z
loop_
_atom_site_type_symbol
_atom_site_label
_atom_site_fract_x
_atom_site_fract_y
_atom_site_fract_z
Si Si1 0.342754 0.662909 0.802793
Si Si2 0.834096 0.000000 0.298167
Si Si3 0.840467 0.561253 0.699957
Si Si4 0.830518 0.116835 0.695537
Si Si5 0.159798 0.234877 0.300096
O O1 0.500000 0.663040 0.734859
O O2 0.262357 0.607970 0.756595
O O3 0.256334 0.715020 0.744103
O O4 0.349697 0.665602 0.000000
O O5 0.780388 0.941456 0.236006
O O6 0.820757 0.000000 0.500000
O O7 0.000000 0.000000 0.264587
O O8 0.841233 0.561237 0.500000
O O9 0.802841 0.500000 0.754516
O O10 0.000000 0.572234 0.754172
O O11 0.794932 0.116337 0.500000
O O12 0.788367 0.175784 0.763461
O O13 0.000000 0.116887 0.704903
O O14 0.154446 0.231093 0.500000
O O15 0.000000 0.243751 0.242837
#
# Coordination Sequence:
#
# PCOD9388615 Si02
#       5
#     8   4   8   8   8
#     4  11  24  37  48  68  99 132 165 200 236 274
#     4   7   8  12  26  52  88 121 142 170 224 287
#     4   9  19  37  60  83 103 123 151 188 230 279
#     4   7  10  17  32  58  90 119 146 181 229 283
#     4   9  17  30  49  72  96 123 159 201 241 284
#
# _framework density 18.872395999999998
#
# number of rings (size 3 to 8) (size 9 to 14) (size 15 to 20)
#    0.000    3.222    0.000    4.667    0.000    6.222 
#    0.000    3.333    0.000    0.000    0.000    1.556 
#    0.000   10.667    0.000    0.000    0.000    0.000 
#
# Total GULP energy -200401.754642 kJ/mol
# GULP energy per Si atom -5566.715407 kJ/mol
# Density = 1.882944 g / cm^3
# Si number density = 18.872396 Si / 1000 Ang^3
#
#
#
# Elastic Constant Matrix: (Units=GPa)
#
#
# Indices 1 2 3 4 5 6 
#
# 1 81.4587 103.0653 10.2304 0.0000 0.0000 0.0000
# 2 103.0653 230.7119 15.5086 0.0000 0.0000 0.0000
# 3 10.2304 15.5086 13.4982 0.0000 0.0000 0.0000
# 4 0.0000 0.0000 0.0000 -36.9837 0.0000 0.0000
# 5 0.0000 0.0000 0.0000 0.0000 17.8469 0.0000
# 6 0.0000 0.0000 0.0000 0.0000 0.0000 -6.5109
#
#
#
# Elastic Compliance Matrix: (Units=1/GPa)
#
#
# Indices 1 2 3 4 5 6 
#
# 1 0.028951 -0.012417 -0.007675 0.000000 0.000000 0.000000
# 2 -0.012417 0.010023 -0.002105 0.000000 0.000000 0.000000
# 3 -0.007675 -0.002105 0.082319 0.000000 0.000000 0.000000
# 4 0.000000 0.000000 0.000000 -0.027039 0.000000 0.000000
# 5 0.000000 0.000000 0.000000 0.000000 0.056032 0.000000
# 6 0.000000 0.000000 0.000000 0.000000 0.000000 -0.153589
#
#
# Mechanical properties :
#
#
# Convention : Reuss Voigt Hill
#
# Bulk Modulus (GPa) = 13.00414 64.80861 38.90638
# Shear Modulus (GPa) = 74.93400 7.99477 41.46439
#
# Velocity S-wave (km/s) = 6.30807 2.06044 4.69240
# Velocity P-wave (km/s) = 7.74347 6.33052 7.07237
#
# Compressibility (1/GPa) = 0.07689856
#
# Stress axis : x y z
#
# Youngs Moduli (GPa) = 34.54118 99.77049 12.14779
#
# Poissons Ratio (x) = 1.23887 0.09324
# Poissons Ratio (y) = 0.42891 0.02557
# Poissons Ratio (z) = 0.26512 0.20999
#
# Static dielectric constant tensor:
#      x y z
#    x 1.630590 0.000000 0.000000 
#    y 0.000000 1.712340 0.000000 
#    z 0.000000 0.000000 1.669590 
# 
# From -- ./inp_files/1463.got.cif
#   From: 2010.05.17/outbox.cif.g08.bks.cpg/sg47_1_cif.got.tgz:1463.got - 2010.06.03 20:15:42.
