data_PCOD9388782
_publ_section_title
;
Structure prediction by ZEFSAII (Michael W. Deem and Ramdas Pophale) SiO2 
 PCOD9388782
Probable space group: P M M M
;
_chemical_formula_sum "Si O2"
_cell_formula_units_Z 36
_cell_length_a 7.405214
_cell_length_b 24.699386
_cell_length_c 9.569343
_cell_angle_alpha 90.000000
_cell_angle_beta 90.000000
_cell_angle_gamma 90.000000
_cell_volume 1750.273399
_symmetry_space_group_name_H-M "P M M M"
_symmetry_group_IT_number 47
_symmetry_cell_setting 'orthorhombic'
loop_
_space_group_symop_operation_xyz
x,y,z
-x,-y,z
x,-y,-z
-x,y,-z
-x,-y,-z
x,y,-z
-x,y,z
x,-y,z
loop_
_atom_site_type_symbol
_atom_site_label
_atom_site_fract_x
_atom_site_fract_y
_atom_site_fract_z
Si Si1 0.717014 0.383785 0.161255
Si Si2 0.214252 0.265004 0.159366
Si Si3 0.778836 0.163536 0.660385
Si Si4 0.715369 0.500000 0.169638
Si Si5 0.219883 0.060846 0.839033
O O1 0.500000 0.387214 0.157487
O O2 0.760141 0.325113 0.222334
O O3 0.783781 0.441440 0.220709
O O4 0.782030 0.381261 0.000000
O O5 0.282899 0.216275 0.254167
O O6 0.000000 0.257033 0.148058
O O7 0.287683 0.263786 0.000000
O O8 0.721707 0.164889 0.500000
O O9 0.720766 0.108911 0.738812
O O10 0.000000 0.163705 0.660991
O O11 0.500000 0.500000 0.195444
O O12 0.738214 0.500000 0.000000
O O13 0.000000 0.060972 0.837683
O O14 0.276737 0.000000 0.799124
O O15 0.273706 0.070673 0.000000
#
# Coordination Sequence:
#
# PCOD9388782 Si02
#       5
#     8   8   8   4   8
#     4   8  13  22  37  56  77 101 128 157 191 232
#     4   9  16  25  37  54  77 103 129 158 193 230
#     4   9  16  24  34  49  71 101 133 161 191 229
#     4   7  10  18  33  53  76  99 122 152 192 233
#     4   8  13  21  33  49  70  97 128 161 196 231
#
# _framework density 20.568217000000001
#
# number of rings (size 3 to 8) (size 9 to 14) (size 15 to 20)
#    0.000    3.667    0.000    2.667    0.000    3.111 
#    0.000    2.778    0.000    4.000    0.000    0.778 
#    0.000    7.111    0.000   10.222    0.000   13.111 
#
# Total GULP energy -200496.655399 kJ/mol
# GULP energy per Si atom -5569.351539 kJ/mol
# Density = 2.052140 g / cm^3
# Si number density = 20.568217 Si / 1000 Ang^3
#
#
#
# Elastic Constant Matrix: (Units=GPa)
#
#
# Indices 1 2 3 4 5 6 
#
# 1 67.1812 4.5250 4.9884 0.0000 0.0000 0.0000
# 2 4.5250 263.7807 110.2320 0.0000 0.0000 0.0000
# 3 4.9884 110.2320 78.9509 0.0000 0.0000 0.0000
# 4 0.0000 0.0000 0.0000 -4.5233 0.0000 0.0000
# 5 0.0000 0.0000 0.0000 0.0000 -6.0934 0.0000
# 6 0.0000 0.0000 0.0000 0.0000 0.0000 17.6231
#
#
#
# Elastic Compliance Matrix: (Units=1/GPa)
#
#
# Indices 1 2 3 4 5 6 
#
# 1 0.014967 0.000332 -0.001410 0.000000 0.000000 0.000000
# 2 0.000332 0.009109 -0.012739 0.000000 0.000000 0.000000
# 3 -0.001410 -0.012739 0.030541 0.000000 0.000000 0.000000
# 4 0.000000 0.000000 0.000000 -0.221078 0.000000 0.000000
# 5 0.000000 0.000000 0.000000 0.000000 -0.164111 0.000000
# 6 0.000000 0.000000 0.000000 0.000000 0.000000 0.056744
#
#
# Mechanical properties :
#
#
# Convention : Reuss Voigt Hill
#
# Bulk Modulus (GPa) = 37.05752 72.15596 54.60674
# Shear Modulus (GPa) = -21.07926 20.74575 -0.16676
#
# Velocity S-wave (km/s) = -3.20480 3.17934 -0.28504
# Velocity P-wave (km/s) = 2.08847 6.97388 5.14766
#
# Compressibility (1/GPa) = 0.02698508
#
# Stress axis : x y z
#
# Youngs Moduli (GPa) = 66.81185 109.78451 32.74271
#
# Poissons Ratio (x) = -0.03649 0.04616
# Poissons Ratio (y) = -0.02221 0.41710
# Poissons Ratio (z) = 0.09419 1.39852
#
# Static dielectric constant tensor:
#      x y z
#    x 1.810550 0.000000 0.000000 
#    y 0.000000 1.776820 0.000000 
#    z 0.000000 0.000000 1.674730 
# 
# From -- ./inp_files/3910.got.cif
#   From: 2010.05.17/outbox.cif.g08.bks.cpg/sg47_2_cif.got.tgz:3910.got - 2010.06.03 20:15:42.
