data_PCOD9388979
_publ_section_title
;
Structure prediction by ZEFSAII (Michael W. Deem and Ramdas Pophale) SiO2 
 PCOD9388979
Probable space group: P M M M
;
_chemical_formula_sum "Si O2"
_cell_formula_units_Z 40
_cell_length_a 9.556917
_cell_length_b 27.026327
_cell_length_c 7.401520
_cell_angle_alpha 90.000000
_cell_angle_beta 90.000000
_cell_angle_gamma 90.000000
_cell_volume 1911.726492
_symmetry_space_group_name_H-M "P M M M"
_symmetry_group_IT_number 47
_symmetry_cell_setting 'orthorhombic'
loop_
_space_group_symop_operation_xyz
x,y,z
-x,-y,z
x,-y,-z
-x,y,-z
-x,-y,-z
x,y,-z
-x,y,z
x,-y,z
loop_
_atom_site_type_symbol
_atom_site_label
_atom_site_fract_x
_atom_site_fract_y
_atom_site_fract_z
Si Si1 0.338732 0.095762 0.720726
Si Si2 0.340839 0.500000 0.786276
Si Si3 0.341517 0.392387 0.285876
Si Si4 0.837984 0.190060 0.279942
Si Si5 0.838699 0.699261 0.720427
Si Si6 0.838374 0.000000 0.720509
O O1 0.339430 0.095763 0.500000
O O2 0.500000 0.092284 0.778289
O O3 0.263287 0.146272 0.779460
O O4 0.246199 0.048788 0.776789
O O5 0.500000 0.500000 0.708196
O O6 0.276561 0.552909 0.736964
O O7 0.350961 0.500000 0.000000
O O8 0.352103 0.384798 0.500000
O O9 0.500000 0.393557 0.211771
O O10 0.253974 0.346311 0.214121
O O11 0.837786 0.189526 0.500000
O O12 0.794201 0.245432 0.224153
O O13 0.000000 0.181950 0.225654
O O14 0.836033 0.698929 0.500000
O O15 0.000000 0.692791 0.773679
O O16 0.840246 0.000000 0.500000
O O17 0.000000 0.000000 0.779007
#
# Coordination Sequence:
#
# PCOD9388979 Si02
#       6
#     8   4   8   8   8   4
#     4   9  15  20  26  37  53  73 101 141 185 223
#     4   9  17  29  44  61  82 108 134 159 192 236
#     4   9  16  26  42  62  80  99 128 165 198 229
#     4   8  13  21  31  42  58  81 107 135 173 223
#     4   8  14  24  37  53  73  95 118 147 187 234
#     4   9  15  21  27  33  45  71 107 143 180 225
#
# _framework density 20.923494999999999
#
# number of rings (size 3 to 8) (size 9 to 14) (size 15 to 20)
#    0.000    3.400    0.000    2.400    0.000    5.600 
#    0.000    4.500    0.000    3.600    0.000    0.000 
#    0.000    0.000    0.000    0.000    0.000    0.000 
#
# Total GULP energy -223073.934205 kJ/mol
# GULP energy per Si atom -5576.848355 kJ/mol
# Density = 2.087587 g / cm^3
# Si number density = 20.923495 Si / 1000 Ang^3
#
#
#
# Elastic Constant Matrix: (Units=GPa)
#
#
# Indices 1 2 3 4 5 6 
#
# 1 128.6665 133.6359 3.8339 0.0000 0.0000 0.0000
# 2 133.6359 253.5422 3.5797 0.0000 0.0000 0.0000
# 3 3.8339 3.5797 70.4290 0.0000 0.0000 0.0000
# 4 0.0000 0.0000 0.0000 -38.1070 0.0000 0.0000
# 5 0.0000 0.0000 0.0000 0.0000 -10.9722 0.0000
# 6 0.0000 0.0000 0.0000 0.0000 0.0000 34.0544
#
#
#
# Elastic Compliance Matrix: (Units=1/GPa)
#
#
# Indices 1 2 3 4 5 6 
#
# 1 0.017189 -0.009053 -0.000476 0.000000 0.000000 0.000000
# 2 -0.009053 0.008715 0.000050 0.000000 0.000000 0.000000
# 3 -0.000476 0.000050 0.014222 0.000000 0.000000 0.000000
# 4 0.000000 0.000000 0.000000 -0.026242 0.000000 0.000000
# 5 0.000000 0.000000 0.000000 0.000000 -0.091139 0.000000
# 6 0.000000 0.000000 0.000000 0.000000 0.000000 0.029365
#
#
# Mechanical properties :
#
#
# Convention : Reuss Voigt Hill
#
# Bulk Modulus (GPa) = 47.24017 81.63739 64.43878
# Shear Modulus (GPa) = -228.56109 17.76758 -105.39676
#
# Velocity S-wave (km/s) = -10.46297 2.91721 -7.10505
# Velocity P-wave (km/s) = 11.10578 7.10272 6.03696
#
# Compressibility (1/GPa) = 0.02116843
#
# Stress axis : x y z
#
# Youngs Moduli (GPa) = 58.17634 114.74256 70.31334
#
# Poissons Ratio (x) = 1.03879 0.03344
# Poissons Ratio (y) = 0.52669 -0.00351
# Poissons Ratio (z) = 0.02767 -0.00572
#
# Static dielectric constant tensor:
#      x y z
#    x 1.713540 0.000000 0.000000 
#    y 0.000000 1.748500 0.000000 
#    z 0.000000 0.000000 1.781180 
# 
# From -- ./inp_files/1749.got.cif
#   From: 2010.05.17/outbox.cif.g08.bks.cpg/sg47_1_cif.got.tgz:1749.got - 2010.06.03 20:15:42.
