data_PCOD9388961
_publ_section_title
;
Structure prediction by ZEFSAII (Michael W. Deem and Ramdas Pophale) SiO2 
 PCOD9388961
Probable space group: P M M M
;
_chemical_formula_sum "Si O2"
_cell_formula_units_Z 52
_cell_length_a 10.614635
_cell_length_b 31.375718
_cell_length_c 7.497576
_cell_angle_alpha 90.000000
_cell_angle_beta 90.000000
_cell_angle_gamma 90.000000
_cell_volume 2497.006165
_symmetry_space_group_name_H-M "P M M M"
_symmetry_group_IT_number 47
_symmetry_cell_setting 'orthorhombic'
loop_
_space_group_symop_operation_xyz
x,y,z
-x,-y,z
x,-y,-z
-x,y,-z
-x,-y,-z
x,y,-z
-x,y,z
x,-y,z
loop_
_atom_site_type_symbol
_atom_site_label
_atom_site_fract_x
_atom_site_fract_y
_atom_site_fract_z
Si Si1 0.652468 0.790658 0.204741
Si Si2 0.353977 0.115822 0.218721
Si Si3 0.219942 0.452195 0.705670
Si Si4 0.500000 0.448609 0.200955
Si Si5 0.863399 0.363038 0.719144
Si Si6 0.857401 0.049090 0.782617
Si Si7 0.358536 0.304115 0.292581
O O1 0.500000 0.792241 0.207781
O O2 0.688852 0.836859 0.279159
O O3 0.684947 0.745180 0.286664
O O4 0.694489 0.788806 0.000000
O O5 0.500000 0.108087 0.272134
O O6 0.254021 0.080342 0.276014
O O7 0.355002 0.116850 0.000000
O O8 0.181132 0.455840 0.500000
O O9 0.207567 0.500000 0.784366
O O10 0.367490 0.438592 0.709617
O O11 0.148702 0.411836 0.782865
O O12 0.500000 0.500000 0.194077
O O13 0.500000 0.431674 0.000000
O O14 0.858517 0.363891 0.500000
O O15 0.747056 0.334928 0.784627
O O16 0.000000 0.345563 0.768601
O O17 0.000000 0.061429 0.728125
O O18 0.836280 0.000000 0.728493
O O19 0.856375 0.049661 0.000000
O O20 0.369906 0.315632 0.500000
O O21 0.500000 0.307241 0.214204
#
# Coordination Sequence:
#
# PCOD9388961 Si02
#       7
#     8   8   8   4   8   8   8
#     4   8  14  26  43  62  85 110 137 174 218 257
#     4   8  13  21  34  51  71  99 133 166 202 245
#     4   9  17  29  48  71  92 116 148 183 216 254
#     4   9  17  29  45  67  95 121 145 177 217 255
#     4   9  18  31  47  68  94 120 144 177 221 262
#     4   8  13  20  29  44  71 105 135 163 198 242
#     4   9  17  29  47  67  85 111 147 180 211 256
#
# _framework density 20.824940000000002
#
# number of rings (size 3 to 8) (size 9 to 14) (size 15 to 20)
#    0.000    3.462    0.000    1.615    1.077    1.538 
#    0.000    4.615    0.000    2.769    0.000    2.154 
#    0.000    0.615    0.000    7.692    0.000    8.923 
#
# Total GULP energy -289622.439017 kJ/mol
# GULP energy per Si atom -5569.662289 kJ/mol
# Density = 2.077754 g / cm^3
# Si number density = 20.824940 Si / 1000 Ang^3
#
#
#
# Elastic Constant Matrix: (Units=GPa)
#
#
# Indices 1 2 3 4 5 6 
#
# 1 126.1827 100.0167 3.7142 0.0000 0.0000 0.0000
# 2 100.0167 143.2142 5.0770 0.0000 0.0000 0.0000
# 3 3.7142 5.0770 54.2112 0.0000 0.0000 0.0000
# 4 0.0000 0.0000 0.0000 6.8921 0.0000 0.0000
# 5 0.0000 0.0000 0.0000 0.0000 -10.8312 0.0000
# 6 0.0000 0.0000 0.0000 0.0000 0.0000 -24.4309
#
#
#
# Elastic Compliance Matrix: (Units=1/GPa)
#
#
# Indices 1 2 3 4 5 6 
#
# 1 0.017751 -0.012395 -0.000055 0.000000 0.000000 0.000000
# 2 -0.012395 0.015661 -0.000617 0.000000 0.000000 0.000000
# 3 -0.000055 -0.000617 0.018508 0.000000 0.000000 0.000000
# 4 0.000000 0.000000 0.000000 0.145094 0.000000 0.000000
# 5 0.000000 0.000000 0.000000 0.000000 -0.092326 0.000000
# 6 0.000000 0.000000 0.000000 0.000000 0.000000 -0.040932
#
#
# Mechanical properties :
#
#
# Convention : Reuss Voigt Hill
#
# Bulk Modulus (GPa) = 38.78317 60.13600 49.45959
# Shear Modulus (GPa) = 50.76780 8.64600 29.70690
#
# Velocity S-wave (km/s) = 4.94280 2.03980 3.78101
# Velocity P-wave (km/s) = 7.15814 5.87259 6.54699
#
# Compressibility (1/GPa) = 0.02578438
#
# Stress axis : x y z
#
# Youngs Moduli (GPa) = 56.33337 63.85346 54.03068
#
# Poissons Ratio (x) = 0.79147 0.00299
# Poissons Ratio (y) = 0.69826 0.03336
# Poissons Ratio (z) = 0.00312 0.03943
#
# Static dielectric constant tensor:
#      x y z
#    x 1.736350 0.000000 0.000000 
#    y 0.000000 1.754890 0.000000 
#    z 0.000000 0.000000 1.883080 
# 
# From -- ./inp_files/4756.got.cif
#   From: 2010.05.17/outbox.cif.g08.bks.cpg/sg47_3_cif.got.tgz:4756.got - 2010.06.03 20:15:42.
