data_PCOD9388680
_publ_section_title
;
Structure prediction by ZEFSAII (Michael W. Deem and Ramdas Pophale) SiO2 
 PCOD9388680
Probable space group: P M M M
;
_chemical_formula_sum "Si O2"
_cell_formula_units_Z 44
_cell_length_a 7.620877
_cell_length_b 17.961450
_cell_length_c 15.918223
_cell_angle_alpha 90.000000
_cell_angle_beta 90.000000
_cell_angle_gamma 90.000000
_cell_volume 2178.918220
_symmetry_space_group_name_H-M "P M M M"
_symmetry_group_IT_number 47
_symmetry_cell_setting 'orthorhombic'
loop_
_space_group_symop_operation_xyz
x,y,z
-x,-y,z
x,-y,-z
-x,y,-z
-x,-y,-z
x,y,-z
-x,y,z
x,-y,z
loop_
_atom_site_type_symbol
_atom_site_label
_atom_site_fract_x
_atom_site_fract_y
_atom_site_fract_z
Si Si1 0.708496 0.500000 0.905036
Si Si2 0.214437 0.084237 0.903623
Si Si3 0.791659 0.206574 0.226143
Si Si4 0.289854 0.782110 0.590420
Si Si5 0.789486 0.624166 0.229108
Si Si6 0.796248 0.391401 0.590664
O O1 0.500000 0.500000 0.911231
O O2 0.758217 0.428138 0.849999
O O3 0.781227 0.500000 0.000000
O O4 0.278850 0.147066 0.839925
O O5 0.000000 0.084483 0.901678
O O6 0.269223 0.000000 0.881753
O O7 0.265568 0.099277 0.000000
O O8 0.764644 0.181207 0.322378
O O9 0.721710 0.291281 0.218040
O O10 0.000000 0.211669 0.211481
O O11 0.239470 0.816128 0.500000
O O12 0.500000 0.774596 0.591663
O O13 0.211568 0.698757 0.591853
O O14 0.720999 0.589788 0.317561
O O15 0.000000 0.629149 0.240244
O O16 0.718033 0.413836 0.500000
O O17 0.000000 0.414517 0.589020
#
# Coordination Sequence:
#
# PCOD9388680 Si02
#       6
#     4   8   8   8   8   8
#     4  11  25  41  52  63  86 124 165 203 244 283
#     4   8  14  26  46  73 102 126 149 186 238 289
#     4   9  17  29  49  76  99 122 156 194 231 276
#     4   9  16  25  40  65  96 129 162 193 228 271
#     4   9  18  32  51  74  96 121 156 195 234 277
#     4   8  14  27  48  73  99 123 148 183 229 280
#
# _framework density 20.193508000000001
#
# number of rings (size 3 to 8) (size 9 to 14) (size 15 to 20)
#    0.000    3.182    0.000    2.455    0.000    5.455 
#    0.000    2.273    0.000    4.364    0.000    5.091 
#    0.000    0.000    0.000    0.000    0.000    0.000 
#
# Total GULP energy -245100.084829 kJ/mol
# GULP energy per Si atom -5570.456473 kJ/mol
# Density = 2.014755 g / cm^3
# Si number density = 20.193508 Si / 1000 Ang^3
#
#
#
# Elastic Constant Matrix: (Units=GPa)
#
#
# Indices 1 2 3 4 5 6 
#
# 1 41.1859 8.6633 -1.8114 0.0000 0.0000 0.0000
# 2 8.6633 106.7424 104.9057 0.0000 0.0000 0.0000
# 3 -1.8114 104.9057 216.2895 0.0000 0.0000 0.0000
# 4 0.0000 0.0000 0.0000 -122.9543 0.0000 0.0000
# 5 0.0000 0.0000 0.0000 0.0000 -106.7909 0.0000
# 6 0.0000 0.0000 0.0000 0.0000 0.0000 16.1299
#
#
#
# Elastic Compliance Matrix: (Units=1/GPa)
#
#
# Indices 1 2 3 4 5 6 
#
# 1 0.025290 -0.004320 0.002307 0.000000 0.000000 0.000000
# 2 -0.004320 0.018640 -0.009077 0.000000 0.000000 0.000000
# 3 0.002307 -0.009077 0.009045 0.000000 0.000000 0.000000
# 4 0.000000 0.000000 0.000000 -0.008133 0.000000 0.000000
# 5 0.000000 0.000000 0.000000 0.000000 -0.009364 0.000000
# 6 0.000000 0.000000 0.000000 0.000000 0.000000 0.061997
#
#
# Mechanical properties :
#
#
# Convention : Reuss Voigt Hill
#
# Bulk Modulus (GPa) = 32.47204 65.30368 48.88786
# Shear Modulus (GPa) = 38.48545 -25.89238 6.29653
#
# Velocity S-wave (km/s) = 4.37032 -3.58469 1.76773
# Velocity P-wave (km/s) = 6.44838 3.90843 5.33186
#
# Compressibility (1/GPa) = 0.03079572
#
# Stress axis : x y z
#
# Youngs Moduli (GPa) = 39.54085 53.64917 110.55530
#
# Poissons Ratio (x) = 0.23176 -0.25506
# Poissons Ratio (y) = 0.17081 1.00349
# Poissons Ratio (z) = -0.09122 0.48697
#
# Static dielectric constant tensor:
#      x y z
#    x 1.754140 0.000000 0.000000 
#    y 0.000000 1.696530 0.000000 
#    z 0.000000 0.000000 1.768050 
# 
# From -- ./inp_files/20904.got.cif
#   From: 2010.05.17/outbox.cif.g08.bks.cpg/sg47_11_cif.got.tgz:20904.got - 2010.06.03 20:15:42.
