data_PCOD9388225
_publ_section_title
;
Structure prediction by ZEFSAII (Michael W. Deem and Ramdas Pophale) SiO2 
 PCOD9388225
Probable space group: P M M M
;
_chemical_formula_sum "Si O2"
_cell_formula_units_Z 52
_cell_length_a 8.756834
_cell_length_b 27.427843
_cell_length_c 14.126593
_cell_angle_alpha 90.000000
_cell_angle_beta 90.000000
_cell_angle_gamma 90.000000
_cell_volume 3392.940196
_symmetry_space_group_name_H-M "P M M M"
_symmetry_group_IT_number 47
_symmetry_cell_setting 'orthorhombic'
loop_
_space_group_symop_operation_xyz
x,y,z
-x,-y,z
x,-y,-z
-x,y,-z
-x,-y,-z
x,y,-z
-x,y,z
x,-y,z
loop_
_atom_site_type_symbol
_atom_site_label
_atom_site_fract_x
_atom_site_fract_y
_atom_site_fract_z
Si Si1 0.318092 0.299481 0.712444
Si Si2 0.815695 0.206232 0.391936
Si Si3 0.176700 0.500000 0.385151
Si Si4 0.815649 0.752150 0.108830
Si Si5 0.185379 0.607012 0.388885
Si Si6 0.683945 0.055069 0.890726
Si Si7 0.816893 0.147491 0.789452
O O1 0.500000 0.300377 0.711690
O O2 0.257762 0.256442 0.643801
O O3 0.257606 0.284795 0.816378
O O4 0.251916 0.350158 0.674354
O O5 0.774191 0.195514 0.500000
O O6 0.772883 0.164733 0.316131
O O7 0.000000 0.211962 0.386629
O O8 0.174541 0.500000 0.500000
O O9 0.241420 0.552858 0.358667
O O10 0.000000 0.500000 0.353627
O O11 0.773817 0.806912 0.142856
O O12 0.000000 0.748574 0.116247
O O13 0.771744 0.744303 0.000000
O O14 0.225114 0.614554 0.500000
O O15 0.000000 0.607361 0.384023
O O16 0.500000 0.055954 0.889088
O O17 0.745774 0.097540 0.824806
O O18 0.732640 0.000000 0.864595
O O19 0.731876 0.063773 0.000000
O O20 0.000000 0.143063 0.792886
#
# Coordination Sequence:
#
# PCOD9388225 Si02
#       7
#     8   8   4   8   8   8   8
#     4  11  21  29  41  66  96 121 147 180 219 264
#     4   9  18  33  49  63  85 119 154 185 218 257
#     4   7  12  24  43  65  84 109 150 191 221 254
#     4   9  18  33  50  66  87 116 149 183 219 262
#     4   9  16  28  46  65  88 119 153 187 221 258
#     4   9  18  31  45  63  89 119 146 171 207 260
#     4   9  17  29  47  70  89 107 139 182 223 258
#
# _framework density 15.325939999999999
#
# number of rings (size 3 to 8) (size 9 to 14) (size 15 to 20)
#    0.000    2.846    0.000    4.615    0.000    6.462 
#    0.000    1.154    0.000    1.846    0.000    3.769 
#    0.000    4.308    0.000    0.000    0.000    0.000 
#
# Total GULP energy -289708.723462 kJ/mol
# GULP energy per Si atom -5571.321605 kJ/mol
# Density = 1.529106 g / cm^3
# Si number density = 15.325940 Si / 1000 Ang^3
#
#
#
# Elastic Constant Matrix: (Units=GPa)
#
#
# Indices 1 2 3 4 5 6 
#
# 1 20.3526 36.7238 35.0676 0.0000 0.0000 0.0000
# 2 36.7238 157.6161 86.9836 0.0000 0.0000 0.0000
# 3 35.0676 86.9836 123.9249 0.0000 0.0000 0.0000
# 4 0.0000 0.0000 0.0000 23.0079 0.0000 0.0000
# 5 0.0000 0.0000 0.0000 0.0000 8.7915 0.0000
# 6 0.0000 0.0000 0.0000 0.0000 0.0000 -180.8326
#
#
#
# Elastic Compliance Matrix: (Units=1/GPa)
#
#
# Indices 1 2 3 4 5 6 
#
# 1 0.112224 -0.014074 -0.021878 0.000000 0.000000 0.000000
# 2 -0.014074 0.012121 -0.004525 0.000000 0.000000 0.000000
# 3 -0.021878 -0.004525 0.017437 0.000000 0.000000 0.000000
# 4 0.000000 0.000000 0.000000 0.043463 0.000000 0.000000
# 5 0.000000 0.000000 0.000000 0.000000 0.113746 0.000000
# 6 0.000000 0.000000 0.000000 0.000000 0.000000 -0.005530
#
#
# Mechanical properties :
#
#
# Convention : Reuss Voigt Hill
#
# Bulk Modulus (GPa) = 16.43991 68.82707 42.63349
# Shear Modulus (GPa) = 12.66811 -20.26539 -3.79864
#
# Velocity S-wave (km/s) = 2.87815 -3.64028 -1.57606
# Velocity P-wave (km/s) = 4.66852 5.22853 4.95644
#
# Compressibility (1/GPa) = 0.06082760
#
# Stress axis : x y z
#
# Youngs Moduli (GPa) = 8.91071 82.50107 57.35034
#
# Poissons Ratio (x) = 1.16111 1.25472
# Poissons Ratio (y) = 0.12541 0.25953
# Poissons Ratio (z) = 0.19495 0.37334
#
# Static dielectric constant tensor:
#      x y z
#    x 1.514820 0.000000 0.000000 
#    y 0.000000 1.505790 0.000000 
#    z 0.000000 0.000000 1.501030 
# 
# From -- ./inp_files/21752.got.cif
#   From: 2010.05.17/outbox.cif.g08.bks.cpg/sg47_11_cif.got.tgz:21752.got - 2010.06.03 20:15:42.
