data_PCOD9388711
_publ_section_title
;
Structure prediction by ZEFSAII (Michael W. Deem and Ramdas Pophale) SiO2 
 PCOD9388711
Probable space group: P M M M
;
_chemical_formula_sum "Si O2"
_cell_formula_units_Z 41
_cell_length_a 7.843308
_cell_length_b 11.787687
_cell_length_c 25.393947
_cell_angle_alpha 90.000000
_cell_angle_beta 90.000000
_cell_angle_gamma 90.000000
_cell_volume 2347.783651
_symmetry_space_group_name_H-M "P M M M"
_symmetry_group_IT_number 47
_symmetry_cell_setting 'orthorhombic'
loop_
_space_group_symop_operation_xyz
x,y,z
-x,-y,z
x,-y,-z
-x,y,-z
-x,-y,-z
x,y,-z
-x,y,z
x,-y,z
loop_
_atom_site_type_symbol
_atom_site_label
_atom_site_fract_x
_atom_site_fract_y
_atom_site_fract_z
Si Si1 0.203769 0.365307 0.058200
Si Si2 0.804846 0.362448 0.364335
Si Si3 0.500000 0.000000 0.000000
Si Si4 0.500000 0.638545 0.439286
Si Si5 0.309769 0.788718 0.849764
Si Si6 0.188819 0.000000 0.088162
Si Si7 0.794890 0.370759 0.245336
O O1 0.231260 0.500000 0.059573
O O2 0.302272 0.304118 0.103874
O O3 0.000000 0.347321 0.064857
O O4 0.252118 0.322524 0.000000
O O5 0.811294 0.500000 0.366596
O O6 0.668558 0.324493 0.407510
O O7 0.744317 0.337546 0.304746
O O8 0.000000 0.322217 0.372095
O O9 0.346166 0.000000 0.953399
O O10 0.500000 0.500000 0.438833
O O11 0.500000 0.674398 0.500000
O O12 0.500000 0.831904 0.841861
O O13 0.254347 0.721604 0.797740
O O14 0.202365 0.891175 0.873621
O O15 0.000000 0.000000 0.063083
O O16 0.732422 0.500000 0.233573
O O17 0.000000 0.377493 0.245923
#
# Coordination Sequence:
#
# PCOD9388711 Si02
#       7
#     8   8   1   4   8   4   8
#     4   9  19  35  53  73  98 131 168 205 253 308
#     4   8  15  27  42  63  93 131 176 219 254 298
#     4  12  26  52  64  90  98 120 186 208 246 324
#     4   9  16  24  37  60  93 135 178 218 258 298
#     4  12  24  37  53  80 107 130 173 216 255 318
#     4  12  27  47  67  82 107 137 164 215 265 308
#     4   9  18  33  53  76 103 139 180 219 266 319
#
# _framework density 17.463279
#
# number of rings (size 3 to 8) (size 9 to 14) (size 15 to 20)
#    0.000    2.244    0.976    4.244    2.732    3.902 
#    0.000    2.927    0.000    0.000    0.000    0.000 
#    0.000    0.000    0.000    1.756    0.000   11.317 
#
# Total GULP energy -228338.471290 kJ/mol
# GULP energy per Si atom -5569.231007 kJ/mol
# Density = 1.742353 g / cm^3
# Si number density = 17.463279 Si / 1000 Ang^3
#
#
#
# Elastic Constant Matrix: (Units=GPa)
#
#
# Indices 1 2 3 4 5 6 
#
# 1 92.5402 22.9937 63.7329 0.0000 0.0000 0.0000
# 2 22.9937 37.1521 41.5452 0.0000 0.0000 0.0000
# 3 63.7329 41.5452 144.7088 0.0000 0.0000 0.0000
# 4 0.0000 0.0000 0.0000 52.5228 0.0000 0.0000
# 5 0.0000 0.0000 0.0000 0.0000 29.5611 0.0000
# 6 0.0000 0.0000 0.0000 0.0000 0.0000 14.7805
#
#
#
# Elastic Compliance Matrix: (Units=1/GPa)
#
#
# Indices 1 2 3 4 5 6 
#
# 1 0.015724 -0.002928 -0.006085 0.000000 0.000000 0.000000
# 2 -0.002928 0.040189 -0.010249 0.000000 0.000000 0.000000
# 3 -0.006085 -0.010249 0.012533 0.000000 0.000000 0.000000
# 4 0.000000 0.000000 0.000000 0.019039 0.000000 0.000000
# 5 0.000000 0.000000 0.000000 0.000000 0.033828 0.000000
# 6 0.000000 0.000000 0.000000 0.000000 0.000000 0.067657
#
#
# Mechanical properties :
#
#
# Convention : Reuss Voigt Hill
#
# Bulk Modulus (GPa) = 33.41842 58.99385 46.20613
# Shear Modulus (GPa) = 21.05562 29.11483 25.08522
#
# Velocity S-wave (km/s) = 3.47610 4.08757 3.79417
# Velocity P-wave (km/s) = 5.94045 7.49217 6.76098
#
# Compressibility (1/GPa) = 0.02992362
#
# Stress axis : x y z
#
# Youngs Moduli (GPa) = 63.59653 24.88261 79.79170
#
# Poissons Ratio (x) = 0.07284 0.48551
# Poissons Ratio (y) = 0.18618 0.81776
# Poissons Ratio (z) = 0.38697 0.25501
#
# Static dielectric constant tensor:
#      x y z
#    x 1.648160 0.000000 0.000000 
#    y 0.000000 1.426260 0.000000 
#    z 0.000000 0.000000 1.596830 
# 
# From -- ./inp_files/31819.got.cif
#   From: 2010.05.17/outbox.cif.g08.bks.cpg/sg47_16_cif.got.tgz:31819.got - 2010.06.03 20:15:42.
