data_PCOD9388633
_publ_section_title
;
Structure prediction by ZEFSAII (Michael W. Deem and Ramdas Pophale) SiO2 
 PCOD9388633
Probable space group: P M M M
;
_chemical_formula_sum "Si O2"
_cell_formula_units_Z 40
_cell_length_a 9.864686
_cell_length_b 28.417798
_cell_length_c 7.995835
_cell_angle_alpha 90.000000
_cell_angle_beta 90.000000
_cell_angle_gamma 90.000000
_cell_volume 2241.493647
_symmetry_space_group_name_H-M "P M M M"
_symmetry_group_IT_number 47
_symmetry_cell_setting 'orthorhombic'
loop_
_space_group_symop_operation_xyz
x,y,z
-x,-y,z
x,-y,-z
-x,y,-z
-x,-y,-z
x,y,-z
-x,y,z
x,-y,z
loop_
_atom_site_type_symbol
_atom_site_label
_atom_site_fract_x
_atom_site_fract_y
_atom_site_fract_z
Si Si1 0.653204 0.500000 0.301302
Si Si2 0.653064 0.224209 0.299326
Si Si3 0.845967 0.691051 0.201470
Si Si4 0.154780 0.414752 0.798366
Si Si5 0.334743 0.119523 0.306818
Si Si6 0.665369 0.945787 0.000000
O O1 0.500000 0.500000 0.230828
O O2 0.643169 0.500000 0.500000
O O3 0.738910 0.454138 0.251864
O O4 0.644830 0.222011 0.500000
O O5 0.500000 0.230652 0.233034
O O6 0.746698 0.267649 0.253476
O O7 0.705072 0.172320 0.250026
O O8 0.808276 0.638185 0.258625
O O9 0.000000 0.700163 0.258967
O O10 0.847621 0.689867 0.000000
O O11 0.000000 0.425101 0.741162
O O12 0.150573 0.414197 0.000000
O O13 0.291456 0.110813 0.500000
O O14 0.500000 0.119933 0.310056
O O15 0.291944 0.081773 0.168198
O O16 0.500000 0.945396 0.000000
O O17 0.708956 0.000000 0.000000
#
# Coordination Sequence:
#
# PCOD9388633 Si02
#       6
#     4   8   8   8   8   4
#     4  11  24  37  50  74 104 129 158 201 246 288
#     4   9  18  31  47  69  97 131 167 200 242 297
#     4   9  19  34  51  74 101 126 158 202 247 292
#     4   9  19  37  57  74  95 126 163 201 243 293
#     4   8  15  27  40  59  91 126 162 206 251 298
#     4   9  16  24  38  62  89 125 171 208 247 300
#
# _framework density 17.845244999999998
#
# number of rings (size 3 to 8) (size 9 to 14) (size 15 to 20)
#    0.000    3.000    0.000    3.000    1.400    5.200 
#    0.000    8.000    0.000    0.000    0.000    0.000 
#    0.000    1.600    0.000    4.400    0.000    4.400 
#
# Total GULP energy -222841.508124 kJ/mol
# GULP energy per Si atom -5571.037703 kJ/mol
# Density = 1.780463 g / cm^3
# Si number density = 17.845245 Si / 1000 Ang^3
#
#
#
# Elastic Constant Matrix: (Units=GPa)
#
#
# Indices 1 2 3 4 5 6 
#
# 1 64.5774 87.4681 26.2099 0.0000 0.0000 0.0000
# 2 87.4681 195.8278 56.6341 0.0000 0.0000 0.0000
# 3 26.2099 56.6341 49.5516 0.0000 0.0000 0.0000
# 4 0.0000 0.0000 0.0000 67.5975 0.0000 0.0000
# 5 0.0000 0.0000 0.0000 0.0000 21.5167 0.0000
# 6 0.0000 0.0000 0.0000 0.0000 0.0000 -61.4528
#
#
#
# Elastic Compliance Matrix: (Units=1/GPa)
#
#
# Indices 1 2 3 4 5 6 
#
# 1 0.039241 -0.017215 -0.001081 0.000000 0.000000 0.000000
# 2 -0.017215 0.015180 -0.008244 0.000000 0.000000 0.000000
# 3 -0.001081 -0.008244 0.030175 0.000000 0.000000 0.000000
# 4 0.000000 0.000000 0.000000 0.014793 0.000000 0.000000
# 5 0.000000 0.000000 0.000000 0.000000 0.046476 0.000000
# 6 0.000000 0.000000 0.000000 0.000000 0.000000 -0.016273
#
#
# Mechanical properties :
#
#
# Convention : Reuss Voigt Hill
#
# Bulk Modulus (GPa) = 31.72938 72.28680 52.00809
# Shear Modulus (GPa) = 25.88317 14.84193 20.36255
#
# Velocity S-wave (km/s) = 3.81257 2.88705 3.38163
# Velocity P-wave (km/s) = 6.09917 7.19090 6.66741
#
# Compressibility (1/GPa) = 0.03151654
#
# Stress axis : x y z
#
# Youngs Moduli (GPa) = 25.48386 65.87744 33.14003
#
# Poissons Ratio (x) = 1.13405 0.03582
# Poissons Ratio (y) = 0.43869 0.27320
# Poissons Ratio (z) = 0.02755 0.54309
#
# Static dielectric constant tensor:
#      x y z
#    x 1.602720 0.000000 0.000000 
#    y 0.000000 1.618680 0.000000 
#    z 0.000000 0.000000 1.638380 
# 
# From -- ./inp_files/1702.got.cif
#   From: 2010.05.17/outbox.cif.g08.bks.cpg/sg47_1_cif.got.tgz:1702.got - 2010.06.03 20:15:42.
