data_PCOD9388716
_publ_section_title
;
Structure prediction by ZEFSAII (Michael W. Deem and Ramdas Pophale) SiO2 
 PCOD9388716
Probable space group: P M M M
;
_chemical_formula_sum "Si O2"
_cell_formula_units_Z 38
_cell_length_a 7.566580
_cell_length_b 15.651525
_cell_length_c 13.334840
_cell_angle_alpha 90.000000
_cell_angle_beta 90.000000
_cell_angle_gamma 90.000000
_cell_volume 1579.225313
_symmetry_space_group_name_H-M "P M M M"
_symmetry_group_IT_number 47
_symmetry_cell_setting 'orthorhombic'
loop_
_space_group_symop_operation_xyz
x,y,z
-x,-y,z
x,-y,-z
-x,y,-z
-x,-y,-z
x,y,-z
-x,y,z
x,-y,z
loop_
_atom_site_type_symbol
_atom_site_label
_atom_site_fract_x
_atom_site_fract_y
_atom_site_fract_z
Si Si1 0.693330 0.868323 0.687887
Si Si2 0.785603 0.783528 0.885021
Si Si3 0.216398 0.500000 0.617134
Si Si4 0.204136 0.684608 0.379647
Si Si5 0.789903 0.593336 0.121599
Si Si6 0.000000 0.000000 0.638413
O O1 0.500000 0.902909 0.668210
O O2 0.724212 0.854709 0.807121
O O3 0.702977 0.771877 0.646945
O O4 0.846157 0.925722 0.642604
O O5 0.724690 0.688334 0.850698
O O6 0.000000 0.782494 0.883916
O O7 0.730197 0.797619 0.000000
O O8 0.270029 0.500000 0.500000
O O9 0.270989 0.407629 0.658981
O O10 0.000000 0.500000 0.619138
O O11 0.203788 0.677069 0.500000
O O12 0.000000 0.694036 0.346856
O O13 0.717606 0.500000 0.152383
O O14 0.000000 0.591452 0.145104
O O15 0.776810 0.594599 0.000000
#
# Coordination Sequence:
#
# PCOD9388716 Si02
#       6
#     8   8   4   8   8   2
#     4  12  25  43  68  95 124 165 211 264 330 392
#     4   9  17  34  60  87 122 165 208 260 318 373
#     4   7  12  26  57  97 132 174 218 251 294 358
#     4   9  17  36  66  99 137 176 215 258 306 367
#     4   7  10  19  41  75 111 151 199 241 283 344
#     4  12  26  52  70  88 126 156 214 276 334 388
#
# _framework density 24.062429999999999
#
# number of rings (size 3 to 8) (size 9 to 14) (size 15 to 20)
#    0.000    2.842    2.105    3.474    0.000    0.842 
#    1.895    2.632    0.000    4.421    0.000    2.947 
#    0.000    0.000    0.000    0.000    0.000    0.000 
#
# Total GULP energy -211802.473771 kJ/mol
# GULP energy per Si atom -5573.749310 kJ/mol
# Density = 2.400766 g / cm^3
# Si number density = 24.062430 Si / 1000 Ang^3
#
#
#
# Elastic Constant Matrix: (Units=GPa)
#
#
# Indices 1 2 3 4 5 6 
#
# 1 132.4840 51.5674 4.4119 0.0000 0.0000 0.0000
# 2 51.5674 141.3534 10.9780 0.0000 0.0000 0.0000
# 3 4.4119 10.9780 54.4297 0.0000 0.0000 0.0000
# 4 0.0000 0.0000 0.0000 -57.3863 0.0000 0.0000
# 5 0.0000 0.0000 0.0000 0.0000 10.0769 0.0000
# 6 0.0000 0.0000 0.0000 0.0000 0.0000 -57.8492
#
#
#
# Elastic Compliance Matrix: (Units=1/GPa)
#
#
# Indices 1 2 3 4 5 6 
#
# 1 0.008798 -0.003204 -0.000067 0.000000 0.000000 0.000000
# 2 -0.003204 0.008354 -0.001425 0.000000 0.000000 0.000000
# 3 -0.000067 -0.001425 0.018665 0.000000 0.000000 0.000000
# 4 0.000000 0.000000 0.000000 -0.017426 0.000000 0.000000
# 5 0.000000 0.000000 0.000000 0.000000 0.099237 0.000000
# 6 0.000000 0.000000 0.000000 0.000000 0.000000 -0.017286
#
#
# Mechanical properties :
#
#
# Convention : Reuss Voigt Hill
#
# Bulk Modulus (GPa) = 37.84410 51.35353 44.59881
# Shear Modulus (GPa) = 42.17899 -3.61105 19.28397
#
# Velocity S-wave (km/s) = 4.19130 -1.22636 2.83400
# Velocity P-wave (km/s) = 6.25974 4.40259 5.41143
#
# Compressibility (1/GPa) = 0.02642420
#
# Stress axis : x y z
#
# Youngs Moduli (GPa) = 113.66856 119.70174 53.57565
#
# Poissons Ratio (x) = 0.38355 0.00358
# Poissons Ratio (y) = 0.36422 0.07636
# Poissons Ratio (z) = 0.00760 0.17060
#
# Static dielectric constant tensor:
#      x y z
#    x 1.898560 0.000000 0.000000 
#    y 0.000000 1.881790 0.000000 
#    z 0.000000 0.000000 2.016300 
# 
# From -- ./inp_files/26322.got.cif
#   From: 2010.05.17/outbox.cif.g08.bks.cpg/sg47_14_cif.got.tgz:26322.got - 2010.06.03 20:15:42.
