data_PCOD9388132
_publ_section_title
;
Structure prediction by ZEFSAII (Michael W. Deem and Ramdas Pophale) SiO2 
 PCOD9388132
Probable space group: P M M M
;
_chemical_formula_sum "Si O2"
_cell_formula_units_Z 52
_cell_length_a 8.308357
_cell_length_b 32.900226
_cell_length_c 10.821691
_cell_angle_alpha 90.000000
_cell_angle_beta 90.000000
_cell_angle_gamma 90.000000
_cell_volume 2958.074854
_symmetry_space_group_name_H-M "P M M M"
_symmetry_group_IT_number 47
_symmetry_cell_setting 'orthorhombic'
loop_
_space_group_symop_operation_xyz
x,y,z
-x,-y,z
x,-y,-z
-x,y,-z
-x,-y,-z
x,y,-z
-x,y,z
x,-y,z
loop_
_atom_site_type_symbol
_atom_site_label
_atom_site_fract_x
_atom_site_fract_y
_atom_site_fract_z
Si Si1 0.322225 0.500000 0.355828
Si Si2 0.694879 0.727600 0.142867
Si Si3 0.685353 0.181100 0.149543
Si Si4 0.189947 0.417968 0.252381
Si Si5 0.820597 0.904400 0.150612
Si Si6 0.500000 0.952898 0.849500
Si Si7 0.309894 0.452894 0.000000
Si Si8 0.805082 0.332564 0.359439
O O1 0.500000 0.500000 0.293969
O O2 0.342512 0.500000 0.500000
O O3 0.230345 0.459308 0.322364
O O4 0.500000 0.727827 0.140188
O O5 0.745987 0.773649 0.177977
O O6 0.751381 0.697058 0.248934
O O7 0.747419 0.718637 0.000000
O O8 0.500000 0.176490 0.192427
O O9 0.788377 0.142338 0.188868
O O10 0.679705 0.179811 0.000000
O O11 0.258634 0.426985 0.117873
O O12 0.251964 0.377910 0.321559
O O13 0.000000 0.413157 0.241579
O O14 0.665129 0.930580 0.190261
O O15 0.000000 0.917720 0.190050
O O16 0.820374 0.905492 0.000000
O O17 0.500000 0.000000 0.812926
O O18 0.500000 0.951315 0.000000
O O19 0.243880 0.500000 0.000000
O O20 0.500000 0.456627 0.000000
O O21 0.750878 0.322518 0.500000
O O22 0.000000 0.332451 0.361833
#
# Coordination Sequence:
#
# PCOD9388132 Si02
#       8
#     4   8   8   8   8   4   4   8
#     4  11  23  38  57  82 107 131 167 213 256 299
#     4   9  19  34  54  81 106 132 170 217 267 317
#     4   8  13  25  43  62  89 118 150 202 261 311
#     4  11  23  39  60  81 105 138 176 211 251 306
#     4   9  15  22  35  54  76 111 159 207 259 315
#     4   9  16  24  32  46  76 118 161 211 265 310
#     4  11  23  39  59  85 114 136 162 208 264 308
#     4  10  23  41  57  77 108 143 177 213 257 311
#
# _framework density 17.579001999999999
#
# number of rings (size 3 to 8) (size 9 to 14) (size 15 to 20)
#    0.000    2.385    1.538    2.308    1.077    4.308 
#    0.000    3.077    0.000    0.000    0.000    0.000 
#    0.000    0.000    0.000    0.000    0.000    1.538 
#
# Total GULP energy -289651.852128 kJ/mol
# GULP energy per Si atom -5570.227926 kJ/mol
# Density = 1.753899 g / cm^3
# Si number density = 17.579002 Si / 1000 Ang^3
#
#
#
# Elastic Constant Matrix: (Units=GPa)
#
#
# Indices 1 2 3 4 5 6 
#
# 1 69.1832 46.4372 24.4248 0.0000 0.0000 0.0000
# 2 46.4372 130.1689 45.5340 0.0000 0.0000 0.0000
# 3 24.4248 45.5340 83.4206 0.0000 0.0000 0.0000
# 4 0.0000 0.0000 0.0000 -2.5694 0.0000 0.0000
# 5 0.0000 0.0000 0.0000 0.0000 15.9693 0.0000
# 6 0.0000 0.0000 0.0000 0.0000 0.0000 16.8214
#
#
#
# Elastic Compliance Matrix: (Units=1/GPa)
#
#
# Indices 1 2 3 4 5 6 
#
# 1 0.019370 -0.006089 -0.002348 0.000000 0.000000 0.000000
# 2 -0.006089 0.011409 -0.004445 0.000000 0.000000 0.000000
# 3 -0.002348 -0.004445 0.015101 0.000000 0.000000 0.000000
# 4 0.000000 0.000000 0.000000 -0.389199 0.000000 0.000000
# 5 0.000000 0.000000 0.000000 0.000000 0.062620 0.000000
# 6 0.000000 0.000000 0.000000 0.000000 0.000000 0.059448
#
#
# Mechanical properties :
#
#
# Convention : Reuss Voigt Hill
#
# Bulk Modulus (GPa) = 49.70833 57.28496 53.49664
# Shear Modulus (GPa) = -26.48570 17.13606 -4.67482
#
# Velocity S-wave (km/s) = -3.88579 3.12557 -1.63251
# Velocity P-wave (km/s) = 2.86461 6.75896 5.19083
#
# Compressibility (1/GPa) = 0.02011735
#
# Stress axis : x y z
#
# Youngs Moduli (GPa) = 51.62530 87.64708 66.22060
#
# Poissons Ratio (x) = 0.53368 0.15548
# Poissons Ratio (y) = 0.31435 0.29434
# Poissons Ratio (z) = 0.12121 0.38958
#
# Static dielectric constant tensor:
#      x y z
#    x 1.627960 0.000000 0.000000 
#    y 0.000000 1.700550 0.000000 
#    z 0.000000 0.000000 1.696200 
# 
# From -- ./inp_files/15683.got.cif
#   From: 2010.05.17/outbox.cif.g08.bks.cpg/sg47_8_cif.got.tgz:15683.got - 2010.06.03 20:15:42.
