data_PCOD9389803
_publ_section_title
;
Structure prediction by ZEFSAII (Michael W. Deem and Ramdas Pophale) SiO2 
 PCOD9389803
Probable space group: P N N N
;
_chemical_formula_sum "Si O2"
_cell_formula_units_Z 38
_cell_length_a 27.301225
_cell_length_b 6.291259
_cell_length_c 10.714717
_cell_angle_alpha 90.000000
_cell_angle_beta 90.000000
_cell_angle_gamma 90.000000
_cell_volume 1840.349908
_symmetry_space_group_name_H-M "P N N N"
_symmetry_group_IT_number 48
_space_group.IT_coordinate_system_code '2'
_symmetry_cell_setting 'orthorhombic'
loop_
_space_group_symop_operation_xyz
x,y,z
1/2-x,1/2-y,z
x,1/2-y,1/2-z
1/2-x,y,1/2-z
-x,-y,-z
1/2+x,1/2+y,-z
-x,1/2+y,1/2+z
1/2+x,-y,1/2+z
loop_
_atom_site_type_symbol
_atom_site_label
_atom_site_fract_x
_atom_site_fract_y
_atom_site_fract_z
Si Si1 0.663088 0.920208 0.095317
Si Si2 0.872583 0.158294 0.623369
Si Si3 0.597544 0.250000 0.250000
Si Si4 0.968881 0.633600 0.887457
Si Si5 0.750000 0.750000 0.250000
Si Si6 0.909273 0.540677 0.456011
O O1 0.714390 0.886471 0.162071
O O2 0.632143 0.701934 0.094257
O O3 0.631299 0.094417 0.169096
O O4 0.663324 0.006980 0.954704
O O5 0.851862 0.250000 0.750000
O O6 0.885315 0.366591 0.544164
O O7 0.923209 0.025894 0.642230
O O8 0.569108 0.405546 0.157988
O O9 0.980422 0.750000 0.750000
O O10 0.948456 0.825469 0.970281
O O11 0.000000 0.500000 0.000000
#
# Coordination Sequence:
#
# PCOD9389803 Si02
#       6
#     8   8   4   8   2   8
#     4  10  22  36  65  98 133 174 214 285 337 422
#     4  10  21  43  69  90 128 186 239 275 342 422
#     4  10  18  39  60 100 124 174 230 266 338 418
#     4  11  24  45  66 103 140 181 233 302 356 416
#     4  12  20  42  60 106 150 164 216 288 372 396
#     4  10  20  41  65  92 131 179 229 272 347 410
#
# _framework density 20.648244999999999
#
# number of rings (size 3 to 8) (size 9 to 14) (size 15 to 20)
#    0.000    1.684    4.211    0.000    0.000    1.263 
#   20.842    0.000    0.000    3.789    0.000    0.000 
#    0.000    0.000    0.000    0.000    0.000    0.000 
#
# Total GULP energy -211606.503122 kJ/mol
# GULP energy per Si atom -5568.592187 kJ/mol
# Density = 2.060125 g / cm^3
# Si number density = 20.648245 Si / 1000 Ang^3
#
#
#
# Elastic Constant Matrix: (Units=GPa)
#
#
# Indices 1 2 3 4 5 6 
#
# 1 86.3459 43.6582 59.1859 0.0000 0.0000 0.0000
# 2 43.6582 142.2987 70.8693 0.0000 0.0000 0.0000
# 3 59.1859 70.8693 162.0465 0.0000 0.0000 0.0000
# 4 0.0000 0.0000 0.0000 61.4947 0.0000 0.0000
# 5 0.0000 0.0000 0.0000 0.0000 -29.5536 0.0000
# 6 0.0000 0.0000 0.0000 0.0000 0.0000 -10.2492
#
#
#
# Elastic Compliance Matrix: (Units=1/GPa)
#
#
# Indices 1 2 3 4 5 6 
#
# 1 0.016158 -0.002580 -0.004773 0.000000 0.000000 0.000000
# 2 -0.002580 0.009396 -0.003167 0.000000 0.000000 0.000000
# 3 -0.004773 -0.003167 0.009299 0.000000 0.000000 0.000000
# 4 0.000000 0.000000 0.000000 0.016262 0.000000 0.000000
# 5 0.000000 0.000000 0.000000 0.000000 -0.033837 0.000000
# 6 0.000000 0.000000 0.000000 0.000000 0.000000 -0.097569
#
#
# Mechanical properties :
#
#
# Convention : Reuss Voigt Hill
#
# Bulk Modulus (GPa) = 72.39547 82.01309 77.20428
# Shear Modulus (GPa) = -91.49780 18.80356 -36.34712
#
# Velocity S-wave (km/s) = -6.66399 3.02099 -4.20015
# Velocity P-wave (km/s) = 4.90656 7.20929 3.73494
#
# Compressibility (1/GPa) = 0.01381302
#
# Stress axis : x y z
#
# Youngs Moduli (GPa) = 61.89057 106.42426 107.53362
#
# Poissons Ratio (x) = 0.27459 0.51326
# Poissons Ratio (y) = 0.15969 0.34056
# Poissons Ratio (z) = 0.29540 0.33705
#
# Static dielectric constant tensor:
#      x y z
#    x 1.734510 0.000000 0.000000 
#    y 0.000000 1.725700 0.000000 
#    z 0.000000 0.000000 1.791020 
# 
# From -- ./inp_files/23551.got.cif
#   From: 2010.05.17/outbox.cif.g08.bks.cpg/sg48_12_cif.got.tgz:23551.got - 2010.06.03 20:39:00.
