data_PCOD9389281
_publ_section_title
;
Structure prediction by ZEFSAII (Michael W. Deem and Ramdas Pophale) SiO2 
 PCOD9389281
Probable space group: P M M M
;
_chemical_formula_sum "Si O2"
_cell_formula_units_Z 52
_cell_length_a 21.000000
_cell_length_b 15.000000
_cell_length_c 9.000000
_cell_angle_alpha 90.000000
_cell_angle_beta 90.000000
_cell_angle_gamma 90.000000
_cell_volume 2835.000000
_symmetry_space_group_name_H-M "P M M M"
_symmetry_group_IT_number 47
_symmetry_cell_setting 'orthorhombic'
loop_
_space_group_symop_operation_xyz
x,y,z
-x,-y,z
x,-y,-z
-x,y,-z
-x,-y,-z
x,y,-z
-x,y,z
x,-y,z
loop_
_atom_site_type_symbol
_atom_site_label
_atom_site_fract_x
_atom_site_fract_y
_atom_site_fract_z
Si Si1 0.074199 0.599065 0.678340
Si Si2 0.112567 0.228365 0.170486
Si Si3 0.568400 0.000000 0.173835
Si Si4 0.767579 0.102083 0.166400
Si Si5 0.354370 0.853875 0.331097
Si Si6 0.426958 0.674800 0.325995
Si Si7 0.575916 0.500000 0.826706
Si Si8 0.000000 0.101890 0.818100
O O1 0.076196 0.600288 0.500000
O O2 0.093704 0.500000 0.728183
O O3 0.113934 0.680154 0.741709
O O4 0.000000 0.612382 0.722135
O O5 0.176677 0.172744 0.170197
O O6 0.060174 0.159557 0.230437
O O7 0.095156 0.249782 0.000000
O O8 0.605953 0.085175 0.223469
O O9 0.500000 0.000000 0.248531
O O10 0.562645 0.000000 0.000000
O O11 0.717821 0.127887 0.291053
O O12 0.790135 0.000000 0.185214
O O13 0.738033 0.105988 0.000000
O O14 0.368026 0.879269 0.500000
O O15 0.379101 0.755227 0.307100
O O16 0.431232 0.654047 0.500000
O O17 0.500000 0.696301 0.276070
O O18 0.399936 0.589961 0.243023
O O19 0.500000 0.500000 0.793134
O O20 0.584658 0.500000 0.000000
O O21 0.000000 0.000000 0.766473
O O22 0.000000 0.098135 0.000000
#
# Coordination Sequence:
#
# PCOD9389281 Si02
#       8
#     8   8   4   8   8   8   4   4
#     4   9  18  33  53  78 110 145 176 215 275 334
#     4  10  19  32  54  82 107 138 181 225 266 317
#     4  11  23  37  55  81 113 146 179 224 279 325
#     4  10  21  37  55  76 107 146 182 218 270 329
#     4  11  22  36  56  80 107 142 186 228 265 317
#     4   9  18  33  53  77 105 136 169 212 266 316
#     4   9  17  29  49  79 109 135 167 208 257 318
#     4   9  16  28  48  77 110 138 173 219 264 311
#
# _framework density 18.342151999999999
#
# number of rings (size 3 to 8) (size 9 to 14) (size 15 to 20)
#    0.000    2.231    1.538    2.308    0.000    6.154 
#    0.000    2.308    1.692    1.846    0.000    0.000 
#    0.000    0.000    0.000    0.000    0.000    0.000 
#
# Total GULP energy -289553.487331 kJ/mol
# GULP energy per Si atom -5568.336295 kJ/mol
# Density = 1.830040 g / cm^3
# Si number density = 18.342152 Si / 1000 Ang^3
#
#
#
# Elastic Constant Matrix: (Units=GPa)
#
#
# Indices 1 2 3 4 5 6 
#
# 1 35.2508 33.3989 21.3624 0.0000 0.0000 0.0000
# 2 33.3989 135.9305 84.7223 0.0000 0.0000 0.0000
# 3 21.3624 84.7223 23.3642 0.0000 0.0000 0.0000
# 4 0.0000 0.0000 0.0000 28.5674 0.0000 0.0000
# 5 0.0000 0.0000 0.0000 0.0000 25.2695 0.0000
# 6 0.0000 0.0000 0.0000 0.0000 0.0000 33.4007
#
#
#
# Elastic Compliance Matrix: (Units=1/GPa)
#
#
# Indices 1 2 3 4 5 6 
#
# 1 0.036962 -0.009509 0.000685 0.000000 0.000000 0.000000
# 2 -0.009509 -0.003392 0.020994 0.000000 0.000000 0.000000
# 3 0.000685 0.020994 -0.033953 0.000000 0.000000 0.000000
# 4 0.000000 0.000000 0.000000 0.035005 0.000000 0.000000
# 5 0.000000 0.000000 0.000000 0.000000 0.039573 0.000000
# 6 0.000000 0.000000 0.000000 0.000000 0.000000 0.029939
#
#
# Mechanical properties :
#
#
# Convention : Reuss Voigt Hill
#
# Bulk Modulus (GPa) = 41.74067 52.61251 47.17659
# Shear Modulus (GPa) = 56.96032 21.11831 39.03932
#
# Velocity S-wave (km/s) = 5.57869 3.39684 4.61846
# Velocity P-wave (km/s) = 8.01884 6.64311 7.36317
#
# Compressibility (1/GPa) = 0.02395745
#
# Stress axis : x y z
#
# Youngs Moduli (GPa) = 27.05462 -294.81534 -29.45230
#
# Poissons Ratio (x) = -2.80334 0.02018
# Poissons Ratio (y) = 0.25726 0.61832
# Poissons Ratio (z) = -0.01853 6.18933
#
# Static dielectric constant tensor:
#      x y z
#    x 1.598240 0.000000 0.000000 
#    y 0.000000 1.622010 0.000000 
#    z 0.000000 0.000000 1.636850 
# 
# From -- ./inp_files/11160.got.cif
#   From: 2010.05.17/outbox.ucp.g08.bks.cvg/sg47_6_cif.got.tgz:11160.got - 2010.06.11 16:36:43.
