data_PCOD9389264
_publ_section_title
;
Structure prediction by ZEFSAII (Michael W. Deem and Ramdas Pophale) SiO2 
 PCOD9389264
Probable space group: P M M M
;
_chemical_formula_sum "Si O2"
_cell_formula_units_Z 52
_cell_length_a 9.000000
_cell_length_b 15.000000
_cell_length_c 21.000000
_cell_angle_alpha 90.000000
_cell_angle_beta 90.000000
_cell_angle_gamma 90.000000
_cell_volume 2835.000000
_symmetry_space_group_name_H-M "P M M M"
_symmetry_group_IT_number 47
_symmetry_cell_setting 'orthorhombic'
loop_
_space_group_symop_operation_xyz
x,y,z
-x,-y,z
x,-y,-z
-x,y,-z
-x,-y,-z
x,y,-z
-x,y,z
x,-y,z
loop_
_atom_site_type_symbol
_atom_site_label
_atom_site_fract_x
_atom_site_fract_y
_atom_site_fract_z
Si Si1 0.819439 0.598840 0.117339
Si Si2 0.173632 0.894318 0.806928
Si Si3 0.681527 0.603281 0.500000
Si Si4 0.823061 0.603670 0.265607
Si Si5 0.181459 0.212819 0.930699
Si Si6 0.679080 0.100632 0.328849
Si Si7 0.320839 0.285586 0.376772
O O1 0.767174 0.500000 0.098148
O O2 0.781093 0.614711 0.191523
O O3 0.772261 0.684249 0.077517
O O4 0.000000 0.596461 0.114641
O O5 0.229859 0.841699 0.868677
O O6 0.261698 0.878019 0.741926
O O7 0.000000 0.870041 0.796505
O O8 0.180043 0.000000 0.819910
O O9 0.729903 0.500000 0.500000
O O10 0.500000 0.602334 0.500000
O O11 0.730237 0.657431 0.437495
O O12 0.795398 0.500000 0.282258
O O13 0.737917 0.667313 0.313270
O O14 0.000000 0.619502 0.270217
O O15 0.000000 0.210068 0.929829
O O16 0.228994 0.178518 0.000000
O O17 0.500000 0.099220 0.327337
O O18 0.725280 0.181741 0.374568
O O19 0.730074 0.000000 0.345435
O O20 0.500000 0.287832 0.376769
#
# Coordination Sequence:
#
# PCOD9389264 Si02
#       7
#     8   8   4   8   8   8   8
#     4   8  14  24  37  55  81 112 144 178 219 265
#     4   9  17  29  46  67  89 115 147 182 224 273
#     4   9  18  32  48  68  96 125 151 181 218 263
#     4   9  17  29  46  68  93 120 150 188 232 271
#     4   9  16  24  36  57  84 113 145 181 219 260
#     4   9  18  32  49  70  94 117 147 190 232 266
#     4  10  19  31  49  70  92 122 155 184 220 266
#
# _framework density 18.342151999999999
#
# number of rings (size 3 to 8) (size 9 to 14) (size 15 to 20)
#    0.000    3.000    0.000    2.308    0.000    3.385 
#    0.000    3.846    0.000    4.154    0.000    2.154 
#    0.000    3.692    0.000   13.231    0.000   10.769 
#
# Total GULP energy -289724.482380 kJ/mol
# GULP energy per Si atom -5571.624661 kJ/mol
# Density = 1.830040 g / cm^3
# Si number density = 18.342152 Si / 1000 Ang^3
#
#
#
# Elastic Constant Matrix: (Units=GPa)
#
#
# Indices 1 2 3 4 5 6 
#
# 1 -5.0583 13.3296 3.7558 0.0000 0.0000 0.0000
# 2 13.3296 110.0865 67.1223 0.0000 0.0000 0.0000
# 3 3.7558 67.1223 52.6092 0.0000 0.0000 0.0000
# 4 0.0000 0.0000 0.0000 20.6494 0.0000 0.0000
# 5 0.0000 0.0000 0.0000 0.0000 16.6331 0.0000
# 6 0.0000 0.0000 0.0000 0.0000 0.0000 15.4315
#
#
#
# Elastic Compliance Matrix: (Units=1/GPa)
#
#
# Indices 1 2 3 4 5 6 
#
# 1 -0.120365 0.042035 -0.045038 0.000000 0.000000 0.000000
# 2 0.042035 0.026224 -0.036459 0.000000 0.000000 0.000000
# 3 -0.045038 -0.036459 0.068741 0.000000 0.000000 0.000000
# 4 0.000000 0.000000 0.000000 0.048428 0.000000 0.000000
# 5 0.000000 0.000000 0.000000 0.000000 0.060121 0.000000
# 6 0.000000 0.000000 0.000000 0.000000 0.000000 0.064803
#
#
# Mechanical properties :
#
#
# Convention : Reuss Voigt Hill
#
# Bulk Modulus (GPa) = -9.58544 36.22806 13.32131
# Shear Modulus (GPa) = 26.02787 15.43812 20.73299
#
# Velocity S-wave (km/s) = 3.77107 2.90431 3.36571
# Velocity P-wave (km/s) = 3.70460 5.57143 4.73101
#
# Compressibility (1/GPa) = -0.10432492
#
# Stress axis : x y z
#
# Youngs Moduli (GPa) = -8.30809 38.13265 14.54742
#
# Poissons Ratio (x) = -1.60290 0.65519
# Poissons Ratio (y) = 0.34923 0.53039
# Poissons Ratio (z) = -0.37418 1.39030
#
# Static dielectric constant tensor:
#      x y z
#    x 1.617810 0.000000 0.000000 
#    y 0.000000 1.669890 0.000000 
#    z 0.000000 0.000000 1.620060 
# 
# From -- ./inp_files/21469.got.cif
#   From: 2010.05.17/outbox.ucp.g08.bks.cvg/sg47_11_cif.got.tgz:21469.got - 2010.06.11 16:36:43.
