data_PCOD9389079
_publ_section_title
;
Structure prediction by ZEFSAII (Michael W. Deem and Ramdas Pophale) SiO2 
 PCOD9389079
Probable space group: P M M M
;
_chemical_formula_sum "Si O2"
_cell_formula_units_Z 52
_cell_length_a 7.570475
_cell_length_b 9.984229
_cell_length_c 34.972979
_cell_angle_alpha 90.000000
_cell_angle_beta 90.000000
_cell_angle_gamma 90.000000
_cell_volume 2643.445069
_symmetry_space_group_name_H-M "P M M M"
_symmetry_group_IT_number 47
_symmetry_cell_setting 'orthorhombic'
loop_
_space_group_symop_operation_xyz
x,y,z
-x,-y,z
x,-y,-z
-x,y,-z
-x,-y,-z
x,y,-z
-x,y,z
x,-y,z
loop_
_atom_site_type_symbol
_atom_site_label
_atom_site_fract_x
_atom_site_fract_y
_atom_site_fract_z
Si Si1 0.288570 0.349095 0.223186
Si Si2 0.715900 0.345126 0.691550
Si Si3 0.290169 0.847421 0.624831
Si Si4 0.787547 0.843914 0.458891
Si Si5 0.211479 0.849921 0.845412
Si Si6 0.215503 0.845681 0.931395
Si Si7 0.783720 0.345325 0.000000
O O1 0.500000 0.357063 0.225877
O O2 0.221621 0.500000 0.216101
O O3 0.227310 0.305151 0.265493
O O4 0.250086 0.251455 0.188433
O O5 0.500000 0.342816 0.690754
O O6 0.767475 0.500000 0.685469
O O7 0.780166 0.246915 0.658359
O O8 0.500000 0.857799 0.630625
O O9 0.265510 0.788066 0.582221
O O10 0.217879 0.000000 0.625784
O O11 0.727369 0.786513 0.500000
O O12 0.000000 0.843469 0.459439
O O13 0.729066 0.000000 0.458360
O O14 0.273595 0.812241 0.888120
O O15 0.000000 0.857259 0.848217
O O16 0.277636 0.000000 0.836832
O O17 0.000000 0.844859 0.932064
O O18 0.267700 0.000000 0.939831
O O19 0.273526 0.738975 0.962834
O O20 0.726748 0.500000 0.000000
O O21 0.000000 0.346456 0.000000
#
# Coordination Sequence:
#
# PCOD9389079 Si02
#       7
#     8   8   8   8   8   8   4
#     4   9  18  32  49  68  89 117 154 189 222 267
#     4   8  15  29  46  62  84 114 143 172 211 259
#     4   9  16  25  41  66  87 102 131 176 215 244
#     4   8  14  25  40  58  83 114 141 165 202 252
#     4   9  18  31  46  67  94 121 150 185 226 270
#     4   8  14  25  39  55  81 116 146 174 215 265
#     4   9  15  21  33  57  84 109 144 185 218 254
#
# _framework density 19.671299999999999
#
# number of rings (size 3 to 8) (size 9 to 14) (size 15 to 20)
#    0.000    3.462    0.000    2.538    0.000    3.077 
#    0.000    5.385    0.000    3.692    0.000    3.769 
#    0.000    4.308    0.000    0.000    0.000    0.000 
#
# Total GULP energy -289628.843544 kJ/mol
# GULP energy per Si atom -5569.785453 kJ/mol
# Density = 1.962653 g / cm^3
# Si number density = 19.671300 Si / 1000 Ang^3
#
#
#
# Elastic Constant Matrix: (Units=GPa)
#
#
# Indices 1 2 3 4 5 6 
#
# 1 40.5375 3.9752 5.2838 0.0000 0.0000 0.0000
# 2 3.9752 106.1358 131.3026 0.0000 0.0000 0.0000
# 3 5.2838 131.3026 231.4252 0.0000 0.0000 0.0000
# 4 0.0000 0.0000 0.0000 -27.7111 0.0000 0.0000
# 5 0.0000 0.0000 0.0000 0.0000 18.2398 0.0000
# 6 0.0000 0.0000 0.0000 0.0000 0.0000 8.0309
#
#
#
# Elastic Compliance Matrix: (Units=1/GPa)
#
#
# Indices 1 2 3 4 5 6 
#
# 1 0.024761 -0.000765 -0.000131 0.000000 0.000000 0.000000
# 2 -0.000765 0.031630 -0.017928 0.000000 0.000000 0.000000
# 3 -0.000131 -0.017928 0.014496 0.000000 0.000000 0.000000
# 4 0.000000 0.000000 0.000000 -0.036087 0.000000 0.000000
# 5 0.000000 0.000000 0.000000 0.000000 0.054825 0.000000
# 6 0.000000 0.000000 0.000000 0.000000 0.000000 0.124519
#
#
# Mechanical properties :
#
#
# Convention : Reuss Voigt Hill
#
# Bulk Modulus (GPa) = 30.08647 73.24685 51.66666
# Shear Modulus (GPa) = 19.02063 15.54771 17.28417
#
# Velocity S-wave (km/s) = 3.11291 2.81441 2.96742
# Velocity P-wave (km/s) = 5.31489 6.91935 6.16950
#
# Compressibility (1/GPa) = 0.03323754
#
# Stress axis : x y z
#
# Youngs Moduli (GPa) = 40.38666 31.61556 68.98478
#
# Poissons Ratio (x) = 0.02418 0.00906
# Poissons Ratio (y) = 0.03089 1.23678
# Poissons Ratio (z) = 0.00531 0.56681
#
# Static dielectric constant tensor:
#      x y z
#    x 1.766960 0.000000 0.000000 
#    y 0.000000 1.674530 0.000000 
#    z 0.000000 0.000000 1.710850 
# 
# From -- ./inp_files/34526.got.cif
#   From: 2010.05.17/outbox.cif.g08.bks.cpg/sg47_18_cif.got.tgz:34526.got - 2010.06.03 20:15:42.
