data_PCOD9389932
_publ_section_title
;
Structure prediction by ZEFSAII (Michael W. Deem and Ramdas Pophale) SiO2 
 PCOD9389932
Probable space group: P N N N
;
_chemical_formula_sum "Si O2"
_cell_formula_units_Z 46
_cell_length_a 27.747627
_cell_length_b 5.317911
_cell_length_c 17.623454
_cell_angle_alpha 90.000000
_cell_angle_beta 90.000000
_cell_angle_gamma 90.000000
_cell_volume 2600.506489
_symmetry_space_group_name_H-M "P N N N"
_symmetry_group_IT_number 48
_space_group.IT_coordinate_system_code '2'
_symmetry_cell_setting 'orthorhombic'
loop_
_space_group_symop_operation_xyz
x,y,z
1/2-x,1/2-y,z
x,1/2-y,1/2-z
1/2-x,y,1/2-z
-x,-y,-z
1/2+x,1/2+y,-z
-x,1/2+y,1/2+z
1/2+x,-y,1/2+z
loop_
_atom_site_type_symbol
_atom_site_label
_atom_site_fract_x
_atom_site_fract_y
_atom_site_fract_z
Si Si1 0.701426 0.112294 0.371104
Si Si2 0.250000 0.250000 0.750000
Si Si3 0.378353 0.075527 0.522213
Si Si4 0.078889 0.928352 0.473798
Si Si5 0.132228 0.750000 0.750000
Si Si6 0.510283 0.433512 0.376193
Si Si7 0.054912 0.068171 0.827743
O O1 0.750000 0.250000 0.395335
O O2 0.672641 0.986343 0.439212
O O3 0.664657 0.293847 0.324702
O O4 0.717525 0.918408 0.305478
O O5 0.396071 0.843406 0.470389
O O6 0.415824 0.081026 0.592549
O O7 0.383020 0.346967 0.484352
O O8 0.045045 0.923154 0.549438
O O9 0.042637 0.002036 0.406549
O O10 0.097123 0.978900 0.770786
O O11 0.517921 0.164790 0.336678
O O12 0.528126 0.665447 0.324947
#
# Coordination Sequence:
#
# PCOD9389932 Si02
#       7
#     8   2   8   8   4   8   8
#     4  11  22  35  43  62  82 119 157 201 237 274
#     4  12  22  32  52  54  80 124 154 200 238 262
#     4   9  19  29  45  62  79 102 142 179 232 270
#     4   9  16  29  45  62  80 100 125 181 226 287
#     4  10  19  34  42  60  90 114 162 188 231 262
#     4   9  16  28  43  62  82 101 131 166 237 269
#     4   9  18  27  42  62  82 110 136 180 211 276
#
# _framework density 17.688863000000001
#
# number of rings (size 3 to 8) (size 9 to 14) (size 15 to 20)
#    0.000    2.435    1.739    1.043    2.435    9.043 
#    0.000    0.000    0.000    0.000    0.000    0.000 
#    0.000    0.000    0.000    0.000    0.000    0.000 
#
# Total GULP energy -256657.078158 kJ/mol
# GULP energy per Si atom -5579.501699 kJ/mol
# Density = 1.764860 g / cm^3
# Si number density = 17.688863 Si / 1000 Ang^3
#
#
#
# Elastic Constant Matrix: (Units=GPa)
#
#
# Indices 1 2 3 4 5 6 
#
# 1 65.1918 13.0009 15.2640 0.0000 0.0000 0.0000
# 2 13.0009 83.2882 0.2034 0.0000 0.0000 0.0000
# 3 15.2640 0.2034 15.6605 0.0000 0.0000 0.0000
# 4 0.0000 0.0000 0.0000 14.1776 0.0000 0.0000
# 5 0.0000 0.0000 0.0000 0.0000 20.7245 0.0000
# 6 0.0000 0.0000 0.0000 0.0000 0.0000 16.8505
#
#
#
# Elastic Compliance Matrix: (Units=1/GPa)
#
#
# Indices 1 2 3 4 5 6 
#
# 1 0.020684 -0.003180 -0.020119 0.000000 0.000000 0.000000
# 2 -0.003180 0.012496 0.002937 0.000000 0.000000 0.000000
# 3 -0.020119 0.002937 0.083427 0.000000 0.000000 0.000000
# 4 0.000000 0.000000 0.000000 0.070534 0.000000 0.000000
# 5 0.000000 0.000000 0.000000 0.000000 0.048252 0.000000
# 6 0.000000 0.000000 0.000000 0.000000 0.000000 0.059345
#
#
# Mechanical properties :
#
#
# Convention : Reuss Voigt Hill
#
# Bulk Modulus (GPa) = 13.17829 24.56414 18.87122
# Shear Modulus (GPa) = 13.85981 19.39535 16.62758
#
# Velocity S-wave (km/s) = 2.80220 3.31489 3.06927
# Velocity P-wave (km/s) = 4.23509 5.34493 4.82205
#
# Compressibility (1/GPa) = 0.07588236
#
# Stress axis : x y z
#
# Youngs Moduli (GPa) = 48.34625 80.02791 11.98660
#
# Poissons Ratio (x) = 0.25445 0.24116
# Poissons Ratio (y) = 0.15372 -0.03520
# Poissons Ratio (z) = 0.97268 -0.23502
#
# Static dielectric constant tensor:
#      x y z
#    x 1.623220 0.000000 0.000000 
#    y 0.000000 1.675830 0.000000 
#    z 0.000000 0.000000 1.648510 
# 
# From -- ./inp_files/4607.got.cif
#   From: 2010.05.17/outbox.cif.g08.bks.cpg/sg48_3_cif.got.tgz:4607.got - 2010.06.03 20:39:00.
