data_PCOD9389428
_publ_section_title
;
Structure prediction by ZEFSAII (Michael W. Deem and Ramdas Pophale) SiO2 
 PCOD9389428
Probable space group: P M M M
;
_chemical_formula_sum "Si O2"
_cell_formula_units_Z 64
_cell_length_a 9.000000
_cell_length_b 24.000000
_cell_length_c 15.000000
_cell_angle_alpha 90.000000
_cell_angle_beta 90.000000
_cell_angle_gamma 90.000000
_cell_volume 3240.000000
_symmetry_space_group_name_H-M "P M M M"
_symmetry_group_IT_number 47
_symmetry_cell_setting 'orthorhombic'
loop_
_space_group_symop_operation_xyz
x,y,z
-x,-y,z
x,-y,-z
-x,y,-z
-x,-y,-z
x,y,-z
-x,y,z
x,-y,z
loop_
_atom_site_type_symbol
_atom_site_label
_atom_site_fract_x
_atom_site_fract_y
_atom_site_fract_z
Si Si1 0.836100 0.934407 0.098878
Si Si2 0.674712 0.341061 0.105072
Si Si3 0.822785 0.560816 0.789412
Si Si4 0.319488 0.829625 0.401020
Si Si5 0.176742 0.227208 0.103380
Si Si6 0.672592 0.866436 0.778651
Si Si7 0.822872 0.406460 0.599184
Si Si8 0.332902 0.292853 0.392472
O O1 0.708287 0.921088 0.167069
O O2 0.000000 0.913508 0.127268
O O3 0.846900 0.000000 0.091154
O O4 0.807271 0.911180 0.000000
O O5 0.500000 0.332812 0.116692
O O6 0.732769 0.393133 0.159237
O O7 0.760527 0.286166 0.135202
O O8 0.705113 0.349254 0.000000
O O9 0.799518 0.500000 0.829198
O O10 0.775886 0.559917 0.685613
O O11 0.000000 0.572933 0.791933
O O12 0.260540 0.839469 0.500000
O O13 0.500000 0.828976 0.407745
O O14 0.275937 0.870879 0.323136
O O15 0.279072 0.768022 0.365509
O O16 0.240567 0.179725 0.165659
O O17 0.000000 0.227631 0.104760
O O18 0.225774 0.220348 0.000000
O O19 0.500000 0.852126 0.779025
O O20 0.762259 0.420067 0.500000
O O21 0.776192 0.343511 0.622905
O O22 0.000000 0.411428 0.593046
O O23 0.344942 0.288258 0.500000
O O24 0.500000 0.303790 0.357741
#
# Coordination Sequence:
#
# PCOD9389428 Si02
#       8
#     8   8   8   8   8   8   8   8
#     4   9  19  37  58  78 106 148 192 229 271 327
#     4  10  22  40  60  80 103 132 170 220 272 317
#     4  10  22  38  55  77 104 136 174 213 259 321
#     4   8  16  31  48  70 105 146 182 215 258 313
#     4  10  21  37  56  79 111 147 176 206 257 327
#     4  11  21  31  52  86 116 144 182 228 272 312
#     4   9  18  32  50  74 103 133 168 212 258 305
#     4   8  14  27  47  68  92 128 171 209 250 304
#
# _framework density 19.753086
#
# number of rings (size 3 to 8) (size 9 to 14) (size 15 to 20)
#    0.000    2.625    0.000    2.625    1.750    4.750 
#    0.000    3.750    0.000    2.625    0.000    5.250 
#    0.000    0.000    0.000    0.000    0.000    0.000 
#
# Total GULP energy -356428.689601 kJ/mol
# GULP energy per Si atom -5569.198275 kJ/mol
# Density = 1.970813 g / cm^3
# Si number density = 19.753086 Si / 1000 Ang^3
#
#
#
# Elastic Constant Matrix: (Units=GPa)
#
#
# Indices 1 2 3 4 5 6 
#
# 1 8.5761 24.0658 31.7069 0.0000 0.0000 0.0000
# 2 24.0658 46.8442 35.4957 0.0000 0.0000 0.0000
# 3 31.7069 35.4957 70.5465 0.0000 0.0000 0.0000
# 4 0.0000 0.0000 0.0000 13.0805 0.0000 0.0000
# 5 0.0000 0.0000 0.0000 0.0000 9.9649 0.0000
# 6 0.0000 0.0000 0.0000 0.0000 0.0000 26.7237
#
#
#
# Elastic Compliance Matrix: (Units=1/GPa)
#
#
# Indices 1 2 3 4 5 6 
#
# 1 -0.125865 0.035228 0.038844 0.000000 0.000000 0.000000
# 2 0.035228 0.024641 -0.028231 0.000000 0.000000 0.000000
# 3 0.038844 -0.028231 0.010921 0.000000 0.000000 0.000000
# 4 0.000000 0.000000 0.000000 0.076450 0.000000 0.000000
# 5 0.000000 0.000000 0.000000 0.000000 0.100352 0.000000
# 6 0.000000 0.000000 0.000000 0.000000 0.000000 0.037420
#
#
# Mechanical properties :
#
#
# Convention : Reuss Voigt Hill
#
# Bulk Modulus (GPa) = 724.67725 34.27818 379.47771
# Shear Modulus (GPa) = 152.91684 12.26705 82.59195
#
# Velocity S-wave (km/s) = 8.80808 2.49473 6.47325
# Velocity P-wave (km/s) = 21.70500 5.06846 15.76065
#
# Compressibility (1/GPa) = 0.00137992
#
# Stress axis : x y z
#
# Youngs Moduli (GPa) = -7.94505 40.58232 91.56358
#
# Poissons Ratio (x) = -1.42964 -3.55672
# Poissons Ratio (y) = 0.27989 2.58498
# Poissons Ratio (z) = 0.30862 1.14570
#
# Static dielectric constant tensor:
#      x y z
#    x 1.685810 0.000000 0.000000 
#    y 0.000000 1.775980 0.000000 
#    z 0.000000 0.000000 1.743480 
# 
# From -- ./inp_files/21922.got.cif
#   From: 2010.05.17/outbox.ucp.g08.bks.cvg/sg47_11_cif.got.tgz:21922.got - 2010.06.11 16:36:43.
