data_PCOD9389072
_publ_section_title
;
Structure prediction by ZEFSAII (Michael W. Deem and Ramdas Pophale) SiO2 
 PCOD9389072
Probable space group: P M M M
;
_chemical_formula_sum "Si O2"
_cell_formula_units_Z 44
_cell_length_a 29.651184
_cell_length_b 7.411523
_cell_length_c 9.477755
_cell_angle_alpha 90.000000
_cell_angle_beta 90.000000
_cell_angle_gamma 90.000000
_cell_volume 2082.835535
_symmetry_space_group_name_H-M "P M M M"
_symmetry_group_IT_number 47
_symmetry_cell_setting 'orthorhombic'
loop_
_space_group_symop_operation_xyz
x,y,z
-x,-y,z
x,-y,-z
-x,y,-z
-x,-y,-z
x,y,-z
-x,y,z
x,-y,z
loop_
_atom_site_type_symbol
_atom_site_label
_atom_site_fract_x
_atom_site_fract_y
_atom_site_fract_z
Si Si1 0.088318 0.779772 0.836912
Si Si2 0.362758 0.785133 0.841499
Si Si3 0.000000 0.220259 0.663285
Si Si4 0.736709 0.780263 0.164522
Si Si5 0.450930 0.716007 0.660520
Si Si6 0.823613 0.220514 0.337387
O O1 0.133580 0.723508 0.755906
O O2 0.044507 0.723376 0.748379
O O3 0.088203 0.000000 0.838582
O O4 0.087100 0.721648 0.000000
O O5 0.313575 0.720589 0.790107
O O6 0.406593 0.755131 0.748693
O O7 0.358001 0.000000 0.851463
O O8 0.369858 0.714459 0.000000
O O9 0.000000 0.278210 0.500000
O O10 0.000000 0.000000 0.661569
O O11 0.777362 0.719429 0.263194
O O12 0.737850 0.000000 0.167588
O O13 0.743013 0.729121 0.000000
O O14 0.446280 0.782766 0.500000
O O15 0.500000 0.779358 0.716281
O O16 0.453338 0.500000 0.654413
O O17 0.827084 0.277558 0.500000
O O18 0.823588 0.000000 0.337773
#
# Coordination Sequence:
#
# PCOD9389072 Si02
#       6
#     8   8   4   8   8   8
#     4   9  15  21  28  37  51  75 107 143 188 240
#     4   9  18  31  47  69  94 117 144 181 223 265
#     4   9  15  21  27  35  49  69  99 145 194 235
#     4   8  14  25  38  52  74 101 125 154 197 246
#     4   9  19  35  51  67  90 120 152 184 218 259
#     4   9  15  21  30  45  63  84 114 151 190 234
#
# _framework density 21.125046000000001
#
# number of rings (size 3 to 8) (size 9 to 14) (size 15 to 20)
#    0.000    3.182    0.000    3.000    0.000    7.636 
#    0.000    4.545    0.000    0.000    0.000    0.000 
#    0.000    0.000    0.000    0.000    0.000    0.000 
#
# Total GULP energy -245492.463946 kJ/mol
# GULP energy per Si atom -5579.374181 kJ/mol
# Density = 2.107696 g / cm^3
# Si number density = 21.125046 Si / 1000 Ang^3
#
#
#
# Elastic Constant Matrix: (Units=GPa)
#
#
# Indices 1 2 3 4 5 6 
#
# 1 266.9826 6.6110 154.1615 0.0000 0.0000 0.0000
# 2 6.6110 66.0613 4.2164 0.0000 0.0000 0.0000
# 3 154.1615 4.2164 174.5353 0.0000 0.0000 0.0000
# 4 0.0000 0.0000 0.0000 2.1444 0.0000 0.0000
# 5 0.0000 0.0000 0.0000 0.0000 69.3646 0.0000
# 6 0.0000 0.0000 0.0000 0.0000 0.0000 87.2794
#
#
#
# Elastic Compliance Matrix: (Units=1/GPa)
#
#
# Indices 1 2 3 4 5 6 
#
# 1 0.007652 -0.000335 -0.006750 0.000000 0.000000 0.000000
# 2 -0.000335 0.015175 -0.000071 0.000000 0.000000 0.000000
# 3 -0.006750 -0.000071 0.011694 0.000000 0.000000 0.000000
# 4 0.000000 0.000000 0.000000 0.466322 0.000000 0.000000
# 5 0.000000 0.000000 0.000000 0.000000 0.014417 0.000000
# 6 0.000000 0.000000 0.000000 0.000000 0.000000 0.011457
#
#
# Mechanical properties :
#
#
# Convention : Reuss Voigt Hill
#
# Bulk Modulus (GPa) = 49.48386 93.06189 71.27287
# Shear Modulus (GPa) = 9.12800 54.59704 31.86252
#
# Velocity S-wave (km/s) = 2.08094 5.08928 3.88787
# Velocity P-wave (km/s) = 5.40822 8.87034 7.34615
#
# Compressibility (1/GPa) = 0.02020861
#
# Stress axis : x y z
#
# Youngs Moduli (GPa) = 130.69030 65.89571 85.51675
#
# Poissons Ratio (x) = 0.02207 0.57727
# Poissons Ratio (y) = 0.04377 0.00605
# Poissons Ratio (z) = 0.88221 0.00467
#
# Static dielectric constant tensor:
#      x y z
#    x 1.752790 0.000000 0.000000 
#    y 0.000000 1.820620 0.000000 
#    z 0.000000 0.000000 1.718000 
# 
# From -- ./inp_files/2167.got.cif
#   From: 2010.05.17/outbox.cif.g08.bks.cpg/sg47_2_cif.got.tgz:2167.got - 2010.06.03 20:15:42.
