data_PCOD9389862
_publ_section_title
;
Structure prediction by ZEFSAII (Michael W. Deem and Ramdas Pophale) SiO2 
 PCOD9389862
Probable space group: P N N N
;
_chemical_formula_sum "Si O2"
_cell_formula_units_Z 58
_cell_length_a 5.441217
_cell_length_b 26.960926
_cell_length_c 15.734047
_cell_angle_alpha 90.000000
_cell_angle_beta 90.000000
_cell_angle_gamma 90.000000
_cell_volume 2308.188611
_symmetry_space_group_name_H-M "P N N N"
_symmetry_group_IT_number 48
_space_group.IT_coordinate_system_code '2'
_symmetry_cell_setting 'orthorhombic'
loop_
_space_group_symop_operation_xyz
x,y,z
1/2-x,1/2-y,z
x,1/2-y,1/2-z
1/2-x,y,1/2-z
-x,-y,-z
1/2+x,1/2+y,-z
-x,1/2+y,1/2+z
1/2+x,-y,1/2+z
loop_
_atom_site_type_symbol
_atom_site_label
_atom_site_fract_x
_atom_site_fract_y
_atom_site_fract_z
Si Si1 0.773468 0.541756 0.057211
Si Si2 0.177598 0.822478 0.518927
Si Si3 0.250000 0.250000 0.750000
Si Si4 0.780944 0.435038 0.655597
Si Si5 0.387971 0.819523 0.334817
Si Si6 0.202491 0.412129 0.369031
Si Si7 0.805637 0.066940 0.398757
Si Si8 0.679027 0.800588 0.607778
O O1 0.510973 0.542411 0.105359
O O2 0.812727 0.482685 0.045852
O O3 0.009879 0.562235 0.110895
O O4 0.728921 0.574003 0.971372
O O5 0.249152 0.810322 0.422745
O O6 0.195715 0.881152 0.547153
O O7 0.401800 0.798898 0.572828
O O8 0.900716 0.805342 0.538541
O O9 0.365449 0.210678 0.681488
O O10 0.750000 0.456322 0.750000
O O11 0.884653 0.378940 0.667101
O O12 0.250000 0.803180 0.250000
O O13 0.457071 0.433805 0.339321
O O14 0.199706 0.353988 0.349054
O O15 0.942457 0.433127 0.346734
O O16 0.750000 0.750000 0.654297
#
# Coordination Sequence:
#
# PCOD9389862 Si02
#       8
#     8   8   2   8   8   8   8   8
#     4  12  21  38  61  84 111 149 185 236 303 371
#     4  10  22  38  56  80 108 136 188 252 298 348
#     4  12  30  44  64  74 100 156 226 264 308 340
#     4  11  25  40  61  80 116 147 191 239 303 350
#     4  11  27  44  57  77 103 146 202 264 304 339
#     4  10  19  32  50  79 109 137 186 235 279 337
#     4  10  20  35  57  86 111 138 180 241 308 365
#     4  10  20  32  50  72 102 142 178 224 279 335
#
# _framework density 25.127928000000001
#
# number of rings (size 3 to 8) (size 9 to 14) (size 15 to 20)
#    0.000    1.379    0.000    6.828    6.759    1.103 
#    0.000    0.000    0.000    0.000    0.000    0.000 
#    0.000    0.000    0.000    0.000    0.000  772.414 
#
# Total GULP energy -323680.328959 kJ/mol
# GULP energy per Si atom -5580.695327 kJ/mol
# Density = 2.507074 g / cm^3
# Si number density = 25.127928 Si / 1000 Ang^3
#
#
#
# Elastic Constant Matrix: (Units=GPa)
#
#
# Indices 1 2 3 4 5 6 
#
# 1 208.6174 29.4579 39.2089 0.0000 0.0000 0.0000
# 2 29.4579 166.1783 3.4054 0.0000 0.0000 0.0000
# 3 39.2089 3.4054 109.8673 0.0000 0.0000 0.0000
# 4 0.0000 0.0000 0.0000 22.4944 0.0000 0.0000
# 5 0.0000 0.0000 0.0000 0.0000 -13.6619 0.0000
# 6 0.0000 0.0000 0.0000 0.0000 0.0000 44.4394
#
#
#
# Elastic Compliance Matrix: (Units=1/GPa)
#
#
# Indices 1 2 3 4 5 6 
#
# 1 0.005268 -0.000896 -0.001852 0.000000 0.000000 0.000000
# 2 -0.000896 0.006174 0.000128 0.000000 0.000000 0.000000
# 3 -0.001852 0.000128 0.009759 0.000000 0.000000 0.000000
# 4 0.000000 0.000000 0.000000 0.044455 0.000000 0.000000
# 5 0.000000 0.000000 0.000000 0.000000 -0.073196 0.000000
# 6 0.000000 0.000000 0.000000 0.000000 0.000000 0.022503
#
#
# Mechanical properties :
#
#
# Convention : Reuss Voigt Hill
#
# Bulk Modulus (GPa) = 62.65187 69.86749 66.25968
# Shear Modulus (GPa) = 195.90258 38.16042 117.03150
#
# Velocity S-wave (km/s) = 8.83919 3.90121 6.83194
# Velocity P-wave (km/s) = 11.36496 6.93957 9.41595
#
# Compressibility (1/GPa) = 0.01596121
#
# Stress axis : x y z
#
# Youngs Moduli (GPa) = 189.82173 161.97439 102.47008
#
# Poissons Ratio (x) = 0.14511 0.18980
# Poissons Ratio (y) = 0.17006 -0.01315
# Poissons Ratio (z) = 0.35160 -0.02079
#
# Static dielectric constant tensor:
#      x y z
#    x 2.014150 0.000000 0.000000 
#    y 0.000000 2.040000 0.000000 
#    z 0.000000 0.000000 2.000870 
# 
# From -- ./inp_files/29637.got.cif
#   From: 2010.05.17/outbox.cif.g08.bks.cpg/sg48_15_cif.got.tgz:29637.got - 2010.06.03 20:39:00.
