data_PCOD9389548
_publ_section_title
;
Structure prediction by ZEFSAII (Michael W. Deem and Ramdas Pophale) SiO2 
 PCOD9389548
Probable space group: P N N N
;
_chemical_formula_sum "Si O2"
_cell_formula_units_Z 34
_cell_length_a 8.174212
_cell_length_b 15.980317
_cell_length_c 11.759386
_cell_angle_alpha 90.000000
_cell_angle_beta 90.000000
_cell_angle_gamma 90.000000
_cell_volume 1536.087423
_symmetry_space_group_name_H-M "P N N N"
_symmetry_group_IT_number 48
_space_group.IT_coordinate_system_code '2'
_symmetry_cell_setting 'orthorhombic'
loop_
_space_group_symop_operation_xyz
x,y,z
1/2-x,1/2-y,z
x,1/2-y,1/2-z
1/2-x,y,1/2-z
-x,-y,-z
1/2+x,1/2+y,-z
-x,1/2+y,1/2+z
1/2+x,-y,1/2+z
loop_
_atom_site_type_symbol
_atom_site_label
_atom_site_fract_x
_atom_site_fract_y
_atom_site_fract_z
Si Si1 0.750000 0.750000 0.750000
Si Si2 0.428106 0.149115 0.051776
Si Si3 0.937035 0.022025 0.280002
Si Si4 0.370222 0.628908 0.347542
Si Si5 0.847139 0.971974 0.927897
O O1 0.627337 0.793169 0.843068
O O2 0.531485 0.073431 0.106273
O O3 0.260705 0.101059 0.016324
O O4 0.539535 0.181720 0.947016
O O5 0.750000 0.033101 0.250000
O O6 0.069647 0.057448 0.189907
O O7 0.983687 0.924694 0.290277
O O8 0.250000 0.664002 0.250000
O O9 0.261079 0.553591 0.401274
O O10 0.000000 0.000000 0.000000
#
# Coordination Sequence:
#
# PCOD9389548 Si02
#       5
#     2   8   8   8   8
#     4  12  24  40  58  80 134 184 206 244 316 396
#     4  11  20  37  53  83 126 163 208 247 305 391
#     4  10  17  30  54  89 123 153 195 258 323 365
#     4   9  19  32  54  87 117 150 198 264 318 353
#     4  10  17  30  55  87 120 156 194 263 319 360
#
# _framework density 22.134157999999999
#
# number of rings (size 3 to 8) (size 9 to 14) (size 15 to 20)
#    0.000    1.882    2.353    7.059    0.000    0.000 
#    0.000    0.588    0.000    0.000    0.000   35.412 
#    0.000    0.000    0.000    0.000    0.000    0.235 
#
# Total GULP energy -189356.813800 kJ/mol
# GULP energy per Si atom -5569.318053 kJ/mol
# Density = 2.208378 g / cm^3
# Si number density = 22.134158 Si / 1000 Ang^3
#
#
#
# Elastic Constant Matrix: (Units=GPa)
#
#
# Indices 1 2 3 4 5 6 
#
# 1 150.5623 19.1607 64.0251 0.0000 0.0000 0.0000
# 2 19.1607 42.5853 29.4469 0.0000 0.0000 0.0000
# 3 64.0251 29.4469 135.3504 0.0000 0.0000 0.0000
# 4 0.0000 0.0000 0.0000 22.6849 0.0000 0.0000
# 5 0.0000 0.0000 0.0000 0.0000 71.5810 0.0000
# 6 0.0000 0.0000 0.0000 0.0000 0.0000 1.7374
#
#
#
# Elastic Compliance Matrix: (Units=1/GPa)
#
#
# Indices 1 2 3 4 5 6 
#
# 1 0.008367 -0.001210 -0.003695 0.000000 0.000000 0.000000
# 2 -0.001210 0.027815 -0.005479 0.000000 0.000000 0.000000
# 3 -0.003695 -0.005479 0.010328 0.000000 0.000000 0.000000
# 4 0.000000 0.000000 0.000000 0.044082 0.000000 0.000000
# 5 0.000000 0.000000 0.000000 0.000000 0.013970 0.000000
# 6 0.000000 0.000000 0.000000 0.000000 0.000000 0.575565
#
#
# Mechanical properties :
#
#
# Convention : Reuss Voigt Hill
#
# Bulk Modulus (GPa) = 38.84567 61.52927 50.18747
# Shear Modulus (GPa) = 7.04746 33.59169 20.31958
#
# Velocity S-wave (km/s) = 1.78631 3.89992 3.03317
# Velocity P-wave (km/s) = 4.67362 6.93814 5.91526
#
# Compressibility (1/GPa) = 0.02574289
#
# Stress axis : x y z
#
# Youngs Moduli (GPa) = 119.51993 35.95130 96.82464
#
# Poissons Ratio (x) = 0.04349 0.35772
# Poissons Ratio (y) = 0.14460 0.53053
# Poissons Ratio (z) = 0.44157 0.19699
#
# Static dielectric constant tensor:
#      x y z
#    x 1.841440 0.000000 0.000000 
#    y 0.000000 1.827170 0.000000 
#    z 0.000000 0.000000 1.870270 
# 
# From -- ./inp_files/10300.got.cif
#   From: 2010.05.17/outbox.cif.g08.bks.cpg/sg48_6_cif.got.tgz:10300.got - 2010.06.03 20:39:00.
