data_PCOD9389531
_publ_section_title
;
Structure prediction by ZEFSAII (Michael W. Deem and Ramdas Pophale) SiO2 
 PCOD9389531
Probable space group: P N N N
;
_chemical_formula_sum "Si O2"
_cell_formula_units_Z 48
_cell_length_a 9.245482
_cell_length_b 30.366285
_cell_length_c 7.689232
_cell_angle_alpha 90.000000
_cell_angle_beta 90.000000
_cell_angle_gamma 90.000000
_cell_volume 2158.759122
_symmetry_space_group_name_H-M "P N N N"
_symmetry_group_IT_number 48
_space_group.IT_coordinate_system_code '2'
_symmetry_cell_setting 'orthorhombic'
loop_
_space_group_symop_operation_xyz
x,y,z
1/2-x,1/2-y,z
x,1/2-y,1/2-z
1/2-x,y,1/2-z
-x,-y,-z
1/2+x,1/2+y,-z
-x,1/2+y,1/2+z
1/2+x,-y,1/2+z
loop_
_atom_site_type_symbol
_atom_site_label
_atom_site_fract_x
_atom_site_fract_y
_atom_site_fract_z
Si Si1 0.572680 0.164018 0.052176
Si Si2 0.416661 0.246981 0.462580
Si Si3 0.053768 0.429779 0.580149
Si Si4 0.905162 0.339861 0.475225
Si Si5 0.921894 0.992726 0.749363
Si Si6 0.346163 0.411292 0.431648
O O1 0.505934 0.209836 0.989088
O O2 0.584181 0.160617 0.263587
O O3 0.735305 0.161454 0.982341
O O4 0.457122 0.126062 0.014265
O O5 0.250000 0.250000 0.519601
O O6 0.414935 0.250000 0.250000
O O7 0.499041 0.202911 0.522746
O O8 0.031493 0.461459 0.411258
O O9 0.220816 0.417984 0.568839
O O10 0.967734 0.384751 0.553576
O O11 0.004404 0.461694 0.733376
O O12 0.750000 0.002990 0.750000
O O13 0.567897 0.956685 0.901166
O O14 0.250000 0.401226 0.250000
#
# Coordination Sequence:
#
# PCOD9389531 Si02
#       6
#     8   8   8   8   8   8
#     4  10  17  25  37  56  88 114 139 178 213 265
#     4   9  17  24  37  55  81 113 146 171 199 254
#     4   9  15  26  44  59  77 107 146 181 219 265
#     4  10  17  25  37  58  84 115 145 171 220 261
#     4   8  15  26  43  61  77 102 144 189 221 257
#     4   9  15  26  42  58  77 110 148 181 217 263
#
# _framework density 22.234997
#
# number of rings (size 3 to 8) (size 9 to 14) (size 15 to 20)
#    0.000    3.167    3.333    1.500    2.333    2.000 
#    0.000    0.000    0.000   20.000    0.000    0.000 
#    0.000    2.667    0.000    2.167    0.000    0.500 
#
# Total GULP energy -267743.683898 kJ/mol
# GULP energy per Si atom -5577.993415 kJ/mol
# Density = 2.218439 g / cm^3
# Si number density = 22.234997 Si / 1000 Ang^3
#
#
#
# Elastic Constant Matrix: (Units=GPa)
#
#
# Indices 1 2 3 4 5 6 
#
# 1 166.0839 163.0277 28.2184 0.0000 0.0000 0.0000
# 2 163.0277 240.0872 35.2176 0.0000 0.0000 0.0000
# 3 28.2184 35.2176 72.9862 0.0000 0.0000 0.0000
# 4 0.0000 0.0000 0.0000 -0.1805 0.0000 0.0000
# 5 0.0000 0.0000 0.0000 0.0000 -4.4418 0.0000
# 6 0.0000 0.0000 0.0000 0.0000 0.0000 43.5564
#
#
#
# Elastic Compliance Matrix: (Units=1/GPa)
#
#
# Indices 1 2 3 4 5 6 
#
# 1 0.018146 -0.012153 -0.001152 0.000000 0.000000 0.000000
# 2 -0.012153 0.012621 -0.001392 0.000000 0.000000 0.000000
# 3 -0.001152 -0.001392 0.014818 0.000000 0.000000 0.000000
# 4 0.000000 0.000000 0.000000 -5.540142 0.000000 0.000000
# 5 0.000000 0.000000 0.000000 0.000000 -0.225132 0.000000
# 6 0.000000 0.000000 0.000000 0.000000 0.000000 0.022959
#
#
# Mechanical properties :
#
#
# Convention : Reuss Voigt Hill
#
# Bulk Modulus (GPa) = 61.75410 103.56495 82.65952
# Shear Modulus (GPa) = -0.88309 24.63305 11.87498
#
# Velocity S-wave (km/s) = -0.63089 3.33205 2.31350
# Velocity P-wave (km/s) = 5.22522 7.84104 6.66277
#
# Compressibility (1/GPa) = 0.01619326
#
# Stress axis : x y z
#
# Youngs Moduli (GPa) = 55.10914 79.23052 67.48569
#
# Poissons Ratio (x) = 0.96287 0.07772
# Poissons Ratio (y) = 0.66973 0.09391
# Poissons Ratio (z) = 0.06347 0.11026
#
# Static dielectric constant tensor:
#      x y z
#    x 1.792930 0.000000 0.000000 
#    y 0.000000 1.781520 0.000000 
#    z 0.000000 0.000000 1.948600 
# 
# From -- ./inp_files/18984.got.cif
#   From: 2010.05.17/outbox.cif.g08.bks.cpg/sg48_10_cif.got.tgz:18984.got - 2010.06.03 20:39:00.
