data_PCOD9389529
_publ_section_title
;
Structure prediction by ZEFSAII (Michael W. Deem and Ramdas Pophale) SiO2 
 PCOD9389529
Probable space group: P N N N
;
_chemical_formula_sum "Si O2"
_cell_formula_units_Z 52
_cell_length_a 8.718879
_cell_length_b 15.108708
_cell_length_c 19.682365
_cell_angle_alpha 90.000000
_cell_angle_beta 90.000000
_cell_angle_gamma 90.000000
_cell_volume 2592.777563
_symmetry_space_group_name_H-M "P N N N"
_symmetry_group_IT_number 48
_space_group.IT_coordinate_system_code '2'
_symmetry_cell_setting 'orthorhombic'
loop_
_space_group_symop_operation_xyz
x,y,z
1/2-x,1/2-y,z
x,1/2-y,1/2-z
1/2-x,y,1/2-z
-x,-y,-z
1/2+x,1/2+y,-z
-x,1/2+y,1/2+z
1/2+x,-y,1/2+z
loop_
_atom_site_type_symbol
_atom_site_label
_atom_site_fract_x
_atom_site_fract_y
_atom_site_fract_z
Si Si1 0.750000 0.250000 0.250000
Si Si2 0.373700 0.126111 0.647193
Si Si3 0.096820 0.954755 0.940262
Si Si4 0.995978 0.202572 0.148026
Si Si5 0.874624 0.328280 0.038721
Si Si6 0.250000 0.250000 0.250000
Si Si7 0.088059 0.645651 0.231784
Si Si8 0.461711 0.189428 0.900848
O O1 0.854086 0.192379 0.199844
O O2 0.440210 0.118465 0.723644
O O3 0.472375 0.204390 0.610754
O O4 0.202415 0.159105 0.629295
O O5 0.388877 0.030993 0.614900
O O6 0.004418 0.872499 0.908535
O O7 0.266155 0.914629 0.956236
O O8 0.000000 0.000000 0.000000
O O9 0.961579 0.294513 0.107151
O O10 0.140237 0.199466 0.197518
O O11 0.750000 0.250000 0.024021
O O12 0.996106 0.332981 0.977602
O O13 0.095631 0.750000 0.250000
O O14 0.250000 0.602415 0.250000
O O15 0.074372 0.641157 0.151136
#
# Coordination Sequence:
#
# PCOD9389529 Si02
#       8
#     2   8   8   8   8   2   8   8
#     4  10  16  42  72  86 116 176 238 254 320 402
#     4  10  21  38  56  88 125 166 207 266 314 371
#     4  11  23  39  61  94 134 164 207 270 331 393
#     4  10  21  43  67  97 123 172 219 275 334 393
#     4  10  21  38  65  92 121 169 218 258 329 409
#     4  10  24  42  76  98 124 162 232 298 324 390
#     4   9  19  34  58  81 112 158 213 248 289 369
#     4  10  21  37  62  86 120 171 211 253 312 387
#
# _framework density 20.055712
#
# number of rings (size 3 to 8) (size 9 to 14) (size 15 to 20)
#    0.000    2.000    2.308    2.308    6.462    4.923 
#    4.154    0.000    0.000    0.000    0.000    0.000 
#    0.000    0.000    0.000    0.000    0.000    0.000 
#
# Total GULP energy -289484.758482 kJ/mol
# GULP energy per Si atom -5567.014586 kJ/mol
# Density = 2.001006 g / cm^3
# Si number density = 20.055712 Si / 1000 Ang^3
#
#
#
# Elastic Constant Matrix: (Units=GPa)
#
#
# Indices 1 2 3 4 5 6 
#
# 1 86.1341 18.5179 44.8671 0.0000 0.0000 0.0000
# 2 18.5179 65.8071 25.5696 0.0000 0.0000 0.0000
# 3 44.8671 25.5696 127.6035 0.0000 0.0000 0.0000
# 4 0.0000 0.0000 0.0000 -160.5861 0.0000 0.0000
# 5 0.0000 0.0000 0.0000 0.0000 21.3053 0.0000
# 6 0.0000 0.0000 0.0000 0.0000 0.0000 9.1646
#
#
#
# Elastic Compliance Matrix: (Units=1/GPa)
#
#
# Indices 1 2 3 4 5 6 
#
# 1 0.014522 -0.002280 -0.004649 0.000000 0.000000 0.000000
# 2 -0.002280 0.016837 -0.002572 0.000000 0.000000 0.000000
# 3 -0.004649 -0.002572 0.009987 0.000000 0.000000 0.000000
# 4 0.000000 0.000000 0.000000 -0.006227 0.000000 0.000000
# 5 0.000000 0.000000 0.000000 0.000000 0.046937 0.000000
# 6 0.000000 0.000000 0.000000 0.000000 0.000000 0.109115
#
#
# Mechanical properties :
#
#
# Convention : Reuss Voigt Hill
#
# Bulk Modulus (GPa) = 44.75675 50.82822 47.79249
# Shear Modulus (GPa) = 22.97581 -13.31721 4.82930
#
# Velocity S-wave (km/s) = 3.38834 -2.57964 1.55344
# Velocity P-wave (km/s) = 6.13779 4.06520 5.20569
#
# Compressibility (1/GPa) = 0.02234300
#
# Stress axis : x y z
#
# Youngs Moduli (GPa) = 68.86246 59.39328 100.13104
#
# Poissons Ratio (x) = 0.13541 0.46553
# Poissons Ratio (y) = 0.15700 0.25756
# Poissons Ratio (z) = 0.32015 0.15277
#
# Static dielectric constant tensor:
#      x y z
#    x 1.785520 0.000000 0.000000 
#    y 0.000000 1.706990 0.000000 
#    z 0.000000 0.000000 1.732640 
# 
# From -- ./inp_files/33561.got.cif
#   From: 2010.05.17/outbox.cif.g08.bks.cpg/sg48_17_cif.got.tgz:33561.got - 2010.06.03 20:39:00.
