data_PCOD9389520
_publ_section_title
;
Structure prediction by ZEFSAII (Michael W. Deem and Ramdas Pophale) SiO2 
 PCOD9389520
Probable space group: P N N N
;
_chemical_formula_sum "Si O2"
_cell_formula_units_Z 60
_cell_length_a 24.392282
_cell_length_b 5.777445
_cell_length_c 20.877558
_cell_angle_alpha 90.000000
_cell_angle_beta 90.000000
_cell_angle_gamma 90.000000
_cell_volume 2942.171274
_symmetry_space_group_name_H-M "P N N N"
_symmetry_group_IT_number 48
_space_group.IT_coordinate_system_code '2'
_symmetry_cell_setting 'orthorhombic'
loop_
_space_group_symop_operation_xyz
x,y,z
1/2-x,1/2-y,z
x,1/2-y,1/2-z
1/2-x,y,1/2-z
-x,-y,-z
1/2+x,1/2+y,-z
-x,1/2+y,1/2+z
1/2+x,-y,1/2+z
loop_
_atom_site_type_symbol
_atom_site_label
_atom_site_fract_x
_atom_site_fract_y
_atom_site_fract_z
Si Si1 0.750000 0.250000 0.125124
Si Si2 0.229542 0.000812 0.324160
Si Si3 0.953563 0.818206 0.018691
Si Si4 0.482848 0.467312 0.398895
Si Si5 0.648747 0.520301 0.091380
Si Si6 0.824215 0.611061 0.184268
Si Si7 0.895606 0.001404 0.712359
Si Si8 0.924737 0.234797 0.320597
O O1 0.698374 0.340172 0.083542
O O2 0.774398 0.438415 0.173378
O O3 0.250000 0.750000 0.351036
O O4 0.250000 0.000846 0.250000
O O5 0.164087 0.005780 0.320416
O O6 0.250000 0.250000 0.351833
O O7 0.895347 0.931938 0.036167
O O8 0.979559 0.680086 0.078306
O O9 0.951100 0.636674 0.959945
O O10 0.000000 0.000000 0.000000
O O11 0.441931 0.518285 0.341601
O O12 0.527435 0.289083 0.371679
O O13 0.675963 0.750125 0.117650
O O14 0.613484 0.438291 0.153345
O O15 0.818964 0.750000 0.250000
O O16 0.882218 0.477266 0.184262
O O17 0.897538 0.250000 0.750000
O O18 0.901210 0.750000 0.750000
O O19 0.949101 0.250000 0.250000
#
# Coordination Sequence:
#
# PCOD9389520 Si02
#       8
#     4   8   8   8   8   8   8   8
#     4  10  26  37  60 100 122 174 228 273 338 408
#     4  10  16  34  60  91 130 180 215 245 325 419
#     4  11  24  46  69  89 123 179 235 276 329 406
#     4  11  26  40  65 100 127 171 231 279 338 406
#     4  11  22  41  66  89 127 174 222 278 335 403
#     4  11  22  39  59  93 135 172 212 268 336 404
#     4  12  24  39  66 107 142 175 217 283 348 421
#     4  11  21  38  60  96 134 167 210 265 340 412
#
# _framework density 20.393101999999999
#
# number of rings (size 3 to 8) (size 9 to 14) (size 15 to 20)
#    0.000    1.067    6.667    0.800    1.867    3.200 
#    0.000    0.000    0.000    3.200    3.467    0.000 
#    0.000    0.000    0.000    0.000    0.000    0.000 
#
# Total GULP energy -334566.079171 kJ/mol
# GULP energy per Si atom -5576.101320 kJ/mol
# Density = 2.034669 g / cm^3
# Si number density = 20.393102 Si / 1000 Ang^3
#
#
#
# Elastic Constant Matrix: (Units=GPa)
#
#
# Indices 1 2 3 4 5 6 
#
# 1 130.7572 40.1814 49.0271 0.0000 0.0000 0.0000
# 2 40.1814 113.3921 31.9789 0.0000 0.0000 0.0000
# 3 49.0271 31.9789 49.9701 0.0000 0.0000 0.0000
# 4 0.0000 0.0000 0.0000 16.8819 0.0000 0.0000
# 5 0.0000 0.0000 0.0000 0.0000 -0.8253 0.0000
# 6 0.0000 0.0000 0.0000 0.0000 0.0000 30.8414
#
#
#
# Elastic Compliance Matrix: (Units=1/GPa)
#
#
# Indices 1 2 3 4 5 6 
#
# 1 0.012222 -0.001158 -0.011250 0.000000 0.000000 0.000000
# 2 -0.001158 0.010871 -0.005821 0.000000 0.000000 0.000000
# 3 -0.011250 -0.005821 0.034775 0.000000 0.000000 0.000000
# 4 0.000000 0.000000 0.000000 0.059235 0.000000 0.000000
# 5 0.000000 0.000000 0.000000 0.000000 -1.211655 0.000000
# 6 0.000000 0.000000 0.000000 0.000000 0.000000 0.032424
#
#
# Mechanical properties :
#
#
# Convention : Reuss Voigt Hill
#
# Bulk Modulus (GPa) = 46.70768 59.61048 53.15908
# Shear Modulus (GPa) = -4.90901 20.90840 7.99969
#
# Velocity S-wave (km/s) = -1.55320 3.20545 1.98274
# Velocity P-wave (km/s) = 4.44262 6.55699 5.60049
#
# Compressibility (1/GPa) = 0.02140976
#
# Stress axis : x y z
#
# Youngs Moduli (GPa) = 81.82087 91.98868 28.75658
#
# Poissons Ratio (x) = 0.10654 0.32351
# Poissons Ratio (y) = 0.09476 0.16738
# Poissons Ratio (z) = 0.92048 0.53543
#
# Static dielectric constant tensor:
#      x y z
#    x 1.742010 0.000000 0.000000 
#    y 0.000000 1.900760 0.000000 
#    z 0.000000 0.000000 1.718560 
# 
# From -- ./inp_files/34974.got.cif
#   From: 2010.05.17/outbox.cif.g08.bks.cpg/sg48_18_cif.got.tgz:34974.got - 2010.06.03 20:39:00.
