data_PCOD9389950
_publ_section_title
;
Structure prediction by ZEFSAII (Michael W. Deem and Ramdas Pophale) SiO2 
 PCOD9389950
Probable space group: P N N N
;
_chemical_formula_sum "Si O2"
_cell_formula_units_Z 64
_cell_length_a 8.382963
_cell_length_b 24.776722
_cell_length_c 16.810278
_cell_angle_alpha 90.000000
_cell_angle_beta 90.000000
_cell_angle_gamma 90.000000
_cell_volume 3491.534140
_symmetry_space_group_name_H-M "P N N N"
_symmetry_group_IT_number 48
_space_group.IT_coordinate_system_code '2'
_symmetry_cell_setting 'orthorhombic'
loop_
_space_group_symop_operation_xyz
x,y,z
1/2-x,1/2-y,z
x,1/2-y,1/2-z
1/2-x,y,1/2-z
-x,-y,-z
1/2+x,1/2+y,-z
-x,1/2+y,1/2+z
1/2+x,-y,1/2+z
loop_
_atom_site_type_symbol
_atom_site_label
_atom_site_fract_x
_atom_site_fract_y
_atom_site_fract_z
Si Si1 0.938025 0.935880 0.266447
Si Si2 0.137554 0.353099 0.325763
Si Si3 0.439427 0.632249 0.410791
Si Si4 0.559066 0.747782 0.096892
Si Si5 0.133635 0.652585 0.324441
Si Si6 0.562068 0.439362 0.265208
Si Si7 0.955527 0.632699 0.909133
Si Si8 0.943106 0.746050 0.588217
O O1 0.750000 0.932811 0.250000
O O2 0.982793 0.910938 0.351843
O O3 0.028379 0.897793 0.203866
O O4 0.988516 0.998261 0.262949
O O5 0.250000 0.337196 0.250000
O O6 0.264085 0.367536 0.395011
O O7 0.025643 0.304120 0.354301
O O8 0.035993 0.404015 0.298104
O O9 0.498433 0.692064 0.386501
O O10 0.250304 0.634559 0.395723
O O11 0.493312 0.622979 0.500781
O O12 0.750000 0.750000 0.105448
O O13 0.474638 0.702981 0.150561
O O14 0.517309 0.735752 0.004129
O O15 0.250000 0.666037 0.250000
O O16 0.750000 0.436881 0.250000
O O17 0.526213 0.410684 0.349115
O O18 0.006527 0.694744 0.889101
O O19 0.750000 0.750000 0.591604
#
# Coordination Sequence:
#
# PCOD9389950 Si02
#       8
#     8   8   8   8   8   8   8   8
#     4  10  22  40  57  74 103 142 183 226 271 322
#     4   9  18  33  57  80 108 143 180 218 262 321
#     4  10  21  36  56  83 110 137 178 224 268 320
#     4  10  19  34  56  81 112 144 175 212 264 327
#     4  10  22  37  56  80 109 140 179 226 274 320
#     4  10  22  38  54  77 108 140 180 228 272 316
#     4   9  19  35  56  81 108 142 178 215 266 322
#     4   8  16  31  53  82 109 138 175 212 253 312
#
# _framework density 18.33005
#
# number of rings (size 3 to 8) (size 9 to 14) (size 15 to 20)
#    0.000    2.500    0.000    1.875    0.000   15.250 
#    0.000    5.625    0.000    3.750    0.000    0.000 
#    0.000    0.000    0.000    0.000    0.000    0.000 
#
# Total GULP energy -357003.517758 kJ/mol
# GULP energy per Si atom -5578.179965 kJ/mol
# Density = 1.828833 g / cm^3
# Si number density = 18.330050 Si / 1000 Ang^3
#
#
#
# Elastic Constant Matrix: (Units=GPa)
#
#
# Indices 1 2 3 4 5 6 
#
# 1 66.2018 57.5073 41.0985 0.0000 0.0000 0.0000
# 2 57.5073 179.7307 69.9326 0.0000 0.0000 0.0000
# 3 41.0985 69.9326 69.0523 0.0000 0.0000 0.0000
# 4 0.0000 0.0000 0.0000 4.6211 0.0000 0.0000
# 5 0.0000 0.0000 0.0000 0.0000 28.1860 0.0000
# 6 0.0000 0.0000 0.0000 0.0000 0.0000 30.2619
#
#
#
# Elastic Compliance Matrix: (Units=1/GPa)
#
#
# Indices 1 2 3 4 5 6 
#
# 1 0.025365 -0.003700 -0.011350 0.000000 0.000000 0.000000
# 2 -0.003700 0.009722 -0.007644 0.000000 0.000000 0.000000
# 3 -0.011350 -0.007644 0.028978 0.000000 0.000000 0.000000
# 4 0.000000 0.000000 0.000000 0.216399 0.000000 0.000000
# 5 0.000000 0.000000 0.000000 0.000000 0.035479 0.000000
# 6 0.000000 0.000000 0.000000 0.000000 0.000000 0.033045
#
#
# Mechanical properties :
#
#
# Convention : Reuss Voigt Hill
#
# Bulk Modulus (GPa) = 53.53774 72.45126 62.99450
# Shear Modulus (GPa) = 12.48126 22.37690 17.42908
#
# Velocity S-wave (km/s) = 2.61227 3.49775 3.08693
# Velocity P-wave (km/s) = 6.19432 7.47824 6.86636
#
# Compressibility (1/GPa) = 0.01867841
#
# Stress axis : x y z
#
# Youngs Moduli (GPa) = 39.42390 102.86149 34.50865
#
# Poissons Ratio (x) = 0.38056 0.39167
# Poissons Ratio (y) = 0.14586 0.26378
# Poissons Ratio (z) = 0.44746 0.78625
#
# Static dielectric constant tensor:
#      x y z
#    x 1.643290 0.000000 0.000000 
#    y 0.000000 1.631600 0.000000 
#    z 0.000000 0.000000 1.647470 
# 
# From -- ./inp_files/30598.got.cif
#   From: 2010.05.17/outbox.cif.g08.bks.cpg/sg48_16_cif.got.tgz:30598.got - 2010.06.03 20:39:00.
