data_PCOD9389257
_publ_section_title
;
Structure prediction by ZEFSAII (Michael W. Deem and Ramdas Pophale) SiO2 
 PCOD9389257
Probable space group: P M M M
;
_chemical_formula_sum "Si O2"
_cell_formula_units_Z 64
_cell_length_a 9.000000
_cell_length_b 15.000000
_cell_length_c 30.000000
_cell_angle_alpha 90.000000
_cell_angle_beta 90.000000
_cell_angle_gamma 90.000000
_cell_volume 4050.000000
_symmetry_space_group_name_H-M "P M M M"
_symmetry_group_IT_number 47
_symmetry_cell_setting 'orthorhombic'
loop_
_space_group_symop_operation_xyz
x,y,z
-x,-y,z
x,-y,-z
-x,y,-z
-x,-y,-z
x,y,-z
-x,y,z
x,-y,z
loop_
_atom_site_type_symbol
_atom_site_label
_atom_site_fract_x
_atom_site_fract_y
_atom_site_fract_z
Si Si1 0.323141 0.894664 0.866627
Si Si2 0.177493 0.603260 0.093381
Si Si3 0.178240 0.104683 0.770728
Si Si4 0.320756 0.395510 0.356992
Si Si5 0.679215 0.770792 0.949725
Si Si6 0.320653 0.727597 0.727013
Si Si7 0.174290 0.392141 0.450539
Si Si8 0.675347 0.395378 0.811709
O O1 0.500000 0.879609 0.859631
O O2 0.240254 0.873437 0.820367
O O3 0.275330 0.836932 0.909450
O O4 0.301645 0.000000 0.875620
O O5 0.218624 0.500000 0.083977
O O6 0.253255 0.674312 0.061110
O O7 0.233009 0.623431 0.143639
O O8 0.000000 0.610723 0.091025
O O9 0.246994 0.176405 0.736446
O O10 0.000000 0.111631 0.770622
O O11 0.217367 0.000000 0.761871
O O12 0.500000 0.395494 0.358323
O O13 0.275427 0.500000 0.348866
O O14 0.275408 0.328217 0.317211
O O15 0.259367 0.366077 0.405432
O O16 0.500000 0.765857 0.948343
O O17 0.721424 0.799508 0.000000
O O18 0.500000 0.737877 0.725539
O O19 0.284800 0.666010 0.769967
O O20 0.227196 0.361534 0.500000
O O21 0.183199 0.500000 0.451430
O O22 0.000000 0.368654 0.446700
O O23 0.500000 0.381694 0.821563
O O24 0.695063 0.500000 0.800225
#
# Coordination Sequence:
#
# PCOD9389257 Si02
#       8
#     8   8   8   8   8   8   8   8
#     4   9  18  34  55  75  94 116 141 172 215 267
#     4  10  21  35  49  66  89 117 150 186 220 255
#     4  10  21  35  50  69  92 118 150 187 224 264
#     4   9  17  28  42  64  95 127 159 195 233 272
#     4  10  21  35  51  72  94 115 142 176 215 261
#     4  10  19  30  46  68  94 123 153 186 226 271
#     4   8  14  25  40  58  84 122 166 205 236 267
#     4   9  17  30  48  68  91 120 151 181 216 261
#
# _framework density 15.802469
#
# number of rings (size 3 to 8) (size 9 to 14) (size 15 to 20)
#    0.000    2.625    0.000    2.250    0.000    8.500 
#    0.000    3.750    0.000    3.750    0.000    2.625 
#    0.000    0.500    0.000    5.500    0.000    4.250 
#
# Total GULP energy -356795.322205 kJ/mol
# GULP energy per Si atom -5574.926909 kJ/mol
# Density = 1.576650 g / cm^3
# Si number density = 15.802469 Si / 1000 Ang^3
#
#
#
# Elastic Constant Matrix: (Units=GPa)
#
#
# Indices 1 2 3 4 5 6 
#
# 1 21.6721 26.2490 29.9605 0.0000 0.0000 0.0000
# 2 26.2490 75.2659 61.6142 0.0000 0.0000 0.0000
# 3 29.9605 61.6142 111.4366 0.0000 0.0000 0.0000
# 4 0.0000 0.0000 0.0000 22.1654 0.0000 0.0000
# 5 0.0000 0.0000 0.0000 0.0000 -1.1256 0.0000
# 6 0.0000 0.0000 0.0000 0.0000 0.0000 20.9057
#
#
#
# Elastic Compliance Matrix: (Units=1/GPa)
#
#
# Indices 1 2 3 4 5 6 
#
# 1 0.088176 -0.020725 -0.012248 0.000000 0.000000 0.000000
# 2 -0.020725 0.029144 -0.010542 0.000000 0.000000 0.000000
# 3 -0.012248 -0.010542 0.018095 0.000000 0.000000 0.000000
# 4 0.000000 0.000000 0.000000 0.045115 0.000000 0.000000
# 5 0.000000 0.000000 0.000000 0.000000 -0.888442 0.000000
# 6 0.000000 0.000000 0.000000 0.000000 0.000000 0.047834
#
#
# Mechanical properties :
#
#
# Convention : Reuss Voigt Hill
#
# Bulk Modulus (GPa) = 20.66722 49.33581 35.00151
# Shear Modulus (GPa) = -8.97795 14.42582 2.72393
#
# Velocity S-wave (km/s) = -2.38615 3.02467 1.31434
# Velocity P-wave (km/s) = 2.34846 6.59441 4.94983
#
# Compressibility (1/GPa) = 0.04838581
#
# Stress axis : x y z
#
# Youngs Moduli (GPa) = 11.34096 34.31251 55.26337
#
# Poissons Ratio (x) = 0.71114 0.67684
# Poissons Ratio (y) = 0.23504 0.58257
# Poissons Ratio (z) = 0.13890 0.36171
#
# Static dielectric constant tensor:
#      x y z
#    x 1.530620 0.000000 0.000000 
#    y 0.000000 1.530270 0.000000 
#    z 0.000000 0.000000 1.526920 
# 
# From -- ./inp_files/8298.got.cif
#   From: 2010.05.17/outbox.ucp.g08.bks.cvg/sg47_5_cif.got.tgz:8298.got - 2010.06.11 16:36:43.
