data_PCOD9389804
_publ_section_title
;
Structure prediction by ZEFSAII (Michael W. Deem and Ramdas Pophale) SiO2 
 PCOD9389804
Probable space group: P N N N
;
_chemical_formula_sum "Si O2"
_cell_formula_units_Z 64
_cell_length_a 15.516117
_cell_length_b 17.895475
_cell_length_c 11.548763
_cell_angle_alpha 90.000000
_cell_angle_beta 90.000000
_cell_angle_gamma 90.000000
_cell_volume 3206.725203
_symmetry_space_group_name_H-M "P N N N"
_symmetry_group_IT_number 48
_space_group.IT_coordinate_system_code '2'
_symmetry_cell_setting 'orthorhombic'
loop_
_space_group_symop_operation_xyz
x,y,z
1/2-x,1/2-y,z
x,1/2-y,1/2-z
1/2-x,y,1/2-z
-x,-y,-z
1/2+x,1/2+y,-z
-x,1/2+y,1/2+z
1/2+x,-y,1/2+z
loop_
_atom_site_type_symbol
_atom_site_label
_atom_site_fract_x
_atom_site_fract_y
_atom_site_fract_z
Si Si1 0.652135 0.918458 0.719789
Si Si2 0.171419 0.189806 0.560741
Si Si3 0.961920 0.830437 0.238681
Si Si4 0.092913 0.932776 0.598161
Si Si5 0.034994 0.193386 0.358883
Si Si6 0.944395 0.034070 0.664200
Si Si7 0.924575 0.560673 0.474451
Si Si8 0.745974 0.965323 0.119386
O O1 0.750000 0.900822 0.750000
O O2 0.595641 0.870094 0.805831
O O3 0.613234 0.905535 0.593321
O O4 0.630295 0.003435 0.754399
O O5 0.250000 0.250000 0.557749
O O6 0.124495 0.181743 0.684943
O O7 0.095003 0.214443 0.470511
O O8 0.206771 0.104199 0.543909
O O9 0.004147 0.750000 0.250000
O O10 0.946869 0.872591 0.116225
O O11 0.024394 0.885169 0.305368
O O12 0.081467 0.964471 0.468726
O O13 0.054080 0.849179 0.606625
O O14 0.188944 0.959687 0.624393
O O15 0.029836 0.983006 0.677846
O O16 0.022804 0.250000 0.250000
O O17 0.841945 0.518576 0.422094
O O18 0.000000 0.500000 0.500000
O O19 0.750000 0.936371 0.250000
#
# Coordination Sequence:
#
# PCOD9389804 Si02
#       8
#     8   8   8   8   8   8   8   8
#     4  11  24  39  64  96 132 179 224 282 354 423
#     4  12  25  41  62  96 142 178 219 279 358 437
#     4  12  24  40  64  95 135 184 216 276 355 429
#     4  10  19  39  67  89 125 178 232 284 330 415
#     4  11  26  40  62  96 136 182 225 283 358 426
#     4  10  18  39  61  90 124 173 230 270 335 415
#     4  12  25  42  63 101 141 173 230 299 355 413
#     4  12  23  40  66  99 127 176 242 285 340 424
#
# _framework density 19.958055000000002
#
# number of rings (size 3 to 8) (size 9 to 14) (size 15 to 20)
#    0.000    0.750    5.000    3.750    7.000    0.000 
#    0.000    0.000    0.000    0.750    0.000    0.000 
#    0.000    0.000    0.000    0.000    0.000    0.000 
#
# Total GULP energy -356606.509727 kJ/mol
# GULP energy per Si atom -5571.976714 kJ/mol
# Density = 1.991263 g / cm^3
# Si number density = 19.958055 Si / 1000 Ang^3
#
#
#
# Elastic Constant Matrix: (Units=GPa)
#
#
# Indices 1 2 3 4 5 6 
#
# 1 77.4015 42.6070 24.0621 0.0000 0.0000 0.0000
# 2 42.6070 99.0813 19.4596 0.0000 0.0000 0.0000
# 3 24.0621 19.4596 93.4270 0.0000 0.0000 0.0000
# 4 0.0000 0.0000 0.0000 28.8245 0.0000 0.0000
# 5 0.0000 0.0000 0.0000 0.0000 31.6131 0.0000
# 6 0.0000 0.0000 0.0000 0.0000 0.0000 19.4011
#
#
#
# Elastic Compliance Matrix: (Units=1/GPa)
#
#
# Indices 1 2 3 4 5 6 
#
# 1 0.017752 -0.007023 -0.003109 0.000000 0.000000 0.000000
# 2 -0.007023 0.013302 -0.000962 0.000000 0.000000 0.000000
# 3 -0.003109 -0.000962 0.011705 0.000000 0.000000 0.000000
# 4 0.000000 0.000000 0.000000 0.034693 0.000000 0.000000
# 5 0.000000 0.000000 0.000000 0.000000 0.031632 0.000000
# 6 0.000000 0.000000 0.000000 0.000000 0.000000 0.051543
#
#
# Mechanical properties :
#
#
# Convention : Reuss Voigt Hill
#
# Bulk Modulus (GPa) = 48.61385 49.12967 48.87176
# Shear Modulus (GPa) = 26.36124 28.21981 27.29052
#
# Velocity S-wave (km/s) = 3.63827 3.76434 3.70184
# Velocity P-wave (km/s) = 6.48538 6.60027 6.54308
#
# Compressibility (1/GPa) = 0.02057027
#
# Stress axis : x y z
#
# Youngs Moduli (GPa) = 56.33083 75.17821 85.43613
#
# Poissons Ratio (x) = 0.52799 0.26564
# Poissons Ratio (y) = 0.39562 0.08217
# Poissons Ratio (z) = 0.17515 0.07230
#
# Static dielectric constant tensor:
#      x y z
#    x 1.751170 0.000000 0.000000 
#    y 0.000000 1.785650 0.000000 
#    z 0.000000 0.000000 1.860530 
# 
# From -- ./inp_files/21552.got.cif
#   From: 2010.05.17/outbox.cif.g08.bks.cpg/sg48_11_cif.got.tgz:21552.got - 2010.06.03 20:39:00.
