data_PCOD9389771
_publ_section_title
;
Structure prediction by ZEFSAII (Michael W. Deem and Ramdas Pophale) SiO2 
 PCOD9389771
Probable space group: P N N N
;
_chemical_formula_sum "Si O2"
_cell_formula_units_Z 56
_cell_length_a 8.789245
_cell_length_b 22.931560
_cell_length_c 12.716641
_cell_angle_alpha 90.000000
_cell_angle_beta 90.000000
_cell_angle_gamma 90.000000
_cell_volume 2563.052970
_symmetry_space_group_name_H-M "P N N N"
_symmetry_group_IT_number 48
_space_group.IT_coordinate_system_code '2'
_symmetry_cell_setting 'orthorhombic'
loop_
_space_group_symop_operation_xyz
x,y,z
1/2-x,1/2-y,z
x,1/2-y,1/2-z
1/2-x,y,1/2-z
-x,-y,-z
1/2+x,1/2+y,-z
-x,1/2+y,1/2+z
1/2+x,-y,1/2+z
loop_
_atom_site_type_symbol
_atom_site_label
_atom_site_fract_x
_atom_site_fract_y
_atom_site_fract_z
Si Si1 0.750000 0.750000 0.078462
Si Si2 0.917454 0.271513 0.932243
Si Si3 0.817442 0.372584 0.072869
Si Si4 0.824780 0.864304 0.957081
Si Si5 0.750000 0.468179 0.750000
Si Si6 0.432781 0.043235 0.090894
Si Si7 0.557183 0.295501 0.155032
Si Si8 0.071827 0.940248 0.045986
O O1 0.577260 0.756958 0.127624
O O2 0.749573 0.807836 0.007205
O O3 0.750000 0.250000 0.890713
O O4 0.887085 0.337769 0.972323
O O5 0.944954 0.238883 0.043968
O O6 0.716985 0.329189 0.142362
O O7 0.948409 0.408086 0.128930
O O8 0.704437 0.421925 0.032543
O O9 0.709664 0.917371 0.944282
O O10 0.918032 0.841570 0.854801
O O11 0.950069 0.888992 0.036998
O O12 0.872162 0.505209 0.814477
O O13 0.648632 0.438923 0.840110
O O14 0.500000 0.000000 0.000000
O O15 0.542877 0.250000 0.250000
O O16 0.000000 0.000000 0.000000
#
# Coordination Sequence:
#
# PCOD9389771 Si02
#       8
#     4   8   8   8   4   8   8   8
#     4  10  18  36  61  96 129 186 228 272 394 452
#     4   9  18  32  53  87 124 175 228 267 345 451
#     4  10  20  38  65  86 139 194 227 299 364 440
#     4  10  21  40  68  96 148 193 230 310 373 463
#     4  12  26  42  74  99 135 196 260 314 392 438
#     4  12  23  44  68 102 142 195 254 315 373 450
#     4   9  20  37  57  94 141 189 230 279 360 475
#     4  11  22  46  66  99 140 189 255 317 372 453
#
# _framework density 21.848942999999998
#
# number of rings (size 3 to 8) (size 9 to 14) (size 15 to 20)
#    0.000    1.714    4.286    0.857    0.000    3.714 
#    2.571    7.500    0.000    0.000    0.000   46.500 
#    0.000    0.000    0.000    0.000    0.000    0.000 
#
# Total GULP energy -312097.539232 kJ/mol
# GULP energy per Si atom -5573.170343 kJ/mol
# Density = 2.179921 g / cm^3
# Si number density = 21.848943 Si / 1000 Ang^3
#
#
#
# Elastic Constant Matrix: (Units=GPa)
#
#
# Indices 1 2 3 4 5 6 
#
# 1 162.7226 45.6667 39.0060 0.0000 0.0000 0.0000
# 2 45.6667 99.7693 36.2394 0.0000 0.0000 0.0000
# 3 39.0060 36.2394 91.8306 0.0000 0.0000 0.0000
# 4 0.0000 0.0000 0.0000 13.7511 0.0000 0.0000
# 5 0.0000 0.0000 0.0000 0.0000 -11.0088 0.0000
# 6 0.0000 0.0000 0.0000 0.0000 0.0000 49.0668
#
#
#
# Elastic Compliance Matrix: (Units=1/GPa)
#
#
# Indices 1 2 3 4 5 6 
#
# 1 0.007384 -0.002615 -0.002104 0.000000 0.000000 0.000000
# 2 -0.002615 0.012627 -0.003872 0.000000 0.000000 0.000000
# 3 -0.002104 -0.003872 0.013311 0.000000 0.000000 0.000000
# 4 0.000000 0.000000 0.000000 0.072722 0.000000 0.000000
# 5 0.000000 0.000000 0.000000 0.000000 -0.090837 0.000000
# 6 0.000000 0.000000 0.000000 0.000000 0.000000 0.020380
#
#
# Mechanical properties :
#
#
# Convention : Reuss Voigt Hill
#
# Bulk Modulus (GPa) = 61.96298 66.23854 64.10076
# Shear Modulus (GPa) = 85.98438 25.92250 55.95344
#
# Velocity S-wave (km/s) = 6.28008 3.44821 5.06605
# Velocity P-wave (km/s) = 9.00040 6.79970 7.97631
#
# Compressibility (1/GPa) = 0.01613867
#
# Stress axis : x y z
#
# Youngs Moduli (GPa) = 135.43114 79.19731 75.12344
#
# Poissons Ratio (x) = 0.20713 0.15808
# Poissons Ratio (y) = 0.35421 0.29088
# Poissons Ratio (z) = 0.28498 0.30665
#
# Static dielectric constant tensor:
#      x y z
#    x 1.743450 0.000000 0.000000 
#    y 0.000000 1.900370 0.000000 
#    z 0.000000 0.000000 1.869190 
# 
# From -- ./inp_files/25649.got.cif
#   From: 2010.05.17/outbox.cif.g08.bks.cpg/sg48_13_cif.got.tgz:25649.got - 2010.06.03 20:39:00.
