data_PCOD9389116
_publ_section_title
;
Structure prediction by ZEFSAII (Michael W. Deem and Ramdas Pophale) SiO2 
 PCOD9389116
Probable space group: P M M M
;
_chemical_formula_sum "Si O2"
_cell_formula_units_Z 44
_cell_length_a 29.948819
_cell_length_b 9.464640
_cell_length_c 7.608218
_cell_angle_alpha 90.000000
_cell_angle_beta 90.000000
_cell_angle_gamma 90.000000
_cell_volume 2156.585837
_symmetry_space_group_name_H-M "P M M M"
_symmetry_group_IT_number 47
_symmetry_cell_setting 'orthorhombic'
loop_
_space_group_symop_operation_xyz
x,y,z
-x,-y,z
x,-y,-z
-x,y,-z
-x,-y,-z
x,y,-z
-x,y,z
x,-y,z
loop_
_atom_site_type_symbol
_atom_site_label
_atom_site_fract_x
_atom_site_fract_y
_atom_site_fract_z
Si Si1 0.000000 0.162961 0.714679
Si Si2 0.827686 0.838390 0.291059
Si Si3 0.087357 0.662733 0.715315
Si Si4 0.633691 0.160582 0.709842
Si Si5 0.549362 0.663745 0.714639
Si Si6 0.269673 0.838979 0.791318
O O1 0.955763 0.247102 0.769549
O O2 0.000000 0.161220 0.500000
O O3 0.000000 0.000000 0.772290
O O4 0.834099 0.849193 0.500000
O O5 0.867578 0.740858 0.224144
O O6 0.777989 0.777469 0.262963
O O7 0.829186 0.000000 0.219880
O O8 0.087543 0.661498 0.500000
O O9 0.084979 0.500000 0.771855
O O10 0.628496 0.152011 0.500000
O O11 0.591517 0.247289 0.778280
O O12 0.682720 0.225938 0.741118
O O13 0.633887 0.000000 0.780623
O O14 0.549895 0.666498 0.500000
O O15 0.500000 0.715334 0.768551
O O16 0.553485 0.500000 0.766233
O O17 0.270077 0.000000 0.716633
O O18 0.269119 0.847181 0.000000
#
# Coordination Sequence:
#
# PCOD9389116 Si02
#       6
#     4   8   8   8   8   8
#     4   9  15  23  37  59  88 119 148 177 212 256
#     4   9  16  27  44  64  85 111 145 181 213 249
#     4   9  16  25  38  59  88 118 145 176 216 258
#     4   9  16  26  43  67  90 111 140 179 217 251
#     4   8  14  25  41  62  88 115 141 171 210 255
#     4   9  17  29  45  64  86 113 144 178 217 259
#
# _framework density 20.402619999999999
#
# number of rings (size 3 to 8) (size 9 to 14) (size 15 to 20)
#    0.000    3.182    0.000    1.909    0.000    5.818 
#    0.000    2.727    0.000    7.091    0.000    4.455 
#    0.000    5.091    0.000    0.000    0.000    0.000 
#
# Total GULP energy -245248.734890 kJ/mol
# GULP energy per Si atom -5573.834884 kJ/mol
# Density = 2.035618 g / cm^3
# Si number density = 20.402620 Si / 1000 Ang^3
#
#
#
# Elastic Constant Matrix: (Units=GPa)
#
#
# Indices 1 2 3 4 5 6 
#
# 1 253.2582 106.5707 1.1357 0.0000 0.0000 0.0000
# 2 106.5707 100.6098 4.7212 0.0000 0.0000 0.0000
# 3 1.1357 4.7212 42.4554 0.0000 0.0000 0.0000
# 4 0.0000 0.0000 0.0000 -1.8651 0.0000 0.0000
# 5 0.0000 0.0000 0.0000 0.0000 -43.3245 0.0000
# 6 0.0000 0.0000 0.0000 0.0000 0.0000 50.5164
#
#
#
# Elastic Compliance Matrix: (Units=1/GPa)
#
#
# Indices 1 2 3 4 5 6 
#
# 1 0.007142 -0.007596 0.000654 0.000000 0.000000 0.000000
# 2 -0.007596 0.018070 -0.001806 0.000000 0.000000 0.000000
# 3 0.000654 -0.001806 0.023737 0.000000 0.000000 0.000000
# 4 0.000000 0.000000 0.000000 -0.536169 0.000000 0.000000
# 5 0.000000 0.000000 0.000000 0.000000 -0.023082 0.000000
# 6 0.000000 0.000000 0.000000 0.000000 0.000000 0.019796
#
#
# Mechanical properties :
#
#
# Convention : Reuss Voigt Hill
#
# Bulk Modulus (GPa) = 31.79388 69.01984 50.40686
# Shear Modulus (GPa) = -10.81023 19.99176 4.59077
#
# Velocity S-wave (km/s) = -2.30433 3.13367 1.50166
# Velocity P-wave (km/s) = 2.92184 6.85533 5.26938
#
# Compressibility (1/GPa) = 0.03145259
#
# Stress axis : x y z
#
# Youngs Moduli (GPa) = 140.01980 55.34089 42.12746
#
# Poissons Ratio (x) = 0.42035 -0.02754
# Poissons Ratio (y) = 1.06354 0.07609
# Poissons Ratio (z) = -0.09152 0.09996
#
# Static dielectric constant tensor:
#      x y z
#    x 1.741620 0.000000 0.000000 
#    y 0.000000 1.702470 0.000000 
#    z 0.000000 0.000000 1.742790 
# 
# From -- ./inp_files/2276.got.cif
#   From: 2010.05.17/outbox.cif.g08.bks.cpg/sg47_2_cif.got.tgz:2276.got - 2010.06.03 20:15:42.
