data_PCOD9389573
_publ_section_title
;
Structure prediction by ZEFSAII (Michael W. Deem and Ramdas Pophale) SiO2 
 PCOD9389573
Probable space group: P N N N
;
_chemical_formula_sum "Si O2"
_cell_formula_units_Z 26
_cell_length_a 5.370760
_cell_length_b 13.089571
_cell_length_c 15.761415
_cell_angle_alpha 90.000000
_cell_angle_beta 90.000000
_cell_angle_gamma 90.000000
_cell_volume 1108.042359
_symmetry_space_group_name_H-M "P N N N"
_symmetry_group_IT_number 48
_space_group.IT_coordinate_system_code '2'
_symmetry_cell_setting 'orthorhombic'
loop_
_space_group_symop_operation_xyz
x,y,z
1/2-x,1/2-y,z
x,1/2-y,1/2-z
1/2-x,y,1/2-z
-x,-y,-z
1/2+x,1/2+y,-z
-x,1/2+y,1/2+z
1/2+x,-y,1/2+z
loop_
_atom_site_type_symbol
_atom_site_label
_atom_site_fract_x
_atom_site_fract_y
_atom_site_fract_z
Si Si1 0.845393 0.392199 0.925797
Si Si2 0.122643 0.588742 0.883037
Si Si3 0.750000 0.250000 0.250000
Si Si4 0.842121 0.617001 0.342971
O O1 0.618612 0.354681 0.868893
O O2 0.889419 0.513478 0.904290
O O3 0.117905 0.348952 0.904421
O O4 0.789756 0.375517 0.024230
O O5 0.095051 0.677076 0.814110
O O6 0.323281 0.506751 0.848904
O O7 0.750000 0.643955 0.250000
#
# Coordination Sequence:
#
# PCOD9389573 Si02
#       4
#     8   8   2   8
#     4   9  19  34  56  72 116 153 194 225 285 357
#     4   9  20  32  55  76 121 151 187 227 305 353
#     4  12  20  40  54  96 124 152 180 264 318 344
#     4  10  17  32  57  80 103 140 203 239 269 333
#
# _framework density 23.464807
#
# number of rings (size 3 to 8) (size 9 to 14) (size 15 to 20)
#    1.846    0.615    1.538    1.846    0.000    0.000 
#    0.000    3.077    0.000    0.000    0.000    6.462 
#    0.000    0.000    0.000    0.000    0.000    0.000 
#
# Total GULP energy -144900.668164 kJ/mol
# GULP energy per Si atom -5573.102622 kJ/mol
# Density = 2.341140 g / cm^3
# Si number density = 23.464807 Si / 1000 Ang^3
#
#
#
# Elastic Constant Matrix: (Units=GPa)
#
#
# Indices 1 2 3 4 5 6 
#
# 1 121.7368 30.9939 46.4379 0.0000 0.0000 0.0000
# 2 30.9939 121.5053 52.0717 0.0000 0.0000 0.0000
# 3 46.4379 52.0717 171.3445 0.0000 0.0000 0.0000
# 4 0.0000 0.0000 0.0000 -37.7688 0.0000 0.0000
# 5 0.0000 0.0000 0.0000 0.0000 18.8496 0.0000
# 6 0.0000 0.0000 0.0000 0.0000 0.0000 16.5427
#
#
#
# Elastic Compliance Matrix: (Units=1/GPa)
#
#
# Indices 1 2 3 4 5 6 
#
# 1 0.009394 -0.001501 -0.002090 0.000000 0.000000 0.000000
# 2 -0.001501 0.009702 -0.002542 0.000000 0.000000 0.000000
# 3 -0.002090 -0.002542 0.007175 0.000000 0.000000 0.000000
# 4 0.000000 0.000000 0.000000 -0.026477 0.000000 0.000000
# 5 0.000000 0.000000 0.000000 0.000000 0.053051 0.000000
# 6 0.000000 0.000000 0.000000 0.000000 0.000000 0.060450
#
#
# Mechanical properties :
#
#
# Convention : Reuss Voigt Hill
#
# Bulk Modulus (GPa) = 71.39569 74.84374 73.11971
# Shear Modulus (GPa) = 38.39403 18.53023 28.46213
#
# Velocity S-wave (km/s) = 4.04943 2.81321 3.48655
# Velocity P-wave (km/s) = 7.23579 6.52056 6.88746
#
# Compressibility (1/GPa) = 0.01400645
#
# Stress axis : x y z
#
# Youngs Moduli (GPa) = 106.45453 103.06986 139.37183
#
# Poissons Ratio (x) = 0.15466 0.29127
# Poissons Ratio (y) = 0.15974 0.35426
# Poissons Ratio (z) = 0.22248 0.26198
#
# Static dielectric constant tensor:
#      x y z
#    x 1.820370 0.000000 0.000000 
#    y 0.000000 2.066140 0.000000 
#    z 0.000000 0.000000 1.883020 
# 
# From -- ./inp_files/24018.got.cif
#   From: 2010.05.17/outbox.cif.g08.bks.cpg/sg48_13_cif.got.tgz:24018.got - 2010.06.03 20:39:00.
