data_PCOD9389827
_publ_section_title
;
Structure prediction by ZEFSAII (Michael W. Deem and Ramdas Pophale) SiO2 
 PCOD9389827
Probable space group: P N N N
;
_chemical_formula_sum "Si O2"
_cell_formula_units_Z 56
_cell_length_a 12.193802
_cell_length_b 22.573743
_cell_length_c 11.710788
_cell_angle_alpha 90.000000
_cell_angle_beta 90.000000
_cell_angle_gamma 90.000000
_cell_volume 3223.508607
_symmetry_space_group_name_H-M "P N N N"
_symmetry_group_IT_number 48
_space_group.IT_coordinate_system_code '2'
_symmetry_cell_setting 'orthorhombic'
loop_
_space_group_symop_operation_xyz
x,y,z
1/2-x,1/2-y,z
x,1/2-y,1/2-z
1/2-x,y,1/2-z
-x,-y,-z
1/2+x,1/2+y,-z
-x,1/2+y,1/2+z
1/2+x,-y,1/2+z
loop_
_atom_site_type_symbol
_atom_site_label
_atom_site_fract_x
_atom_site_fract_y
_atom_site_fract_z
Si Si1 0.075520 0.504825 0.830735
Si Si2 0.762852 0.382015 0.587100
Si Si3 0.406622 0.818277 0.223768
Si Si4 0.333890 0.007422 0.086219
Si Si5 0.126714 0.124162 0.776673
Si Si6 0.629406 0.933818 0.515851
Si Si7 0.893450 0.063126 0.106847
O O1 0.099712 0.439447 0.781559
O O2 0.124914 0.550677 0.739936
O O3 0.945397 0.515762 0.843631
O O4 0.127588 0.505919 0.955914
O O5 0.853776 0.356793 0.673398
O O6 0.656986 0.340475 0.610162
O O7 0.725177 0.447416 0.624511
O O8 0.816892 0.391378 0.462639
O O9 0.384818 0.750000 0.250000
O O10 0.534821 0.832220 0.228555
O O11 0.245092 0.060127 0.081448
O O12 0.250000 0.142244 0.750000
O O13 0.124308 0.112233 0.912077
O O14 0.521906 0.922799 0.590254
O O15 0.620208 0.999255 0.456873
#
# Coordination Sequence:
#
# PCOD9389827 Si02
#       7
#     8   8   8   8   8   8   8
#     4  10  20  31  46  78 114 148 177 206 255 337
#     4  10  19  33  53  73 104 138 174 225 270 322
#     4  11  23  37  54  78 102 141 189 232 278 321
#     4  10  19  30  49  75 111 149 178 202 264 331
#     4  11  19  34  53  71 110 145 175 224 270 317
#     4   9  17  28  44  72 101 141 176 201 257 324
#     4   9  18  28  46  71 104 141 173 208 262 324
#
# _framework density 17.372375000000002
#
# number of rings (size 3 to 8) (size 9 to 14) (size 15 to 20)
#    0.000    2.000    4.286    0.857    2.000    0.857 
#    0.000    0.000    0.000    0.000    0.000    8.000 
#    0.000    0.000    0.857    0.000    0.000    0.000 
#
# Total GULP energy -312127.141955 kJ/mol
# GULP energy per Si atom -5573.698963 kJ/mol
# Density = 1.733283 g / cm^3
# Si number density = 17.372375 Si / 1000 Ang^3
#
#
#
# Elastic Constant Matrix: (Units=GPa)
#
#
# Indices 1 2 3 4 5 6 
#
# 1 149.7312 21.0641 34.5706 0.0000 0.0000 0.0000
# 2 21.0641 44.4432 34.6001 0.0000 0.0000 0.0000
# 3 34.5706 34.6001 71.6423 0.0000 0.0000 0.0000
# 4 0.0000 0.0000 0.0000 7.0265 0.0000 0.0000
# 5 0.0000 0.0000 0.0000 0.0000 18.6275 0.0000
# 6 0.0000 0.0000 0.0000 0.0000 0.0000 7.4727
#
#
#
# Elastic Compliance Matrix: (Units=1/GPa)
#
#
# Indices 1 2 3 4 5 6 
#
# 1 0.007555 -0.001190 -0.003071 0.000000 0.000000 0.000000
# 2 -0.001190 0.036246 -0.016931 0.000000 0.000000 0.000000
# 3 -0.003071 -0.016931 0.023617 0.000000 0.000000 0.000000
# 4 0.000000 0.000000 0.000000 0.142318 0.000000 0.000000
# 5 0.000000 0.000000 0.000000 0.000000 0.053684 0.000000
# 6 0.000000 0.000000 0.000000 0.000000 0.000000 0.133821
#
#
# Mechanical properties :
#
#
# Convention : Reuss Voigt Hill
#
# Bulk Modulus (GPa) = 39.94543 49.58738 44.76641
# Shear Modulus (GPa) = 11.16150 18.33081 14.74615
#
# Velocity S-wave (km/s) = 2.53748 3.25186 2.91663
# Velocity P-wave (km/s) = 5.62393 6.53493 6.09647
#
# Compressibility (1/GPa) = 0.02503415
#
# Stress axis : x y z
#
# Youngs Moduli (GPa) = 132.36138 27.58950 42.34243
#
# Poissons Ratio (x) = 0.03283 0.13003
# Poissons Ratio (y) = 0.15750 0.71689
# Poissons Ratio (z) = 0.40648 0.46711
#
# Static dielectric constant tensor:
#      x y z
#    x 1.669450 0.000000 0.000000 
#    y 0.000000 1.554920 0.000000 
#    z 0.000000 0.000000 1.625120 
# 
# From -- ./inp_files/20408.got.cif
#   From: 2010.05.17/outbox.cif.g08.bks.cpg/sg48_11_cif.got.tgz:20408.got - 2010.06.03 20:39:00.
