data_PCOD9389153
_publ_section_title
;
Structure prediction by ZEFSAII (Michael W. Deem and Ramdas Pophale) SiO2 
 PCOD9389153
Probable space group: P M M M
;
_chemical_formula_sum "Si O2"
_cell_formula_units_Z 44
_cell_length_a 10.291350
_cell_length_b 7.311272
_cell_length_c 27.255770
_cell_angle_alpha 90.000000
_cell_angle_beta 90.000000
_cell_angle_gamma 90.000000
_cell_volume 2050.802062
_symmetry_space_group_name_H-M "P M M M"
_symmetry_group_IT_number 47
_symmetry_cell_setting 'orthorhombic'
loop_
_space_group_symop_operation_xyz
x,y,z
-x,-y,z
x,-y,-z
-x,y,-z
-x,-y,-z
x,y,-z
-x,y,z
x,-y,z
loop_
_atom_site_type_symbol
_atom_site_label
_atom_site_fract_x
_atom_site_fract_y
_atom_site_fract_z
Si Si1 0.354192 0.716961 0.580397
Si Si2 0.000000 0.222911 0.055683
Si Si3 0.500000 0.776592 0.057091
Si Si4 0.353951 0.781233 0.304607
Si Si5 0.151073 0.223369 0.223659
Si Si6 0.849965 0.723581 0.500000
Si Si7 0.248207 0.777347 0.882545
O O1 0.500000 0.789311 0.569160
O O2 0.360771 0.500000 0.571621
O O3 0.329910 0.744680 0.638068
O O4 0.236378 0.783416 0.546724
O O5 0.126078 0.279606 0.085132
O O6 0.000000 0.000000 0.055031
O O7 0.000000 0.284832 0.000000
O O8 0.624304 0.718411 0.088551
O O9 0.500000 0.000000 0.055630
O O10 0.500000 0.718273 0.000000
O O11 0.500000 0.712867 0.292715
O O12 0.239380 0.715431 0.269269
O O13 0.358071 0.000000 0.298642
O O14 0.221810 0.279715 0.173228
O O15 0.000000 0.281382 0.224983
O O16 0.148063 0.000000 0.223829
O O17 0.854726 0.500000 0.500000
O O18 0.000000 0.784233 0.500000
O O19 0.251738 0.000000 0.881499
#
# Coordination Sequence:
#
# PCOD9389153 Si02
#       7
#     8   4   4   8   8   4   8
#     4   9  17  31  50  70  92 119 149 179 215 258
#     4   9  14  20  30  42  60  88 125 170 211 248
#     4   9  16  22  28  42  64  90 125 172 219 256
#     4   9  18  30  45  65  88 114 148 186 220 254
#     4   9  16  26  38  53  74 104 141 179 217 259
#     4   9  17  29  48  73  96 118 148 183 214 252
#     4   9  15  22  31  44  63  91 130 171 211 255
#
# _framework density 21.455020000000001
#
# number of rings (size 3 to 8) (size 9 to 14) (size 15 to 20)
#    0.000    3.000    0.909    0.818    1.273    4.000 
#    0.000    0.455    0.000    2.727    0.000    0.000 
#    0.000    0.000    0.000    0.000    0.000    5.455 
#
# Total GULP energy -245614.816544 kJ/mol
# GULP energy per Si atom -5582.154921 kJ/mol
# Density = 2.140619 g / cm^3
# Si number density = 21.455020 Si / 1000 Ang^3
#
#
#
# Elastic Constant Matrix: (Units=GPa)
#
#
# Indices 1 2 3 4 5 6 
#
# 1 252.1523 8.0058 151.6785 0.0000 0.0000 0.0000
# 2 8.0058 87.0310 -0.2397 0.0000 0.0000 0.0000
# 3 151.6785 -0.2397 177.5776 0.0000 0.0000 0.0000
# 4 0.0000 0.0000 0.0000 14.7672 0.0000 0.0000
# 5 0.0000 0.0000 0.0000 0.0000 -44.7562 0.0000
# 6 0.0000 0.0000 0.0000 0.0000 0.0000 -7.3195
#
#
#
# Elastic Compliance Matrix: (Units=1/GPa)
#
#
# Indices 1 2 3 4 5 6 
#
# 1 0.008209 -0.000774 -0.007013 0.000000 0.000000 0.000000
# 2 -0.000774 0.011563 0.000677 0.000000 0.000000 0.000000
# 3 -0.007013 0.000677 0.011622 0.000000 0.000000 0.000000
# 4 0.000000 0.000000 0.000000 0.067718 0.000000 0.000000
# 5 0.000000 0.000000 0.000000 0.000000 -0.022343 0.000000
# 6 0.000000 0.000000 0.000000 0.000000 0.000000 -0.136621
#
#
# Mechanical properties :
#
#
# Convention : Reuss Voigt Hill
#
# Bulk Modulus (GPa) = 58.22670 92.85001 75.53836
# Shear Modulus (GPa) = -125.28799 16.35939 -54.46430
#
# Velocity S-wave (km/s) = -7.65000 2.76433 -5.04385
# Velocity P-wave (km/s) = 7.12966 7.31842 1.16774
#
# Compressibility (1/GPa) = 0.01717425
#
# Stress axis : x y z
#
# Youngs Moduli (GPa) = 121.82100 86.48079 86.04310
#
# Poissons Ratio (x) = 0.06697 0.60338
# Poissons Ratio (y) = 0.09434 -0.05826
# Poissons Ratio (z) = 0.85428 -0.05855
#
# Static dielectric constant tensor:
#      x y z
#    x 1.730380 0.000000 0.000000 
#    y 0.000000 1.855220 0.000000 
#    z 0.000000 0.000000 1.730260 
# 
# From -- ./inp_files/34005.got.cif
#   From: 2010.05.17/outbox.cif.g08.bks.cpg/sg47_18_cif.got.tgz:34005.got - 2010.06.03 20:15:42.
