data_PCOD9389672
_publ_section_title
;
Structure prediction by ZEFSAII (Michael W. Deem and Ramdas Pophale) SiO2 
 PCOD9389672
Probable space group: P N N N
;
_chemical_formula_sum "Si O2"
_cell_formula_units_Z 64
_cell_length_a 23.320502
_cell_length_b 22.844267
_cell_length_c 5.396938
_cell_angle_alpha 90.000000
_cell_angle_beta 90.000000
_cell_angle_gamma 90.000000
_cell_volume 2875.163532
_symmetry_space_group_name_H-M "P N N N"
_symmetry_group_IT_number 48
_space_group.IT_coordinate_system_code '2'
_symmetry_cell_setting 'orthorhombic'
loop_
_space_group_symop_operation_xyz
x,y,z
1/2-x,1/2-y,z
x,1/2-y,1/2-z
1/2-x,y,1/2-z
-x,-y,-z
1/2+x,1/2+y,-z
-x,1/2+y,1/2+z
1/2+x,-y,1/2+z
loop_
_atom_site_type_symbol
_atom_site_label
_atom_site_fract_x
_atom_site_fract_y
_atom_site_fract_z
Si Si1 0.719943 0.582260 0.500614
Si Si2 0.456305 0.697657 0.064516
Si Si3 0.109388 0.346581 0.018362
Si Si4 0.938896 0.967027 0.967538
Si Si5 0.404246 0.525385 0.547887
Si Si6 0.280129 0.941097 0.999726
Si Si7 0.917336 0.825536 0.013070
Si Si8 0.471222 0.635869 0.549454
O O1 0.750000 0.603411 0.250000
O O2 0.654102 0.600822 0.512011
O O3 0.725221 0.511838 0.501041
O O4 0.750000 0.603860 0.750000
O O5 0.433840 0.750000 0.250000
O O6 0.523848 0.710352 0.025926
O O7 0.449702 0.646642 0.267707
O O8 0.444184 0.675359 0.778349
O O9 0.119020 0.314021 0.272504
O O10 0.039984 0.356754 0.029433
O O11 0.117276 0.315979 0.759537
O O12 0.915740 0.989380 0.702819
O O13 0.899802 0.989601 0.196264
O O14 0.935901 0.895870 0.995780
O O15 0.000000 0.000000 0.000000
O O16 0.348398 0.566066 0.510321
O O17 0.456987 0.569045 0.597199
O O18 0.250000 0.918800 0.750000
O O19 0.250000 0.918900 0.250000
#
# Coordination Sequence:
#
# PCOD9389672 Si02
#       8
#     8   8   8   8   8   8   8   8
#     4  10  19  30  45  65  94 138 185 218 248 290
#     4  10  20  36  54  74 106 140 169 212 269 325
#     4  10  18  32  47  67 101 131 166 224 262 295
#     4  12  21  31  48  76 110 146 176 210 259 316
#     4  12  23  36  54  77 111 150 184 220 271 323
#     4  10  21  35  49  68  98 141 189 226 255 303
#     4  10  19  30  47  70  98 132 174 211 252 311
#     4  10  21  36  54  81 107 135 177 218 263 331
#
# _framework density 22.259605000000001
#
# number of rings (size 3 to 8) (size 9 to 14) (size 15 to 20)
#    0.000    1.500    0.000    8.250    0.000    2.000 
#    0.000    0.000    0.000    0.000    0.000    0.000 
#    0.000  127.500    0.000    0.000    0.000    0.000 
#
# Total GULP energy -356707.138389 kJ/mol
# GULP energy per Si atom -5573.549037 kJ/mol
# Density = 2.220894 g / cm^3
# Si number density = 22.259605 Si / 1000 Ang^3
#
#
#
# Elastic Constant Matrix: (Units=GPa)
#
#
# Indices 1 2 3 4 5 6 
#
# 1 55.6753 9.4318 26.7568 0.0000 0.0000 0.0000
# 2 9.4318 70.5003 21.6105 0.0000 0.0000 0.0000
# 3 26.7568 21.6105 212.9217 0.0000 0.0000 0.0000
# 4 0.0000 0.0000 0.0000 16.3106 0.0000 0.0000
# 5 0.0000 0.0000 0.0000 0.0000 24.4087 0.0000
# 6 0.0000 0.0000 0.0000 0.0000 0.0000 2.4981
#
#
#
# Elastic Compliance Matrix: (Units=1/GPa)
#
#
# Indices 1 2 3 4 5 6 
#
# 1 0.019360 -0.001904 -0.002240 0.000000 0.000000 0.000000
# 2 -0.001904 0.014827 -0.001266 0.000000 0.000000 0.000000
# 3 -0.002240 -0.001266 0.005106 0.000000 0.000000 0.000000
# 4 0.000000 0.000000 0.000000 0.061310 0.000000 0.000000
# 5 0.000000 0.000000 0.000000 0.000000 0.040969 0.000000
# 6 0.000000 0.000000 0.000000 0.000000 0.000000 0.400305
#
#
# Mechanical properties :
#
#
# Convention : Reuss Voigt Hill
#
# Bulk Modulus (GPa) = 35.11754 50.52172 42.81963
# Shear Modulus (GPa) = 8.89384 27.39668 18.14526
#
# Velocity S-wave (km/s) = 2.00104 3.51205 2.85821
# Velocity P-wave (km/s) = 4.59886 6.26034 5.49279
#
# Compressibility (1/GPa) = 0.02847580
#
# Stress axis : x y z
#
# Youngs Moduli (GPa) = 51.65253 67.44465 195.83004
#
# Poissons Ratio (x) = 0.12838 0.43860
# Poissons Ratio (y) = 0.09832 0.24785
# Poissons Ratio (z) = 0.11569 0.08536
#
# Static dielectric constant tensor:
#      x y z
#    x 1.813800 0.000000 0.000000 
#    y 0.000000 1.926040 0.000000 
#    z 0.000000 0.000000 1.893260 
# 
# From -- ./inp_files/6053.got.cif
#   From: 2010.05.17/outbox.cif.g08.bks.cpg/sg48_4_cif.got.tgz:6053.got - 2010.06.03 20:39:00.
