data_PCOD9389107
_publ_section_title
;
Structure prediction by ZEFSAII (Michael W. Deem and Ramdas Pophale) SiO2 
 PCOD9389107
Probable space group: P M M M
;
_chemical_formula_sum "Si O2"
_cell_formula_units_Z 44
_cell_length_a 30.046916
_cell_length_b 7.604397
_cell_length_c 9.389473
_cell_angle_alpha 90.000000
_cell_angle_beta 90.000000
_cell_angle_gamma 90.000000
_cell_volume 2145.388272
_symmetry_space_group_name_H-M "P M M M"
_symmetry_group_IT_number 47
_symmetry_cell_setting 'orthorhombic'
loop_
_space_group_symop_operation_xyz
x,y,z
-x,-y,z
x,-y,-z
-x,y,-z
-x,-y,-z
x,y,-z
-x,y,z
x,-y,z
loop_
_atom_site_type_symbol
_atom_site_label
_atom_site_fract_x
_atom_site_fract_y
_atom_site_fract_z
Si Si1 0.317826 0.215349 0.836415
Si Si2 0.769761 0.215361 0.336436
Si Si3 0.144976 0.790874 0.162494
Si Si4 0.596814 0.790676 0.337360
Si Si5 0.500000 0.291156 0.662311
Si Si6 0.952152 0.288542 0.166043
O O1 0.274010 0.269411 0.750101
O O2 0.362585 0.276186 0.757243
O O3 0.318157 0.000000 0.836889
O O4 0.316171 0.272064 0.000000
O O5 0.768026 0.272108 0.500000
O O6 0.814558 0.276336 0.257526
O O7 0.770100 0.000000 0.336976
O O8 0.095649 0.763769 0.226272
O O9 0.151182 0.000000 0.151436
O O10 0.146094 0.719210 0.000000
O O11 0.597875 0.719533 0.500000
O O12 0.547513 0.761280 0.274462
O O13 0.602748 0.000000 0.347777
O O14 0.500000 0.500000 0.654291
O O15 0.500000 0.216728 0.500000
O O16 0.952872 0.500000 0.166176
O O17 0.000000 0.228441 0.226905
O O18 0.951410 0.229965 0.000000
#
# Coordination Sequence:
#
# PCOD9389107 Si02
#       6
#     8   8   8   8   4   8
#     4   9  16  26  42  65  91 116 143 178 218 256
#     4   9  16  26  41  62  89 118 144 172 212 261
#     4   9  16  25  40  64  90 113 140 177 216 251
#     4   9  16  27  45  68  91 115 146 182 216 251
#     4   9  17  29  46  67  90 118 150 181 214 254
#     4   8  14  25  41  61  85 113 144 177 214 256
#
# _framework density 20.509108999999999
#
# number of rings (size 3 to 8) (size 9 to 14) (size 15 to 20)
#    0.000    3.182    0.000    1.909    0.000    5.818 
#    0.000    2.273    0.000    5.455    0.000    3.818 
#    0.000    0.000    0.000    0.000    0.000    0.000 
#
# Total GULP energy -245214.052270 kJ/mol
# GULP energy per Si atom -5573.046643 kJ/mol
# Density = 2.046243 g / cm^3
# Si number density = 20.509109 Si / 1000 Ang^3
#
#
#
# Elastic Constant Matrix: (Units=GPa)
#
#
# Indices 1 2 3 4 5 6 
#
# 1 258.4061 2.1056 106.6015 0.0000 0.0000 0.0000
# 2 2.1056 40.6531 5.5917 0.0000 0.0000 0.0000
# 3 106.6015 5.5917 105.2112 0.0000 0.0000 0.0000
# 4 0.0000 0.0000 0.0000 -0.7610 0.0000 0.0000
# 5 0.0000 0.0000 0.0000 0.0000 41.7651 0.0000
# 6 0.0000 0.0000 0.0000 0.0000 0.0000 92.4946
#
#
#
# Elastic Compliance Matrix: (Units=1/GPa)
#
#
# Indices 1 2 3 4 5 6 
#
# 1 0.006663 0.000588 -0.006782 0.000000 0.000000 0.000000
# 2 0.000588 0.024831 -0.001915 0.000000 0.000000 0.000000
# 3 -0.006782 -0.001915 0.016478 0.000000 0.000000 0.000000
# 4 0.000000 0.000000 0.000000 -1.314048 0.000000 0.000000
# 5 0.000000 0.000000 0.000000 0.000000 0.023943 0.000000
# 6 0.000000 0.000000 0.000000 0.000000 0.000000 0.010811
#
#
# Mechanical properties :
#
#
# Convention : Reuss Voigt Hill
#
# Bulk Modulus (GPa) = 31.49287 70.31866 50.90577
# Shear Modulus (GPa) = -4.15104 46.03118 20.94007
#
# Velocity S-wave (km/s) = -1.42422 4.74268 3.19880
# Velocity P-wave (km/s) = 3.56151 8.02195 6.20629
#
# Compressibility (1/GPa) = 0.03175322
#
# Stress axis : x y z
#
# Youngs Moduli (GPa) = 150.08196 40.27164 60.68544
#
# Poissons Ratio (x) = -0.02367 0.41159
# Poissons Ratio (y) = -0.08822 0.11623
# Poissons Ratio (z) = 1.01790 0.07713
#
# Static dielectric constant tensor:
#      x y z
#    x 1.755450 0.000000 0.000000 
#    y 0.000000 1.757470 0.000000 
#    z 0.000000 0.000000 1.706810 
# 
# From -- ./inp_files/13549.got.cif
#   From: 2010.05.17/outbox.cif.g08.bks.cpg/sg47_7_cif.got.tgz:13549.got - 2010.06.03 20:15:42.
