data_PCOD9389119
_publ_section_title
;
Structure prediction by ZEFSAII (Michael W. Deem and Ramdas Pophale) SiO2 
 PCOD9389119
Probable space group: P M M M
;
_chemical_formula_sum "Si O2"
_cell_formula_units_Z 36
_cell_length_a 9.436688
_cell_length_b 24.722484
_cell_length_c 7.781537
_cell_angle_alpha 90.000000
_cell_angle_beta 90.000000
_cell_angle_gamma 90.000000
_cell_volume 1815.419883
_symmetry_space_group_name_H-M "P M M M"
_symmetry_group_IT_number 47
_symmetry_cell_setting 'orthorhombic'
loop_
_space_group_symop_operation_xyz
x,y,z
-x,-y,z
x,-y,-z
-x,y,-z
-x,-y,-z
x,y,-z
-x,y,z
x,-y,z
loop_
_atom_site_type_symbol
_atom_site_label
_atom_site_fract_x
_atom_site_fract_y
_atom_site_fract_z
Si Si1 0.665712 0.441770 0.206790
Si Si2 0.338152 0.675647 0.705155
Si Si3 0.337953 0.117068 0.705463
Si Si4 0.338005 0.000000 0.795596
Si Si5 0.162767 0.779191 0.710985
O O1 0.500000 0.441119 0.262112
O O2 0.725918 0.500000 0.265415
O O3 0.725118 0.384001 0.262298
O O4 0.667448 0.442167 0.000000
O O5 0.347915 0.681776 0.500000
O O6 0.500000 0.677672 0.774329
O O7 0.244734 0.725358 0.769313
O O8 0.346788 0.122587 0.500000
O O9 0.500000 0.119136 0.773869
O O10 0.245140 0.167038 0.768901
O O11 0.275501 0.057549 0.741324
O O12 0.500000 0.000000 0.724118
O O13 0.344621 0.000000 0.000000
O O14 0.163570 0.779166 0.500000
O O15 0.000000 0.779275 0.765486
#
# Coordination Sequence:
#
# PCOD9389119 Si02
#       5
#     8   8   8   4   8
#     4   8  14  25  41  62  88 115 142 175 216 259
#     4   9  16  26  43  67  90 111 140 179 218 254
#     4   9  16  28  48  70  89 112 145 180 211 249
#     4   9  17  29  46  69  94 116 140 175 218 258
#     4   9  17  29  45  65  89 116 145 178 216 256
#
# _framework density 19.830124000000001
#
# number of rings (size 3 to 8) (size 9 to 14) (size 15 to 20)
#    0.000    3.222    0.000    1.667    0.000    4.444 
#    0.000    3.889    0.000   12.000    0.000    4.667 
#    0.000    0.000    0.000    0.000    0.000    0.000 
#
# Total GULP energy -200495.435591 kJ/mol
# GULP energy per Si atom -5569.317655 kJ/mol
# Density = 1.978499 g / cm^3
# Si number density = 19.830124 Si / 1000 Ang^3
#
#
#
# Elastic Constant Matrix: (Units=GPa)
#
#
# Indices 1 2 3 4 5 6 
#
# 1 69.4896 86.4754 5.8058 0.0000 0.0000 0.0000
# 2 86.4754 254.5264 5.6261 0.0000 0.0000 0.0000
# 3 5.8058 5.6261 22.7557 0.0000 0.0000 0.0000
# 4 0.0000 0.0000 0.0000 63.1033 0.0000 0.0000
# 5 0.0000 0.0000 0.0000 0.0000 2.7204 0.0000
# 6 0.0000 0.0000 0.0000 0.0000 0.0000 -7.3953
#
#
#
# Elastic Compliance Matrix: (Units=1/GPa)
#
#
# Indices 1 2 3 4 5 6 
#
# 1 0.025355 -0.008518 -0.004363 0.000000 0.000000 0.000000
# 2 -0.008518 0.006812 0.000489 0.000000 0.000000 0.000000
# 3 -0.004363 0.000489 0.044937 0.000000 0.000000 0.000000
# 4 0.000000 0.000000 0.000000 0.015847 0.000000 0.000000
# 5 0.000000 0.000000 0.000000 0.000000 0.367600 0.000000
# 6 0.000000 0.000000 0.000000 0.000000 0.000000 -0.135221
#
#
# Mechanical properties :
#
#
# Convention : Reuss Voigt Hill
#
# Bulk Modulus (GPa) = 19.11295 60.28738 39.70016
# Shear Modulus (GPa) = 13.60342 28.27664 20.94003
#
# Velocity S-wave (km/s) = 2.62200 3.78026 3.25310
# Velocity P-wave (km/s) = 4.33887 7.03717 5.84583
#
# Compressibility (1/GPa) = 0.05232055
#
# Stress axis : x y z
#
# Youngs Moduli (GPa) = 39.43941 146.79839 22.25323
#
# Poissons Ratio (x) = 1.25044 0.09709
# Poissons Ratio (y) = 0.33595 -0.01088
# Poissons Ratio (z) = 0.17208 -0.07179
#
# Static dielectric constant tensor:
#      x y z
#    x 1.668890 0.000000 0.000000 
#    y 0.000000 1.739000 0.000000 
#    z 0.000000 0.000000 1.716180 
# 
# From -- ./inp_files/1430.got.cif
#   From: 2010.05.17/outbox.cif.g08.bks.cpg/sg47_1_cif.got.tgz:1430.got - 2010.06.03 20:15:42.
