data_PCOD9389446
_publ_section_title
;
Structure prediction by ZEFSAII (Michael W. Deem and Ramdas Pophale) SiO2 
 PCOD9389446
Probable space group: P M M M
;
_chemical_formula_sum "Si O2"
_cell_formula_units_Z 48
_cell_length_a 15.000000
_cell_length_b 9.000000
_cell_length_c 18.000000
_cell_angle_alpha 90.000000
_cell_angle_beta 90.000000
_cell_angle_gamma 90.000000
_cell_volume 2430.000000
_symmetry_space_group_name_H-M "P M M M"
_symmetry_group_IT_number 47
_symmetry_cell_setting 'orthorhombic'
loop_
_space_group_symop_operation_xyz
x,y,z
-x,-y,z
x,-y,-z
-x,y,-z
-x,-y,-z
x,y,-z
-x,y,z
x,-y,z
loop_
_atom_site_type_symbol
_atom_site_label
_atom_site_fract_x
_atom_site_fract_y
_atom_site_fract_z
Si Si1 0.892828 0.679737 0.759816
Si Si2 0.609368 0.328238 0.000000
Si Si3 0.221102 0.822291 0.368313
Si Si4 0.391725 0.170297 0.151810
Si Si5 0.605291 0.678217 0.690489
Si Si6 0.891933 0.676035 0.922333
Si Si7 0.106212 0.679355 0.500000
O O1 0.879140 0.500000 0.752210
O O2 0.832639 0.771429 0.704416
O O3 0.864485 0.730888 0.842294
O O4 0.000000 0.702648 0.749705
O O5 0.639223 0.247548 0.075610
O O6 0.637396 0.500000 0.000000
O O7 0.500000 0.326634 0.000000
O O8 0.321287 0.755598 0.362086
O O9 0.160318 0.747197 0.431352
O O10 0.224830 0.000000 0.376409
O O11 0.500000 0.165319 0.146752
O O12 0.373390 0.263843 0.226112
O O13 0.360384 0.000000 0.158586
O O14 0.500000 0.713686 0.675427
O O15 0.614754 0.500000 0.687240
O O16 0.872014 0.500000 0.922854
O O17 0.000000 0.686622 0.922529
O O18 0.858618 0.741827 0.000000
O O19 0.111388 0.500000 0.500000
O O20 0.000000 0.717500 0.500000
#
# Coordination Sequence:
#
# PCOD9389446 Si02
#       7
#     8   4   8   8   8   8   4
#     4   9  17  31  54  84 118 157 201 248 298 356
#     4   9  15  23  39  67 103 145 196 249 302 365
#     4  12  25  40  62  92 127 162 198 243 300 367
#     4   9  16  27  46  74 108 146 191 248 313 370
#     4  10  21  39  63  88 116 155 205 258 307 361
#     4   7  10  19  40  72 107 144 190 243 294 341
#     4  11  25  47  74 101 130 163 199 242 294 353
#
# _framework density 19.753086
#
# number of rings (size 3 to 8) (size 9 to 14) (size 15 to 20)
#    0.000    2.500    0.000    5.000    0.000    7.000 
#    0.000    0.417    1.833    3.000    0.000    2.333 
#    0.000    0.000    0.000    0.000    0.000    0.000 
#
# Total GULP energy -267810.134568 kJ/mol
# GULP energy per Si atom -5579.377803 kJ/mol
# Density = 1.970813 g / cm^3
# Si number density = 19.753086 Si / 1000 Ang^3
#
#
#
# Elastic Constant Matrix: (Units=GPa)
#
#
# Indices 1 2 3 4 5 6 
#
# 1 100.1748 56.8178 64.7710 0.0000 0.0000 0.0000
# 2 56.8178 115.3092 46.2912 0.0000 0.0000 0.0000
# 3 64.7710 46.2912 135.0666 0.0000 0.0000 0.0000
# 4 0.0000 0.0000 0.0000 162.8561 0.0000 0.0000
# 5 0.0000 0.0000 0.0000 0.0000 12.7295 0.0000
# 6 0.0000 0.0000 0.0000 0.0000 0.0000 23.3475
#
#
#
# Elastic Compliance Matrix: (Units=1/GPa)
#
#
# Indices 1 2 3 4 5 6 
#
# 1 0.017525 -0.006101 -0.006313 0.000000 0.000000 0.000000
# 2 -0.006101 0.012180 -0.001249 0.000000 0.000000 0.000000
# 3 -0.006313 -0.001249 0.010859 0.000000 0.000000 0.000000
# 4 0.000000 0.000000 0.000000 0.006140 0.000000 0.000000
# 5 0.000000 0.000000 0.000000 0.000000 0.078558 0.000000
# 6 0.000000 0.000000 0.000000 0.000000 0.000000 0.042831
#
#
# Mechanical properties :
#
#
# Convention : Reuss Voigt Hill
#
# Bulk Modulus (GPa) = 75.53726 76.25675 75.89700
# Shear Modulus (GPa) = 25.02118 51.96466 38.49292
#
# Velocity S-wave (km/s) = 3.56293 5.13461 4.41920
# Velocity P-wave (km/s) = 7.43302 8.59308 8.03401
#
# Compressibility (1/GPa) = 0.01323850
#
# Stress axis : x y z
#
# Youngs Moduli (GPa) = 57.06224 82.10338 92.08837
#
# Poissons Ratio (x) = 0.50090 0.58136
# Poissons Ratio (y) = 0.34813 0.11499
# Poissons Ratio (z) = 0.36024 0.10252
#
# Static dielectric constant tensor:
#      x y z
#    x 1.715490 0.000000 0.000000 
#    y 0.000000 1.652270 0.000000 
#    z 0.000000 0.000000 1.790760 
# 
# From -- ./inp_files/28004.got.cif
#   From: 2010.05.17/outbox.ucp.g08.bks.cvg/sg47_15_cif.got.tgz:28004.got - 2010.06.11 16:36:43.
