data_PCOD9389085
_publ_section_title
;
Structure prediction by ZEFSAII (Michael W. Deem and Ramdas Pophale) SiO2 
 PCOD9389085
Probable space group: P M M M
;
_chemical_formula_sum "Si O2"
_cell_formula_units_Z 52
_cell_length_a 7.423720
_cell_length_b 21.256466
_cell_length_c 16.453544
_cell_angle_alpha 90.000000
_cell_angle_beta 90.000000
_cell_angle_gamma 90.000000
_cell_volume 2596.403002
_symmetry_space_group_name_H-M "P M M M"
_symmetry_group_IT_number 47
_symmetry_cell_setting 'orthorhombic'
loop_
_space_group_symop_operation_xyz
x,y,z
-x,-y,z
x,-y,-z
-x,y,-z
-x,-y,-z
x,y,-z
-x,y,z
x,-y,z
loop_
_atom_site_type_symbol
_atom_site_label
_atom_site_fract_x
_atom_site_fract_y
_atom_site_fract_z
Si Si1 0.784376 0.690703 0.088721
Si Si2 0.294920 0.809928 0.314400
Si Si3 0.281396 0.068629 0.404341
Si Si4 0.780223 0.070993 0.000000
Si Si5 0.715325 0.671282 0.725802
Si Si6 0.218667 0.168709 0.133553
Si Si7 0.280419 0.572552 0.591719
O O1 0.743624 0.661145 0.177377
O O2 0.726851 0.763674 0.097098
O O3 0.000000 0.689971 0.084623
O O4 0.719073 0.666273 0.000000
O O5 0.500000 0.800971 0.344777
O O6 0.211731 0.866624 0.365878
O O7 0.214087 0.739921 0.303258
O O8 0.295670 0.835516 0.222927
O O9 0.243308 0.069547 0.500000
O O10 0.500000 0.069263 0.394662
O O11 0.220037 0.000000 0.371973
O O12 0.725137 0.111389 0.922364
O O13 0.000000 0.070131 0.000000
O O14 0.716691 0.000000 0.000000
O O15 0.500000 0.674239 0.717145
O O16 0.781426 0.617600 0.664443
O O17 0.000000 0.169288 0.138228
O O18 0.226663 0.592362 0.500000
O O19 0.500000 0.573103 0.592597
O O20 0.225303 0.500000 0.603316
#
# Coordination Sequence:
#
# PCOD9389085 Si02
#       7
#     8   8   8   4   8   8   8
#     4   9  16  28  46  63  83 116 152 180 212 260
#     4   9  17  27  40  62  87 106 131 174 219 248
#     4   8  14  25  40  56  76 107 143 171 200 247
#     4   9  16  26  41  59  77 101 138 179 210 244
#     4   9  17  27  42  69  95 111 139 184 225 255
#     4   9  16  28  43  58  78 106 139 171 206 253
#     4   8  14  26  45  68  94 123 149 173 210 263
#
# _framework density 20.027709000000002
#
# number of rings (size 3 to 8) (size 9 to 14) (size 15 to 20)
#    0.000    3.308    0.769    0.923    0.000    1.538 
#    0.000    3.462    0.000    2.308    0.000    9.692 
#    0.000    0.000    0.000    0.000    0.000    0.000 
#
# Total GULP energy -289552.774521 kJ/mol
# GULP energy per Si atom -5568.322587 kJ/mol
# Density = 1.998212 g / cm^3
# Si number density = 20.027709 Si / 1000 Ang^3
#
#
#
# Elastic Constant Matrix: (Units=GPa)
#
#
# Indices 1 2 3 4 5 6 
#
# 1 62.7587 5.3773 3.8731 0.0000 0.0000 0.0000
# 2 5.3773 113.3962 98.6375 0.0000 0.0000 0.0000
# 3 3.8731 98.6375 143.1947 0.0000 0.0000 0.0000
# 4 0.0000 0.0000 0.0000 26.4529 0.0000 0.0000
# 5 0.0000 0.0000 0.0000 0.0000 22.6507 0.0000
# 6 0.0000 0.0000 0.0000 0.0000 0.0000 -1.9587
#
#
#
# Elastic Compliance Matrix: (Units=1/GPa)
#
#
# Indices 1 2 3 4 5 6 
#
# 1 0.016002 -0.000954 0.000224 0.000000 0.000000 0.000000
# 2 -0.000954 0.022058 -0.015169 0.000000 0.000000 0.000000
# 3 0.000224 -0.015169 0.017426 0.000000 0.000000 0.000000
# 4 0.000000 0.000000 0.000000 0.037803 0.000000 0.000000
# 5 0.000000 0.000000 0.000000 0.000000 0.044149 0.000000
# 6 0.000000 0.000000 0.000000 0.000000 0.000000 -0.510539
#
#
# Mechanical properties :
#
#
# Convention : Reuss Voigt Hill
#
# Bulk Modulus (GPa) = 42.21243 59.45839 50.83541
# Shear Modulus (GPa) = -14.99668 23.52644 4.26488
#
# Velocity S-wave (km/s) = -2.73938 3.43110 1.46086
# Velocity P-wave (km/s) = 3.33424 6.74160 5.31819
#
# Compressibility (1/GPa) = 0.02368971
#
# Stress axis : x y z
#
# Youngs Moduli (GPa) = 62.49246 45.33408 57.38465
#
# Poissons Ratio (x) = 0.04324 -0.01287
# Poissons Ratio (y) = 0.05961 0.87046
# Poissons Ratio (z) = -0.01401 0.68767
#
# Static dielectric constant tensor:
#      x y z
#    x 1.782420 0.000000 0.000000 
#    y 0.000000 1.706830 0.000000 
#    z 0.000000 0.000000 1.705510 
# 
# From -- ./inp_files/21374.got.cif
#   From: 2010.05.17/outbox.cif.g08.bks.cpg/sg47_11_cif.got.tgz:21374.got - 2010.06.03 20:15:42.
