data_PCOD9389132
_publ_section_title
;
Structure prediction by ZEFSAII (Michael W. Deem and Ramdas Pophale) SiO2 
 PCOD9389132
Probable space group: P M M M
;
_chemical_formula_sum "Si O2"
_cell_formula_units_Z 40
_cell_length_a 7.680184
_cell_length_b 9.555626
_cell_length_c 27.502143
_cell_angle_alpha 90.000000
_cell_angle_beta 90.000000
_cell_angle_gamma 90.000000
_cell_volume 2018.353835
_symmetry_space_group_name_H-M "P M M M"
_symmetry_group_IT_number 47
_symmetry_cell_setting 'orthorhombic'
loop_
_space_group_symop_operation_xyz
x,y,z
-x,-y,z
x,-y,-z
-x,y,-z
-x,-y,-z
x,y,-z
-x,y,z
x,-y,z
loop_
_atom_site_type_symbol
_atom_site_label
_atom_site_fract_x
_atom_site_fract_y
_atom_site_fract_z
Si Si1 0.786166 0.839057 0.000000
Si Si2 0.709276 0.662667 0.802405
Si Si3 0.287048 0.337016 0.696429
Si Si4 0.708028 0.840545 0.605295
Si Si5 0.793183 0.840336 0.500000
Si Si6 0.207211 0.659914 0.908335
O O1 0.727165 0.755894 0.951991
O O2 0.000000 0.839384 0.000000
O O3 0.730589 0.000000 0.000000
O O4 0.500000 0.663639 0.801954
O O5 0.767532 0.500000 0.803160
O O6 0.767332 0.718926 0.749815
O O7 0.763745 0.721824 0.854418
O O8 0.500000 0.334960 0.695850
O O9 0.236577 0.500000 0.692461
O O10 0.224325 0.248737 0.650510
O O11 0.500000 0.848819 0.610854
O O12 0.740483 0.777296 0.551764
O O13 0.777654 0.000000 0.605830
O O14 0.000000 0.848289 0.500000
O O15 0.719266 0.000000 0.500000
O O16 0.278043 0.500000 0.910215
O O17 0.000000 0.649130 0.914851
#
# Coordination Sequence:
#
# PCOD9389132 Si02
#       6
#     4   8   8   8   4   8
#     4   9  17  29  44  61  84 114 142 169 208 254
#     4   8  14  26  44  64  86 112 139 167 204 250
#     4   8  14  26  44  64  86 112 139 167 204 250
#     4   9  16  27  45  66  83 103 139 181 209 235
#     4   9  17  29  44  61  84 114 142 169 208 254
#     4   9  16  27  45  66  83 103 139 181 209 235
#
# _framework density 19.818131000000001
#
# number of rings (size 3 to 8) (size 9 to 14) (size 15 to 20)
#    0.000    3.400    0.000    1.800    0.000    2.400 
#    0.000    3.000    0.000    9.600    0.000    0.000 
#    0.000    0.000    0.000    0.000    0.000    0.000 
#
# Total GULP energy -222695.058759 kJ/mol
# GULP energy per Si atom -5567.376469 kJ/mol
# Density = 1.977302 g / cm^3
# Si number density = 19.818131 Si / 1000 Ang^3
#
#
#
# Elastic Constant Matrix: (Units=GPa)
#
#
# Indices 1 2 3 4 5 6 
#
# 1 31.0328 4.2928 4.5678 0.0000 0.0000 0.0000
# 2 4.2928 58.4941 83.3199 0.0000 0.0000 0.0000
# 3 4.5678 83.3199 252.8397 0.0000 0.0000 0.0000
# 4 0.0000 0.0000 0.0000 183.6172 0.0000 0.0000
# 5 0.0000 0.0000 0.0000 0.0000 25.2209 0.0000
# 6 0.0000 0.0000 0.0000 0.0000 0.0000 2.9726
#
#
#
# Elastic Compliance Matrix: (Units=1/GPa)
#
#
# Indices 1 2 3 4 5 6 
#
# 1 0.032573 -0.002926 0.000376 0.000000 0.000000 0.000000
# 2 -0.002926 0.032482 -0.010651 0.000000 0.000000 0.000000
# 3 0.000376 -0.010651 0.007458 0.000000 0.000000 0.000000
# 4 0.000000 0.000000 0.000000 0.005446 0.000000 0.000000
# 5 0.000000 0.000000 0.000000 0.000000 0.039650 0.000000
# 6 0.000000 0.000000 0.000000 0.000000 0.000000 0.336403
#
#
# Mechanical properties :
#
#
# Convention : Reuss Voigt Hill
#
# Bulk Modulus (GPa) = 21.68658 58.52529 40.10594
# Shear Modulus (GPa) = 10.08502 59.04123 34.56312
#
# Velocity S-wave (km/s) = 2.25828 5.46408 4.18067
# Velocity P-wave (km/s) = 4.21501 8.33088 6.60189
#
# Compressibility (1/GPa) = 0.04611146
#
# Stress axis : x y z
#
# Youngs Moduli (GPa) = 30.69994 30.78611 134.07972
#
# Poissons Ratio (x) = 0.09007 -0.05036
# Poissons Ratio (y) = 0.08981 1.42811
# Poissons Ratio (z) = -0.01153 0.32791
#
# Static dielectric constant tensor:
#      x y z
#    x 1.732130 0.000000 0.000000 
#    y 0.000000 1.682320 0.000000 
#    z 0.000000 0.000000 1.742610 
# 
# From -- ./inp_files/33073.got.cif
#   From: 2010.05.17/outbox.cif.g08.bks.cpg/sg47_17_cif.got.tgz:33073.got - 2010.06.03 20:15:42.
