data_PCOD9389917
_publ_section_title
;
Structure prediction by ZEFSAII (Michael W. Deem and Ramdas Pophale) SiO2 
 PCOD9389917
Probable space group: P N N N
;
_chemical_formula_sum "Si O2"
_cell_formula_units_Z 32
_cell_length_a 19.639678
_cell_length_b 4.954638
_cell_length_c 12.032311
_cell_angle_alpha 90.000000
_cell_angle_beta 90.000000
_cell_angle_gamma 90.000000
_cell_volume 1170.834042
_symmetry_space_group_name_H-M "P N N N"
_symmetry_group_IT_number 48
_space_group.IT_coordinate_system_code '2'
_symmetry_cell_setting 'orthorhombic'
loop_
_space_group_symop_operation_xyz
x,y,z
1/2-x,1/2-y,z
x,1/2-y,1/2-z
1/2-x,y,1/2-z
-x,-y,-z
1/2+x,1/2+y,-z
-x,1/2+y,1/2+z
1/2+x,-y,1/2+z
loop_
_atom_site_type_symbol
_atom_site_label
_atom_site_fract_x
_atom_site_fract_y
_atom_site_fract_z
Si Si1 0.103839 0.014307 0.904107
Si Si2 0.530130 0.287641 0.590239
Si Si3 0.189260 0.962291 0.582728
Si Si4 0.161850 0.502648 0.176210
O O1 0.166165 0.229297 0.887802
O O2 0.126906 0.716650 0.871296
O O3 0.309313 0.987935 0.051370
O O4 0.034371 0.135919 0.859280
O O5 0.500000 0.500000 0.500000
O O6 0.419596 0.536043 0.336984
O O7 0.420555 0.940326 0.468282
O O8 0.250000 0.750000 0.611853
O O9 0.183032 0.750000 0.250000
O O10 0.177946 0.250000 0.250000
#
# Coordination Sequence:
#
# PCOD9389917 Si02
#       4
#     8   8   8   8
#     4  10  19  33  57  80 100 145 194 239 287 318
#     4  10  19  35  60  78 106 146 190 243 296 329
#     4  11  22  37  53  78 116 159 196 229 261 335
#     4  11  23  35  53  81 115 150 186 224 279 336
#
# _framework density 27.330946000000001
#
# number of rings (size 3 to 8) (size 9 to 14) (size 15 to 20)
#    0.000    1.500    5.000    3.750    3.500    0.500 
#    0.000    1.250    0.000    0.000    0.000    0.000 
#    0.000   15.000    0.000    0.000    0.000    0.000 
#
# Total GULP energy -178619.339762 kJ/mol
# GULP energy per Si atom -5581.854368 kJ/mol
# Density = 2.726874 g / cm^3
# Si number density = 27.330946 Si / 1000 Ang^3
#
#
#
# Elastic Constant Matrix: (Units=GPa)
#
#
# Indices 1 2 3 4 5 6 
#
# 1 121.6321 41.1396 5.8213 0.0000 0.0000 0.0000
# 2 41.1396 231.6263 24.5698 0.0000 0.0000 0.0000
# 3 5.8213 24.5698 105.4785 0.0000 0.0000 0.0000
# 4 0.0000 0.0000 0.0000 -1.3440 0.0000 0.0000
# 5 0.0000 0.0000 0.0000 0.0000 16.9047 0.0000
# 6 0.0000 0.0000 0.0000 0.0000 0.0000 47.7688
#
#
#
# Elastic Compliance Matrix: (Units=1/GPa)
#
#
# Indices 1 2 3 4 5 6 
#
# 1 0.008749 -0.001541 -0.000124 0.000000 0.000000 0.000000
# 2 -0.001541 0.004698 -0.001009 0.000000 0.000000 0.000000
# 3 -0.000124 -0.001009 0.009723 0.000000 0.000000 0.000000
# 4 0.000000 0.000000 0.000000 -0.744051 0.000000 0.000000
# 5 0.000000 0.000000 0.000000 0.000000 0.059155 0.000000
# 6 0.000000 0.000000 0.000000 0.000000 0.000000 0.020934
#
#
# Mechanical properties :
#
#
# Convention : Reuss Voigt Hill
#
# Bulk Modulus (GPa) = 56.11290 66.86649 61.48970
# Shear Modulus (GPa) = -7.94276 38.47965 15.26844
#
# Velocity S-wave (km/s) = -1.70659 3.75629 2.36614
# Velocity P-wave (km/s) = 4.08561 6.58267 5.47831
#
# Compressibility (1/GPa) = 0.01782121
#
# Stress axis : x y z
#
# Youngs Moduli (GPa) = 114.30455 212.85608 102.85366
#
# Poissons Ratio (x) = 0.32795 0.01275
# Poissons Ratio (y) = 0.17611 0.10381
# Poissons Ratio (z) = 0.01417 0.21484
#
# Static dielectric constant tensor:
#      x y z
#    x 2.236600 0.000000 0.000000 
#    y 0.000000 2.071890 0.000000 
#    z 0.000000 0.000000 2.218940 
# 
# From -- ./inp_files/28471.got.cif
#   From: 2010.05.17/outbox.cif.g08.bks.cpg/sg48_15_cif.got.tgz:28471.got - 2010.06.03 20:39:00.
