data_PCOD9389043
_publ_section_title
;
Structure prediction by ZEFSAII (Michael W. Deem and Ramdas Pophale) SiO2 
 PCOD9389043
Probable space group: P M M M
;
_chemical_formula_sum "Si O2"
_cell_formula_units_Z 52
_cell_length_a 7.469308
_cell_length_b 19.721290
_cell_length_c 19.457237
_cell_angle_alpha 90.000000
_cell_angle_beta 90.000000
_cell_angle_gamma 90.000000
_cell_volume 2866.136411
_symmetry_space_group_name_H-M "P M M M"
_symmetry_group_IT_number 47
_symmetry_cell_setting 'orthorhombic'
loop_
_space_group_symop_operation_xyz
x,y,z
-x,-y,z
x,-y,-z
-x,y,-z
-x,-y,-z
x,y,-z
-x,y,z
x,-y,z
loop_
_atom_site_type_symbol
_atom_site_label
_atom_site_fract_x
_atom_site_fract_y
_atom_site_fract_z
Si Si1 0.717248 0.642806 0.577715
Si Si2 0.215598 0.718038 0.776627
Si Si3 0.786514 0.314505 0.078195
Si Si4 0.291987 0.214749 0.638394
Si Si5 0.790540 0.574798 0.282048
Si Si6 0.500000 0.426222 0.917964
Si Si7 0.282296 0.925646 0.580779
O O1 0.773354 0.627461 0.500000
O O2 0.500000 0.643078 0.579323
O O3 0.781767 0.718111 0.600519
O O4 0.776639 0.591161 0.636759
O O5 0.259416 0.732046 0.856248
O O6 0.281693 0.769686 0.719254
O O7 0.283229 0.642729 0.754403
O O8 0.000000 0.717196 0.770757
O O9 0.677460 0.382674 0.094543
O O10 0.000000 0.326127 0.079372
O O11 0.739417 0.292750 0.000000
O O12 0.500000 0.212726 0.617493
O O13 0.215502 0.141855 0.618352
O O14 0.714736 0.500000 0.267488
O O15 0.000000 0.572518 0.263248
O O16 0.500000 0.500000 0.885436
O O17 0.500000 0.433916 0.000000
O O18 0.239737 0.919766 0.500000
O O19 0.500000 0.926717 0.586114
O O20 0.220001 0.000000 0.605019
#
# Coordination Sequence:
#
# PCOD9389043 Si02
#       7
#     8   8   8   8   8   4   8
#     4   9  17  28  41  57  77 101 133 174 215 253
#     4   9  18  31  46  62  83 111 143 179 222 269
#     4   9  18  32  49  67  89 118 150 188 233 278
#     4   9  16  26  43  64  86 112 143 177 215 259
#     4   9  18  31  43  55  74 101 134 172 214 259
#     4   9  18  30  44  66  92 116 146 185 230 282
#     4   8  13  22  39  65  94 121 150 183 217 256
#
# _framework density 18.142890000000001
#
# number of rings (size 3 to 8) (size 9 to 14) (size 15 to 20)
#    0.000    3.154    0.000    0.923    1.077    3.692 
#    0.000    4.615    0.000    1.846    0.000    1.077 
#    0.000    0.615    0.000    7.692    0.000    0.000 
#
# Total GULP energy -289586.855288 kJ/mol
# GULP energy per Si atom -5568.977986 kJ/mol
# Density = 1.810160 g / cm^3
# Si number density = 18.142890 Si / 1000 Ang^3
#
#
#
# Elastic Constant Matrix: (Units=GPa)
#
#
# Indices 1 2 3 4 5 6 
#
# 1 45.0436 1.9935 -4.0634 0.0000 0.0000 0.0000
# 2 1.9935 96.0085 23.5655 0.0000 0.0000 0.0000
# 3 -4.0634 23.5655 87.5751 0.0000 0.0000 0.0000
# 4 0.0000 0.0000 0.0000 12.0530 0.0000 0.0000
# 5 0.0000 0.0000 0.0000 0.0000 15.0482 0.0000
# 6 0.0000 0.0000 0.0000 0.0000 0.0000 28.7350
#
#
#
# Elastic Compliance Matrix: (Units=1/GPa)
#
#
# Indices 1 2 3 4 5 6 
#
# 1 0.022347 -0.000769 0.001244 0.000000 0.000000 0.000000
# 2 -0.000769 0.011179 -0.003044 0.000000 0.000000 0.000000
# 3 0.001244 -0.003044 0.012296 0.000000 0.000000 0.000000
# 4 0.000000 0.000000 0.000000 0.082967 0.000000 0.000000
# 5 0.000000 0.000000 0.000000 0.000000 0.066453 0.000000
# 6 0.000000 0.000000 0.000000 0.000000 0.000000 0.034801
#
#
# Mechanical properties :
#
#
# Convention : Reuss Voigt Hill
#
# Bulk Modulus (GPa) = 24.58037 30.17981 27.38009
# Shear Modulus (GPa) = 20.10120 24.97602 22.53861
#
# Velocity S-wave (km/s) = 3.33218 3.71432 3.52843
# Velocity P-wave (km/s) = 5.32750 5.92161 5.63239
#
# Compressibility (1/GPa) = 0.04068287
#
# Stress axis : x y z
#
# Youngs Moduli (GPa) = 44.74884 89.45486 81.33035
#
# Poissons Ratio (x) = 0.06882 -0.10116
# Poissons Ratio (y) = 0.03443 0.24755
# Poissons Ratio (z) = -0.05566 0.27228
#
# Static dielectric constant tensor:
#      x y z
#    x 1.793150 0.000000 0.000000 
#    y 0.000000 1.630290 0.000000 
#    z 0.000000 0.000000 1.644880 
# 
# From -- ./inp_files/26945.got.cif
#   From: 2010.05.17/outbox.cif.g08.bks.cpg/sg47_14_cif.got.tgz:26945.got - 2010.06.03 20:15:42.
