data_PCOD9389180
_publ_section_title
;
Structure prediction by ZEFSAII (Michael W. Deem and Ramdas Pophale) SiO2 
 PCOD9389180
Probable space group: P M M M
;
_chemical_formula_sum "Si O2"
_cell_formula_units_Z 48
_cell_length_a 28.761261
_cell_length_b 7.431247
_cell_length_c 10.059876
_cell_angle_alpha 90.000000
_cell_angle_beta 90.000000
_cell_angle_gamma 90.000000
_cell_volume 2150.117765
_symmetry_space_group_name_H-M "P M M M"
_symmetry_group_IT_number 47
_symmetry_cell_setting 'orthorhombic'
loop_
_space_group_symop_operation_xyz
x,y,z
-x,-y,z
x,-y,-z
-x,y,-z
-x,-y,-z
x,y,-z
-x,y,z
x,-y,z
loop_
_atom_site_type_symbol
_atom_site_label
_atom_site_fract_x
_atom_site_fract_y
_atom_site_fract_z
Si Si1 0.444340 0.299603 0.000000
Si Si2 0.552134 0.794697 0.705690
Si Si3 0.273938 0.216542 0.149459
Si Si4 0.086333 0.719735 0.655159
Si Si5 0.348700 0.780571 0.357094
Si Si6 0.167496 0.713556 0.847785
Si Si7 0.000000 0.281040 0.156163
O O1 0.435037 0.203581 0.862254
O O2 0.423924 0.500000 0.000000
O O3 0.500000 0.316247 0.000000
O O4 0.500000 0.715457 0.688713
O O5 0.598389 0.711329 0.646093
O O6 0.548622 0.000000 0.658785
O O7 0.314671 0.284632 0.243307
O O8 0.221226 0.258661 0.190156
O O9 0.277476 0.000000 0.147417
O O10 0.280032 0.283894 0.000000
O O11 0.082645 0.778304 0.500000
O O12 0.085945 0.500000 0.650031
O O13 0.132729 0.779825 0.733672
O O14 0.044371 0.772493 0.754336
O O15 0.327724 0.739756 0.500000
O O16 0.352160 0.000000 0.345786
O O17 0.159241 0.500000 0.856738
O O18 0.160679 0.784583 0.000000
O O19 0.000000 0.500000 0.150457
O O20 0.000000 0.221953 0.000000
#
# Coordination Sequence:
#
# PCOD9389180 Si02
#       7
#     4   8   8   8   8   8   4
#     4   9  17  29  45  67  95 123 151 185 225 268
#     4   9  17  29  48  72  95 120 153 191 231 277
#     4   9  18  32  50  69  90 121 159 195 232 278
#     4   9  16  25  39  62  92 124 156 191 233 278
#     4   9  18  31  48  71  97 123 152 190 235 281
#     4   9  17  30  47  67  92 120 152 192 236 277
#     4   9  15  23  37  59  90 127 162 193 228 274
#
# _framework density 22.324358
#
# number of rings (size 3 to 8) (size 9 to 14) (size 15 to 20)
#    0.000    3.000    0.000    1.000    1.167    5.000 
#    0.000    2.500    0.000    1.500    0.000    2.917 
#    0.000    4.667    0.000    0.000    0.000    0.000 
#
# Total GULP energy -267594.323811 kJ/mol
# GULP energy per Si atom -5574.881746 kJ/mol
# Density = 2.227355 g / cm^3
# Si number density = 22.324358 Si / 1000 Ang^3
#
#
#
# Elastic Constant Matrix: (Units=GPa)
#
#
# Indices 1 2 3 4 5 6 
#
# 1 180.7929 0.3704 124.7625 0.0000 0.0000 0.0000
# 2 0.3704 73.6521 7.4849 0.0000 0.0000 0.0000
# 3 124.7625 7.4849 174.4160 0.0000 0.0000 0.0000
# 4 0.0000 0.0000 0.0000 -12.0140 0.0000 0.0000
# 5 0.0000 0.0000 0.0000 0.0000 45.1544 0.0000
# 6 0.0000 0.0000 0.0000 0.0000 0.0000 9.6398
#
#
#
# Elastic Compliance Matrix: (Units=1/GPa)
#
#
# Indices 1 2 3 4 5 6 
#
# 1 0.010964 0.000745 -0.007875 0.000000 0.000000 0.000000
# 2 0.000745 0.013687 -0.001120 0.000000 0.000000 0.000000
# 3 -0.007875 -0.001120 0.011414 0.000000 0.000000 0.000000
# 4 0.000000 0.000000 0.000000 -0.083237 0.000000 0.000000
# 5 0.000000 0.000000 0.000000 0.000000 0.022146 0.000000
# 6 0.000000 0.000000 0.000000 0.000000 0.000000 0.103737
#
#
# Mechanical properties :
#
#
# Convention : Reuss Voigt Hill
#
# Bulk Modulus (GPa) = 51.10931 77.12187 64.11559
# Shear Modulus (GPa) = 49.14793 28.30559 38.72676
#
# Velocity S-wave (km/s) = 4.69715 3.56465 4.16953
# Velocity P-wave (km/s) = 7.23611 7.18077 7.20849
#
# Compressibility (1/GPa) = 0.01956591
#
# Stress axis : x y z
#
# Youngs Moduli (GPa) = 91.20960 73.05957 87.60959
#
# Poissons Ratio (x) = -0.05444 0.68988
# Poissons Ratio (y) = -0.06796 0.09816
# Poissons Ratio (z) = 0.71823 0.08185
#
# Static dielectric constant tensor:
#      x y z
#    x 1.800670 0.000000 0.000000 
#    y 0.000000 1.910720 0.000000 
#    z 0.000000 0.000000 1.831250 
# 
# From -- ./inp_files/13931.got.cif
#   From: 2010.05.17/outbox.cif.g08.bks.cpg/sg47_7_cif.got.tgz:13931.got - 2010.06.03 20:15:42.
