data_PCOD9389646
_publ_section_title
;
Structure prediction by ZEFSAII (Michael W. Deem and Ramdas Pophale) SiO2 
 PCOD9389646
Probable space group: P N N N
;
_chemical_formula_sum "Si O2"
_cell_formula_units_Z 56
_cell_length_a 24.409033
_cell_length_b 9.260813
_cell_length_c 11.376642
_cell_angle_alpha 90.000000
_cell_angle_beta 90.000000
_cell_angle_gamma 90.000000
_cell_volume 2571.661370
_symmetry_space_group_name_H-M "P N N N"
_symmetry_group_IT_number 48
_space_group.IT_coordinate_system_code '2'
_symmetry_cell_setting 'orthorhombic'
loop_
_space_group_symop_operation_xyz
x,y,z
1/2-x,1/2-y,z
x,1/2-y,1/2-z
1/2-x,y,1/2-z
-x,-y,-z
1/2+x,1/2+y,-z
-x,1/2+y,1/2+z
1/2+x,-y,1/2+z
loop_
_atom_site_type_symbol
_atom_site_label
_atom_site_fract_x
_atom_site_fract_y
_atom_site_fract_z
Si Si1 0.138467 0.323665 0.124487
Si Si2 0.463244 0.509010 0.115646
Si Si3 0.658657 0.912330 0.229105
Si Si4 0.022903 0.318219 0.087898
Si Si5 0.852429 0.976060 0.003754
Si Si6 0.733160 0.578762 0.486449
Si Si7 0.966994 0.918258 0.334102
O O1 0.147430 0.250000 0.250000
O O2 0.080090 0.401184 0.115215
O O3 0.136952 0.193014 0.029144
O O4 0.188144 0.423920 0.088353
O O5 0.466203 0.336986 0.144325
O O6 0.494343 0.592901 0.219433
O O7 0.500000 0.500000 0.000000
O O8 0.401848 0.549423 0.070360
O O9 0.679681 0.750000 0.250000
O O10 0.648817 0.990135 0.354579
O O11 0.701730 0.971788 0.132579
O O12 0.596988 0.893287 0.183112
O O13 0.973460 0.412691 0.133784
O O14 0.016116 0.324305 0.947125
O O15 0.788612 0.001918 0.975997
O O16 0.750000 0.750000 0.474117
#
# Coordination Sequence:
#
# PCOD9389646 Si02
#       7
#     8   8   8   8   8   8   8
#     4  10  18  31  50  71 111 147 180 219 279 352
#     4  11  21  36  54  81 114 147 189 239 283 341
#     4  12  18  32  51  80 111 144 187 233 284 350
#     4  10  21  38  52  80 111 152 188 233 278 340
#     4  10  20  30  47  74 108 143 175 230 283 339
#     4  10  19  29  48  76 109 147 179 225 294 356
#     4  11  22  34  58  75 112 156 189 226 290 338
#
# _framework density 21.775804999999998
#
# number of rings (size 3 to 8) (size 9 to 14) (size 15 to 20)
#    0.000    1.429    5.714    3.429    0.000    2.571 
#    0.000    0.000    0.000    0.000    0.000    1.000 
#    0.000    0.000    6.000    0.000    0.286    0.000 
#
# Total GULP energy -311927.630897 kJ/mol
# GULP energy per Si atom -5570.136266 kJ/mol
# Density = 2.172624 g / cm^3
# Si number density = 21.775805 Si / 1000 Ang^3
#
#
#
# Elastic Constant Matrix: (Units=GPa)
#
#
# Indices 1 2 3 4 5 6 
#
# 1 133.5187 9.1849 45.9375 0.0000 0.0000 0.0000
# 2 9.1849 17.7018 14.0460 0.0000 0.0000 0.0000
# 3 45.9375 14.0460 126.9220 0.0000 0.0000 0.0000
# 4 0.0000 0.0000 0.0000 29.2804 0.0000 0.0000
# 5 0.0000 0.0000 0.0000 0.0000 10.0990 0.0000
# 6 0.0000 0.0000 0.0000 0.0000 0.0000 20.1391
#
#
#
# Elastic Compliance Matrix: (Units=1/GPa)
#
#
# Indices 1 2 3 4 5 6 
#
# 1 0.008632 -0.002192 -0.002882 0.000000 0.000000 0.000000
# 2 -0.002192 0.062486 -0.006122 0.000000 0.000000 0.000000
# 3 -0.002882 -0.006122 0.009599 0.000000 0.000000 0.000000
# 4 0.000000 0.000000 0.000000 0.034153 0.000000 0.000000
# 5 0.000000 0.000000 0.000000 0.000000 0.099020 0.000000
# 6 0.000000 0.000000 0.000000 0.000000 0.000000 0.049655
#
#
# Mechanical properties :
#
#
# Convention : Reuss Voigt Hill
#
# Bulk Modulus (GPa) = 17.14489 46.27547 31.71018
# Shear Modulus (GPa) = 16.37316 25.83532 21.10424
#
# Velocity S-wave (km/s) = 2.74505 3.44819 3.11651
# Velocity P-wave (km/s) = 4.23527 6.09511 5.24823
#
# Compressibility (1/GPa) = 0.05832640
#
# Stress axis : x y z
#
# Youngs Moduli (GPa) = 115.85067 16.00349 104.17491
#
# Poissons Ratio (x) = 0.03508 0.30018
# Poissons Ratio (y) = 0.25398 0.63772
# Poissons Ratio (z) = 0.33383 0.09797
#
# Static dielectric constant tensor:
#      x y z
#    x 1.847710 0.000000 0.000000 
#    y 0.000000 1.867250 0.000000 
#    z 0.000000 0.000000 1.899840 
# 
# From -- ./inp_files/23367.got.cif
#   From: 2010.05.17/outbox.cif.g08.bks.cpg/sg48_12_cif.got.tgz:23367.got - 2010.06.03 20:39:00.
