data_PCOD9389798
_publ_section_title
;
Structure prediction by ZEFSAII (Michael W. Deem and Ramdas Pophale) SiO2 
 PCOD9389798
Probable space group: P N N N
;
_chemical_formula_sum "Si O2"
_cell_formula_units_Z 48
_cell_length_a 14.689799
_cell_length_b 19.160209
_cell_length_c 8.403491
_cell_angle_alpha 90.000000
_cell_angle_beta 90.000000
_cell_angle_gamma 90.000000
_cell_volume 2365.243375
_symmetry_space_group_name_H-M "P N N N"
_symmetry_group_IT_number 48
_space_group.IT_coordinate_system_code '2'
_symmetry_cell_setting 'orthorhombic'
loop_
_space_group_symop_operation_xyz
x,y,z
1/2-x,1/2-y,z
x,1/2-y,1/2-z
1/2-x,y,1/2-z
-x,-y,-z
1/2+x,1/2+y,-z
-x,1/2+y,1/2+z
1/2+x,-y,1/2+z
loop_
_atom_site_type_symbol
_atom_site_label
_atom_site_fract_x
_atom_site_fract_y
_atom_site_fract_z
Si Si1 0.777481 0.329871 0.430609
Si Si2 0.835971 0.938214 0.363260
Si Si3 0.651254 0.722575 0.433891
Si Si4 0.324096 0.947094 0.128885
Si Si5 0.473145 0.794200 0.415418
Si Si6 0.497806 0.448606 0.848570
O O1 0.750000 0.250000 0.439438
O O2 0.750000 0.353609 0.250000
O O3 0.716785 0.376573 0.550022
O O4 0.883393 0.321810 0.488081
O O5 0.750000 0.931317 0.250000
O O6 0.853032 0.860991 0.431432
O O7 0.915111 0.971639 0.258522
O O8 0.826395 0.993843 0.499336
O O9 0.750000 0.750000 0.498240
O O10 0.649775 0.750000 0.250000
O O11 0.553416 0.749517 0.500578
O O12 0.250000 0.972565 0.250000
O O13 0.414956 0.942463 0.233200
O O14 0.449535 0.750000 0.250000
O O15 0.522689 0.867934 0.386419
O O16 0.500000 0.500000 0.000000
#
# Coordination Sequence:
#
# PCOD9389798 Si02
#       6
#     8   8   8   8   8   8
#     4  11  26  45  70 103 141 187 247 304 359 430
#     4  12  23  42  71 101 140 181 236 303 359 440
#     4  10  18  38  68 104 128 175 239 280 344 432
#     4  12  26  44  67 102 145 192 235 296 377 437
#     4  11  21  42  73 101 139 188 245 291 366 449
#     4  12  25  42  67 104 137 183 241 302 365 445
#
# _framework density 20.293894000000002
#
# number of rings (size 3 to 8) (size 9 to 14) (size 15 to 20)
#    0.000    0.667    6.667    3.000    2.333    0.000 
#    0.000    0.000    0.000    2.500    0.000    0.000 
#    0.000    0.000    0.000    0.000    0.000    0.000 
#
# Total GULP energy -267302.169641 kJ/mol
# GULP energy per Si atom -5568.795201 kJ/mol
# Density = 2.024770 g / cm^3
# Si number density = 20.293894 Si / 1000 Ang^3
#
#
#
# Elastic Constant Matrix: (Units=GPa)
#
#
# Indices 1 2 3 4 5 6 
#
# 1 156.9419 17.6702 61.6935 0.0000 0.0000 0.0000
# 2 17.6702 125.6274 62.9271 0.0000 0.0000 0.0000
# 3 61.6935 62.9271 104.2023 0.0000 0.0000 0.0000
# 4 0.0000 0.0000 0.0000 30.0742 0.0000 0.0000
# 5 0.0000 0.0000 0.0000 0.0000 21.1871 0.0000
# 6 0.0000 0.0000 0.0000 0.0000 0.0000 40.8763
#
#
#
# Elastic Compliance Matrix: (Units=1/GPa)
#
#
# Indices 1 2 3 4 5 6 
#
# 1 0.008618 0.001926 -0.006266 0.000000 0.000000 0.000000
# 2 0.001926 0.011843 -0.008292 0.000000 0.000000 0.000000
# 3 -0.006266 -0.008292 0.018314 0.000000 0.000000 0.000000
# 4 0.000000 0.000000 0.000000 0.033251 0.000000 0.000000
# 5 0.000000 0.000000 0.000000 0.000000 0.047199 0.000000
# 6 0.000000 0.000000 0.000000 0.000000 0.000000 0.024464
#
#
# Mechanical properties :
#
#
# Convention : Reuss Voigt Hill
#
# Bulk Modulus (GPa) = 74.01080 74.59478 74.30279
# Shear Modulus (GPa) = 28.82597 34.72624 31.77611
#
# Velocity S-wave (km/s) = 3.77294 4.14111 3.96131
# Velocity P-wave (km/s) = 7.45176 7.72672 7.59049
#
# Compressibility (1/GPa) = 0.01351154
#
# Stress axis : x y z
#
# Youngs Moduli (GPa) = 116.03810 84.44044 54.60357
#
# Poissons Ratio (x) = -0.16265 0.34212
# Poissons Ratio (y) = -0.22352 0.45278
# Poissons Ratio (z) = 0.72704 0.70019
#
# Static dielectric constant tensor:
#      x y z
#    x 2.149080 0.000000 0.000000 
#    y 0.000000 1.761240 0.000000 
#    z 0.000000 0.000000 1.737630 
# 
# From -- ./inp_files/12788.got.cif
#   From: 2010.05.17/outbox.cif.g08.bks.cpg/sg48_7_cif.got.tgz:12788.got - 2010.06.03 20:39:00.
