data_PCOD9389887
_publ_section_title
;
Structure prediction by ZEFSAII (Michael W. Deem and Ramdas Pophale) SiO2 
 PCOD9389887
Probable space group: P N N N
;
_chemical_formula_sum "Si O2"
_cell_formula_units_Z 42
_cell_length_a 7.637696
_cell_length_b 10.298180
_cell_length_c 25.361662
_cell_angle_alpha 90.000000
_cell_angle_beta 90.000000
_cell_angle_gamma 90.000000
_cell_volume 1994.805501
_symmetry_space_group_name_H-M "P N N N"
_symmetry_group_IT_number 48
_space_group.IT_coordinate_system_code '2'
_symmetry_cell_setting 'orthorhombic'
loop_
_space_group_symop_operation_xyz
x,y,z
1/2-x,1/2-y,z
x,1/2-y,1/2-z
1/2-x,y,1/2-z
-x,-y,-z
1/2+x,1/2+y,-z
-x,1/2+y,1/2+z
1/2+x,-y,1/2+z
loop_
_atom_site_type_symbol
_atom_site_label
_atom_site_fract_x
_atom_site_fract_y
_atom_site_fract_z
Si Si1 0.250000 0.250000 0.750000
Si Si2 0.250000 0.750000 0.606432
Si Si3 0.792161 0.973629 0.553102
Si Si4 0.700958 0.980268 0.065823
Si Si5 0.949811 0.880305 0.157134
Si Si6 0.250000 0.750000 0.403231
Si Si7 0.898768 0.661876 0.647990
O O1 0.134107 0.164505 0.788919
O O2 0.223688 0.624814 0.570632
O O3 0.425774 0.752766 0.641296
O O4 0.773282 0.928064 0.493054
O O5 0.731144 0.122160 0.560983
O O6 0.688067 0.880647 0.592060
O O7 0.994157 0.991591 0.570290
O O8 0.800226 0.904465 0.112261
O O9 0.082301 0.771068 0.134651
O O10 0.045905 0.018617 0.167764
O O11 0.750000 0.750000 0.675179
#
# Coordination Sequence:
#
# PCOD9389887 Si02
#       7
#     2   4   8   8   8   4   8
#     4  12  24  50  68 102 120 174 236 306 342 394
#     4  10  19  32  58  81 124 170 204 257 319 372
#     4  10  20  33  57  89 140 169 218 251 325 395
#     4  10  20  35  54  96 124 180 212 264 318 399
#     4  10  24  40  69  94 131 171 227 285 338 387
#     4  10  21  39  58  98 130 175 206 270 325 408
#     4  10  20  39  60  98 126 174 204 269 320 412
#
# _framework density 21.054684000000002
#
# number of rings (size 3 to 8) (size 9 to 14) (size 15 to 20)
#    0.000    1.905    1.905    1.714    0.000    8.762 
#    1.714    0.000    0.000    9.143   19.810    0.000 
#    0.000    0.000    0.000    0.000    0.000    0.000 
#
# Total GULP energy -234134.225545 kJ/mol
# GULP energy per Si atom -5574.624418 kJ/mol
# Density = 2.100676 g / cm^3
# Si number density = 21.054684 Si / 1000 Ang^3
#
#
#
# Elastic Constant Matrix: (Units=GPa)
#
#
# Indices 1 2 3 4 5 6 
#
# 1 129.6268 25.0002 64.2875 0.0000 0.0000 0.0000
# 2 25.0002 91.7792 40.2702 0.0000 0.0000 0.0000
# 3 64.2875 40.2702 107.0390 0.0000 0.0000 0.0000
# 4 0.0000 0.0000 0.0000 14.1807 0.0000 0.0000
# 5 0.0000 0.0000 0.0000 0.0000 13.3698 0.0000
# 6 0.0000 0.0000 0.0000 0.0000 0.0000 28.8250
#
#
#
# Elastic Compliance Matrix: (Units=1/GPa)
#
#
# Indices 1 2 3 4 5 6 
#
# 1 0.010988 -0.000117 -0.006556 0.000000 0.000000 0.000000
# 2 -0.000117 0.013051 -0.004840 0.000000 0.000000 0.000000
# 3 -0.006556 -0.004840 0.015101 0.000000 0.000000 0.000000
# 4 0.000000 0.000000 0.000000 0.070518 0.000000 0.000000
# 5 0.000000 0.000000 0.000000 0.000000 0.074795 0.000000
# 6 0.000000 0.000000 0.000000 0.000000 0.000000 0.034692
#
#
# Mechanical properties :
#
#
# Convention : Reuss Voigt Hill
#
# Bulk Modulus (GPa) = 62.05279 65.28451 63.66865
# Shear Modulus (GPa) = 20.19859 24.53424 22.36642
#
# Velocity S-wave (km/s) = 3.10068 3.41730 3.26283
# Velocity P-wave (km/s) = 6.50808 6.82971 6.67084
#
# Compressibility (1/GPa) = 0.01611531
#
# Stress axis : x y z
#
# Youngs Moduli (GPa) = 91.00715 76.62142 66.22269
#
# Poissons Ratio (x) = 0.00894 0.43413
# Poissons Ratio (y) = 0.01062 0.32052
# Poissons Ratio (z) = 0.59660 0.37085
#
# Static dielectric constant tensor:
#      x y z
#    x 1.867710 0.000000 0.000000 
#    y 0.000000 1.822350 0.000000 
#    z 0.000000 0.000000 1.728240 
# 
# From -- ./inp_files/35814.got.cif
#   From: 2010.05.17/outbox.cif.g08.bks.cpg/sg48_18_cif.got.tgz:35814.got - 2010.06.03 20:39:00.
