data_PCOD9389610
_publ_section_title
;
Structure prediction by ZEFSAII (Michael W. Deem and Ramdas Pophale) SiO2 
 PCOD9389610
Probable space group: P N N N
;
_chemical_formula_sum "Si O2"
_cell_formula_units_Z 44
_cell_length_a 13.537086
_cell_length_b 37.914587
_cell_length_c 5.165933
_cell_angle_alpha 90.000000
_cell_angle_beta 90.000000
_cell_angle_gamma 90.000000
_cell_volume 2651.430739
_symmetry_space_group_name_H-M "P N N N"
_symmetry_group_IT_number 48
_space_group.IT_coordinate_system_code '2'
_symmetry_cell_setting 'orthorhombic'
loop_
_space_group_symop_operation_xyz
x,y,z
1/2-x,1/2-y,z
x,1/2-y,1/2-z
1/2-x,y,1/2-z
-x,-y,-z
1/2+x,1/2+y,-z
-x,1/2+y,1/2+z
1/2+x,-y,1/2+z
loop_
_atom_site_type_symbol
_atom_site_label
_atom_site_fract_x
_atom_site_fract_y
_atom_site_fract_z
Si Si1 0.490648 0.545193 0.241436
Si Si2 0.869001 0.789990 0.256866
Si Si3 0.949765 0.586973 0.775629
Si Si4 0.841020 0.493884 0.396091
Si Si5 0.750000 0.552067 0.750000
Si Si6 0.629605 0.663852 0.755834
O O1 0.484355 0.567682 0.504875
O O2 0.568567 0.512179 0.263492
O O3 0.526398 0.570702 0.006139
O O4 0.390967 0.528531 0.124912
O O5 0.908290 0.750000 0.250000
O O6 0.750000 0.787151 0.250000
O O7 0.893132 0.810622 0.517202
O O8 0.894246 0.814471 0.014314
O O9 0.839706 0.574780 0.852008
O O10 0.937075 0.628851 0.763484
O O11 0.750000 0.475293 0.250000
O O12 0.788741 0.527090 0.526859
O O13 0.750000 0.656183 0.750000
#
# Coordination Sequence:
#
# PCOD9389610 Si02
#       6
#     8   8   8   8   4   8
#     4  10  23  32  49  66  93 113 156 202 254 288
#     4   9  17  28  42  63  88 115 153 195 223 261
#     4  11  20  34  44  70  90 120 153 201 242 287
#     4  10  20  34  49  67  86 119 154 204 254 298
#     4  10  20  30  52  62  89 116 158 204 243 284
#     4  10  18  28  45  63  86 121 155 187 235 278
#
# _framework density 16.594815000000001
#
# number of rings (size 3 to 8) (size 9 to 14) (size 15 to 20)
#    0.000    2.000    2.727    1.636    2.545    4.364 
#    0.000    0.000    0.000    0.000    0.000    0.000 
#    0.000    0.000    0.000    0.000    0.000   25.455 
#
# Total GULP energy -245250.215552 kJ/mol
# GULP energy per Si atom -5573.868535 kJ/mol
# Density = 1.655704 g / cm^3
# Si number density = 16.594815 Si / 1000 Ang^3
#
#
#
# Elastic Constant Matrix: (Units=GPa)
#
#
# Indices 1 2 3 4 5 6 
#
# 1 47.5291 17.3865 13.3299 0.0000 0.0000 0.0000
# 2 17.3865 104.4319 34.4772 0.0000 0.0000 0.0000
# 3 13.3299 34.4772 86.7488 0.0000 0.0000 0.0000
# 4 0.0000 0.0000 0.0000 -19.4369 0.0000 0.0000
# 5 0.0000 0.0000 0.0000 0.0000 18.4560 0.0000
# 6 0.0000 0.0000 0.0000 0.0000 0.0000 -57.8213
#
#
#
# Elastic Compliance Matrix: (Units=1/GPa)
#
#
# Indices 1 2 3 4 5 6 
#
# 1 0.022795 -0.003037 -0.002296 0.000000 0.000000 0.000000
# 2 -0.003037 0.011426 -0.004075 0.000000 0.000000 0.000000
# 3 -0.002296 -0.004075 0.013500 0.000000 0.000000 0.000000
# 4 0.000000 0.000000 0.000000 -0.051448 0.000000 0.000000
# 5 0.000000 0.000000 0.000000 0.000000 0.054183 0.000000
# 6 0.000000 0.000000 0.000000 0.000000 0.000000 -0.017295
#
#
# Mechanical properties :
#
#
# Convention : Reuss Voigt Hill
#
# Bulk Modulus (GPa) = 34.59479 41.01078 37.80278
# Shear Modulus (GPa) = 81.15496 -0.19271 40.48113
#
# Velocity S-wave (km/s) = 7.00071 -0.34114 4.94437
# Velocity P-wave (km/s) = 9.28648 4.96100 7.44480
#
# Compressibility (1/GPa) = 0.02890609
#
# Stress axis : x y z
#
# Youngs Moduli (GPa) = 43.87010 87.51628 74.07584
#
# Poissons Ratio (x) = 0.26580 0.17005
# Poissons Ratio (y) = 0.13324 0.30183
# Poissons Ratio (z) = 0.10071 0.35659
#
# Static dielectric constant tensor:
#      x y z
#    x 1.566090 0.000000 0.000000 
#    y 0.000000 1.562660 0.000000 
#    z 0.000000 0.000000 1.600830 
# 
# From -- ./inp_files/3638.got.cif
#   From: 2010.05.17/outbox.cif.g08.bks.cpg/sg48_2_cif.got.tgz:3638.got - 2010.06.03 20:39:00.
