data_PCOD9389054
_publ_section_title
;
Structure prediction by ZEFSAII (Michael W. Deem and Ramdas Pophale) SiO2 
 PCOD9389054
Probable space group: P M M M
;
_chemical_formula_sum "Si O2"
_cell_formula_units_Z 44
_cell_length_a 10.278818
_cell_length_b 30.140107
_cell_length_c 7.356744
_cell_angle_alpha 90.000000
_cell_angle_beta 90.000000
_cell_angle_gamma 90.000000
_cell_volume 2279.153679
_symmetry_space_group_name_H-M "P M M M"
_symmetry_group_IT_number 47
_symmetry_cell_setting 'orthorhombic'
loop_
_space_group_symop_operation_xyz
x,y,z
-x,-y,z
x,-y,-z
-x,y,-z
-x,-y,-z
x,y,-z
-x,y,z
x,-y,z
loop_
_atom_site_type_symbol
_atom_site_label
_atom_site_fract_x
_atom_site_fract_y
_atom_site_fract_z
Si Si1 0.342003 0.121171 0.293930
Si Si2 0.848136 0.702765 0.278142
Si Si3 0.341095 0.050765 0.000000
Si Si4 0.752226 0.606380 0.278530
Si Si5 0.349830 0.779559 0.721821
Si Si6 0.500000 0.448306 0.277865
Si Si7 0.000000 0.550264 0.721644
O O1 0.294993 0.116971 0.500000
O O2 0.500000 0.120454 0.297642
O O3 0.299615 0.080166 0.171968
O O4 0.311189 0.170489 0.222736
O O5 0.850374 0.702873 0.500000
O O6 0.780200 0.656692 0.221077
O O7 0.755810 0.743344 0.220999
O O8 0.000000 0.704972 0.221249
O O9 0.500000 0.049785 0.000000
O O10 0.296768 0.000000 0.000000
O O11 0.748468 0.607500 0.500000
O O12 0.624295 0.580305 0.220103
O O13 0.873806 0.576851 0.221989
O O14 0.351965 0.779943 0.500000
O O15 0.500000 0.770402 0.777998
O O16 0.500000 0.500000 0.219835
O O17 0.500000 0.449682 0.500000
O O18 0.000000 0.500000 0.783769
O O19 0.000000 0.549649 0.500000
#
# Coordination Sequence:
#
# PCOD9389054 Si02
#       7
#     8   8   4   8   8   4   4
#     4   8  14  25  38  56  85 118 154 193 231 276
#     4   9  15  22  31  46  66  86 117 166 220 269
#     4   9  16  24  38  62  91 125 159 191 232 277
#     4   9  15  21  27  37  53  75 108 157 210 256
#     4   8  14  23  36  51  70 101 134 168 215 267
#     4   9  16  22  26  34  50  76 114 159 205 256
#     4   9  14  20  28  34  46  74 110 149 203 262
#
# _framework density 19.305413000000001
#
# number of rings (size 3 to 8) (size 9 to 14) (size 15 to 20)
#    0.000    3.364    0.909    1.636    1.273    2.545 
#    0.000    1.818    0.000    0.000    0.000    0.636 
#    0.000    1.455    0.000    7.091    0.000    7.273 
#
# Total GULP energy -245321.351713 kJ/mol
# GULP energy per Si atom -5575.485266 kJ/mol
# Density = 1.926147 g / cm^3
# Si number density = 19.305413 Si / 1000 Ang^3
#
#
#
# Elastic Constant Matrix: (Units=GPa)
#
#
# Indices 1 2 3 4 5 6 
#
# 1 128.4951 97.5098 16.9090 0.0000 0.0000 0.0000
# 2 97.5098 235.1171 41.7630 0.0000 0.0000 0.0000
# 3 16.9090 41.7630 75.6188 0.0000 0.0000 0.0000
# 4 0.0000 0.0000 0.0000 769.0410 0.0000 0.0000
# 5 0.0000 0.0000 0.0000 0.0000 -8.4022 0.0000
# 6 0.0000 0.0000 0.0000 0.0000 0.0000 20.2459
#
#
#
# Elastic Compliance Matrix: (Units=1/GPa)
#
#
# Indices 1 2 3 4 5 6 
#
# 1 0.011357 -0.004722 0.000068 0.000000 0.000000 0.000000
# 2 -0.004722 0.006679 -0.002633 0.000000 0.000000 0.000000
# 3 0.000068 -0.002633 0.014663 0.000000 0.000000 0.000000
# 4 0.000000 0.000000 0.000000 0.001300 0.000000 0.000000
# 5 0.000000 0.000000 0.000000 0.000000 -0.119017 0.000000
# 6 0.000000 0.000000 0.000000 0.000000 0.000000 0.049393
#
#
# Mechanical properties :
#
#
# Convention : Reuss Voigt Hill
#
# Bulk Modulus (GPa) = 55.16955 83.51049 69.34002
# Shear Modulus (GPa) = -333.11890 175.04691 -79.03600
#
# Velocity S-wave (km/s) = -13.15016 9.53254 -6.40536
# Velocity P-wave (km/s) = 14.21019 12.82617 4.32545
#
# Compressibility (1/GPa) = 0.01812594
#
# Stress axis : x y z
#
# Youngs Moduli (GPa) = 88.05249 149.71616 68.19866
#
# Poissons Ratio (x) = 0.70699 -0.00467
# Poissons Ratio (y) = 0.41580 0.17956
# Poissons Ratio (z) = -0.00603 0.39420
#
# Static dielectric constant tensor:
#      x y z
#    x 1.587860 0.000000 0.000000 
#    y 0.000000 1.651050 0.000000 
#    z 0.000000 0.000000 1.955020 
# 
# From -- ./inp_files/2370.got.cif
#   From: 2010.05.17/outbox.cif.g08.bks.cpg/sg47_2_cif.got.tgz:2370.got - 2010.06.03 20:15:42.
