data_PCOD9389557
_publ_section_title
;
Structure prediction by ZEFSAII (Michael W. Deem and Ramdas Pophale) SiO2 
 PCOD9389557
Probable space group: P N N N
;
_chemical_formula_sum "Si O2"
_cell_formula_units_Z 40
_cell_length_a 11.615583
_cell_length_b 19.095536
_cell_length_c 7.271002
_cell_angle_alpha 90.000000
_cell_angle_beta 90.000000
_cell_angle_gamma 90.000000
_cell_volume 1612.750294
_symmetry_space_group_name_H-M "P N N N"
_symmetry_group_IT_number 48
_space_group.IT_coordinate_system_code '2'
_symmetry_cell_setting 'orthorhombic'
loop_
_space_group_symop_operation_xyz
x,y,z
1/2-x,1/2-y,z
x,1/2-y,1/2-z
1/2-x,y,1/2-z
-x,-y,-z
1/2+x,1/2+y,-z
-x,1/2+y,1/2+z
1/2+x,-y,1/2+z
loop_
_atom_site_type_symbol
_atom_site_label
_atom_site_fract_x
_atom_site_fract_y
_atom_site_fract_z
Si Si1 0.248622 0.350682 0.464816
Si Si2 0.489737 0.191699 0.969376
Si Si3 0.446096 0.926743 0.766447
Si Si4 0.835086 0.493032 0.904001
Si Si5 0.516885 0.349028 0.923638
O O1 0.250000 0.330343 0.250000
O O2 0.350847 0.305629 0.555347
O O3 0.288100 0.431448 0.469533
O O4 0.120633 0.352381 0.542281
O O5 0.508791 0.146963 0.150999
O O6 0.544546 0.268211 0.975163
O O7 0.962647 0.148593 0.705495
O O8 0.544675 0.984970 0.803498
O O9 0.072367 0.907584 0.945405
O O10 0.349226 0.949191 0.910337
O O11 0.750000 0.464327 0.750000
#
# Coordination Sequence:
#
# PCOD9389557 Si02
#       5
#     8   8   8   8   8
#     4  10  17  31  50  72 110 155 194 235 313 374
#     4  10  21  30  49  82 110 149 194 250 306 379
#     4  10  19  33  55  73 111 154 197 248 316 368
#     4   9  17  34  54  75 107 158 202 248 302 377
#     4  11  19  32  51  77 113 148 197 249 312 377
#
# _framework density 24.802351000000002
#
# number of rings (size 3 to 8) (size 9 to 14) (size 15 to 20)
#    0.000    2.000    6.000    1.800    0.000    2.400 
#    0.000    9.000    0.000    0.000    0.000    2.800 
#    0.000    6.400    0.000    0.000    0.800    0.000 
#
# Total GULP energy -223667.195657 kJ/mol
# GULP energy per Si atom -5591.679891 kJ/mol
# Density = 2.474590 g / cm^3
# Si number density = 24.802351 Si / 1000 Ang^3
#
#
#
# Elastic Constant Matrix: (Units=GPa)
#
#
# Indices 1 2 3 4 5 6 
#
# 1 48.3772 12.2969 30.1150 0.0000 0.0000 0.0000
# 2 12.2969 75.3952 35.0423 0.0000 0.0000 0.0000
# 3 30.1150 35.0423 163.9494 0.0000 0.0000 0.0000
# 4 0.0000 0.0000 0.0000 44.7917 0.0000 0.0000
# 5 0.0000 0.0000 0.0000 0.0000 31.7544 0.0000
# 6 0.0000 0.0000 0.0000 0.0000 0.0000 12.9573
#
#
#
# Elastic Compliance Matrix: (Units=1/GPa)
#
#
# Indices 1 2 3 4 5 6 
#
# 1 0.023618 -0.002038 -0.003903 0.000000 0.000000 0.000000
# 2 -0.002038 0.014902 -0.002811 0.000000 0.000000 0.000000
# 3 -0.003903 -0.002811 0.007417 0.000000 0.000000 0.000000
# 4 0.000000 0.000000 0.000000 0.022326 0.000000 0.000000
# 5 0.000000 0.000000 0.000000 0.000000 0.031492 0.000000
# 6 0.000000 0.000000 0.000000 0.000000 0.000000 0.077177
#
#
# Mechanical properties :
#
#
# Convention : Reuss Voigt Hill
#
# Bulk Modulus (GPa) = 35.16876 49.18114 42.17495
# Shear Modulus (GPa) = 24.52024 31.91854 28.21939
#
# Velocity S-wave (km/s) = 3.14765 3.59125 3.37675
# Velocity P-wave (km/s) = 5.23648 6.08838 5.67843
#
# Compressibility (1/GPa) = 0.02843433
#
# Stress axis : x y z
#
# Youngs Moduli (GPa) = 42.33981 67.10384 134.82392
#
# Poissons Ratio (x) = 0.13677 0.52618
# Poissons Ratio (y) = 0.08630 0.37896
# Poissons Ratio (z) = 0.16524 0.18862
#
# Static dielectric constant tensor:
#      x y z
#    x 2.009790 0.000000 0.000000 
#    y 0.000000 1.966460 0.000000 
#    z 0.000000 0.000000 1.954000 
# 
# From -- ./inp_files/25460.got.cif
#   From: 2010.05.17/outbox.cif.g08.bks.cpg/sg48_13_cif.got.tgz:25460.got - 2010.06.03 20:39:00.
