data_PCOD9389681
_publ_section_title
;
Structure prediction by ZEFSAII (Michael W. Deem and Ramdas Pophale) SiO2 
 PCOD9389681
Probable space group: P N N N
;
_chemical_formula_sum "Si O2"
_cell_formula_units_Z 44
_cell_length_a 8.486243
_cell_length_b 23.367592
_cell_length_c 12.949903
_cell_angle_alpha 90.000000
_cell_angle_beta 90.000000
_cell_angle_gamma 90.000000
_cell_volume 2568.005444
_symmetry_space_group_name_H-M "P N N N"
_symmetry_group_IT_number 48
_space_group.IT_coordinate_system_code '2'
_symmetry_cell_setting 'orthorhombic'
loop_
_space_group_symop_operation_xyz
x,y,z
1/2-x,1/2-y,z
x,1/2-y,1/2-z
1/2-x,y,1/2-z
-x,-y,-z
1/2+x,1/2+y,-z
-x,1/2+y,1/2+z
1/2+x,-y,1/2+z
loop_
_atom_site_type_symbol
_atom_site_label
_atom_site_fract_x
_atom_site_fract_y
_atom_site_fract_z
Si Si1 0.591172 0.577071 0.606261
Si Si2 0.306090 0.523905 0.130795
Si Si3 0.250000 0.750000 0.568062
Si Si4 0.102243 0.543660 0.690418
Si Si5 0.770889 0.379473 0.019221
Si Si6 0.250000 0.346373 0.250000
Si Si7 0.004146 0.750000 0.750000
O O1 0.679916 0.518769 0.574557
O O2 0.502345 0.567665 0.715794
O O3 0.456523 0.603993 0.534717
O O4 0.731025 0.618207 0.644450
O O5 0.250000 0.526144 0.250000
O O6 0.482092 0.497535 0.129828
O O7 0.293621 0.584903 0.077278
O O8 0.252839 0.811364 0.511619
O O9 0.104787 0.753914 0.646862
O O10 0.250000 0.514545 0.750000
O O11 0.177432 0.592851 0.617819
O O12 0.399140 0.305833 0.243027
#
# Coordination Sequence:
#
# PCOD9389681 Si02
#       7
#     8   8   4   8   8   4   4
#     4  10  18  32  52  77 105 130 164 211 263 321
#     4  10  20  35  53  73 102 135 176 221 265 304
#     4  11  22  32  47  74 104 136 175 206 249 316
#     4   9  18  31  52  77 104 131 165 210 266 320
#     4  11  21  33  50  77 105 138 173 213 258 313
#     4  11  16  32  50  74 106 141 164 192 262 325
#     4  10  22  30  50  72 108 146 158 198 256 326
#
# _framework density 17.13392
#
# number of rings (size 3 to 8) (size 9 to 14) (size 15 to 20)
#    0.000    1.818    4.545    2.182    5.091    0.000 
#    0.000    0.455    0.000    0.000    0.000    0.000 
#    0.000   11.636    0.000    0.000    0.000    0.000 
#
# Total GULP energy -245124.306878 kJ/mol
# GULP energy per Si atom -5571.006974 kJ/mol
# Density = 1.709492 g / cm^3
# Si number density = 17.133920 Si / 1000 Ang^3
#
#
#
# Elastic Constant Matrix: (Units=GPa)
#
#
# Indices 1 2 3 4 5 6 
#
# 1 87.9493 49.6208 14.6475 0.0000 0.0000 0.0000
# 2 49.6208 140.1859 24.5024 0.0000 0.0000 0.0000
# 3 14.6475 24.5024 20.4720 0.0000 0.0000 0.0000
# 4 0.0000 0.0000 0.0000 16.9121 0.0000 0.0000
# 5 0.0000 0.0000 0.0000 0.0000 15.9451 0.0000
# 6 0.0000 0.0000 0.0000 0.0000 0.0000 24.2391
#
#
#
# Elastic Compliance Matrix: (Units=1/GPa)
#
#
# Indices 1 2 3 4 5 6 
#
# 1 0.014667 -0.004246 -0.005413 0.000000 0.000000 0.000000
# 2 -0.004246 0.010249 -0.009230 0.000000 0.000000 0.000000
# 3 -0.005413 -0.009230 0.063766 0.000000 0.000000 0.000000
# 4 0.000000 0.000000 0.000000 0.059129 0.000000 0.000000
# 5 0.000000 0.000000 0.000000 0.000000 0.062715 0.000000
# 6 0.000000 0.000000 0.000000 0.000000 0.000000 0.041256
#
#
# Mechanical properties :
#
#
# Convention : Reuss Voigt Hill
#
# Bulk Modulus (GPa) = 19.64357 47.34986 33.49672
# Shear Modulus (GPa) = 16.31176 22.07503 19.19339
#
# Velocity S-wave (km/s) = 3.08882 3.59330 3.35057
# Velocity P-wave (km/s) = 4.92044 6.70156 5.87884
#
# Compressibility (1/GPa) = 0.05090724
#
# Stress axis : x y z
#
# Youngs Moduli (GPa) = 68.18050 97.56727 15.68223
#
# Poissons Ratio (x) = 0.41422 0.08488
# Poissons Ratio (y) = 0.28946 0.14474
# Poissons Ratio (z) = 0.36904 0.90050
#
# Static dielectric constant tensor:
#      x y z
#    x 1.653330 0.000000 0.000000 
#    y 0.000000 1.614100 0.000000 
#    z 0.000000 0.000000 1.574490 
# 
# From -- ./inp_files/25329.got.cif
#   From: 2010.05.17/outbox.cif.g08.bks.cpg/sg48_13_cif.got.tgz:25329.got - 2010.06.03 20:39:00.
