data_PCOD9389027
_publ_section_title
;
Structure prediction by ZEFSAII (Michael W. Deem and Ramdas Pophale) SiO2 
 PCOD9389027
Probable space group: P M M M
;
_chemical_formula_sum "Si O2"
_cell_formula_units_Z 44
_cell_length_a 7.372471
_cell_length_b 9.462006
_cell_length_c 30.076472
_cell_angle_alpha 90.000000
_cell_angle_beta 90.000000
_cell_angle_gamma 90.000000
_cell_volume 2098.085507
_symmetry_space_group_name_H-M "P M M M"
_symmetry_group_IT_number 47
_symmetry_cell_setting 'orthorhombic'
loop_
_space_group_symop_operation_xyz
x,y,z
-x,-y,z
x,-y,-z
-x,y,-z
-x,-y,-z
x,y,-z
-x,y,z
x,-y,z
loop_
_atom_site_type_symbol
_atom_site_label
_atom_site_fract_x
_atom_site_fract_y
_atom_site_fract_z
Si Si1 0.778420 0.837056 0.586939
Si Si2 0.284810 0.660237 0.132853
Si Si3 0.221326 0.663070 0.500000
Si Si4 0.778973 0.665168 0.673160
Si Si5 0.217180 0.337195 0.229693
Si Si6 0.721178 0.836335 0.049109
O O1 0.721909 0.746941 0.544071
O O2 0.718701 0.760133 0.632133
O O3 0.000000 0.837060 0.587035
O O4 0.721259 0.000000 0.584436
O O5 0.500000 0.649602 0.126429
O O6 0.210702 0.500000 0.133656
O O7 0.261173 0.727526 0.181833
O O8 0.213438 0.747707 0.091168
O O9 0.279694 0.500000 0.500000
O O10 0.000000 0.661835 0.500000
O O11 0.726301 0.500000 0.668253
O O12 0.721501 0.718340 0.722243
O O13 0.000000 0.666176 0.672394
O O14 0.283491 0.500000 0.227791
O O15 0.000000 0.341026 0.231719
O O16 0.500000 0.834278 0.049655
O O17 0.774827 0.000000 0.053049
O O18 0.776118 0.784069 0.000000
#
# Coordination Sequence:
#
# PCOD9389027 Si02
#       6
#     8   8   4   8   8   8
#     4   9  15  21  29  43  64  87 113 151 195 227
#     4   9  16  25  40  63  84  99 123 163 201 226
#     4   9  15  21  29  41  59  87 122 153 182 225
#     4   8  13  22  35  47  60  86 124 154 175 213
#     4   8  14  25  40  56  76 104 133 158 189 232
#     4   8  14  25  40  57  78 104 130 154 186 232
#
# _framework density 20.971502000000001
#
# number of rings (size 3 to 8) (size 9 to 14) (size 15 to 20)
#    0.000    3.545    0.000    2.455    0.000    3.636 
#    0.000    2.727    0.000    2.182    0.000    3.818 
#    0.000    0.000    0.000    0.818    0.000   20.182 
#
# Total GULP energy -245238.258396 kJ/mol
# GULP energy per Si atom -5573.596782 kJ/mol
# Density = 2.092377 g / cm^3
# Si number density = 20.971502 Si / 1000 Ang^3
#
#
#
# Elastic Constant Matrix: (Units=GPa)
#
#
# Indices 1 2 3 4 5 6 
#
# 1 73.5500 3.2539 5.1186 0.0000 0.0000 0.0000
# 2 3.2539 106.1270 115.4270 0.0000 0.0000 0.0000
# 3 5.1186 115.4270 275.3253 0.0000 0.0000 0.0000
# 4 0.0000 0.0000 0.0000 -19.4738 0.0000 0.0000
# 5 0.0000 0.0000 0.0000 0.0000 11.1364 0.0000
# 6 0.0000 0.0000 0.0000 0.0000 0.0000 -9.2855
#
#
#
# Elastic Compliance Matrix: (Units=1/GPa)
#
#
# Indices 1 2 3 4 5 6 
#
# 1 0.013618 -0.000261 -0.000144 0.000000 0.000000 0.000000
# 2 -0.000261 0.017325 -0.007259 0.000000 0.000000 0.000000
# 3 -0.000144 -0.007259 0.006678 0.000000 0.000000 0.000000
# 4 0.000000 0.000000 0.000000 -0.051351 0.000000 0.000000
# 5 0.000000 0.000000 0.000000 0.000000 0.089795 0.000000
# 6 0.000000 0.000000 0.000000 0.000000 0.000000 -0.107695
#
#
# Mechanical properties :
#
#
# Convention : Reuss Voigt Hill
#
# Bulk Modulus (GPa) = 44.85546 78.06682 61.46114
# Shear Modulus (GPa) = -563.63762 18.55560 -272.54101
#
# Velocity S-wave (km/s) = -16.41180 2.97779 -11.41227
# Velocity P-wave (km/s) = 18.37646 7.00921 12.01177
#
# Compressibility (1/GPa) = 0.02229383
#
# Stress axis : x y z
#
# Youngs Moduli (GPa) = 73.43362 57.71881 149.74929
#
# Poissons Ratio (x) = 0.01508 0.02150
# Poissons Ratio (y) = 0.01919 1.08697
# Poissons Ratio (z) = 0.01055 0.41896
#
# Static dielectric constant tensor:
#      x y z
#    x 1.847480 0.000000 0.000000 
#    y 0.000000 1.704240 0.000000 
#    z 0.000000 0.000000 1.771200 
# 
# From -- ./inp_files/2159.got.cif
#   From: 2010.05.17/outbox.cif.g08.bks.cpg/sg47_2_cif.got.tgz:2159.got - 2010.06.03 20:15:42.
