data_PCOD9389037
_publ_section_title
;
Structure prediction by ZEFSAII (Michael W. Deem and Ramdas Pophale) SiO2 
 PCOD9389037
Probable space group: P M M M
;
_chemical_formula_sum "Si O2"
_cell_formula_units_Z 44
_cell_length_a 7.637901
_cell_length_b 31.294216
_cell_length_c 10.179095
_cell_angle_alpha 90.000000
_cell_angle_beta 90.000000
_cell_angle_gamma 90.000000
_cell_volume 2433.028904
_symmetry_space_group_name_H-M "P M M M"
_symmetry_group_IT_number 47
_symmetry_cell_setting 'orthorhombic'
loop_
_space_group_symop_operation_xyz
x,y,z
-x,-y,z
x,-y,-z
-x,y,-z
-x,-y,-z
x,y,-z
-x,y,z
x,-y,z
loop_
_atom_site_type_symbol
_atom_site_label
_atom_site_fract_x
_atom_site_fract_y
_atom_site_fract_z
Si Si1 0.210123 0.452285 0.351504
Si Si2 0.000000 0.049024 0.660405
Si Si3 0.709659 0.621880 0.147740
Si Si4 0.713964 0.791114 0.650938
Si Si5 0.700188 0.886663 0.340120
Si Si6 0.286254 0.717797 0.848589
O O1 0.273816 0.443304 0.500000
O O2 0.272748 0.500000 0.313298
O O3 0.252090 0.415237 0.249929
O O4 0.000000 0.454332 0.357612
O O5 0.169771 0.076060 0.702015
O O6 0.000000 0.048541 0.500000
O O7 0.000000 0.000000 0.704249
O O8 0.500000 0.624850 0.139726
O O9 0.771279 0.669529 0.186170
O O10 0.775199 0.612392 0.000000
O O11 0.770472 0.784411 0.500000
O O12 0.500000 0.791121 0.649553
O O13 0.763344 0.838945 0.695565
O O14 0.774007 0.753924 0.747935
O O15 0.697445 0.886534 0.500000
O O16 0.500000 0.892842 0.295892
O O17 0.500000 0.718388 0.845184
O O18 0.235671 0.725972 0.000000
#
# Coordination Sequence:
#
# PCOD9389037 Si02
#       6
#     8   4   8   8   8   8
#     4   9  19  35  51  66  87 117 153 192 231 272
#     4   9  16  24  36  56  83 117 151 183 228 279
#     4   9  18  31  47  70  97 121 147 183 228 277
#     4   8  13  22  38  59  82 112 148 180 214 260
#     4   8  14  24  37  55  81 112 147 187 226 268
#     4   8  14  25  41  63  91 118 144 178 219 263
#
# _framework density 18.084453
#
# number of rings (size 3 to 8) (size 9 to 14) (size 15 to 20)
#    0.000    3.545    0.000    2.727    0.000    2.545 
#    0.000    6.364    2.000    0.000    0.000    0.000 
#    0.000    1.455    0.000    7.091    0.000    7.273 
#
# Total GULP energy -245044.716665 kJ/mol
# GULP energy per Si atom -5569.198106 kJ/mol
# Density = 1.804329 g / cm^3
# Si number density = 18.084453 Si / 1000 Ang^3
#
#
#
# Elastic Constant Matrix: (Units=GPa)
#
#
# Indices 1 2 3 4 5 6 
#
# 1 49.1309 43.4950 19.4983 0.0000 0.0000 0.0000
# 2 43.4950 213.0231 101.4521 0.0000 0.0000 0.0000
# 3 19.4983 101.4521 68.8939 0.0000 0.0000 0.0000
# 4 0.0000 0.0000 0.0000 -9.8860 0.0000 0.0000
# 5 0.0000 0.0000 0.0000 0.0000 14.6572 0.0000
# 6 0.0000 0.0000 0.0000 0.0000 0.0000 36.5832
#
#
#
# Elastic Compliance Matrix: (Units=1/GPa)
#
#
# Indices 1 2 3 4 5 6 
#
# 1 0.024889 -0.005782 0.001471 0.000000 0.000000 0.000000
# 2 -0.005782 0.017060 -0.023486 0.000000 0.000000 0.000000
# 3 0.001471 -0.023486 0.048684 0.000000 0.000000 0.000000
# 4 0.000000 0.000000 0.000000 -0.101153 0.000000 0.000000
# 5 0.000000 0.000000 0.000000 0.000000 0.068226 0.000000
# 6 0.000000 0.000000 0.000000 0.000000 0.000000 0.027335
#
#
# Mechanical properties :
#
#
# Convention : Reuss Voigt Hill
#
# Bulk Modulus (GPa) = 28.54027 73.32652 50.93340
# Shear Modulus (GPa) = 32.82665 19.37770 26.10218
#
# Velocity S-wave (km/s) = 4.26512 3.27695 3.80326
# Velocity P-wave (km/s) = 6.33016 7.41300 6.89288
#
# Compressibility (1/GPa) = 0.03503821
#
# Stress axis : x y z
#
# Youngs Moduli (GPa) = 40.17829 58.61614 20.54069
#
# Poissons Ratio (x) = 0.33894 -0.03021
# Poissons Ratio (y) = 0.23233 0.48242
# Poissons Ratio (z) = -0.05910 1.37666
#
# Static dielectric constant tensor:
#      x y z
#    x 1.676760 0.000000 0.000000 
#    y 0.000000 1.621650 0.000000 
#    z 0.000000 0.000000 1.597810 
# 
# From -- ./inp_files/2201.got.cif
#   From: 2010.05.17/outbox.cif.g08.bks.cpg/sg47_2_cif.got.tgz:2201.got - 2010.06.03 20:15:42.
