data_PCOD9389291
_publ_section_title
;
Structure prediction by ZEFSAII (Michael W. Deem and Ramdas Pophale) SiO2 
 PCOD9389291
Probable space group: P M M M
;
_chemical_formula_sum "Si O2"
_cell_formula_units_Z 64
_cell_length_a 24.000000
_cell_length_b 15.000000
_cell_length_c 9.000000
_cell_angle_alpha 90.000000
_cell_angle_beta 90.000000
_cell_angle_gamma 90.000000
_cell_volume 3240.000000
_symmetry_space_group_name_H-M "P M M M"
_symmetry_group_IT_number 47
_symmetry_cell_setting 'orthorhombic'
loop_
_space_group_symop_operation_xyz
x,y,z
-x,-y,z
x,-y,-z
-x,y,-z
-x,-y,-z
x,y,-z
-x,y,z
x,-y,z
loop_
_atom_site_type_symbol
_atom_site_label
_atom_site_fract_x
_atom_site_fract_y
_atom_site_fract_z
Si Si1 0.561612 0.221754 0.825566
Si Si2 0.149047 0.904287 0.322839
Si Si3 0.659389 0.899999 0.178910
Si Si4 0.285798 0.598478 0.175155
Si Si5 0.233393 0.222035 0.824835
Si Si6 0.932284 0.403567 0.824958
Si Si7 0.406172 0.598371 0.322850
Si Si8 0.063428 0.226732 0.677980
O O1 0.500000 0.183986 0.814659
O O2 0.605618 0.151751 0.762974
O O3 0.564494 0.316930 0.747403
O O4 0.574414 0.237123 0.000000
O O5 0.151515 0.910317 0.500000
O O6 0.188153 0.826461 0.270417
O O7 0.089131 0.867605 0.278861
O O8 0.163856 0.000000 0.257705
O O9 0.710801 0.834726 0.202464
O O10 0.667278 0.000000 0.237582
O O11 0.653215 0.907510 0.000000
O O12 0.261886 0.500000 0.191537
O O13 0.244525 0.676633 0.216406
O O14 0.342225 0.604298 0.268687
O O15 0.300468 0.611463 0.000000
O O16 0.220065 0.216887 0.000000
O O17 0.912144 0.500000 0.768887
O O18 0.909974 0.315457 0.746897
O O19 0.000000 0.404844 0.808383
O O20 0.920564 0.398219 0.000000
O O21 0.409466 0.602685 0.500000
O O22 0.426887 0.500000 0.275460
O O23 0.066366 0.234644 0.500000
O O24 0.000000 0.226787 0.725540
#
# Coordination Sequence:
#
# PCOD9389291 Si02
#       8
#     8   8   8   8   8   8   8   8
#     4  10  20  34  52  75 104 139 179 220 261 307
#     4  10  22  38  54  76 106 137 173 220 268 311
#     4   9  17  31  52  78 104 130 167 215 263 308
#     4   9  17  32  56  82 107 135 169 209 252 304
#     4  10  19  34  57  81 106 136 170 211 258 310
#     4   8  14  26  46  73 104 136 169 207 252 301
#     4  10  20  33  51  76 106 139 172 210 260 314
#     4   9  18  33  53  76 103 139 180 218 259 308
#
# _framework density 19.753086
#
# number of rings (size 3 to 8) (size 9 to 14) (size 15 to 20)
#    0.000    2.625    1.250    1.125    0.000    3.750 
#    0.000    5.625    0.000    2.625    0.000    3.500 
#    0.000    0.000    0.000    0.000    0.000    0.000 
#
# Total GULP energy -356356.463948 kJ/mol
# GULP energy per Si atom -5568.069749 kJ/mol
# Density = 1.970813 g / cm^3
# Si number density = 19.753086 Si / 1000 Ang^3
#
#
#
# Elastic Constant Matrix: (Units=GPa)
#
#
# Indices 1 2 3 4 5 6 
#
# 1 28.4797 41.3125 17.0213 0.0000 0.0000 0.0000
# 2 41.3125 85.9485 15.6777 0.0000 0.0000 0.0000
# 3 17.0213 15.6777 -3.9436 0.0000 0.0000 0.0000
# 4 0.0000 0.0000 0.0000 19.2239 0.0000 0.0000
# 5 0.0000 0.0000 0.0000 0.0000 10.0921 0.0000
# 6 0.0000 0.0000 0.0000 0.0000 0.0000 -84.9569
#
#
#
# Elastic Compliance Matrix: (Units=1/GPa)
#
#
# Indices 1 2 3 4 5 6 
#
# 1 0.045772 -0.033642 0.063818 0.000000 0.000000 0.000000
# 2 -0.033642 0.031471 -0.020094 0.000000 0.000000 0.000000
# 3 0.063818 -0.020094 -0.058009 0.000000 0.000000 0.000000
# 4 0.000000 0.000000 0.000000 0.052019 0.000000 0.000000
# 5 0.000000 0.000000 0.000000 0.000000 0.099087 0.000000
# 6 0.000000 0.000000 0.000000 0.000000 0.000000 -0.011771
#
#
# Mechanical properties :
#
#
# Convention : Reuss Voigt Hill
#
# Bulk Modulus (GPa) = 25.38222 28.72308 27.05265
# Shear Modulus (GPa) = 32.99528 -8.69664 12.14932
#
# Velocity S-wave (km/s) = 4.09147 -2.10053 2.48273
# Velocity P-wave (km/s) = 5.93277 2.94782 4.68441
#
# Compressibility (1/GPa) = 0.03939765
#
# Stress axis : x y z
#
# Youngs Moduli (GPa) = 21.84743 31.77571 -17.23865
#
# Poissons Ratio (x) = 1.06899 1.10013
# Poissons Ratio (y) = 0.73499 -0.34639
# Poissons Ratio (z) = -1.39425 0.63849
#
# Static dielectric constant tensor:
#      x y z
#    x 1.783010 0.000000 0.000000 
#    y 0.000000 1.679020 0.000000 
#    z 0.000000 0.000000 1.678170 
# 
# From -- ./inp_files/12740.got.cif
#   From: 2010.05.17/outbox.ucp.g08.bks.cvg/sg47_7_cif.got.tgz:12740.got - 2010.06.11 16:36:43.
