data_PCOD9389812
_publ_section_title
;
Structure prediction by ZEFSAII (Michael W. Deem and Ramdas Pophale) SiO2 
 PCOD9389812
Probable space group: P N N N
;
_chemical_formula_sum "Si O2"
_cell_formula_units_Z 42
_cell_length_a 13.331009
_cell_length_b 7.009450
_cell_length_c 17.023738
_cell_angle_alpha 90.000000
_cell_angle_beta 90.000000
_cell_angle_gamma 90.000000
_cell_volume 1590.749849
_symmetry_space_group_name_H-M "P N N N"
_symmetry_group_IT_number 48
_space_group.IT_coordinate_system_code '2'
_symmetry_cell_setting 'orthorhombic'
loop_
_space_group_symop_operation_xyz
x,y,z
1/2-x,1/2-y,z
x,1/2-y,1/2-z
1/2-x,y,1/2-z
-x,-y,-z
1/2+x,1/2+y,-z
-x,1/2+y,1/2+z
1/2+x,-y,1/2+z
loop_
_atom_site_type_symbol
_atom_site_label
_atom_site_fract_x
_atom_site_fract_y
_atom_site_fract_z
Si Si1 0.750000 0.250000 0.750000
Si Si2 0.556567 0.957150 0.143924
Si Si3 0.354974 0.583249 0.396895
Si Si4 0.966636 0.496580 0.323120
Si Si5 0.723839 0.951707 0.391060
Si Si6 0.647541 0.518653 0.940874
O O1 0.674742 0.360891 0.692790
O O2 0.461381 0.010604 0.091676
O O3 0.530198 0.036784 0.230292
O O4 0.543118 0.726554 0.158929
O O5 0.661159 0.018796 0.104175
O O6 0.356353 0.785328 0.442332
O O7 0.261912 0.450549 0.414919
O O8 0.855126 0.423545 0.344401
O O9 0.059272 0.431951 0.379044
O O10 0.750000 0.750000 0.349648
O O11 0.658205 0.911162 0.469994
#
# Coordination Sequence:
#
# PCOD9389812 Si02
#       6
#     2   8   8   8   8   8
#     4   8  12  24  44  68  84  96 142 196 236 260
#     4   9  16  27  44  67  89 109 144 191 230 259
#     4   9  16  27  46  68  85 108 143 189 230 253
#     4   9  16  28  45  64  88 115 146 184 224 265
#     4  10  19  28  41  65  95 122 142 170 221 276
#     4   9  17  28  43  65  89 114 145 178 219 266
#
# _framework density 26.402643999999999
#
# number of rings (size 3 to 8) (size 9 to 14) (size 15 to 20)
#    0.000    3.048    0.000    4.571    0.000    3.048 
#    0.000    0.000    0.000    0.000    0.000   40.000 
#    0.000    0.000    0.000    0.000    0.000    0.000 
#
# Total GULP energy -233880.394154 kJ/mol
# GULP energy per Si atom -5568.580813 kJ/mol
# Density = 2.634255 g / cm^3
# Si number density = 26.402644 Si / 1000 Ang^3
#
#
#
# Elastic Constant Matrix: (Units=GPa)
#
#
# Indices 1 2 3 4 5 6 
#
# 1 261.6697 -16.1781 46.3003 0.0000 0.0000 0.0000
# 2 -16.1781 100.2622 -9.6832 0.0000 0.0000 0.0000
# 3 46.3003 -9.6832 113.4423 0.0000 0.0000 0.0000
# 4 0.0000 0.0000 0.0000 20.9757 0.0000 0.0000
# 5 0.0000 0.0000 0.0000 0.0000 -1.7042 0.0000
# 6 0.0000 0.0000 0.0000 0.0000 0.0000 -26.2912
#
#
#
# Elastic Compliance Matrix: (Units=1/GPa)
#
#
# Indices 1 2 3 4 5 6 
#
# 1 0.004145 0.000510 -0.001648 0.000000 0.000000 0.000000
# 2 0.000510 0.010119 0.000656 0.000000 0.000000 0.000000
# 3 -0.001648 0.000656 0.009544 0.000000 0.000000 0.000000
# 4 0.000000 0.000000 0.000000 0.047674 0.000000 0.000000
# 5 0.000000 0.000000 0.000000 0.000000 -0.586779 0.000000
# 6 0.000000 0.000000 0.000000 0.000000 0.000000 -0.038035
#
#
# Mechanical properties :
#
#
# Convention : Reuss Voigt Hill
#
# Bulk Modulus (GPa) = 43.77830 57.36136 50.56983
# Shear Modulus (GPa) = -9.17848 28.92506 9.87329
#
# Velocity S-wave (km/s) = -1.86652 3.31348 1.93588
# Velocity P-wave (km/s) = 3.46003 6.03421 4.91851
#
# Compressibility (1/GPa) = 0.02284237
#
# Stress axis : x y z
#
# Youngs Moduli (GPa) = 241.26941 98.81992 104.78121
#
# Poissons Ratio (x) = -0.05036 0.17269
# Poissons Ratio (y) = -0.12295 -0.06871
# Poissons Ratio (z) = 0.39764 -0.06480
#
# Static dielectric constant tensor:
#      x y z
#    x 2.282740 0.000000 0.000000 
#    y 0.000000 2.148990 0.000000 
#    z 0.000000 0.000000 2.244180 
# 
# From -- ./inp_files/30992.got.cif
#   From: 2010.05.17/outbox.cif.g08.bks.cpg/sg48_16_cif.got.tgz:30992.got - 2010.06.03 20:39:00.
