data_PCOD9389378
_publ_section_title
;
Structure prediction by ZEFSAII (Michael W. Deem and Ramdas Pophale) SiO2 
 PCOD9389378
Probable space group: P M M M
;
_chemical_formula_sum "Si O2"
_cell_formula_units_Z 64
_cell_length_a 15.000000
_cell_length_b 9.000000
_cell_length_c 24.000000
_cell_angle_alpha 90.000000
_cell_angle_beta 90.000000
_cell_angle_gamma 90.000000
_cell_volume 3240.000000
_symmetry_space_group_name_H-M "P M M M"
_symmetry_group_IT_number 47
_symmetry_cell_setting 'orthorhombic'
loop_
_space_group_symop_operation_xyz
x,y,z
-x,-y,z
x,-y,-z
-x,y,-z
-x,-y,-z
x,y,-z
-x,y,z
x,-y,z
loop_
_atom_site_type_symbol
_atom_site_label
_atom_site_fract_x
_atom_site_fract_y
_atom_site_fract_z
Si Si1 0.899956 0.825762 0.081060
Si Si2 0.605242 0.175814 0.841793
Si Si3 0.715562 0.670708 0.745842
Si Si4 0.715903 0.328680 0.062478
Si Si5 0.105802 0.675837 0.438719
Si Si6 0.757337 0.176078 0.634045
Si Si7 0.096366 0.333403 0.193824
Si Si8 0.594199 0.819417 0.435637
O O1 0.817000 0.730907 0.060305
O O2 0.899578 0.791553 0.146912
O O3 0.000000 0.784349 0.062045
O O4 0.886792 0.000000 0.069616
O O5 0.500000 0.203743 0.847636
O O6 0.647151 0.266931 0.790924
O O7 0.658976 0.229398 0.895915
O O8 0.618800 0.000000 0.833231
O O9 0.694925 0.500000 0.731467
O O10 0.721536 0.776290 0.693362
O O11 0.815669 0.674515 0.770321
O O12 0.715465 0.500000 0.081743
O O13 0.679070 0.322518 0.000000
O O14 0.136977 0.732141 0.500000
O O15 0.123339 0.500000 0.436655
O O16 0.151761 0.752786 0.386791
O O17 0.000000 0.696622 0.436850
O O18 0.682309 0.236636 0.592410
O O19 0.764773 0.000000 0.630266
O O20 0.097303 0.500000 0.167430
O O21 0.000000 0.320906 0.223178
O O22 0.594151 0.779333 0.500000
O O23 0.500000 0.771040 0.409888
O O24 0.596085 0.000000 0.432594
#
# Coordination Sequence:
#
# PCOD9389378 Si02
#       8
#     8   8   8   8   8   8   8   8
#     4  10  20  34  57  89 123 158 195 238 287 338
#     4  11  25  45  68  91 117 152 196 249 308 364
#     4  11  23  39  60  86 118 159 200 239 290 353
#     4  11  24  41  63  92 125 161 200 243 292 352
#     4   9  19  37  59  82 114 160 209 254 304 362
#     4  11  22  34  54  86 120 152 192 244 298 353
#     4   9  18  34  57  82 109 146 191 235 282 341
#     4   8  15  30  52  77 106 141 181 227 282 342
#
# _framework density 19.753086
#
# number of rings (size 3 to 8) (size 9 to 14) (size 15 to 20)
#    0.000    2.000    1.250    3.000    0.000    5.750 
#    0.000    5.625    0.000    1.125    0.000    4.375 
#    0.000    0.000    0.000    0.000    0.000    0.000 
#
# Total GULP energy -356777.865721 kJ/mol
# GULP energy per Si atom -5574.654152 kJ/mol
# Density = 1.970813 g / cm^3
# Si number density = 19.753086 Si / 1000 Ang^3
#
#
#
# Elastic Constant Matrix: (Units=GPa)
#
#
# Indices 1 2 3 4 5 6 
#
# 1 71.9693 35.2051 21.0320 0.0000 0.0000 0.0000
# 2 35.2051 27.1900 -0.8115 0.0000 0.0000 0.0000
# 3 21.0320 -0.8115 30.4757 0.0000 0.0000 0.0000
# 4 0.0000 0.0000 0.0000 76.8642 0.0000 0.0000
# 5 0.0000 0.0000 0.0000 0.0000 -122.0092 0.0000
# 6 0.0000 0.0000 0.0000 0.0000 0.0000 69.5640
#
#
#
# Elastic Compliance Matrix: (Units=1/GPa)
#
#
# Indices 1 2 3 4 5 6 
#
# 1 0.096409 -0.126915 -0.069913 0.000000 0.000000 0.000000
# 2 -0.126915 0.203881 0.093016 0.000000 0.000000 0.000000
# 3 -0.069913 0.093016 0.083539 0.000000 0.000000 0.000000
# 4 0.000000 0.000000 0.000000 0.013010 0.000000 0.000000
# 5 0.000000 0.000000 0.000000 0.000000 -0.008196 0.000000
# 6 0.000000 0.000000 0.000000 0.000000 0.000000 0.014375
#
#
# Mechanical properties :
#
#
# Convention : Reuss Voigt Hill
#
# Bulk Modulus (GPa) = 5.67523 26.72068 16.19796
# Shear Modulus (GPa) = 7.46963 9.83109 8.65036
#
# Velocity S-wave (km/s) = 1.94672 2.23334 2.09493
# Velocity P-wave (km/s) = 2.81643 4.49523 3.75096
#
# Compressibility (1/GPa) = 0.17620420
#
# Stress axis : x y z
#
# Youngs Moduli (GPa) = 10.37250 4.90481 11.97048
#
# Poissons Ratio (x) = 0.62249 0.83690
# Poissons Ratio (y) = 1.31643 -1.11345
# Poissons Ratio (z) = 0.72518 -0.45623
#
# Static dielectric constant tensor:
#      x y z
#    x 1.738230 0.000000 0.000000 
#    y 0.000000 1.666140 0.000000 
#    z 0.000000 0.000000 1.722820 
# 
# From -- ./inp_files/32765.got.cif
#   From: 2010.05.17/outbox.ucp.g08.bks.cvg/sg47_17_cif.got.tgz:32765.got - 2010.06.11 16:36:43.
