data_PCOD9389625
_publ_section_title
;
Structure prediction by ZEFSAII (Michael W. Deem and Ramdas Pophale) SiO2 
 PCOD9389625
Probable space group: P N N N
;
_chemical_formula_sum "Si O2"
_cell_formula_units_Z 40
_cell_length_a 7.854249
_cell_length_b 9.001856
_cell_length_c 24.721699
_cell_angle_alpha 90.000000
_cell_angle_beta 90.000000
_cell_angle_gamma 90.000000
_cell_volume 1747.893797
_symmetry_space_group_name_H-M "P N N N"
_symmetry_group_IT_number 48
_space_group.IT_coordinate_system_code '2'
_symmetry_cell_setting 'orthorhombic'
loop_
_space_group_symop_operation_xyz
x,y,z
1/2-x,1/2-y,z
x,1/2-y,1/2-z
1/2-x,y,1/2-z
-x,-y,-z
1/2+x,1/2+y,-z
-x,1/2+y,1/2+z
1/2+x,-y,1/2+z
loop_
_atom_site_type_symbol
_atom_site_label
_atom_site_fract_x
_atom_site_fract_y
_atom_site_fract_z
Si Si1 0.029799 0.907242 0.814652
Si Si2 0.746141 0.427310 0.024429
Si Si3 0.575965 0.654037 0.399559
Si Si4 0.092602 0.951855 0.081007
Si Si5 0.442283 0.933868 0.810617
O O1 0.235177 0.932415 0.819263
O O2 0.000231 0.732406 0.825583
O O3 0.003585 0.947615 0.751858
O O4 0.916210 0.996222 0.857170
O O5 0.750000 0.250000 0.028707
O O6 0.739627 0.481150 0.962144
O O7 0.878440 0.526226 0.057691
O O8 0.569313 0.468170 0.053849
O O9 0.750000 0.750000 0.387709
O O10 0.448286 0.777645 0.420484
O O11 0.503107 0.570078 0.347447
#
# Coordination Sequence:
#
# PCOD9389625 Si02
#       5
#     8   8   8   8   8
#     4   9  16  28  46  70  99 134 156 187 254 310
#     4  10  20  34  49  65 100 140 169 209 248 294
#     4  10  18  30  47  73  99 129 169 203 248 293
#     4  10  20  32  48  73 101 132 173 206 248 307
#     4   9  16  27  47  70 100 133 152 194 252 309
#
# _framework density 22.884685000000001
#
# number of rings (size 3 to 8) (size 9 to 14) (size 15 to 20)
#    0.000    2.400    4.000    2.400    0.000    1.600 
#    0.000    4.000    0.000    0.000    0.000    2.800 
#    0.000    6.400    0.000    0.000    0.000    0.000 
#
# Total GULP energy -223384.349000 kJ/mol
# GULP energy per Si atom -5584.608725 kJ/mol
# Density = 2.283260 g / cm^3
# Si number density = 22.884685 Si / 1000 Ang^3
#
#
#
# Elastic Constant Matrix: (Units=GPa)
#
#
# Indices 1 2 3 4 5 6 
#
# 1 56.2440 30.4947 24.8619 0.0000 0.0000 0.0000
# 2 30.4947 143.2525 90.5239 0.0000 0.0000 0.0000
# 3 24.8619 90.5239 135.4488 0.0000 0.0000 0.0000
# 4 0.0000 0.0000 0.0000 16.6346 0.0000 0.0000
# 5 0.0000 0.0000 0.0000 0.0000 -10.6034 0.0000
# 6 0.0000 0.0000 0.0000 0.0000 0.0000 8.5948
#
#
#
# Elastic Compliance Matrix: (Units=1/GPa)
#
#
# Indices 1 2 3 4 5 6 
#
# 1 0.020262 -0.003398 -0.001448 0.000000 0.000000 0.000000
# 2 -0.003398 0.012654 -0.007833 0.000000 0.000000 0.000000
# 3 -0.001448 -0.007833 0.012884 0.000000 0.000000 0.000000
# 4 0.000000 0.000000 0.000000 0.060116 0.000000 0.000000
# 5 0.000000 0.000000 0.000000 0.000000 -0.094309 0.000000
# 6 0.000000 0.000000 0.000000 0.000000 0.000000 0.116349
#
#
# Mechanical properties :
#
#
# Convention : Reuss Voigt Hill
#
# Bulk Modulus (GPa) = 48.92128 69.63403 59.27765
# Shear Modulus (GPa) = 31.22492 15.52952 23.37722
#
# Velocity S-wave (km/s) = 3.69785 2.60782 3.19959
# Velocity P-wave (km/s) = 6.29729 6.28983 6.29356
#
# Compressibility (1/GPa) = 0.02044100
#
# Stress axis : x y z
#
# Youngs Moduli (GPa) = 49.35288 79.02589 77.61664
#
# Poissons Ratio (x) = 0.26855 0.11239
# Poissons Ratio (y) = 0.16771 0.60799
# Poissons Ratio (z) = 0.07146 0.61903
#
# Static dielectric constant tensor:
#      x y z
#    x 1.936790 0.000000 0.000000 
#    y 0.000000 1.827640 0.000000 
#    z 0.000000 0.000000 1.880590 
# 
# From -- ./inp_files/25474.got.cif
#   From: 2010.05.17/outbox.cif.g08.bks.cpg/sg48_13_cif.got.tgz:25474.got - 2010.06.03 20:39:00.
