data_PCOD9389170
_publ_section_title
;
Structure prediction by ZEFSAII (Michael W. Deem and Ramdas Pophale) SiO2 
 PCOD9389170
Probable space group: P M M M
;
_chemical_formula_sum "Si O2"
_cell_formula_units_Z 52
_cell_length_a 14.014684
_cell_length_b 9.292181
_cell_length_c 27.252372
_cell_angle_alpha 90.000000
_cell_angle_beta 90.000000
_cell_angle_gamma 90.000000
_cell_volume 3548.994114
_symmetry_space_group_name_H-M "P M M M"
_symmetry_group_IT_number 47
_symmetry_cell_setting 'orthorhombic'
loop_
_space_group_symop_operation_xyz
x,y,z
-x,-y,z
x,-y,-z
-x,y,-z
-x,-y,-z
x,y,-z
-x,y,z
x,-y,z
loop_
_atom_site_type_symbol
_atom_site_label
_atom_site_fract_x
_atom_site_fract_y
_atom_site_fract_z
Si Si1 0.116117 0.334154 0.597670
Si Si2 0.112887 0.171987 0.303247
Si Si3 0.782410 0.172069 0.796976
Si Si4 0.609245 0.326780 0.153945
Si Si5 0.715625 0.327380 0.054870
Si Si6 0.109649 0.827745 0.102485
Si Si7 0.883643 0.833816 0.500000
O O1 0.146760 0.500000 0.596363
O O2 0.144048 0.255547 0.647966
O O3 0.147285 0.248347 0.549221
O O4 0.000000 0.333067 0.596994
O O5 0.171480 0.213203 0.254863
O O6 0.000000 0.199989 0.295059
O O7 0.122612 0.000000 0.310878
O O8 0.684960 0.252729 0.810162
O O9 0.855679 0.201803 0.841744
O O10 0.766575 0.000000 0.796589
O O11 0.500000 0.283688 0.162277
O O12 0.615559 0.500000 0.158530
O O13 0.642783 0.288827 0.098501
O O14 0.727742 0.500000 0.056609
O O15 0.815713 0.252384 0.067699
O O16 0.683789 0.288308 0.000000
O O17 0.000000 0.784396 0.095439
O O18 0.116272 0.000000 0.095033
O O19 0.000000 0.832862 0.500000
O O20 0.853747 0.000000 0.500000
#
# Coordination Sequence:
#
# PCOD9389170 Si02
#       7
#     8   8   8   8   8   8   4
#     4   9  16  24  34  51  76 106 141 179 214 244
#     4   9  16  26  40  58  81 109 140 171 203 241
#     4   9  17  29  45  63  82 105 134 168 203 241
#     4   9  18  32  48  64  81 102 129 162 203 250
#     4   9  18  31  45  62  83 105 131 164 200 239
#     4   9  17  29  44  61  82 109 138 165 196 236
#     4   9  15  23  35  49  69 103 146 185 216 245
#
# _framework density 14.652039
#
# number of rings (size 3 to 8) (size 9 to 14) (size 15 to 20)
#    0.000    3.000    0.000    1.154    0.000    6.769 
#    0.000    3.077    0.000    2.769    0.000    4.308 
#    0.000    0.000    0.000    0.692    0.000   13.000 
#
# Total GULP energy -289640.302495 kJ/mol
# GULP energy per Si atom -5570.005817 kJ/mol
# Density = 1.461869 g / cm^3
# Si number density = 14.652039 Si / 1000 Ang^3
#
#
#
# Elastic Constant Matrix: (Units=GPa)
#
#
# Indices 1 2 3 4 5 6 
#
# 1 60.5091 23.9243 28.7002 0.0000 0.0000 0.0000
# 2 23.9243 40.8453 48.7654 0.0000 0.0000 0.0000
# 3 28.7002 48.7654 120.0797 0.0000 0.0000 0.0000
# 4 0.0000 0.0000 0.0000 23.8733 0.0000 0.0000
# 5 0.0000 0.0000 0.0000 0.0000 9.9840 0.0000
# 6 0.0000 0.0000 0.0000 0.0000 0.0000 18.8522
#
#
#
# Elastic Compliance Matrix: (Units=1/GPa)
#
#
# Indices 1 2 3 4 5 6 
#
# 1 0.021507 -0.012541 -0.000048 0.000000 0.000000 0.000000
# 2 -0.012541 0.054838 -0.019273 0.000000 0.000000 0.000000
# 3 -0.000048 -0.019273 0.016166 0.000000 0.000000 0.000000
# 4 0.000000 0.000000 0.000000 0.041888 0.000000 0.000000
# 5 0.000000 0.000000 0.000000 0.000000 0.100161 0.000000
# 6 0.000000 0.000000 0.000000 0.000000 0.000000 0.053044
#
#
# Mechanical properties :
#
#
# Convention : Reuss Voigt Hill
#
# Bulk Modulus (GPa) = 34.73526 47.13487 40.93506
# Shear Modulus (GPa) = 13.85338 18.54484 16.19911
#
# Velocity S-wave (km/s) = 3.07822 3.56150 3.32865
# Velocity P-wave (km/s) = 6.03259 7.01083 6.54003
#
# Compressibility (1/GPa) = 0.02878919
#
# Stress axis : x y z
#
# Youngs Moduli (GPa) = 46.49567 18.23556 61.85804
#
# Poissons Ratio (x) = 0.22869 0.00294
# Poissons Ratio (y) = 0.58309 1.19218
# Poissons Ratio (z) = 0.00221 0.35145
#
# Static dielectric constant tensor:
#      x y z
#    x 1.450190 0.000000 0.000000 
#    y 0.000000 1.488790 0.000000 
#    z 0.000000 0.000000 1.483880 
# 
# From -- ./inp_files/8019.got.cif
#   From: 2010.05.17/outbox.cif.g08.bks.cpg/sg47_5_cif.got.tgz:8019.got - 2010.06.03 20:15:42.
