data_PCOD9389962
_publ_section_title
;
Structure prediction by ZEFSAII (Michael W. Deem and Ramdas Pophale) SiO2 
 PCOD9389962
Probable space group: P N N N
;
_chemical_formula_sum "Si O2"
_cell_formula_units_Z 32
_cell_length_a 5.242175
_cell_length_b 8.980517
_cell_length_c 34.144613
_cell_angle_alpha 90.000000
_cell_angle_beta 90.000000
_cell_angle_gamma 90.000000
_cell_volume 1607.441028
_symmetry_space_group_name_H-M "P N N N"
_symmetry_group_IT_number 48
_space_group.IT_coordinate_system_code '2'
_symmetry_cell_setting 'orthorhombic'
loop_
_space_group_symop_operation_xyz
x,y,z
1/2-x,1/2-y,z
x,1/2-y,1/2-z
1/2-x,y,1/2-z
-x,-y,-z
1/2+x,1/2+y,-z
-x,1/2+y,1/2+z
1/2+x,-y,1/2+z
loop_
_atom_site_type_symbol
_atom_site_label
_atom_site_fract_x
_atom_site_fract_y
_atom_site_fract_z
Si Si1 0.319748 0.418851 0.358087
Si Si2 0.309764 0.419650 0.889541
Si Si3 0.245586 0.420871 0.516644
Si Si4 0.991315 0.919645 0.732451
O O1 0.250000 0.250000 0.368745
O O2 0.566003 0.480082 0.379856
O O3 0.425303 0.414130 0.313240
O O4 0.068797 0.517433 0.369152
O O5 0.250000 0.250000 0.876489
O O6 0.306837 0.420555 0.936675
O O7 0.250000 0.250000 0.503606
O O8 0.500000 0.500000 0.500000
O O9 0.000000 0.500000 0.500000
O O10 0.994424 0.750000 0.750000
O O11 0.750000 0.002709 0.750000
O O12 0.250000 0.985651 0.750000
#
# Coordination Sequence:
#
# PCOD9389962 Si02
#       4
#     8   8   8   8
#     4  12  23  39  68 102 123 168 228 282 313 385
#     4  11  26  44  62  94 143 178 206 262 357 402
#     4  11  24  43  68  94 129 179 220 270 326 395
#     4  10  19  34  59  93 124 157 206 270 332 368
#
# _framework density 19.907419000000001
#
# number of rings (size 3 to 8) (size 9 to 14) (size 15 to 20)
#    0.000    1.000    2.500    5.250    3.500   10.000 
#    0.000    0.000    0.000   11.250    0.000    0.000 
#    0.000    0.000    0.000    0.000    0.000    0.000 
#
# Total GULP energy -178335.993203 kJ/mol
# GULP energy per Si atom -5572.999788 kJ/mol
# Density = 1.986211 g / cm^3
# Si number density = 19.907419 Si / 1000 Ang^3
#
#
#
# Elastic Constant Matrix: (Units=GPa)
#
#
# Indices 1 2 3 4 5 6 
#
# 1 215.9335 57.0848 49.0558 0.0000 0.0000 0.0000
# 2 57.0848 96.1178 51.4348 0.0000 0.0000 0.0000
# 3 49.0558 51.4348 73.7056 0.0000 0.0000 0.0000
# 4 0.0000 0.0000 0.0000 18.0166 0.0000 0.0000
# 5 0.0000 0.0000 0.0000 0.0000 44.4044 0.0000
# 6 0.0000 0.0000 0.0000 0.0000 0.0000 29.7940
#
#
#
# Elastic Compliance Matrix: (Units=1/GPa)
#
#
# Indices 1 2 3 4 5 6 
#
# 1 0.005727 -0.002173 -0.002295 0.000000 0.000000 0.000000
# 2 -0.002173 0.017429 -0.010716 0.000000 0.000000 0.000000
# 3 -0.002295 -0.010716 0.022573 0.000000 0.000000 0.000000
# 4 0.000000 0.000000 0.000000 0.055504 0.000000 0.000000
# 5 0.000000 0.000000 0.000000 0.000000 0.022520 0.000000
# 6 0.000000 0.000000 0.000000 0.000000 0.000000 0.033564
#
#
# Mechanical properties :
#
#
# Convention : Reuss Voigt Hill
#
# Bulk Modulus (GPa) = 65.10365 77.87864 71.49114
# Shear Modulus (GPa) = 25.93261 33.65509 29.79385
#
# Velocity S-wave (km/s) = 3.61315 4.11613 3.87281
# Velocity P-wave (km/s) = 7.08383 7.86100 7.48251
#
# Compressibility (1/GPa) = 0.01536012
#
# Stress axis : x y z
#
# Youngs Moduli (GPa) = 174.61284 57.37534 44.29979
#
# Poissons Ratio (x) = 0.12468 0.10168
# Poissons Ratio (y) = 0.37944 0.47474
# Poissons Ratio (z) = 0.40077 0.61486
#
# Static dielectric constant tensor:
#      x y z
#    x 1.673010 0.000000 0.000000 
#    y 0.000000 1.668110 0.000000 
#    z 0.000000 0.000000 2.194050 
# 
# From -- ./inp_files/1031.got.cif
#   From: 2010.05.17/outbox.cif.g08.bks.cpg/sg48_1_cif.got.tgz:1031.got - 2010.06.03 20:39:00.
