data_PCOD9389237
_publ_section_title
;
Structure prediction by ZEFSAII (Michael W. Deem and Ramdas Pophale) SiO2 
 PCOD9389237
Probable space group: P M M M
;
_chemical_formula_sum "Si O2"
_cell_formula_units_Z 52
_cell_length_a 18.000000
_cell_length_b 18.000000
_cell_length_c 9.000000
_cell_angle_alpha 90.000000
_cell_angle_beta 90.000000
_cell_angle_gamma 90.000000
_cell_volume 2916.000000
_symmetry_space_group_name_H-M "P M M M"
_symmetry_group_IT_number 47
_symmetry_cell_setting 'orthorhombic'
loop_
_space_group_symop_operation_xyz
x,y,z
-x,-y,z
x,-y,-z
-x,y,-z
-x,-y,-z
x,y,-z
-x,y,z
x,-y,z
loop_
_atom_site_type_symbol
_atom_site_label
_atom_site_fract_x
_atom_site_fract_y
_atom_site_fract_z
Si Si1 0.415574 0.000000 0.323090
Si Si2 0.235571 0.580577 0.321347
Si Si3 0.080704 0.380055 0.823404
Si Si4 0.860047 0.083963 0.823562
Si Si5 0.314375 0.120145 0.173721
Si Si6 0.713233 0.734355 0.669593
Si Si7 0.889542 0.769943 0.331509
O O1 0.370338 0.070386 0.265375
O O2 0.500000 0.000000 0.267857
O O3 0.416254 0.000000 0.500000
O O4 0.228566 0.587263 0.500000
O O5 0.266651 0.500000 0.284359
O O6 0.152956 0.586869 0.254958
O O7 0.285368 0.650070 0.273483
O O8 0.080856 0.293621 0.776282
O O9 0.000000 0.411054 0.779012
O O10 0.088357 0.387850 0.000000
O O11 0.771045 0.094196 0.799288
O O12 0.900449 0.148010 0.731955
O O13 0.880829 0.000000 0.783346
O O14 0.872577 0.094462 0.000000
O O15 0.322067 0.204992 0.224605
O O16 0.328045 0.110746 0.000000
O O17 0.684862 0.738830 0.500000
O O18 0.800745 0.755556 0.664240
O O19 0.916305 0.761138 0.500000
#
# Coordination Sequence:
#
# PCOD9389237 Si02
#       7
#     4   8   8   8   8   8   8
#     4  11  23  35  47  67  99 137 170 199 230 261
#     4   9  18  32  49  70  95 121 151 189 234 281
#     4  10  20  32  45  61  83 115 152 187 228 281
#     4   9  16  27  43  65  90 113 141 181 229 276
#     4  10  18  30  47  68  93 124 162 195 225 266
#     4   8  15  28  45  66  91 120 151 187 231 275
#     4   9  17  28  43  63  83 108 144 186 231 275
#
# _framework density 17.832647000000001
#
# number of rings (size 3 to 8) (size 9 to 14) (size 15 to 20)
#    0.000    2.692    0.769    2.538    0.000    7.077 
#    0.000    1.538    0.000    0.462    0.000    3.231 
#    0.000    0.615    0.000    7.077    0.000    2.000 
#
# Total GULP energy -289792.412730 kJ/mol
# GULP energy per Si atom -5572.931014 kJ/mol
# Density = 1.779206 g / cm^3
# Si number density = 17.832647 Si / 1000 Ang^3
#
#
#
# Elastic Constant Matrix: (Units=GPa)
#
#
# Indices 1 2 3 4 5 6 
#
# 1 25.3624 9.6039 15.2249 0.0000 0.0000 0.0000
# 2 9.6039 131.6486 18.1441 0.0000 0.0000 0.0000
# 3 15.2249 18.1441 16.5532 0.0000 0.0000 0.0000
# 4 0.0000 0.0000 0.0000 -184.9484 0.0000 0.0000
# 5 0.0000 0.0000 0.0000 0.0000 -98.9638 0.0000
# 6 0.0000 0.0000 0.0000 0.0000 0.0000 -12.7108
#
#
#
# Elastic Compliance Matrix: (Units=1/GPa)
#
#
# Indices 1 2 3 4 5 6 
#
# 1 0.091658 0.005810 -0.090672 0.000000 0.000000 0.000000
# 2 0.005810 0.009316 -0.015555 0.000000 0.000000 0.000000
# 3 -0.090672 -0.015555 0.160858 0.000000 0.000000 0.000000
# 4 0.000000 0.000000 0.000000 -0.005407 0.000000 0.000000
# 5 0.000000 0.000000 0.000000 0.000000 -0.010105 0.000000
# 6 0.000000 0.000000 0.000000 0.000000 0.000000 -0.078673
#
#
# Mechanical properties :
#
#
# Convention : Reuss Voigt Hill
#
# Bulk Modulus (GPa) = 16.39397 28.83444 22.61421
# Shear Modulus (GPa) = 12.85957 -50.61853 -18.87948
#
# Velocity S-wave (km/s) = 2.68829 -5.33357 -3.25730
# Velocity P-wave (km/s) = 4.34155 4.66097 1.19909
#
# Compressibility (1/GPa) = 0.06099803
#
# Stress axis : x y z
#
# Youngs Moduli (GPa) = 10.91006 107.34237 6.21665
#
# Poissons Ratio (x) = -0.62367 0.56368
# Poissons Ratio (y) = -0.06339 0.09670
# Poissons Ratio (z) = 0.98924 1.66974
#
# Static dielectric constant tensor:
#      x y z
#    x 1.602500 0.000000 0.000000 
#    y 0.000000 1.673600 0.000000 
#    z 0.000000 0.000000 1.591000 
# 
# From -- ./inp_files/9522.got.cif
#   From: 2010.05.17/outbox.ucp.g08.bks.cvg/sg47_5_cif.got.tgz:9522.got - 2010.06.11 16:36:43.
