data_PCOD9389081
_publ_section_title
;
Structure prediction by ZEFSAII (Michael W. Deem and Ramdas Pophale) SiO2 
 PCOD9389081
Probable space group: P M M M
;
_chemical_formula_sum "Si O2"
_cell_formula_units_Z 44
_cell_length_a 10.115127
_cell_length_b 7.844968
_cell_length_c 29.013451
_cell_angle_alpha 90.000000
_cell_angle_beta 90.000000
_cell_angle_gamma 90.000000
_cell_volume 2302.299956
_symmetry_space_group_name_H-M "P M M M"
_symmetry_group_IT_number 47
_symmetry_cell_setting 'orthorhombic'
loop_
_space_group_symop_operation_xyz
x,y,z
-x,-y,z
x,-y,-z
-x,y,-z
-x,-y,-z
x,y,-z
-x,y,z
x,-y,z
loop_
_atom_site_type_symbol
_atom_site_label
_atom_site_fract_x
_atom_site_fract_y
_atom_site_fract_z
Si Si1 0.150091 0.795113 0.132052
Si Si2 0.348292 0.291931 0.419116
Si Si3 0.649941 0.295096 0.051481
Si Si4 0.150053 0.204975 0.234848
Si Si5 0.153036 0.708775 0.500000
Si Si6 0.351847 0.295330 0.314715
O O1 0.249738 0.750070 0.091661
O O2 0.190322 0.735071 0.183449
O O3 0.000000 0.733798 0.123223
O O4 0.144906 0.000000 0.133870
O O5 0.500000 0.241099 0.430610
O O6 0.348005 0.500000 0.419905
O O7 0.238291 0.236264 0.455528
O O8 0.319005 0.236325 0.366673
O O9 0.500000 0.233927 0.060628
O O10 0.644952 0.500000 0.049677
O O11 0.689056 0.234891 0.000000
O O12 0.248305 0.251480 0.275493
O O13 0.000000 0.265932 0.243426
O O14 0.145701 0.000000 0.233187
O O15 0.151187 0.500000 0.500000
O O16 0.000000 0.764293 0.500000
O O17 0.500000 0.233062 0.303424
O O18 0.357291 0.500000 0.317227
#
# Coordination Sequence:
#
# PCOD9389081 Si02
#       6
#     8   8   8   8   4   8
#     4   9  19  35  52  71  96 125 159 198 236 277
#     4   8  14  25  39  56  84 120 151 182 226 277
#     4   9  19  35  52  72 100 130 158 191 233 280
#     4   9  19  35  51  68  94 127 160 194 235 283
#     4   9  15  21  33  57  86 115 150 189 226 268
#     4   9  18  31  47  70  97 123 156 197 237 280
#
# _framework density 19.111325000000001
#
# number of rings (size 3 to 8) (size 9 to 14) (size 15 to 20)
#    0.000    3.182    0.000    3.000    0.000    5.455 
#    0.000   10.000    0.000    0.000    0.000    0.636 
#    0.000    5.091    0.000    0.000    0.000    0.000 
#
# Total GULP energy -245213.690598 kJ/mol
# GULP energy per Si atom -5573.038423 kJ/mol
# Density = 1.906783 g / cm^3
# Si number density = 19.111325 Si / 1000 Ang^3
#
#
#
# Elastic Constant Matrix: (Units=GPa)
#
#
# Indices 1 2 3 4 5 6 
#
# 1 162.3091 9.5113 158.5033 0.0000 0.0000 0.0000
# 2 9.5113 17.3195 11.2242 0.0000 0.0000 0.0000
# 3 158.5033 11.2242 206.9722 0.0000 0.0000 0.0000
# 4 0.0000 0.0000 0.0000 31.9182 0.0000 0.0000
# 5 0.0000 0.0000 0.0000 0.0000 54.3226 0.0000
# 6 0.0000 0.0000 0.0000 0.0000 0.0000 21.7449
#
#
#
# Elastic Compliance Matrix: (Units=1/GPa)
#
#
# Indices 1 2 3 4 5 6 
#
# 1 0.024465 -0.001340 -0.018663 0.000000 0.000000 0.000000
# 2 -0.001340 0.059915 -0.002223 0.000000 0.000000 0.000000
# 3 -0.018663 -0.002223 0.019245 0.000000 0.000000 0.000000
# 4 0.000000 0.000000 0.000000 0.031330 0.000000 0.000000
# 5 0.000000 0.000000 0.000000 0.000000 0.018409 0.000000
# 6 0.000000 0.000000 0.000000 0.000000 0.000000 0.045988
#
#
# Mechanical properties :
#
#
# Convention : Reuss Voigt Hill
#
# Bulk Modulus (GPa) = 16.89982 82.78652 49.84317
# Shear Modulus (GPa) = 18.97323 35.42125 27.19724
#
# Velocity S-wave (km/s) = 3.15425 4.30980 3.77649
# Velocity P-wave (km/s) = 4.70401 8.25699 6.71959
#
# Compressibility (1/GPa) = 0.05917224
#
# Stress axis : x y z
#
# Youngs Moduli (GPa) = 40.87396 16.69031 51.96177
#
# Poissons Ratio (x) = 0.02237 0.96978
# Poissons Ratio (y) = 0.05479 0.11549
# Poissons Ratio (z) = 0.76285 0.03710
#
# Static dielectric constant tensor:
#      x y z
#    x 1.650010 0.000000 0.000000 
#    y 0.000000 1.707040 0.000000 
#    z 0.000000 0.000000 1.663370 
# 
# From -- ./inp_files/2002.got.cif
#   From: 2010.05.17/outbox.cif.g08.bks.cpg/sg47_2_cif.got.tgz:2002.got - 2010.06.03 20:15:42.
