data_PCOD9389151
_publ_section_title
;
Structure prediction by ZEFSAII (Michael W. Deem and Ramdas Pophale) SiO2 
 PCOD9389151
Probable space group: P M M M
;
_chemical_formula_sum "Si O2"
_cell_formula_units_Z 36
_cell_length_a 7.711330
_cell_length_b 12.149697
_cell_length_c 23.228371
_cell_angle_alpha 90.000000
_cell_angle_beta 90.000000
_cell_angle_gamma 90.000000
_cell_volume 2176.273581
_symmetry_space_group_name_H-M "P M M M"
_symmetry_group_IT_number 47
_symmetry_cell_setting 'orthorhombic'
loop_
_space_group_symop_operation_xyz
x,y,z
-x,-y,z
x,-y,-z
-x,y,-z
-x,-y,-z
x,y,-z
-x,y,z
x,-y,z
loop_
_atom_site_type_symbol
_atom_site_label
_atom_site_fract_x
_atom_site_fract_y
_atom_site_fract_z
Si Si1 0.307243 0.866274 0.850995
Si Si2 0.788054 0.500000 0.432774
Si Si3 0.212080 0.263943 0.611533
Si Si4 0.000000 0.134499 0.066139
Si Si5 0.790102 0.872858 0.721673
Si Si6 0.788110 0.125818 0.500000
O O1 0.500000 0.831311 0.866771
O O2 0.166252 0.829402 0.897100
O O3 0.266586 0.835548 0.785118
O O4 0.301240 0.000000 0.850915
O O5 0.734514 0.500000 0.500000
O O6 0.732306 0.388661 0.400935
O O7 0.000000 0.500000 0.433513
O O8 0.269356 0.206704 0.670569
O O9 0.265873 0.190002 0.557183
O O10 0.000000 0.264145 0.612318
O O11 0.000000 0.000000 0.065465
O O12 0.000000 0.170585 0.000000
O O13 0.000000 0.874598 0.721337
O O14 0.732887 0.000000 0.712426
O O15 0.000000 0.125429 0.500000
O O16 0.730272 0.000000 0.500000
#
# Coordination Sequence:
#
# PCOD9389151 Si02
#       6
#     8   4   8   4   8   4
#     4   9  16  26  40  58  83 117 152 184 220 261
#     4   9  14  22  32  46  75 109 139 177 229 282
#     4   9  15  21  32  49  72 106 141 180 227 272
#     4   9  16  26  40  60  88 120 153 186 214 248
#     4   9  15  24  37  54  78 108 144 184 225 266
#     4   9  14  19  27  45  72  99 135 181 226 268
#
# _framework density 16.542038000000002
#
# number of rings (size 3 to 8) (size 9 to 14) (size 15 to 20)
#    0.000    3.000    2.222    0.667    0.000    3.111 
#    0.000    2.222    0.000    0.000    0.000    1.556 
#    0.000    5.333    0.000    2.000    0.000    3.778 
#
# Total GULP energy -200651.567150 kJ/mol
# GULP energy per Si atom -5573.654643 kJ/mol
# Density = 1.650439 g / cm^3
# Si number density = 16.542038 Si / 1000 Ang^3
#
#
#
# Elastic Constant Matrix: (Units=GPa)
#
#
# Indices 1 2 3 4 5 6 
#
# 1 62.1040 21.4597 57.6997 0.0000 0.0000 0.0000
# 2 21.4597 89.4829 62.3538 0.0000 0.0000 0.0000
# 3 57.6997 62.3538 175.1239 0.0000 0.0000 0.0000
# 4 0.0000 0.0000 0.0000 2.1707 0.0000 0.0000
# 5 0.0000 0.0000 0.0000 0.0000 -10.8074 0.0000
# 6 0.0000 0.0000 0.0000 0.0000 0.0000 -0.9574
#
#
#
# Elastic Compliance Matrix: (Units=1/GPa)
#
#
# Indices 1 2 3 4 5 6 
#
# 1 0.023212 -0.000316 -0.007536 0.000000 0.000000 0.000000
# 2 -0.000316 0.014867 -0.005189 0.000000 0.000000 0.000000
# 3 -0.007536 -0.005189 0.010041 0.000000 0.000000 0.000000
# 4 0.000000 0.000000 0.000000 0.460681 0.000000 0.000000
# 5 0.000000 0.000000 0.000000 0.000000 -0.092529 0.000000
# 6 0.000000 0.000000 0.000000 0.000000 0.000000 -1.044480
#
#
# Mechanical properties :
#
#
# Convention : Reuss Voigt Hill
#
# Bulk Modulus (GPa) = 45.37490 67.74857 56.56173
# Shear Modulus (GPa) = -8.40646 10.42768 1.01061
#
# Velocity S-wave (km/s) = -2.25675 2.51345 0.78247
# Velocity P-wave (km/s) = 4.54962 7.03332 5.92312
#
# Compressibility (1/GPa) = 0.02203862
#
# Stress axis : x y z
#
# Youngs Moduli (GPa) = 43.08067 67.26205 99.59378
#
# Poissons Ratio (x) = 0.02124 0.75049
# Poissons Ratio (y) = 0.01361 0.51684
# Poissons Ratio (z) = 0.32463 0.34906
#
# Static dielectric constant tensor:
#      x y z
#    x 1.607260 0.000000 0.000000 
#    y 0.000000 1.525450 0.000000 
#    z 0.000000 0.000000 1.536950 
# 
# From -- ./inp_files/18861.got.cif
#   From: 2010.05.17/outbox.cif.g08.bks.cpg/sg47_10_cif.got.tgz:18861.got - 2010.06.03 20:15:42.
