data_PCOD9389287
_publ_section_title
;
Structure prediction by ZEFSAII (Michael W. Deem and Ramdas Pophale) SiO2 
 PCOD9389287
Probable space group: P M M M
;
_chemical_formula_sum "Si O2"
_cell_formula_units_Z 56
_cell_length_a 15.000000
_cell_length_b 9.000000
_cell_length_c 21.000000
_cell_angle_alpha 90.000000
_cell_angle_beta 90.000000
_cell_angle_gamma 90.000000
_cell_volume 2835.000000
_symmetry_space_group_name_H-M "P M M M"
_symmetry_group_IT_number 47
_symmetry_cell_setting 'orthorhombic'
loop_
_space_group_symop_operation_xyz
x,y,z
-x,-y,z
x,-y,-z
-x,y,-z
-x,-y,-z
x,y,-z
-x,y,z
x,-y,z
loop_
_atom_site_type_symbol
_atom_site_label
_atom_site_fract_x
_atom_site_fract_y
_atom_site_fract_z
Si Si1 0.104092 0.320629 0.568602
Si Si2 0.100288 0.675365 0.847131
Si Si3 0.645414 0.173854 0.294627
Si Si4 0.257827 0.822166 0.925375
Si Si5 0.399514 0.669792 0.166479
Si Si6 0.172194 0.677536 0.708764
Si Si7 0.392623 0.329489 0.571189
O O1 0.142697 0.267805 0.500000
O O2 0.110052 0.500000 0.567344
O O3 0.140267 0.279040 0.637846
O O4 0.000000 0.281098 0.568327
O O5 0.116260 0.500000 0.858530
O O6 0.170004 0.766613 0.888569
O O7 0.109927 0.694812 0.770436
O O8 0.000000 0.712799 0.865719
O O9 0.597352 0.258128 0.236876
O O10 0.746472 0.213891 0.278075
O O11 0.631141 0.237822 0.365915
O O12 0.625197 0.000000 0.293803
O O13 0.337556 0.755944 0.882750
O O14 0.262306 0.000000 0.923959
O O15 0.260050 0.775193 0.000000
O O16 0.500000 0.667955 0.141637
O O17 0.366743 0.500000 0.173493
O O18 0.195989 0.500000 0.706397
O O19 0.364587 0.276866 0.500000
O O20 0.500000 0.334544 0.569949
O O21 0.359565 0.500000 0.578310
#
# Coordination Sequence:
#
# PCOD9389287 Si02
#       7
#     8   8   8   8   8   8   8
#     4   8  14  26  47  77 110 144 189 246 301 350
#     4  10  21  38  63  93 124 164 214 263 307 355
#     4  12  24  36  55  85 122 160 200 249 307 369
#     4  11  25  44  66  95 131 166 200 245 304 370
#     4  11  24  43  68  95 123 160 207 256 305 362
#     4  10  19  33  55  82 115 155 203 255 302 353
#     4   9  19  37  59  81 108 148 201 257 309 363
#
# _framework density 19.753086
#
# number of rings (size 3 to 8) (size 9 to 14) (size 15 to 20)
#    0.000    1.857    1.429    3.857    0.000    7.714 
#    0.000    5.000    0.000    1.286    0.000    1.000 
#    0.000    0.000    0.000    0.000    0.000    0.000 
#
# Total GULP energy -312238.947264 kJ/mol
# GULP energy per Si atom -5575.695487 kJ/mol
# Density = 1.970813 g / cm^3
# Si number density = 19.753086 Si / 1000 Ang^3
#
#
#
# Elastic Constant Matrix: (Units=GPa)
#
#
# Indices 1 2 3 4 5 6 
#
# 1 85.7769 36.9926 48.2850 0.0000 0.0000 0.0000
# 2 36.9926 69.7185 58.2374 0.0000 0.0000 0.0000
# 3 48.2850 58.2374 158.6102 0.0000 0.0000 0.0000
# 4 0.0000 0.0000 0.0000 29.0726 0.0000 0.0000
# 5 0.0000 0.0000 0.0000 0.0000 45.0803 0.0000
# 6 0.0000 0.0000 0.0000 0.0000 0.0000 47.2863
#
#
#
# Elastic Compliance Matrix: (Units=1/GPa)
#
#
# Indices 1 2 3 4 5 6 
#
# 1 0.015773 -0.006286 -0.002494 0.000000 0.000000 0.000000
# 2 -0.006286 0.023194 -0.006603 0.000000 0.000000 0.000000
# 3 -0.002494 -0.006603 0.009488 0.000000 0.000000 0.000000
# 4 0.000000 0.000000 0.000000 0.034397 0.000000 0.000000
# 5 0.000000 0.000000 0.000000 0.000000 0.022183 0.000000
# 6 0.000000 0.000000 0.000000 0.000000 0.000000 0.021148
#
#
# Mechanical properties :
#
#
# Convention : Reuss Voigt Hill
#
# Bulk Modulus (GPa) = 56.52745 66.79286 61.66015
# Shear Modulus (GPa) = 30.70434 35.66055 33.18244
#
# Velocity S-wave (km/s) = 3.94687 4.25351 4.10306
# Velocity P-wave (km/s) = 7.03204 7.61646 7.33007
#
# Compressibility (1/GPa) = 0.01769052
#
# Stress axis : x y z
#
# Youngs Moduli (GPa) = 63.40034 43.11443 105.39450
#
# Poissons Ratio (x) = 0.27102 0.26281
# Poissons Ratio (y) = 0.39854 0.69588
# Poissons Ratio (z) = 0.15809 0.28467
#
# Static dielectric constant tensor:
#      x y z
#    x 1.751660 0.000000 0.000000 
#    y 0.000000 1.669670 0.000000 
#    z 0.000000 0.000000 1.697890 
# 
# From -- ./inp_files/7363.got.cif
#   From: 2010.05.17/outbox.ucp.g08.bks.cvg/sg47_4_cif.got.tgz:7363.got - 2010.06.11 16:36:43.
