data_PCOD9389705
_publ_section_title
;
Structure prediction by ZEFSAII (Michael W. Deem and Ramdas Pophale) SiO2 
 PCOD9389705
Probable space group: P N N N
;
_chemical_formula_sum "Si O2"
_cell_formula_units_Z 32
_cell_length_a 20.289795
_cell_length_b 8.516519
_cell_length_c 7.720929
_cell_angle_alpha 90.000000
_cell_angle_beta 90.000000
_cell_angle_gamma 90.000000
_cell_volume 1334.164368
_symmetry_space_group_name_H-M "P N N N"
_symmetry_group_IT_number 48
_space_group.IT_coordinate_system_code '2'
_symmetry_cell_setting 'orthorhombic'
loop_
_space_group_symop_operation_xyz
x,y,z
1/2-x,1/2-y,z
x,1/2-y,1/2-z
1/2-x,y,1/2-z
-x,-y,-z
1/2+x,1/2+y,-z
-x,1/2+y,1/2+z
1/2+x,-y,1/2+z
loop_
_atom_site_type_symbol
_atom_site_label
_atom_site_fract_x
_atom_site_fract_y
_atom_site_fract_z
Si Si1 0.226795 0.570642 0.509218
Si Si2 0.592695 0.074626 0.330095
Si Si3 0.336899 0.424648 0.322596
Si Si4 0.537624 0.430962 0.777147
O O1 0.250000 0.750000 0.529129
O O2 0.169888 0.533632 0.648403
O O3 0.290789 0.460725 0.485954
O O4 0.189391 0.543708 0.325887
O O5 0.589402 0.250000 0.250000
O O6 0.562377 0.052994 0.523699
O O7 0.537919 0.971651 0.233656
O O8 0.327920 0.250000 0.250000
O O9 0.413483 0.463012 0.337614
O O10 0.549396 0.250000 0.750000
#
# Coordination Sequence:
#
# PCOD9389705 Si02
#       4
#     8   8   8   8
#     4  10  19  34  56  83 121 161 202 253 312 374
#     4  10  22  39  59  90 128 162 205 263 323 375
#     4  10  18  33  61  93 120 154 211 268 307 366
#     4  10  21  40  65  91 122 166 217 261 313 386
#
# _framework density 23.985049
#
# number of rings (size 3 to 8) (size 9 to 14) (size 15 to 20)
#    0.000    2.000    0.000    6.750    0.000    1.500 
#    0.000   11.250    0.000    0.000    0.000    0.000 
#    0.000    0.000    0.000    0.000    0.000    0.000 
#
# Total GULP energy -178491.875554 kJ/mol
# GULP energy per Si atom -5577.871111 kJ/mol
# Density = 2.393046 g / cm^3
# Si number density = 23.985049 Si / 1000 Ang^3
#
#
#
# Elastic Constant Matrix: (Units=GPa)
#
#
# Indices 1 2 3 4 5 6 
#
# 1 180.0588 90.1313 69.5186 0.0000 0.0000 0.0000
# 2 90.1313 108.6132 10.5012 0.0000 0.0000 0.0000
# 3 69.5186 10.5012 78.1090 0.0000 0.0000 0.0000
# 4 0.0000 0.0000 0.0000 16.2082 0.0000 0.0000
# 5 0.0000 0.0000 0.0000 0.0000 28.3576 0.0000
# 6 0.0000 0.0000 0.0000 0.0000 0.0000 68.9705
#
#
#
# Elastic Compliance Matrix: (Units=1/GPa)
#
#
# Indices 1 2 3 4 5 6 
#
# 1 0.017450 -0.013150 -0.013763 0.000000 0.000000 0.000000
# 2 -0.013150 0.019238 0.009117 0.000000 0.000000 0.000000
# 3 -0.013763 0.009117 0.023826 0.000000 0.000000 0.000000
# 4 0.000000 0.000000 0.000000 0.061697 0.000000 0.000000
# 5 0.000000 0.000000 0.000000 0.000000 0.035264 0.000000
# 6 0.000000 0.000000 0.000000 0.000000 0.000000 0.014499
#
#
# Mechanical properties :
#
#
# Convention : Reuss Voigt Hill
#
# Bulk Modulus (GPa) = 40.12399 78.56478 59.34439
# Shear Modulus (GPa) = 23.16197 35.81593 29.48895
#
# Velocity S-wave (km/s) = 3.11092 3.86847 3.51019
# Velocity P-wave (km/s) = 5.44691 7.26500 6.42063
#
# Compressibility (1/GPa) = 0.02492274
#
# Stress axis : x y z
#
# Youngs Moduli (GPa) = 57.30782 51.98147 41.97116
#
# Poissons Ratio (x) = 0.68354 0.57763
# Poissons Ratio (y) = 0.75358 -0.38266
# Poissons Ratio (z) = 0.78871 -0.47392
#
# Static dielectric constant tensor:
#      x y z
#    x 2.051550 0.000000 0.000000 
#    y 0.000000 1.806110 0.000000 
#    z 0.000000 0.000000 1.991130 
# 
# From -- ./inp_files/14752.got.cif
#   From: 2010.05.17/outbox.cif.g08.bks.cpg/sg48_8_cif.got.tgz:14752.got - 2010.06.03 20:39:00.
