data_PCOD9389704
_publ_section_title
;
Structure prediction by ZEFSAII (Michael W. Deem and Ramdas Pophale) SiO2 
 PCOD9389704
Probable space group: P N N N
;
_chemical_formula_sum "Si O2"
_cell_formula_units_Z 58
_cell_length_a 14.191530
_cell_length_b 23.569399
_cell_length_c 8.836895
_cell_angle_alpha 90.000000
_cell_angle_beta 90.000000
_cell_angle_gamma 90.000000
_cell_volume 2955.816185
_symmetry_space_group_name_H-M "P N N N"
_symmetry_group_IT_number 48
_space_group.IT_coordinate_system_code '2'
_symmetry_cell_setting 'orthorhombic'
loop_
_space_group_symop_operation_xyz
x,y,z
1/2-x,1/2-y,z
x,1/2-y,1/2-z
1/2-x,y,1/2-z
-x,-y,-z
1/2+x,1/2+y,-z
-x,1/2+y,1/2+z
1/2+x,-y,1/2+z
loop_
_atom_site_type_symbol
_atom_site_label
_atom_site_fract_x
_atom_site_fract_y
_atom_site_fract_z
Si Si1 0.146623 0.342567 0.460137
Si Si2 0.296750 0.064332 0.086136
Si Si3 0.845329 0.361267 0.843136
Si Si4 0.750000 0.750000 0.750000
Si Si5 0.603794 0.224024 0.095413
Si Si6 0.493092 0.802476 0.360454
Si Si7 0.512990 0.882398 0.786570
Si Si8 0.404389 0.532846 0.546599
O O1 0.226128 0.389267 0.478915
O O2 0.187144 0.291849 0.354735
O O3 0.057280 0.371661 0.376416
O O4 0.099635 0.320671 0.611212
O O5 0.250000 0.046570 0.250000
O O6 0.395012 0.096333 0.121922
O O7 0.321909 0.013307 0.972917
O O8 0.750000 0.367198 0.750000
O O9 0.927130 0.347151 0.723158
O O10 0.836251 0.310386 0.968769
O O11 0.876175 0.417641 0.930208
O O12 0.645716 0.250000 0.250000
O O13 0.528014 0.176033 0.146475
O O14 0.554280 0.276301 0.010651
O O15 0.494713 0.750000 0.250000
O O16 0.433616 0.931292 0.804067
O O17 0.500000 0.500000 0.500000
#
# Coordination Sequence:
#
# PCOD9389704 Si02
#       8
#     8   8   8   2   8   8   8   8
#     4  11  19  32  57  90 126 153 206 247 305 365
#     4   9  17  29  52  89 111 153 208 253 297 362
#     4  10  22  40  61  88 122 161 206 256 322 376
#     4  12  20  32  62  92 120 170 206 260 274 392
#     4  10  18  33  61  88 118 158 203 246 294 372
#     4  10  22  36  57  88 134 166 190 245 320 379
#     4   9  16  30  54  87 112 151 205 256 291 345
#     4   9  18  34  63  83 110 155 216 256 303 366
#
# _framework density 19.622330999999999
#
# number of rings (size 3 to 8) (size 9 to 14) (size 15 to 20)
#    0.000    2.207    3.448    1.241    0.000    2.483 
#    0.000    1.724    0.000   14.897    0.000    0.000 
#    0.000    0.000    0.000    0.000    0.000    0.000 
#
# Total GULP energy -323053.488458 kJ/mol
# GULP energy per Si atom -5569.887732 kJ/mol
# Density = 1.957767 g / cm^3
# Si number density = 19.622331 Si / 1000 Ang^3
#
#
#
# Elastic Constant Matrix: (Units=GPa)
#
#
# Indices 1 2 3 4 5 6 
#
# 1 89.9800 43.8863 27.5277 0.0000 0.0000 0.0000
# 2 43.8863 102.9611 18.2992 0.0000 0.0000 0.0000
# 3 27.5277 18.2992 45.5902 0.0000 0.0000 0.0000
# 4 0.0000 0.0000 0.0000 -7.5061 0.0000 0.0000
# 5 0.0000 0.0000 0.0000 0.0000 26.4922 0.0000
# 6 0.0000 0.0000 0.0000 0.0000 0.0000 21.8715
#
#
#
# Elastic Compliance Matrix: (Units=1/GPa)
#
#
# Indices 1 2 3 4 5 6 
#
# 1 0.016108 -0.005532 -0.007506 0.000000 0.000000 0.000000
# 2 -0.005532 0.012358 -0.001620 0.000000 0.000000 0.000000
# 3 -0.007506 -0.001620 0.027117 0.000000 0.000000 0.000000
# 4 0.000000 0.000000 0.000000 -0.133225 0.000000 0.000000
# 5 0.000000 0.000000 0.000000 0.000000 0.037747 0.000000
# 6 0.000000 0.000000 0.000000 0.000000 0.000000 0.045722
#
#
# Mechanical properties :
#
#
# Convention : Reuss Voigt Hill
#
# Bulk Modulus (GPa) = 38.06986 46.43974 42.25480
# Shear Modulus (GPa) = 113.89931 18.09272 65.99602
#
# Velocity S-wave (km/s) = 7.62704 3.03982 5.80570
# Velocity P-wave (km/s) = 9.84915 6.00323 8.15612
#
# Compressibility (1/GPa) = 0.02626750
#
# Stress axis : x y z
#
# Youngs Moduli (GPa) = 62.08144 80.91737 36.87743
#
# Poissons Ratio (x) = 0.44763 0.27679
# Poissons Ratio (y) = 0.34343 0.05975
# Poissons Ratio (z) = 0.46596 0.13110
#
# Static dielectric constant tensor:
#      x y z
#    x 1.706930 0.000000 0.000000 
#    y 0.000000 1.715570 0.000000 
#    z 0.000000 0.000000 1.965280 
# 
# From -- ./inp_files/13240.got.cif
#   From: 2010.05.17/outbox.cif.g08.bks.cpg/sg48_7_cif.got.tgz:13240.got - 2010.06.03 20:39:00.
