data_PCOD9389188
_publ_section_title
;
Structure prediction by ZEFSAII (Michael W. Deem and Ramdas Pophale) SiO2 
 PCOD9389188
Probable space group: P M M M
;
_chemical_formula_sum "Si O2"
_cell_formula_units_Z 48
_cell_length_a 17.404692
_cell_length_b 16.412656
_cell_length_c 7.760080
_cell_angle_alpha 90.000000
_cell_angle_beta 90.000000
_cell_angle_gamma 90.000000
_cell_volume 2216.722900
_symmetry_space_group_name_H-M "P M M M"
_symmetry_group_IT_number 47
_symmetry_cell_setting 'orthorhombic'
loop_
_space_group_symop_operation_xyz
x,y,z
-x,-y,z
x,-y,-z
-x,y,-z
-x,-y,-z
x,y,-z
-x,y,z
x,-y,z
loop_
_atom_site_type_symbol
_atom_site_label
_atom_site_fract_x
_atom_site_fract_y
_atom_site_fract_z
Si Si1 0.325955 0.836877 0.788940
Si Si2 0.588523 0.000000 0.788917
Si Si3 0.832114 0.772783 0.205215
Si Si4 0.412428 0.325154 0.793906
Si Si5 0.000000 0.802267 0.308495
Si Si6 0.828998 0.411944 0.800243
Si Si7 0.000000 0.392701 0.699216
Si Si8 0.411366 0.500000 0.704381
O O1 0.237652 0.828992 0.735481
O O2 0.367935 0.753994 0.731004
O O3 0.368715 0.918118 0.731632
O O4 0.328173 0.837472 0.000000
O O5 0.500000 0.000000 0.735092
O O6 0.589067 0.000000 0.000000
O O7 0.817655 0.679739 0.275681
O O8 0.914795 0.814906 0.233954
O O9 0.826537 0.761875 0.000000
O O10 0.500000 0.325557 0.725407
O O11 0.375973 0.413610 0.757557
O O12 0.416412 0.318227 0.000000
O O13 0.000000 0.704343 0.307920
O O14 0.000000 0.836215 0.500000
O O15 0.801780 0.500000 0.724929
O O16 0.921857 0.416438 0.791532
O O17 0.803599 0.410668 0.000000
O O18 0.000000 0.418678 0.500000
O O19 0.500000 0.500000 0.776153
O O20 0.415759 0.500000 0.500000
#
# Coordination Sequence:
#
# PCOD9389188 Si02
#       8
#     8   4   8   8   4   8   4   4
#     4   9  17  29  47  75 106 136 169 209 259 314
#     4   9  16  28  50  81 115 142 162 199 261 323
#     4   9  17  30  46  67  95 127 166 210 255 299
#     4   9  16  28  47  72 102 135 171 210 252 301
#     4   9  17  30  48  68  91 125 169 208 253 309
#     4   9  16  25  36  52  78 114 154 194 237 284
#     4   9  16  24  37  58  81 108 146 195 243 285
#     4   9  17  29  45  67  97 136 179 214 249 297
#
# _framework density 21.653586000000001
#
# number of rings (size 3 to 8) (size 9 to 14) (size 15 to 20)
#    0.000    3.000    0.000    1.500    0.000    6.333 
#    1.500    0.833    0.000    0.500    0.000    5.833 
#    0.000    5.333    0.000    0.000    0.000    0.000 
#
# Total GULP energy -267330.400712 kJ/mol
# GULP energy per Si atom -5569.383348 kJ/mol
# Density = 2.160430 g / cm^3
# Si number density = 21.653586 Si / 1000 Ang^3
#
#
#
# Elastic Constant Matrix: (Units=GPa)
#
#
# Indices 1 2 3 4 5 6 
#
# 1 133.2367 90.8008 4.5697 0.0000 0.0000 0.0000
# 2 90.8008 145.8672 4.7421 0.0000 0.0000 0.0000
# 3 4.5697 4.7421 35.0083 0.0000 0.0000 0.0000
# 4 0.0000 0.0000 0.0000 -7.4803 0.0000 0.0000
# 5 0.0000 0.0000 0.0000 0.0000 -12.7063 0.0000
# 6 0.0000 0.0000 0.0000 0.0000 0.0000 35.2679
#
#
#
# Elastic Compliance Matrix: (Units=1/GPa)
#
#
# Indices 1 2 3 4 5 6 
#
# 1 0.013048 -0.008103 -0.000606 0.000000 0.000000 0.000000
# 2 -0.008103 0.011917 -0.000557 0.000000 0.000000 0.000000
# 3 -0.000606 -0.000557 0.028719 0.000000 0.000000 0.000000
# 4 0.000000 0.000000 0.000000 -0.133684 0.000000 0.000000
# 5 0.000000 0.000000 0.000000 0.000000 -0.078701 0.000000
# 6 0.000000 0.000000 0.000000 0.000000 0.000000 0.028354
#
#
# Mechanical properties :
#
#
# Convention : Reuss Voigt Hill
#
# Bulk Modulus (GPa) = 28.44558 57.14861 42.79710
# Shear Modulus (GPa) = -49.95109 17.28289 -16.33410
#
# Velocity S-wave (km/s) = -4.80816 2.82823 -2.74950
# Velocity P-wave (km/s) = 4.20230 6.09218 3.11892
#
# Compressibility (1/GPa) = 0.03515484
#
# Stress axis : x y z
#
# Youngs Moduli (GPa) = 76.63911 83.91046 34.82002
#
# Poissons Ratio (x) = 0.67990 0.02109
# Poissons Ratio (y) = 0.62098 0.01938
# Poissons Ratio (z) = 0.04642 0.04671
#
# Static dielectric constant tensor:
#      x y z
#    x 1.838820 0.000000 0.000000 
#    y 0.000000 1.803440 0.000000 
#    z 0.000000 0.000000 1.803550 
# 
# From -- ./inp_files/9302.got.cif
#   From: 2010.05.17/outbox.cif.g08.bks.cpg/sg47_5_cif.got.tgz:9302.got - 2010.06.03 20:15:42.
