data_PCOD9389607
_publ_section_title
;
Structure prediction by ZEFSAII (Michael W. Deem and Ramdas Pophale) SiO2 
 PCOD9389607
Probable space group: P N N N
;
_chemical_formula_sum "Si O2"
_cell_formula_units_Z 32
_cell_length_a 31.235262
_cell_length_b 7.246515
_cell_length_c 5.798830
_cell_angle_alpha 90.000000
_cell_angle_beta 90.000000
_cell_angle_gamma 90.000000
_cell_volume 1312.546583
_symmetry_space_group_name_H-M "P N N N"
_symmetry_group_IT_number 48
_space_group.IT_coordinate_system_code '2'
_symmetry_cell_setting 'orthorhombic'
loop_
_space_group_symop_operation_xyz
x,y,z
1/2-x,1/2-y,z
x,1/2-y,1/2-z
1/2-x,y,1/2-z
-x,-y,-z
1/2+x,1/2+y,-z
-x,1/2+y,1/2+z
1/2+x,-y,1/2+z
loop_
_atom_site_type_symbol
_atom_site_label
_atom_site_fract_x
_atom_site_fract_y
_atom_site_fract_z
Si Si1 0.918207 0.750000 0.250000
Si Si2 0.444970 0.533597 0.121125
Si Si3 0.637265 0.558633 0.613196
Si Si4 0.490424 0.750000 0.750000
Si Si5 0.733985 0.532856 0.501474
O O1 0.943313 0.627912 0.428517
O O2 0.888819 0.891374 0.386793
O O3 0.397372 0.545988 0.226549
O O4 0.479591 0.430869 0.281336
O O5 0.461395 0.708384 0.976786
O O6 0.645871 0.750000 0.750000
O O7 0.683355 0.495466 0.527382
O O8 0.750000 0.750000 0.500344
O O9 0.750000 0.461069 0.750000
O O10 0.750000 0.464220 0.250000
#
# Coordination Sequence:
#
# PCOD9389607 Si02
#       5
#     4   8   8   4   8
#     4  10  18  32  53  78 102 158 190 250 319 380
#     4  10  21  36  55  77 113 158 203 272 316 387
#     4  10  18  32  48  76 116 155 191 246 331 376
#     4  10  20  40  52  78 115 153 220 262 322 382
#     4  10  18  27  46  79 116 160 185 238 305 402
#
# _framework density 24.380084
#
# number of rings (size 3 to 8) (size 9 to 14) (size 15 to 20)
#    0.000    2.000    6.250    1.500    3.500    1.000 
#    0.000    0.000    0.000    0.000    0.000    0.000 
#    0.000    6.000    0.500    0.000    0.000    0.000 
#
# Total GULP energy -178542.875479 kJ/mol
# GULP energy per Si atom -5579.464859 kJ/mol
# Density = 2.432459 g / cm^3
# Si number density = 24.380084 Si / 1000 Ang^3
#
#
#
# Elastic Constant Matrix: (Units=GPa)
#
#
# Indices 1 2 3 4 5 6 
#
# 1 190.2000 52.2400 88.2174 0.0000 0.0000 0.0000
# 2 52.2400 95.3118 50.7090 0.0000 0.0000 0.0000
# 3 88.2174 50.7090 188.0407 0.0000 0.0000 0.0000
# 4 0.0000 0.0000 0.0000 19.9204 0.0000 0.0000
# 5 0.0000 0.0000 0.0000 0.0000 116.0424 0.0000
# 6 0.0000 0.0000 0.0000 0.0000 0.0000 6.4727
#
#
#
# Elastic Compliance Matrix: (Units=1/GPa)
#
#
# Indices 1 2 3 4 5 6 
#
# 1 0.007199 -0.002509 -0.002701 0.000000 0.000000 0.000000
# 2 -0.002509 0.013124 -0.002362 0.000000 0.000000 0.000000
# 3 -0.002701 -0.002362 0.007222 0.000000 0.000000 0.000000
# 4 0.000000 0.000000 0.000000 0.050200 0.000000 0.000000
# 5 0.000000 0.000000 0.000000 0.000000 0.008618 0.000000
# 6 0.000000 0.000000 0.000000 0.000000 0.000000 0.154494
#
#
# Mechanical properties :
#
#
# Convention : Reuss Voigt Hill
#
# Bulk Modulus (GPa) = 80.63638 95.09839 87.86738
# Shear Modulus (GPa) = 19.22083 47.31284 33.26683
#
# Velocity S-wave (km/s) = 2.81086 4.41004 3.69793
# Velocity P-wave (km/s) = 6.60917 8.06366 7.37237
#
# Compressibility (1/GPa) = 0.01240135
#
# Stress axis : x y z
#
# Youngs Moduli (GPa) = 138.89872 76.19785 138.46405
#
# Poissons Ratio (x) = 0.19118 0.37399
# Poissons Ratio (y) = 0.34850 0.32705
# Poissons Ratio (z) = 0.37516 0.17998
#
# Static dielectric constant tensor:
#      x y z
#    x 1.956800 0.000000 0.000000 
#    y 0.000000 2.014030 0.000000 
#    z 0.000000 0.000000 2.833760 
# 
# From -- ./inp_files/6829.got.cif
#   From: 2010.05.17/outbox.cif.g08.bks.cpg/sg48_4_cif.got.tgz:6829.got - 2010.06.03 20:39:00.
