data_PCOD9389993
_publ_section_title
;
Structure prediction by ZEFSAII (Michael W. Deem and Ramdas Pophale) SiO2 
 PCOD9389993
Probable space group: P N N N
;
_chemical_formula_sum "Si O2"
_cell_formula_units_Z 32
_cell_length_a 7.421479
_cell_length_b 5.245650
_cell_length_c 35.293088
_cell_angle_alpha 90.000000
_cell_angle_beta 90.000000
_cell_angle_gamma 90.000000
_cell_volume 1373.976903
_symmetry_space_group_name_H-M "P N N N"
_symmetry_group_IT_number 48
_space_group.IT_coordinate_system_code '2'
_symmetry_cell_setting 'orthorhombic'
loop_
_space_group_symop_operation_xyz
x,y,z
1/2-x,1/2-y,z
x,1/2-y,1/2-z
1/2-x,y,1/2-z
-x,-y,-z
1/2+x,1/2+y,-z
-x,1/2+y,1/2+z
1/2+x,-y,1/2+z
loop_
_atom_site_type_symbol
_atom_site_label
_atom_site_fract_x
_atom_site_fract_y
_atom_site_fract_z
Si Si1 0.960623 0.746617 0.524416
Si Si2 0.969830 0.746124 0.609295
Si Si3 0.031886 0.735841 0.152409
Si Si4 0.046944 0.491924 0.767174
O O1 0.750000 0.750000 0.531464
O O2 0.038675 0.708546 0.566609
O O3 0.000000 0.500000 0.500000
O O4 0.000000 0.000000 0.500000
O O5 0.750000 0.750000 0.610908
O O6 0.025040 0.520423 0.638848
O O7 0.017265 0.034876 0.619971
O O8 0.250000 0.750000 0.157581
O O9 0.952047 0.587608 0.189002
O O10 0.966191 0.750000 0.750000
O O11 0.250000 0.496387 0.750000
O O12 0.949051 0.250000 0.750000
#
# Coordination Sequence:
#
# PCOD9389993 Si02
#       4
#     8   8   8   8
#     4  11  22  39  66  93 133 172 214 268 322 390
#     4   9  19  35  59  89 116 158 201 250 316 360
#     4  10  19  35  59  86 115 149 208 261 297 364
#     4  10  21  37  58  79 115 155 196 236 316 373
#
# _framework density 23.290057000000001
#
# number of rings (size 3 to 8) (size 9 to 14) (size 15 to 20)
#    0.000    2.000    0.000    3.750    0.000    4.500 
#    0.000    1.250   55.000    0.000    0.000    0.000 
#    0.000    0.000    0.000    0.000    0.000    0.000 
#
# Total GULP energy -178297.829076 kJ/mol
# GULP energy per Si atom -5571.807159 kJ/mol
# Density = 2.323705 g / cm^3
# Si number density = 23.290057 Si / 1000 Ang^3
#
#
#
# Elastic Constant Matrix: (Units=GPa)
#
#
# Indices 1 2 3 4 5 6 
#
# 1 82.2210 8.3529 10.0192 0.0000 0.0000 0.0000
# 2 8.3529 216.2929 55.1429 0.0000 0.0000 0.0000
# 3 10.0192 55.1429 146.3833 0.0000 0.0000 0.0000
# 4 0.0000 0.0000 0.0000 42.0090 0.0000 0.0000
# 5 0.0000 0.0000 0.0000 0.0000 -2.3704 0.0000
# 6 0.0000 0.0000 0.0000 0.0000 0.0000 -1.3992
#
#
#
# Elastic Compliance Matrix: (Units=1/GPa)
#
#
# Indices 1 2 3 4 5 6 
#
# 1 0.012281 -0.000288 -0.000732 0.000000 0.000000 0.000000
# 2 -0.000288 0.005121 -0.001910 0.000000 0.000000 0.000000
# 3 -0.000732 -0.001910 0.007601 0.000000 0.000000 0.000000
# 4 0.000000 0.000000 0.000000 0.023804 0.000000 0.000000
# 5 0.000000 0.000000 0.000000 0.000000 -0.421875 0.000000
# 6 0.000000 0.000000 0.000000 0.000000 0.000000 -0.714675
#
#
# Mechanical properties :
#
#
# Convention : Reuss Voigt Hill
#
# Bulk Modulus (GPa) = 52.23504 65.76969 59.00237
# Shear Modulus (GPa) = -4.64899 32.40669 13.87885
#
# Velocity S-wave (km/s) = -1.41438 3.73425 2.44378
# Velocity P-wave (km/s) = 4.45078 6.84788 5.77507
#
# Compressibility (1/GPa) = 0.01914424
#
# Stress axis : x y z
#
# Youngs Moduli (GPa) = 81.42797 195.26333 131.56480
#
# Poissons Ratio (x) = 0.05616 0.09634
# Poissons Ratio (y) = 0.02342 0.25123
# Poissons Ratio (z) = 0.05962 0.37286
#
# Static dielectric constant tensor:
#      x y z
#    x 1.863230 0.000000 0.000000 
#    y 0.000000 1.875560 0.000000 
#    z 0.000000 0.000000 2.035720 
# 
# From -- ./inp_files/1052.got.cif
#   From: 2010.05.17/outbox.cif.g08.bks.cpg/sg48_1_cif.got.tgz:1052.got - 2010.06.03 20:39:00.
