data_PCOD9389399
_publ_section_title
;
Structure prediction by ZEFSAII (Michael W. Deem and Ramdas Pophale) SiO2 
 PCOD9389399
Probable space group: P M M M
;
_chemical_formula_sum "Si O2"
_cell_formula_units_Z 44
_cell_length_a 9.000000
_cell_length_b 9.000000
_cell_length_c 30.000000
_cell_angle_alpha 90.000000
_cell_angle_beta 90.000000
_cell_angle_gamma 90.000000
_cell_volume 2430.000000
_symmetry_space_group_name_H-M "P M M M"
_symmetry_group_IT_number 47
_symmetry_cell_setting 'orthorhombic'
loop_
_space_group_symop_operation_xyz
x,y,z
-x,-y,z
x,-y,-z
-x,y,-z
-x,-y,-z
x,y,-z
-x,y,z
x,-y,z
loop_
_atom_site_type_symbol
_atom_site_label
_atom_site_fract_x
_atom_site_fract_y
_atom_site_fract_z
Si Si1 0.677213 0.176274 0.090541
Si Si2 0.318877 0.328642 0.000000
Si Si3 0.680072 0.823075 0.547615
Si Si4 0.674499 0.820942 0.643992
Si Si5 0.178270 0.174444 0.181465
Si Si6 0.820982 0.329456 0.727968
O O1 0.500000 0.198372 0.093903
O O2 0.732251 0.251607 0.045354
O O3 0.752312 0.232219 0.135680
O O4 0.704750 0.000000 0.087198
O O5 0.278262 0.500000 0.000000
O O6 0.500000 0.317675 0.000000
O O7 0.732773 0.760391 0.500000
O O8 0.500000 0.810635 0.548191
O O9 0.731587 0.765417 0.595564
O O10 0.711741 0.000000 0.547044
O O11 0.500000 0.783084 0.647812
O O12 0.760786 0.756792 0.685511
O O13 0.684750 0.000000 0.643986
O O14 0.230293 0.257788 0.225629
O O15 0.000000 0.186000 0.178699
O O16 0.216367 0.000000 0.185729
O O17 0.774512 0.500000 0.725619
O O18 0.000000 0.322592 0.727795
#
# Coordination Sequence:
#
# PCOD9389399 Si02
#       6
#     8   4   8   8   8   8
#     4   9  17  30  49  71  93 118 149 185 224 267
#     4   9  17  29  46  69  96 124 152 181 216 262
#     4   7  10  19  38  65  94 119 144 181 231 280
#     4   9  17  29  48  74  98 120 152 195 238 280
#     4   9  18  33  51  69  90 118 153 193 236 279
#     4  10  21  35  49  66  92 128 164 195 233 283
#
# _framework density 18.106995999999999
#
# number of rings (size 3 to 8) (size 9 to 14) (size 15 to 20)
#    0.000    3.182    0.000    2.455    0.000    4.000 
#    0.000    2.273    0.000    3.818    0.000    6.364 
#    0.000    0.000    0.000    0.000    0.000    0.000 
#
# Total GULP energy -244951.168372 kJ/mol
# GULP energy per Si atom -5567.072008 kJ/mol
# Density = 1.806578 g / cm^3
# Si number density = 18.106996 Si / 1000 Ang^3
#
#
#
# Elastic Constant Matrix: (Units=GPa)
#
#
# Indices 1 2 3 4 5 6 
#
# 1 -7.5826 19.0470 24.9053 0.0000 0.0000 0.0000
# 2 19.0470 11.4392 42.5594 0.0000 0.0000 0.0000
# 3 24.9053 42.5594 199.8400 0.0000 0.0000 0.0000
# 4 0.0000 0.0000 0.0000 -35.6017 0.0000 0.0000
# 5 0.0000 0.0000 0.0000 0.0000 66.7830 0.0000
# 6 0.0000 0.0000 0.0000 0.0000 0.0000 11.5988
#
#
#
# Elastic Compliance Matrix: (Units=1/GPa)
#
#
# Indices 1 2 3 4 5 6 
#
# 1 -0.011087 0.064143 -0.012279 0.000000 0.000000 0.000000
# 2 0.064143 0.049877 -0.018616 0.000000 0.000000 0.000000
# 3 -0.012279 -0.018616 0.010499 0.000000 0.000000 0.000000
# 4 0.000000 0.000000 0.000000 -0.028089 0.000000 0.000000
# 5 0.000000 0.000000 0.000000 0.000000 0.014974 0.000000
# 6 0.000000 0.000000 0.000000 0.000000 0.000000 0.086216
#
#
# Mechanical properties :
#
#
# Convention : Reuss Voigt Hill
#
# Bulk Modulus (GPa) = 8.63665 41.85777 25.24721
# Shear Modulus (GPa) = 52.91648 16.36836 34.64242
#
# Velocity S-wave (km/s) = 5.41182 3.00989 4.37877
# Velocity P-wave (km/s) = 6.62046 5.93686 6.28796
#
# Compressibility (1/GPa) = 0.11578566
#
# Stress axis : x y z
#
# Youngs Moduli (GPa) = -90.19511 20.04923 95.24839
#
# Poissons Ratio (x) = -1.28602 1.16952
# Poissons Ratio (y) = 5.78539 1.77316
# Poissons Ratio (z) = -1.10747 0.37324
#
# Static dielectric constant tensor:
#      x y z
#    x 1.604350 0.000000 0.000000 
#    y 0.000000 1.605980 0.000000 
#    z 0.000000 0.000000 1.648190 
# 
# From -- ./inp_files/13574.got.cif
#   From: 2010.05.17/outbox.ucp.g08.bks.cvg/sg47_7_cif.got.tgz:13574.got - 2010.06.11 16:36:43.
