data_PCOD9389711
_publ_section_title
;
Structure prediction by ZEFSAII (Michael W. Deem and Ramdas Pophale) SiO2 
 PCOD9389711
Probable space group: P N N N
;
_chemical_formula_sum "Si O2"
_cell_formula_units_Z 60
_cell_length_a 22.229547
_cell_length_b 11.973660
_cell_length_c 11.898634
_cell_angle_alpha 90.000000
_cell_angle_beta 90.000000
_cell_angle_gamma 90.000000
_cell_volume 3167.047962
_symmetry_space_group_name_H-M "P N N N"
_symmetry_group_IT_number 48
_space_group.IT_coordinate_system_code '2'
_symmetry_cell_setting 'orthorhombic'
loop_
_space_group_symop_operation_xyz
x,y,z
1/2-x,1/2-y,z
x,1/2-y,1/2-z
1/2-x,y,1/2-z
-x,-y,-z
1/2+x,1/2+y,-z
-x,1/2+y,1/2+z
1/2+x,-y,1/2+z
loop_
_atom_site_type_symbol
_atom_site_label
_atom_site_fract_x
_atom_site_fract_y
_atom_site_fract_z
Si Si1 0.388970 0.436123 0.689155
Si Si2 0.596804 0.622457 0.717583
Si Si3 0.985954 0.081423 0.396724
Si Si4 0.822262 0.855831 0.517264
Si Si5 0.985200 0.750000 0.250000
Si Si6 0.691837 0.901302 0.587588
Si Si7 0.901224 0.988244 0.057425
Si Si8 0.491663 0.677956 0.010254
O O1 0.419407 0.547922 0.641261
O O2 0.335510 0.392903 0.609792
O O3 0.441189 0.341478 0.693021
O O4 0.378119 0.458469 0.819323
O O5 0.583857 0.750000 0.750000
O O6 0.532149 0.562543 0.708631
O O7 0.620539 0.610123 0.590988
O O8 0.654238 0.595463 0.796303
O O9 0.992477 0.207124 0.441879
O O10 0.000000 0.000000 0.500000
O O11 0.763448 0.908403 0.576670
O O12 0.818482 0.721964 0.532611
O O13 0.020738 0.799611 0.143333
O O14 0.657938 0.994207 0.516908
O O15 0.944178 0.887121 0.011622
O O16 0.942871 0.095910 0.044355
#
# Coordination Sequence:
#
# PCOD9389711 Si02
#       8
#     8   8   8   8   4   8   8   8
#     4  11  22  35  55  81 120 152 192 238 288 358
#     4  10  20  33  56  84 119 145 190 244 302 355
#     4  12  22  35  56  87 115 159 193 241 296 357
#     4  10  19  37  54  84 115 151 200 242 294 352
#     4  10  18  34  54  81 116 155 186 238 296 360
#     4  10  21  34  58  81 114 157 194 244 296 346
#     4  10  23  37  53  82 117 157 188 239 292 361
#     4  10  21  36  54  80 122 150 195 236 300 360
#
# _framework density 18.945087000000001
#
# number of rings (size 3 to 8) (size 9 to 14) (size 15 to 20)
#    0.000    1.600    2.667    3.600    7.467    2.133 
#    0.000    1.333    0.000    0.800    0.000    1.867 
#    4.000    0.000    0.000    0.000    0.000    0.000 
#
# Total GULP energy -334412.448230 kJ/mol
# GULP energy per Si atom -5573.540804 kJ/mol
# Density = 1.890197 g / cm^3
# Si number density = 18.945087 Si / 1000 Ang^3
#
#
#
# Elastic Constant Matrix: (Units=GPa)
#
#
# Indices 1 2 3 4 5 6 
#
# 1 64.3853 18.5639 20.9081 0.0000 0.0000 0.0000
# 2 18.5639 69.3645 19.6788 0.0000 0.0000 0.0000
# 3 20.9081 19.6788 79.7198 0.0000 0.0000 0.0000
# 4 0.0000 0.0000 0.0000 24.6189 0.0000 0.0000
# 5 0.0000 0.0000 0.0000 0.0000 29.2241 0.0000
# 6 0.0000 0.0000 0.0000 0.0000 0.0000 20.6164
#
#
#
# Elastic Compliance Matrix: (Units=1/GPa)
#
#
# Indices 1 2 3 4 5 6 
#
# 1 0.017820 -0.003702 -0.003760 0.000000 0.000000 0.000000
# 2 -0.003702 0.016272 -0.003046 0.000000 0.000000 0.000000
# 3 -0.003760 -0.003046 0.014282 0.000000 0.000000 0.000000
# 4 0.000000 0.000000 0.000000 0.040619 0.000000 0.000000
# 5 0.000000 0.000000 0.000000 0.000000 0.034218 0.000000
# 6 0.000000 0.000000 0.000000 0.000000 0.000000 0.048505
#
#
# Mechanical properties :
#
#
# Convention : Reuss Voigt Hill
#
# Bulk Modulus (GPa) = 36.55271 36.86348 36.70809
# Shear Modulus (GPa) = 24.77081 25.17980 24.97530
#
# Velocity S-wave (km/s) = 3.61987 3.64963 3.63478
# Velocity P-wave (km/s) = 6.06689 6.10410 6.08552
#
# Compressibility (1/GPa) = 0.02735776
#
# Stress axis : x y z
#
# Youngs Moduli (GPa) = 56.11706 61.45709 70.01926
#
# Poissons Ratio (x) = 0.22754 0.26325
# Poissons Ratio (y) = 0.20777 0.21325
# Poissons Ratio (z) = 0.21098 0.18717
#
# Static dielectric constant tensor:
#      x y z
#    x 1.670600 0.000000 0.000000 
#    y 0.000000 1.660310 0.000000 
#    z 0.000000 0.000000 1.733290 
# 
# From -- ./inp_files/22942.got.cif
#   From: 2010.05.17/outbox.cif.g08.bks.cpg/sg48_12_cif.got.tgz:22942.got - 2010.06.03 20:39:00.
