data_PCOD9389487
_publ_section_title
;
Structure prediction by ZEFSAII (Michael W. Deem and Ramdas Pophale) SiO2 
 PCOD9389487
Probable space group: P N N N
;
_chemical_formula_sum "Si O2"
_cell_formula_units_Z 64
_cell_length_a 10.984006
_cell_length_b 8.108339
_cell_length_c 32.540271
_cell_angle_alpha 90.000000
_cell_angle_beta 90.000000
_cell_angle_gamma 90.000000
_cell_volume 2898.103055
_symmetry_space_group_name_H-M "P N N N"
_symmetry_group_IT_number 48
_space_group.IT_coordinate_system_code '2'
_symmetry_cell_setting 'orthorhombic'
loop_
_space_group_symop_operation_xyz
x,y,z
1/2-x,1/2-y,z
x,1/2-y,1/2-z
1/2-x,y,1/2-z
-x,-y,-z
1/2+x,1/2+y,-z
-x,1/2+y,1/2+z
1/2+x,-y,1/2+z
loop_
_atom_site_type_symbol
_atom_site_label
_atom_site_fract_x
_atom_site_fract_y
_atom_site_fract_z
Si Si1 0.124584 0.444011 0.232620
Si Si2 0.214859 0.421415 0.591762
Si Si3 0.375249 0.937208 0.733615
Si Si4 0.255063 0.053528 0.148493
Si Si5 0.562871 0.161101 0.076677
Si Si6 0.017740 0.921828 0.854857
Si Si7 0.365660 0.948440 0.513310
Si Si8 0.697308 0.559877 0.557190
O O1 0.124113 0.250000 0.250000
O O2 0.250000 0.515239 0.250000
O O3 0.145824 0.469687 0.184108
O O4 0.997352 0.515482 0.247482
O O5 0.250000 0.250000 0.610563
O O6 0.326833 0.549361 0.593316
O O7 0.089573 0.468037 0.613101
O O8 0.185176 0.412385 0.543777
O O9 0.373327 0.750000 0.750000
O O10 0.250000 0.014586 0.750000
O O11 0.396818 0.916263 0.685070
O O12 0.250000 0.250000 0.145450
O O13 0.280022 0.990265 0.103010
O O14 0.114233 0.013189 0.158835
O O15 0.509845 0.256007 0.117054
O O16 0.616841 0.288477 0.042756
O O17 0.449215 0.071461 0.054694
O O18 0.500000 0.000000 0.500000
O O19 0.271676 0.951523 0.475554
O O20 0.750000 0.750000 0.554487
#
# Coordination Sequence:
#
# PCOD9389487 Si02
#       8
#     8   8   8   8   8   8   8   8
#     4  10  16  27  44  79 132 175 199 252 317 388
#     4  11  27  46  64  90 126 179 224 277 329 392
#     4  10  21  28  50  94 138 165 206 272 327 381
#     4  11  17  30  56  91 135 171 206 256 335 383
#     4  11  24  41  67  94 124 175 213 270 333 395
#     4  11  20  38  63  92 133 166 220 267 335 391
#     4  11  21  41  65  94 130 160 212 268 334 396
#     4  11  20  34  61  95 130 167 208 268 328 402
#
# _framework density 22.083411000000002
#
# number of rings (size 3 to 8) (size 9 to 14) (size 15 to 20)
#    0.000    1.250    6.250    3.375    3.500    0.500 
#    2.250    0.000    0.000    0.375    0.000    0.000 
#    0.000    2.250    0.000    0.000    0.000    0.000 
#
# Total GULP energy -356721.611917 kJ/mol
# GULP energy per Si atom -5573.775186 kJ/mol
# Density = 2.203315 g / cm^3
# Si number density = 22.083411 Si / 1000 Ang^3
#
#
#
# Elastic Constant Matrix: (Units=GPa)
#
#
# Indices 1 2 3 4 5 6 
#
# 1 163.6783 16.0707 37.5110 0.0000 0.0000 0.0000
# 2 16.0707 31.2039 2.1849 0.0000 0.0000 0.0000
# 3 37.5110 2.1849 151.4814 0.0000 0.0000 0.0000
# 4 0.0000 0.0000 0.0000 2.9080 0.0000 0.0000
# 5 0.0000 0.0000 0.0000 0.0000 35.9620 0.0000
# 6 0.0000 0.0000 0.0000 0.0000 0.0000 9.6253
#
#
#
# Elastic Compliance Matrix: (Units=1/GPa)
#
#
# Indices 1 2 3 4 5 6 
#
# 1 0.006819 -0.003397 -0.001640 0.000000 0.000000 0.000000
# 2 -0.003397 0.033772 0.000354 0.000000 0.000000 0.000000
# 3 -0.001640 0.000354 0.007002 0.000000 0.000000 0.000000
# 4 0.000000 0.000000 0.000000 0.343884 0.000000 0.000000
# 5 0.000000 0.000000 0.000000 0.000000 0.027807 0.000000
# 6 0.000000 0.000000 0.000000 0.000000 0.000000 0.103892
#
#
# Mechanical properties :
#
#
# Convention : Reuss Voigt Hill
#
# Bulk Modulus (GPa) = 26.15868 50.87743 38.51806
# Shear Modulus (GPa) = 9.16953 29.07218 19.12086
#
# Velocity S-wave (km/s) = 2.03991 3.63226 2.94572
# Velocity P-wave (km/s) = 4.17366 6.37807 5.38977
#
# Compressibility (1/GPa) = 0.03822823
#
# Stress axis : x y z
#
# Youngs Moduli (GPa) = 146.65289 29.61029 142.80903
#
# Poissons Ratio (x) = 0.10059 0.23414
# Poissons Ratio (y) = 0.49819 -0.05057
# Poissons Ratio (z) = 0.24044 -0.01048
#
# Static dielectric constant tensor:
#      x y z
#    x 1.916000 0.000000 0.000000 
#    y 0.000000 1.860650 0.000000 
#    z 0.000000 0.000000 1.727590 
# 
# From -- ./inp_files/38974.got.cif
#   From: 2010.05.17/outbox.cif.g08.bks.cpg/sg48_20_cif.got.tgz:38974.got - 2010.06.03 20:39:00.
