data_PCOD9389580
_publ_section_title
;
Structure prediction by ZEFSAII (Michael W. Deem and Ramdas Pophale) SiO2 
 PCOD9389580
Probable space group: P N N N
;
_chemical_formula_sum "Si O2"
_cell_formula_units_Z 56
_cell_length_a 11.076408
_cell_length_b 12.900558
_cell_length_c 18.562002
_cell_angle_alpha 90.000000
_cell_angle_beta 90.000000
_cell_angle_gamma 90.000000
_cell_volume 2652.358691
_symmetry_space_group_name_H-M "P N N N"
_symmetry_group_IT_number 48
_space_group.IT_coordinate_system_code '2'
_symmetry_cell_setting 'orthorhombic'
loop_
_space_group_symop_operation_xyz
x,y,z
1/2-x,1/2-y,z
x,1/2-y,1/2-z
1/2-x,y,1/2-z
-x,-y,-z
1/2+x,1/2+y,-z
-x,1/2+y,1/2+z
1/2+x,-y,1/2+z
loop_
_atom_site_type_symbol
_atom_site_label
_atom_site_fract_x
_atom_site_fract_y
_atom_site_fract_z
Si Si1 0.457573 0.137597 0.768321
Si Si2 0.285223 0.640050 0.609667
Si Si3 0.274464 0.084649 0.652128
Si Si4 0.108662 0.359714 0.508623
Si Si5 0.458391 0.144724 0.033770
Si Si6 0.395605 0.934859 0.102005
Si Si7 0.150838 0.586382 0.460078
O O1 0.509216 0.250000 0.750000
O O2 0.399475 0.089293 0.696363
O O3 0.334155 0.150770 0.814596
O O4 0.549123 0.074337 0.818626
O O5 0.250000 0.750000 0.643649
O O6 0.269640 0.534692 0.653849
O O7 0.421016 0.650531 0.581610
O O8 0.202564 0.620128 0.538570
O O9 0.295422 0.122784 0.571454
O O10 0.117184 0.464097 0.461394
O O11 0.111961 0.252023 0.467439
O O12 0.976526 0.357541 0.546827
O O13 0.385590 0.049957 0.068291
O O14 0.508329 0.116513 0.953867
O O15 0.260933 0.889617 0.093384
#
# Coordination Sequence:
#
# PCOD9389580 Si02
#       7
#     8   8   8   8   8   8   8
#     4  11  22  40  57  80 116 164 200 251 298 352
#     4  10  17  33  56  83 116 154 188 246 300 362
#     4  10  21  35  57  81 116 153 206 245 296 359
#     4  10  19  35  57  88 122 157 192 241 307 373
#     4  10  19  32  56  84 116 152 185 242 308 355
#     4  10  21  36  54  84 118 153 199 246 294 360
#     4   9  20  34  55  87 122 153 192 239 305 362
#
# _framework density 21.113282999999999
#
# number of rings (size 3 to 8) (size 9 to 14) (size 15 to 20)
#    0.000    2.000    2.857    1.714    2.000    0.571 
#    0.000    2.143    0.000    1.714    0.000    0.000 
#    0.000    0.000    0.000    0.000    0.000    0.000 
#
# Total GULP energy -312724.584650 kJ/mol
# GULP energy per Si atom -5584.367583 kJ/mol
# Density = 2.106523 g / cm^3
# Si number density = 21.113283 Si / 1000 Ang^3
#
#
#
# Elastic Constant Matrix: (Units=GPa)
#
#
# Indices 1 2 3 4 5 6 
#
# 1 88.8273 9.1093 6.1837 0.0000 0.0000 0.0000
# 2 9.1093 137.1530 17.7561 0.0000 0.0000 0.0000
# 3 6.1837 17.7561 45.6439 0.0000 0.0000 0.0000
# 4 0.0000 0.0000 0.0000 17.3630 0.0000 0.0000
# 5 0.0000 0.0000 0.0000 0.0000 27.6583 0.0000
# 6 0.0000 0.0000 0.0000 0.0000 0.0000 23.4779
#
#
#
# Elastic Compliance Matrix: (Units=1/GPa)
#
#
# Indices 1 2 3 4 5 6 
#
# 1 0.011410 -0.000587 -0.001317 0.000000 0.000000 0.000000
# 2 -0.000587 0.007708 -0.002919 0.000000 0.000000 0.000000
# 3 -0.001317 -0.002919 0.023223 0.000000 0.000000 0.000000
# 4 0.000000 0.000000 0.000000 0.057594 0.000000 0.000000
# 5 0.000000 0.000000 0.000000 0.000000 0.036156 0.000000
# 6 0.000000 0.000000 0.000000 0.000000 0.000000 0.042593
#
#
# Mechanical properties :
#
#
# Convention : Reuss Voigt Hill
#
# Bulk Modulus (GPa) = 30.58722 37.52470 34.05596
# Shear Modulus (GPa) = 25.09687 29.60483 27.35085
#
# Velocity S-wave (km/s) = 3.45146 3.74864 3.60312
# Velocity P-wave (km/s) = 5.51381 6.04550 5.78576
#
# Compressibility (1/GPa) = 0.03269340
#
# Stress axis : x y z
#
# Youngs Moduli (GPa) = 87.64449 129.73491 43.06133
#
# Poissons Ratio (x) = 0.07619 0.05673
# Poissons Ratio (y) = 0.05147 0.12569
# Poissons Ratio (z) = 0.11545 0.37869
#
# Static dielectric constant tensor:
#      x y z
#    x 1.803560 0.000000 0.000000 
#    y 0.000000 1.818480 0.000000 
#    z 0.000000 0.000000 1.770420 
# 
# From -- ./inp_files/34169.got.cif
#   From: 2010.05.17/outbox.cif.g08.bks.cpg/sg48_18_cif.got.tgz:34169.got - 2010.06.03 20:39:00.
