data_PCOD9389130
_publ_section_title
;
Structure prediction by ZEFSAII (Michael W. Deem and Ramdas Pophale) SiO2 
 PCOD9389130
Probable space group: P M M M
;
_chemical_formula_sum "Si O2"
_cell_formula_units_Z 44
_cell_length_a 9.779420
_cell_length_b 29.581058
_cell_length_c 7.672560
_cell_angle_alpha 90.000000
_cell_angle_beta 90.000000
_cell_angle_gamma 90.000000
_cell_volume 2219.561048
_symmetry_space_group_name_H-M "P M M M"
_symmetry_group_IT_number 47
_symmetry_cell_setting 'orthorhombic'
loop_
_space_group_symop_operation_xyz
x,y,z
-x,-y,z
x,-y,-z
-x,y,-z
-x,-y,-z
x,y,-z
-x,y,z
x,-y,z
loop_
_atom_site_type_symbol
_atom_site_label
_atom_site_fract_x
_atom_site_fract_y
_atom_site_fract_z
Si Si1 0.342327 0.818410 0.213795
Si Si2 0.158270 0.734613 0.212594
Si Si3 0.344351 0.549716 0.290709
Si Si4 0.843285 0.098713 0.207450
Si Si5 0.846175 0.633664 0.791269
Si Si6 0.843985 0.000000 0.292470
O O1 0.500000 0.819218 0.269641
O O2 0.261267 0.773488 0.270251
O O3 0.255619 0.861972 0.273121
O O4 0.343045 0.818638 0.000000
O O5 0.196772 0.683781 0.270141
O O6 0.000000 0.743150 0.263694
O O7 0.159696 0.735341 0.000000
O O8 0.349589 0.547773 0.500000
O O9 0.500000 0.555823 0.227126
O O10 0.295203 0.500000 0.229518
O O11 0.251685 0.592162 0.247092
O O12 0.000000 0.101116 0.277693
O O13 0.785488 0.048303 0.237669
O O14 0.853617 0.105003 0.000000
O O15 0.000000 0.625039 0.725248
O O16 0.853685 0.637033 0.000000
O O17 0.849382 0.000000 0.500000
O O18 0.000000 0.000000 0.220870
#
# Coordination Sequence:
#
# PCOD9389130 Si02
#       6
#     8   8   8   8   8   4
#     4   9  16  25  40  65  93 118 147 183 220 259
#     4   8  14  26  43  64  93 124 149 178 222 272
#     4   9  19  35  51  67  91 125 163 199 235 279
#     4   9  16  27  45  67  89 114 145 181 220 260
#     4   9  18  31  48  73 101 125 153 193 238 282
#     4   9  17  29  46  67  88 112 146 185 220 258
#
# _framework density 19.823737999999999
#
# number of rings (size 3 to 8) (size 9 to 14) (size 15 to 20)
#    0.000    3.182    0.000    2.455    0.000    5.455 
#    0.000    5.000    0.000    4.364    0.000    2.545 
#    0.000    0.000    0.000    0.000    0.000    0.000 
#
# Total GULP energy -245223.184494 kJ/mol
# GULP energy per Si atom -5573.254193 kJ/mol
# Density = 1.977862 g / cm^3
# Si number density = 19.823738 Si / 1000 Ang^3
#
#
#
# Elastic Constant Matrix: (Units=GPa)
#
#
# Indices 1 2 3 4 5 6 
#
# 1 119.3411 134.1449 6.1378 0.0000 0.0000 0.0000
# 2 134.1449 239.0653 5.3111 0.0000 0.0000 0.0000
# 3 6.1378 5.3111 31.6020 0.0000 0.0000 0.0000
# 4 0.0000 0.0000 0.0000 96.6157 0.0000 0.0000
# 5 0.0000 0.0000 0.0000 0.0000 12.8129 0.0000
# 6 0.0000 0.0000 0.0000 0.0000 0.0000 60.7476
#
#
#
# Elastic Compliance Matrix: (Units=1/GPa)
#
#
# Indices 1 2 3 4 5 6 
#
# 1 0.022856 -0.012774 -0.002292 0.000000 0.000000 0.000000
# 2 -0.012774 0.011338 0.000576 0.000000 0.000000 0.000000
# 3 -0.002292 0.000576 0.031992 0.000000 0.000000 0.000000
# 4 0.000000 0.000000 0.000000 0.010350 0.000000 0.000000
# 5 0.000000 0.000000 0.000000 0.000000 0.078046 0.000000
# 6 0.000000 0.000000 0.000000 0.000000 0.000000 0.016462
#
#
# Mechanical properties :
#
#
# Convention : Reuss Voigt Hill
#
# Bulk Modulus (GPa) = 26.87862 75.68845 51.28354
# Shear Modulus (GPa) = 23.53750 50.32954 36.93352
#
# Velocity S-wave (km/s) = 3.44952 5.04417 4.32104
# Velocity P-wave (km/s) = 5.42714 8.49638 7.12889
#
# Compressibility (1/GPa) = 0.03720429
#
# Stress axis : x y z
#
# Youngs Moduli (GPa) = 43.75264 88.19953 31.25777
#
# Poissons Ratio (x) = 1.12666 0.07165
# Poissons Ratio (y) = 0.55889 -0.01799
# Poissons Ratio (z) = 0.10029 -0.05076
#
# Static dielectric constant tensor:
#      x y z
#    x 1.677670 0.000000 0.000000 
#    y 0.000000 1.708720 0.000000 
#    z 0.000000 0.000000 1.734110 
# 
# From -- ./inp_files/2228.got.cif
#   From: 2010.05.17/outbox.cif.g08.bks.cpg/sg47_2_cif.got.tgz:2228.got - 2010.06.03 20:15:42.
