data_PCOD9389419
_publ_section_title
;
Structure prediction by ZEFSAII (Michael W. Deem and Ramdas Pophale) SiO2 
 PCOD9389419
Probable space group: P M M M
;
_chemical_formula_sum "Si O2"
_cell_formula_units_Z 64
_cell_length_a 15.000000
_cell_length_b 9.000000
_cell_length_c 24.000000
_cell_angle_alpha 90.000000
_cell_angle_beta 90.000000
_cell_angle_gamma 90.000000
_cell_volume 3240.000000
_symmetry_space_group_name_H-M "P M M M"
_symmetry_group_IT_number 47
_symmetry_cell_setting 'orthorhombic'
loop_
_space_group_symop_operation_xyz
x,y,z
-x,-y,z
x,-y,-z
-x,y,-z
-x,-y,-z
x,y,-z
-x,y,z
x,-y,z
loop_
_atom_site_type_symbol
_atom_site_label
_atom_site_fract_x
_atom_site_fract_y
_atom_site_fract_z
Si Si1 0.162689 0.325693 0.060133
Si Si2 0.594078 0.181405 0.819952
Si Si3 0.606232 0.671407 0.562476
Si Si4 0.240176 0.823363 0.248273
Si Si5 0.747199 0.175633 0.629050
Si Si6 0.097024 0.671182 0.433310
Si Si7 0.100233 0.666276 0.179923
Si Si8 0.646045 0.821275 0.060004
O O1 0.189246 0.500000 0.060832
O O2 0.104139 0.301997 0.114212
O O3 0.251149 0.227169 0.064202
O O4 0.119632 0.297300 0.000000
O O5 0.500000 0.223930 0.794814
O O6 0.675778 0.238864 0.784849
O O7 0.600404 0.231672 0.883808
O O8 0.598388 0.000000 0.821128
O O9 0.632699 0.718927 0.500000
O O10 0.500000 0.675651 0.565506
O O11 0.634866 0.500000 0.569082
O O12 0.652183 0.771317 0.607746
O O13 0.234073 0.762056 0.309896
O O14 0.155239 0.785969 0.212502
O O15 0.251446 0.000000 0.252098
O O16 0.821960 0.235482 0.588400
O O17 0.750489 0.000000 0.630057
O O18 0.097072 0.671967 0.500000
O O19 0.106348 0.500000 0.415451
O O20 0.000000 0.726580 0.414089
O O21 0.138429 0.500000 0.188249
O O22 0.000000 0.665062 0.199547
O O23 0.639695 0.000000 0.059618
O O24 0.612024 0.767285 0.000000
#
# Coordination Sequence:
#
# PCOD9389419 Si02
#       8
#     8   8   8   8   8   8   8   8
#     4   9  17  30  50  75 103 133 163 204 264 326
#     4   9  17  31  52  74  98 132 172 214 260 307
#     4   9  19  37  60  85 114 148 184 221 263 315
#     4  10  22  39  54  73 105 143 181 220 262 309
#     4  11  23  35  53  82 113 146 183 225 273 320
#     4   9  19  37  60  84 110 142 179 218 264 321
#     4  10  21  36  55  78 102 133 176 223 268 315
#     4   9  16  27  48  76 101 127 164 210 258 311
#
# _framework density 19.753086
#
# number of rings (size 3 to 8) (size 9 to 14) (size 15 to 20)
#    0.000    2.500    1.250    1.500    0.000    5.250 
#    0.000    7.500    0.000    1.500    0.000    4.375 
#    0.000    0.000    0.000    0.000    0.000    0.000 
#
# Total GULP energy -356343.070073 kJ/mol
# GULP energy per Si atom -5567.860470 kJ/mol
# Density = 1.970813 g / cm^3
# Si number density = 19.753086 Si / 1000 Ang^3
#
#
#
# Elastic Constant Matrix: (Units=GPa)
#
#
# Indices 1 2 3 4 5 6 
#
# 1 54.3262 15.0075 27.0121 0.0000 0.0000 0.0000
# 2 15.0075 -2.1996 25.3224 0.0000 0.0000 0.0000
# 3 27.0121 25.3224 50.1232 0.0000 0.0000 0.0000
# 4 0.0000 0.0000 0.0000 -0.3086 0.0000 0.0000
# 5 0.0000 0.0000 0.0000 0.0000 136.8380 0.0000
# 6 0.0000 0.0000 0.0000 0.0000 0.0000 22.2143
#
#
#
# Elastic Compliance Matrix: (Units=1/GPa)
#
#
# Indices 1 2 3 4 5 6 
#
# 1 0.025067 0.002275 -0.014659 0.000000 0.000000 0.000000
# 2 0.002275 -0.066493 0.032366 0.000000 0.000000 0.000000
# 3 -0.014659 0.032366 0.011499 0.000000 0.000000 0.000000
# 4 0.000000 0.000000 0.000000 -3.240016 0.000000 0.000000
# 5 0.000000 0.000000 0.000000 0.000000 0.007308 0.000000
# 6 0.000000 0.000000 0.000000 0.000000 0.000000 0.045016
#
#
# Mechanical properties :
#
#
# Convention : Reuss Voigt Hill
#
# Bulk Modulus (GPa) = 99.60789 26.32595 62.96692
# Shear Modulus (GPa) = -1.53646 34.07591 16.26973
#
# Velocity S-wave (km/s) = -0.88290 4.15793 2.87305
# Velocity P-wave (km/s) = 7.03538 6.03387 6.55379
#
# Compressibility (1/GPa) = 0.01003937
#
# Stress axis : x y z
#
# Youngs Moduli (GPa) = 39.89253 -15.03918 86.96364
#
# Poissons Ratio (x) = 0.03422 1.27477
# Poissons Ratio (y) = -0.09077 -2.81469
# Poissons Ratio (z) = 0.58477 0.48676
#
# Static dielectric constant tensor:
#      x y z
#    x 1.700070 0.000000 0.000000 
#    y 0.000000 1.672880 0.000000 
#    z 0.000000 0.000000 1.716930 
# 
# From -- ./inp_files/32786.got.cif
#   From: 2010.05.17/outbox.ucp.g08.bks.cvg/sg47_17_cif.got.tgz:32786.got - 2010.06.11 16:36:43.
