data_PCOD9389457
_publ_section_title
;
Structure prediction by ZEFSAII (Michael W. Deem and Ramdas Pophale) SiO2 
 PCOD9389457
Probable space group: P M M M
;
_chemical_formula_sum "Si O2"
_cell_formula_units_Z 36
_cell_length_a 15.000000
_cell_length_b 15.000000
_cell_length_c 9.000000
_cell_angle_alpha 90.000000
_cell_angle_beta 90.000000
_cell_angle_gamma 90.000000
_cell_volume 2025.000000
_symmetry_space_group_name_H-M "P M M M"
_symmetry_group_IT_number 47
_symmetry_cell_setting 'orthorhombic'
loop_
_space_group_symop_operation_xyz
x,y,z
-x,-y,z
x,-y,-z
-x,y,-z
-x,-y,-z
x,y,-z
-x,y,z
x,-y,z
loop_
_atom_site_type_symbol
_atom_site_label
_atom_site_fract_x
_atom_site_fract_y
_atom_site_fract_z
Si Si1 0.898370 0.104598 0.678471
Si Si2 0.000000 0.391899 0.332820
Si Si3 0.393586 0.099625 0.327012
Si Si4 0.742735 0.780317 0.176322
Si Si5 0.816560 0.399308 0.178505
O O1 0.891875 0.112007 0.500000
O O2 0.824909 0.166076 0.752622
O O3 0.000000 0.128475 0.721147
O O4 0.884436 0.000000 0.715638
O O5 0.089188 0.369067 0.245844
O O6 0.000000 0.500000 0.340734
O O7 0.000000 0.355676 0.500000
O O8 0.368043 0.109795 0.500000
O O9 0.500000 0.104065 0.318400
O O10 0.346123 0.172938 0.230817
O O11 0.365572 0.000000 0.280079
O O12 0.747270 0.676728 0.220858
O O13 0.750589 0.785520 0.000000
O O14 0.796735 0.500000 0.229468
O O15 0.824469 0.401676 0.000000
#
# Coordination Sequence:
#
# PCOD9389457 Si02
#       5
#     8   4   8   8   8
#     4   9  19  35  51  68  97 139 177 204 242 302
#     4   9  17  29  47  71  94 121 168 223 261 288
#     4   9  19  37  59  80 103 133 166 200 248 313
#     4  11  22  32  50  79 104 130 169 214 257 299
#     4   9  19  35  50  66  98 141 175 206 251 306
#
# _framework density 17.777778000000001
#
# number of rings (size 3 to 8) (size 9 to 14) (size 15 to 20)
#    0.000    2.556    0.000    3.000    1.556    7.556 
#    0.000    2.222    0.000    0.667    0.000    4.667 
#    0.000    0.000    0.000    0.000    0.000    0.000 
#
# Total GULP energy -200772.489649 kJ/mol
# GULP energy per Si atom -5577.013601 kJ/mol
# Density = 1.773731 g / cm^3
# Si number density = 17.777778 Si / 1000 Ang^3
#
#
#
# Elastic Constant Matrix: (Units=GPa)
#
#
# Indices 1 2 3 4 5 6 
#
# 1 29.3300 37.5243 17.1836 0.0000 0.0000 0.0000
# 2 37.5243 95.3881 37.8598 0.0000 0.0000 0.0000
# 3 17.1836 37.8598 10.6464 0.0000 0.0000 0.0000
# 4 0.0000 0.0000 0.0000 210.3171 0.0000 0.0000
# 5 0.0000 0.0000 0.0000 0.0000 42.1722 0.0000
# 6 0.0000 0.0000 0.0000 0.0000 0.0000 7.0584
#
#
#
# Elastic Compliance Matrix: (Units=1/GPa)
#
#
# Indices 1 2 3 4 5 6 
#
# 1 0.063428 -0.038114 0.033162 0.000000 0.000000 0.000000
# 2 -0.038114 -0.002578 0.070684 0.000000 0.000000 0.000000
# 3 0.033162 0.070684 -0.210958 0.000000 0.000000 0.000000
# 4 0.000000 0.000000 0.000000 0.004755 0.000000 0.000000
# 5 0.000000 0.000000 0.000000 0.000000 0.023712 0.000000
# 6 0.000000 0.000000 0.000000 0.000000 0.000000 0.141676
#
#
# Mechanical properties :
#
#
# Convention : Reuss Voigt Hill
#
# Bulk Modulus (GPa) = -53.64056 35.61110 -9.01473
# Shear Modulus (GPa) = -42.50109 54.76265 6.13078
#
# Velocity S-wave (km/s) = -4.89477 5.55616 1.85905
# Velocity P-wave (km/s) = 7.88564 7.82534 0.68828
#
# Compressibility (1/GPa) = -0.01864261
#
# Stress axis : x y z
#
# Youngs Moduli (GPa) = 15.76585 -387.91110 -4.74028
#
# Poissons Ratio (x) = -14.78477 0.15720
# Poissons Ratio (y) = 0.60090 0.33506
# Poissons Ratio (z) = -0.52283 27.41924
#
# Static dielectric constant tensor:
#      x y z
#    x 1.590550 0.000000 0.000000 
#    y 0.000000 1.640190 0.000000 
#    z 0.000000 0.000000 1.597660 
# 
# From -- ./inp_files/5499.got.cif
#   From: 2010.05.17/outbox.ucp.g08.bks.cvg/sg47_3_cif.got.tgz:5499.got - 2010.06.11 16:36:43.
