data_PCOD9389166
_publ_section_title
;
Structure prediction by ZEFSAII (Michael W. Deem and Ramdas Pophale) SiO2 
 PCOD9389166
Probable space group: P M M M
;
_chemical_formula_sum "Si O2"
_cell_formula_units_Z 56
_cell_length_a 17.465401
_cell_length_b 7.550181
_cell_length_c 20.379590
_cell_angle_alpha 90.000000
_cell_angle_beta 90.000000
_cell_angle_gamma 90.000000
_cell_volume 2687.394147
_symmetry_space_group_name_H-M "P M M M"
_symmetry_group_IT_number 47
_symmetry_cell_setting 'orthorhombic'
loop_
_space_group_symop_operation_xyz
x,y,z
-x,-y,z
x,-y,-z
-x,y,-z
-x,-y,-z
x,y,-z
-x,y,z
x,-y,z
loop_
_atom_site_type_symbol
_atom_site_label
_atom_site_fract_x
_atom_site_fract_y
_atom_site_fract_z
Si Si1 0.000000 0.203179 0.801929
Si Si2 0.171186 0.786117 0.191166
Si Si3 0.307479 0.287016 0.716106
Si Si4 0.721187 0.211051 0.073171
Si Si5 0.682890 0.701960 0.572310
Si Si6 0.856324 0.206873 0.574254
Si Si7 0.000000 0.204768 0.353666
Si Si8 0.586756 0.286702 0.835905
O O1 0.915903 0.281500 0.816458
O O2 0.000000 0.196853 0.723463
O O3 0.000000 0.000000 0.828049
O O4 0.221127 0.748450 0.257003
O O5 0.222064 0.720578 0.129882
O O6 0.166040 0.000000 0.189665
O O7 0.313197 0.500000 0.712037
O O8 0.332509 0.217436 0.644304
O O9 0.364365 0.221947 0.773226
O O10 0.635828 0.241527 0.099953
O O11 0.733548 0.000000 0.070769
O O12 0.732763 0.282108 0.000000
O O13 0.662985 0.780895 0.500000
O O14 0.653446 0.500000 0.571720
O O15 0.775289 0.698693 0.574537
O O16 0.886514 0.211336 0.500000
O O17 0.921466 0.283504 0.620300
O O18 0.840488 0.000000 0.591232
O O19 0.000000 0.000000 0.379015
O O20 0.500000 0.221310 0.836860
O O21 0.584649 0.500000 0.831198
#
# Coordination Sequence:
#
# PCOD9389166 Si02
#       8
#     4   8   8   8   8   8   4   8
#     4   9  16  25  40  62  85 111 148 191 224 252
#     4   9  17  30  47  66  89 118 152 187 223 262
#     4   9  17  30  47  65  88 118 149 183 224 267
#     4   9  18  32  49  70  97 125 149 176 214 261
#     4   9  17  28  41  58  81 109 141 177 218 262
#     4   9  16  25  37  53  74 102 138 178 218 262
#     4   9  15  22  34  53  76 101 132 175 224 262
#     4   9  18  32  50  72  95 119 148 180 215 259
#
# _framework density 20.838031999999998
#
# number of rings (size 3 to 8) (size 9 to 14) (size 15 to 20)
#    0.000    3.000    0.000    1.071    0.000    3.429 
#    0.000    2.500    0.000    6.857    0.000    3.000 
#    0.000    4.571    0.000   10.714    0.000   11.143 
#
# Total GULP energy -311907.451100 kJ/mol
# GULP energy per Si atom -5569.775912 kJ/mol
# Density = 2.079060 g / cm^3
# Si number density = 20.838032 Si / 1000 Ang^3
#
#
#
# Elastic Constant Matrix: (Units=GPa)
#
#
# Indices 1 2 3 4 5 6 
#
# 1 76.0825 -1.7532 14.9982 0.0000 0.0000 0.0000
# 2 -1.7532 54.9389 2.9389 0.0000 0.0000 0.0000
# 3 14.9982 2.9389 116.5563 0.0000 0.0000 0.0000
# 4 0.0000 0.0000 0.0000 11.0738 0.0000 0.0000
# 5 0.0000 0.0000 0.0000 0.0000 15.2526 0.0000
# 6 0.0000 0.0000 0.0000 0.0000 0.0000 13.5198
#
#
#
# Elastic Compliance Matrix: (Units=1/GPa)
#
#
# Indices 1 2 3 4 5 6 
#
# 1 0.013501 0.000524 -0.001750 0.000000 0.000000 0.000000
# 2 0.000524 0.018247 -0.000528 0.000000 0.000000 0.000000
# 3 -0.001750 -0.000528 0.008818 0.000000 0.000000 0.000000
# 4 0.000000 0.000000 0.000000 0.090303 0.000000 0.000000
# 5 0.000000 0.000000 0.000000 0.000000 0.065563 0.000000
# 6 0.000000 0.000000 0.000000 0.000000 0.000000 0.073966
#
#
# Mechanical properties :
#
#
# Convention : Reuss Voigt Hill
#
# Bulk Modulus (GPa) = 26.98419 31.10505 29.04462
# Shear Modulus (GPa) = 17.46679 23.39549 20.43114
#
# Velocity S-wave (km/s) = 2.89834 3.35435 3.13465
# Velocity P-wave (km/s) = 4.91712 5.47373 5.20287
#
# Compressibility (1/GPa) = 0.03705874
#
# Stress axis : x y z
#
# Youngs Moduli (GPa) = 74.06972 54.80355 113.40322
#
# Poissons Ratio (x) = -0.02874 0.19851
# Poissons Ratio (y) = -0.03885 0.05983
# Poissons Ratio (z) = 0.12966 0.02891
#
# Static dielectric constant tensor:
#      x y z
#    x 1.745470 0.000000 0.000000 
#    y 0.000000 1.817600 0.000000 
#    z 0.000000 0.000000 1.783130 
# 
# From -- ./inp_files/30990.got.cif
#   From: 2010.05.17/outbox.cif.g08.bks.cpg/sg47_16_cif.got.tgz:30990.got - 2010.06.03 20:15:42.
