data_PCOD9389422
_publ_section_title
;
Structure prediction by ZEFSAII (Michael W. Deem and Ramdas Pophale) SiO2 
 PCOD9389422
Probable space group: P M M M
;
_chemical_formula_sum "Si O2"
_cell_formula_units_Z 56
_cell_length_a 21.000000
_cell_length_b 15.000000
_cell_length_c 9.000000
_cell_angle_alpha 90.000000
_cell_angle_beta 90.000000
_cell_angle_gamma 90.000000
_cell_volume 2835.000000
_symmetry_space_group_name_H-M "P M M M"
_symmetry_group_IT_number 47
_symmetry_cell_setting 'orthorhombic'
loop_
_space_group_symop_operation_xyz
x,y,z
-x,-y,z
x,-y,-z
-x,y,-z
-x,-y,-z
x,y,-z
-x,y,z
x,-y,z
loop_
_atom_site_type_symbol
_atom_site_label
_atom_site_fract_x
_atom_site_fract_y
_atom_site_fract_z
Si Si1 0.837220 0.902099 0.321383
Si Si2 0.072867 0.743026 0.679337
Si Si3 0.294495 0.142180 0.171332
Si Si4 0.838442 0.602757 0.171589
Si Si5 0.568854 0.154631 0.179158
Si Si6 0.697589 0.357948 0.827794
Si Si7 0.430605 0.648632 0.322354
O O1 0.836239 0.898295 0.500000
O O2 0.885735 0.827183 0.267664
O O3 0.765784 0.886664 0.265045
O O4 0.858692 0.000000 0.274921
O O5 0.072206 0.743831 0.500000
O O6 0.111480 0.658407 0.736122
O O7 0.000000 0.744850 0.730910
O O8 0.364493 0.108946 0.220120
O O9 0.299212 0.250010 0.177530
O O10 0.284183 0.116186 0.000000
O O11 0.856336 0.500000 0.170295
O O12 0.766062 0.610889 0.230382
O O13 0.836754 0.635736 0.000000
O O14 0.500000 0.111032 0.207826
O O15 0.567819 0.249763 0.261465
O O16 0.572772 0.170057 0.000000
O O17 0.634389 0.389780 0.744396
O O18 0.692475 0.384969 0.000000
O O19 0.426526 0.648196 0.500000
O O20 0.500000 0.609375 0.280220
#
# Coordination Sequence:
#
# PCOD9389422 Si02
#       7
#     8   8   8   8   8   8   8
#     4  10  21  36  55  80 109 143 182 222 266 318
#     4  10  22  40  61  85 113 144 177 217 267 322
#     4   9  16  28  49  75 102 136 178 224 272 319
#     4  10  21  38  60  85 113 145 182 223 268 320
#     4   8  14  25  41  64  97 136 177 221 269 318
#     4   9  17  30  49  73 102 138 179 222 268 318
#     4   9  16  24  38  66 101 136 178 225 270 317
#
# _framework density 19.753086
#
# number of rings (size 3 to 8) (size 9 to 14) (size 15 to 20)
#    0.000    2.714    1.429    1.286    0.000    5.143 
#    0.000    2.857    0.000    0.857    0.000    8.000 
#    0.000    0.000    0.000    0.000    0.000    0.000 
#
# Total GULP energy -312095.865328 kJ/mol
# GULP energy per Si atom -5573.140452 kJ/mol
# Density = 1.970813 g / cm^3
# Si number density = 19.753086 Si / 1000 Ang^3
#
#
#
# Elastic Constant Matrix: (Units=GPa)
#
#
# Indices 1 2 3 4 5 6 
#
# 1 196.0412 53.2129 38.7807 0.0000 0.0000 0.0000
# 2 53.2129 71.6372 13.9477 0.0000 0.0000 0.0000
# 3 38.7807 13.9477 15.1788 0.0000 0.0000 0.0000
# 4 0.0000 0.0000 0.0000 8.1166 0.0000 0.0000
# 5 0.0000 0.0000 0.0000 0.0000 33.2696 0.0000
# 6 0.0000 0.0000 0.0000 0.0000 0.0000 -31.3532
#
#
#
# Elastic Compliance Matrix: (Units=1/GPa)
#
#
# Indices 1 2 3 4 5 6 
#
# 1 0.010904 -0.003259 -0.024866 0.000000 0.000000 0.000000
# 2 -0.003259 0.017975 -0.008191 0.000000 0.000000 0.000000
# 3 -0.024866 -0.008191 0.136938 0.000000 0.000000 0.000000
# 4 0.000000 0.000000 0.000000 0.123205 0.000000 0.000000
# 5 0.000000 0.000000 0.000000 0.000000 0.030057 0.000000
# 6 0.000000 0.000000 0.000000 0.000000 0.000000 -0.031895
#
#
# Mechanical properties :
#
#
# Convention : Reuss Voigt Hill
#
# Bulk Modulus (GPa) = 10.73120 54.97109 32.85115
# Shear Modulus (GPa) = 12.79173 13.80100 13.29637
#
# Velocity S-wave (km/s) = 2.54752 2.64611 2.59729
# Velocity P-wave (km/s) = 3.75468 6.10126 5.06572
#
# Compressibility (1/GPa) = 0.09318618
#
# Stress axis : x y z
#
# Youngs Moduli (GPa) = 91.70655 55.63413 7.30257
#
# Poissons Ratio (x) = 0.18129 0.18158
# Poissons Ratio (y) = 0.29883 0.05982
# Poissons Ratio (z) = 2.28033 0.45572
#
# Static dielectric constant tensor:
#      x y z
#    x 1.717320 0.000000 0.000000 
#    y 0.000000 1.747250 0.000000 
#    z 0.000000 0.000000 1.666000 
# 
# From -- ./inp_files/11205.got.cif
#   From: 2010.05.17/outbox.ucp.g08.bks.cvg/sg47_6_cif.got.tgz:11205.got - 2010.06.11 16:36:43.
