data_PCOD9389089
_publ_section_title
;
Structure prediction by ZEFSAII (Michael W. Deem and Ramdas Pophale) SiO2 
 PCOD9389089
Probable space group: P M M M
;
_chemical_formula_sum "Si O2"
_cell_formula_units_Z 36
_cell_length_a 7.406012
_cell_length_b 8.225707
_cell_length_c 26.084783
_cell_angle_alpha 90.000000
_cell_angle_beta 90.000000
_cell_angle_gamma 90.000000
_cell_volume 1589.076757
_symmetry_space_group_name_H-M "P M M M"
_symmetry_group_IT_number 47
_symmetry_cell_setting 'orthorhombic'
loop_
_space_group_symop_operation_xyz
x,y,z
-x,-y,z
x,-y,-z
-x,y,-z
-x,-y,-z
x,y,-z
-x,y,z
x,-y,z
loop_
_atom_site_type_symbol
_atom_site_label
_atom_site_fract_x
_atom_site_fract_y
_atom_site_fract_z
Si Si1 0.720279 0.677990 0.619702
Si Si2 0.720561 0.000000 0.559218
Si Si3 0.216266 0.310897 0.054993
Si Si4 0.720107 0.816527 0.725950
Si Si5 0.714696 0.684534 0.833932
O O1 0.500000 0.679684 0.618559
O O2 0.777903 0.500000 0.601055
O O3 0.779345 0.835035 0.587645
O O4 0.774588 0.702723 0.679037
O O5 0.500000 0.000000 0.560985
O O6 0.774334 0.000000 0.500000
O O7 0.280222 0.500000 0.056572
O O8 0.259337 0.235938 0.110194
O O9 0.000000 0.314760 0.053042
O O10 0.278837 0.241443 0.000000
O O11 0.500000 0.813494 0.726941
O O12 0.783854 0.769350 0.782679
O O13 0.773989 0.000000 0.713665
O O14 0.500000 0.673685 0.827636
O O15 0.787462 0.500000 0.836048
#
# Coordination Sequence:
#
# PCOD9389089 Si02
#       5
#     8   4   8   8   8
#     4   9  15  23  35  49  68  98 135 174 216 259
#     4   9  16  24  32  46  70 100 138 179 214 252
#     4   8  14  25  40  57  79 108 138 167 206 260
#     4   9  15  24  37  52  73  99 127 163 212 264
#     4   9  16  24  37  60  82  98 128 176 219 254
#
# _framework density 22.654664
#
# number of rings (size 3 to 8) (size 9 to 14) (size 15 to 20)
#    0.000    3.222    1.111    1.333    0.000    3.556 
#    0.000    4.444    0.000    1.333    0.000    4.667 
#    0.000    0.000    0.000    0.000    0.000    2.222 
#
# Total GULP energy -200712.653890 kJ/mol
# GULP energy per Si atom -5575.351497 kJ/mol
# Density = 2.260310 g / cm^3
# Si number density = 22.654664 Si / 1000 Ang^3
#
#
#
# Elastic Constant Matrix: (Units=GPa)
#
#
# Indices 1 2 3 4 5 6 
#
# 1 72.5505 1.5789 0.4605 0.0000 0.0000 0.0000
# 2 1.5789 126.4038 80.4998 0.0000 0.0000 0.0000
# 3 0.4605 80.4998 183.0757 0.0000 0.0000 0.0000
# 4 0.0000 0.0000 0.0000 49.6356 0.0000 0.0000
# 5 0.0000 0.0000 0.0000 0.0000 36.9779 0.0000
# 6 0.0000 0.0000 0.0000 0.0000 0.0000 -9.7540
#
#
#
# Elastic Compliance Matrix: (Units=1/GPa)
#
#
# Indices 1 2 3 4 5 6 
#
# 1 0.013788 -0.000209 0.000057 0.000000 0.000000 0.000000
# 2 -0.000209 0.010991 -0.004832 0.000000 0.000000 0.000000
# 3 0.000057 -0.004832 0.007587 0.000000 0.000000 0.000000
# 4 0.000000 0.000000 0.000000 0.020147 0.000000 0.000000
# 5 0.000000 0.000000 0.000000 0.000000 0.027043 0.000000
# 6 0.000000 0.000000 0.000000 0.000000 0.000000 -0.102522
#
#
# Mechanical properties :
#
#
# Convention : Reuss Voigt Hill
#
# Bulk Modulus (GPa) = 44.64683 60.78983 52.71833
# Shear Modulus (GPa) = -903.72703 35.33797 -434.19453
#
# Velocity S-wave (km/s) = -19.99451 3.95378 -13.85908
# Velocity P-wave (km/s) = 22.65591 6.90903 15.25705
#
# Compressibility (1/GPa) = 0.02239801
#
# Stress axis : x y z
#
# Youngs Moduli (GPa) = 72.52849 90.98132 131.80562
#
# Poissons Ratio (x) = 0.01897 -0.00751
# Poissons Ratio (y) = 0.01512 0.63694
# Poissons Ratio (z) = -0.00413 0.43966
#
# Static dielectric constant tensor:
#      x y z
#    x 1.869950 0.000000 0.000000 
#    y 0.000000 1.819360 0.000000 
#    z 0.000000 0.000000 1.861660 
# 
# From -- ./inp_files/3878.got.cif
#   From: 2010.05.17/outbox.cif.g08.bks.cpg/sg47_2_cif.got.tgz:3878.got - 2010.06.03 20:15:42.
