data_PCOD9389638
_publ_section_title
;
Structure prediction by ZEFSAII (Michael W. Deem and Ramdas Pophale) SiO2 
 PCOD9389638
Probable space group: P N N N
;
_chemical_formula_sum "Si O2"
_cell_formula_units_Z 44
_cell_length_a 5.667688
_cell_length_b 14.987653
_cell_length_c 25.809775
_cell_angle_alpha 90.000000
_cell_angle_beta 90.000000
_cell_angle_gamma 90.000000
_cell_volume 2192.420140
_symmetry_space_group_name_H-M "P N N N"
_symmetry_group_IT_number 48
_space_group.IT_coordinate_system_code '2'
_symmetry_cell_setting 'orthorhombic'
loop_
_space_group_symop_operation_xyz
x,y,z
1/2-x,1/2-y,z
x,1/2-y,1/2-z
1/2-x,y,1/2-z
-x,-y,-z
1/2+x,1/2+y,-z
-x,1/2+y,1/2+z
1/2+x,-y,1/2+z
loop_
_atom_site_type_symbol
_atom_site_label
_atom_site_fract_x
_atom_site_fract_y
_atom_site_fract_z
Si Si1 0.960992 0.005719 0.354903
Si Si2 0.386731 0.836964 0.606149
Si Si3 0.361015 0.122510 0.300585
Si Si4 0.473043 0.107477 0.500461
Si Si5 0.750000 0.993814 0.250000
Si Si6 0.023433 0.587113 0.037916
O O1 0.773715 0.077033 0.379196
O O2 0.176372 0.064799 0.333660
O O3 0.862039 0.954236 0.303341
O O4 0.037098 0.944299 0.402612
O O5 0.250000 0.750000 0.588760
O O6 0.515839 0.812297 0.659347
O O7 0.552973 0.863570 0.558996
O O8 0.250000 0.162860 0.250000
O O9 0.550042 0.055297 0.275454
O O10 0.232319 0.133266 0.529742
O O11 0.732164 0.135577 0.521943
O O12 0.500000 0.000000 0.500000
O O13 0.000000 0.500000 0.000000
#
# Coordination Sequence:
#
# PCOD9389638 Si02
#       6
#     8   8   8   8   4   8
#     4  10  18  32  50  69  95 132 177 211 263 308
#     4  11  22  33  48  72  99 132 177 226 264 311
#     4   9  18  34  47  62  91 132 177 218 260 303
#     4  10  19  34  51  75  97 125 171 210 272 317
#     4   8  18  30  47  68  96 128 169 222 260 294
#     4  10  18  30  54  73  93 127 167 211 255 324
#
# _framework density 20.069146
#
# number of rings (size 3 to 8) (size 9 to 14) (size 15 to 20)
#    0.000    2.182    3.636    2.182    2.545    0.727 
#    0.000   20.909    0.000    0.000    0.000    0.000 
#    0.000    0.000    0.000    4.909    2.182    0.182 
#
# Total GULP energy -245051.087298 kJ/mol
# GULP energy per Si atom -5569.342893 kJ/mol
# Density = 2.002347 g / cm^3
# Si number density = 20.069146 Si / 1000 Ang^3
#
#
#
# Elastic Constant Matrix: (Units=GPa)
#
#
# Indices 1 2 3 4 5 6 
#
# 1 120.2885 0.7202 30.2855 0.0000 0.0000 0.0000
# 2 0.7202 17.5451 22.8127 0.0000 0.0000 0.0000
# 3 30.2855 22.8127 158.3502 0.0000 0.0000 0.0000
# 4 0.0000 0.0000 0.0000 2.3746 0.0000 0.0000
# 5 0.0000 0.0000 0.0000 0.0000 42.8896 0.0000
# 6 0.0000 0.0000 0.0000 0.0000 0.0000 13.6551
#
#
#
# Elastic Compliance Matrix: (Units=1/GPa)
#
#
# Indices 1 2 3 4 5 6 
#
# 1 0.008805 0.002250 -0.002008 0.000000 0.000000 0.000000
# 2 0.002250 0.070708 -0.010617 0.000000 0.000000 0.000000
# 3 -0.002008 -0.010617 0.008229 0.000000 0.000000 0.000000
# 4 0.000000 0.000000 0.000000 0.421126 0.000000 0.000000
# 5 0.000000 0.000000 0.000000 0.000000 0.023316 0.000000
# 6 0.000000 0.000000 0.000000 0.000000 0.000000 0.073233
#
#
# Mechanical properties :
#
#
# Convention : Reuss Voigt Hill
#
# Bulk Modulus (GPa) = 14.92726 44.86893 29.89810
# Shear Modulus (GPa) = 7.71013 27.94155 17.82584
#
# Velocity S-wave (km/s) = 1.96217 3.73535 2.98354
# Velocity P-wave (km/s) = 3.54789 6.40387 5.17673
#
# Compressibility (1/GPa) = 0.06699155
#
# Stress axis : x y z
#
# Youngs Moduli (GPa) = 113.56550 14.14267 121.52588
#
# Poissons Ratio (x) = -0.03182 0.24405
# Poissons Ratio (y) = -0.25548 1.29021
# Poissons Ratio (z) = 0.22806 0.15015
#
# Static dielectric constant tensor:
#      x y z
#    x 1.804830 0.000000 0.000000 
#    y 0.000000 1.638440 0.000000 
#    z 0.000000 0.000000 1.629060 
# 
# From -- ./inp_files/3485.got.cif
#   From: 2010.05.17/outbox.cif.g08.bks.cpg/sg48_2_cif.got.tgz:3485.got - 2010.06.03 20:39:00.
