data_PCOD9389052
_publ_section_title
;
Structure prediction by ZEFSAII (Michael W. Deem and Ramdas Pophale) SiO2 
 PCOD9389052
Probable space group: P M M M
;
_chemical_formula_sum "Si O2"
_cell_formula_units_Z 36
_cell_length_a 9.555820
_cell_length_b 8.126715
_cell_length_c 26.001600
_cell_angle_alpha 90.000000
_cell_angle_beta 90.000000
_cell_angle_gamma 90.000000
_cell_volume 2019.217321
_symmetry_space_group_name_H-M "P M M M"
_symmetry_group_IT_number 47
_symmetry_cell_setting 'orthorhombic'
loop_
_space_group_symop_operation_xyz
x,y,z
-x,-y,z
x,-y,-z
-x,y,-z
-x,-y,-z
x,y,-z
-x,y,z
x,-y,z
loop_
_atom_site_type_symbol
_atom_site_label
_atom_site_fract_x
_atom_site_fract_y
_atom_site_fract_z
Si Si1 0.329371 0.681748 0.375989
Si Si2 0.670341 0.191809 0.265915
Si Si3 0.659356 0.198070 0.845982
Si Si4 0.329121 0.000000 0.440615
Si Si5 0.161714 0.301543 0.943206
O O1 0.500000 0.684409 0.376435
O O2 0.285390 0.500000 0.393501
O O3 0.286322 0.711796 0.316784
O O4 0.283675 0.835113 0.410794
O O5 0.500000 0.194904 0.264097
O O6 0.715905 0.255211 0.209796
O O7 0.710528 0.000000 0.272226
O O8 0.500000 0.258744 0.852505
O O9 0.749345 0.242808 0.895192
O O10 0.653917 0.000000 0.841894
O O11 0.500000 0.000000 0.439641
O O12 0.285931 0.000000 0.500000
O O13 0.163657 0.500000 0.943212
O O14 0.000000 0.249146 0.938028
O O15 0.212198 0.246772 0.000000
#
# Coordination Sequence:
#
# PCOD9389052 Si02
#       5
#     8   8   8   4   8
#     4   9  15  22  34  50  68  98 139 177 218 268
#     4   8  13  24  39  54  78 106 130 167 222 273
#     4   9  18  30  46  70  94 114 142 187 236 278
#     4   9  16  24  32  44  68 102 138 181 224 256
#     4   9  19  35  50  63  85 120 157 189 225 274
#
# _framework density 17.828690999999999
#
# number of rings (size 3 to 8) (size 9 to 14) (size 15 to 20)
#    0.000    3.222    1.111    2.000    0.000    3.111 
#    0.000    7.778    0.000    0.000    0.000    0.000 
#    0.000    0.000    0.000    0.000    0.000    2.222 
#
# Total GULP energy -200406.299030 kJ/mol
# GULP energy per Si atom -5566.841640 kJ/mol
# Density = 1.778811 g / cm^3
# Si number density = 17.828691 Si / 1000 Ang^3
#
#
#
# Elastic Constant Matrix: (Units=GPa)
#
#
# Indices 1 2 3 4 5 6 
#
# 1 10.6884 12.5811 30.5396 0.0000 0.0000 0.0000
# 2 12.5811 84.6412 68.5736 0.0000 0.0000 0.0000
# 3 30.5396 68.5736 174.9230 0.0000 0.0000 0.0000
# 4 0.0000 0.0000 0.0000 -9.7726 0.0000 0.0000
# 5 0.0000 0.0000 0.0000 0.0000 -7.0050 0.0000
# 6 0.0000 0.0000 0.0000 0.0000 0.0000 14.0001
#
#
#
# Elastic Compliance Matrix: (Units=1/GPa)
#
#
# Indices 1 2 3 4 5 6 
#
# 1 0.186911 -0.001971 -0.031860 0.000000 0.000000 0.000000
# 2 -0.001971 0.017334 -0.006451 0.000000 0.000000 0.000000
# 3 -0.031860 -0.006451 0.013808 0.000000 0.000000 0.000000
# 4 0.000000 0.000000 0.000000 -0.102327 0.000000 0.000000
# 5 0.000000 0.000000 0.000000 0.000000 -0.142755 0.000000
# 6 0.000000 0.000000 0.000000 0.000000 0.000000 0.071428
#
#
# Mechanical properties :
#
#
# Convention : Reuss Voigt Hill
#
# Bulk Modulus (GPa) = 7.27328 54.84901 31.06115
# Shear Modulus (GPa) = 29.27519 10.01505 19.64512
#
# Velocity S-wave (km/s) = 4.05659 2.37267 3.32306
# Velocity P-wave (km/s) = 5.10192 6.19172 5.67305
#
# Compressibility (1/GPa) = 0.13748946
#
# Stress axis : x y z
#
# Youngs Moduli (GPa) = 5.35014 57.68971 72.42044
#
# Poissons Ratio (x) = 0.11368 2.30732
# Poissons Ratio (y) = 0.01054 0.46721
# Poissons Ratio (z) = 0.17046 0.37217
#
# Static dielectric constant tensor:
#      x y z
#    x 1.577200 0.000000 0.000000 
#    y 0.000000 1.638410 0.000000 
#    z 0.000000 0.000000 1.631860 
# 
# From -- ./inp_files/30272.got.cif
#   From: 2010.05.17/outbox.cif.g08.bks.cpg/sg47_16_cif.got.tgz:30272.got - 2010.06.03 20:15:42.
