data_PCOD9389449
_publ_section_title
;
Structure prediction by ZEFSAII (Michael W. Deem and Ramdas Pophale) SiO2 
 PCOD9389449
Probable space group: P M M M
;
_chemical_formula_sum "Si O2"
_cell_formula_units_Z 64
_cell_length_a 9.000000
_cell_length_b 21.000000
_cell_length_c 18.000000
_cell_angle_alpha 90.000000
_cell_angle_beta 90.000000
_cell_angle_gamma 90.000000
_cell_volume 3402.000000
_symmetry_space_group_name_H-M "P M M M"
_symmetry_group_IT_number 47
_symmetry_cell_setting 'orthorhombic'
loop_
_space_group_symop_operation_xyz
x,y,z
-x,-y,z
x,-y,-z
-x,y,-z
-x,-y,-z
x,y,-z
-x,y,z
x,-y,z
loop_
_atom_site_type_symbol
_atom_site_label
_atom_site_fract_x
_atom_site_fract_y
_atom_site_fract_z
Si Si1 0.824551 0.675875 0.831658
Si Si2 0.325069 0.666132 0.410691
Si Si3 0.332363 0.429170 0.911941
Si Si4 0.820812 0.424849 0.298411
Si Si5 0.821106 0.926655 0.854499
Si Si6 0.678691 0.203967 0.912637
Si Si7 0.319237 0.809406 0.586029
Si Si8 0.321241 0.072517 0.308805
O O1 0.784843 0.625201 0.895371
O O2 0.774678 0.630155 0.762120
O O3 0.744594 0.741858 0.856521
O O4 0.000000 0.688258 0.824098
O O5 0.313303 0.664370 0.500000
O O6 0.500000 0.660857 0.391344
O O7 0.238325 0.607928 0.373512
O O8 0.272783 0.738095 0.388148
O O9 0.500000 0.413462 0.883873
O O10 0.291092 0.500000 0.883715
O O11 0.343928 0.433692 0.000000
O O12 0.772862 0.500000 0.289596
O O13 0.000000 0.426235 0.296392
O O14 0.746998 0.866275 0.896062
O O15 0.762623 0.922357 0.769635
O O16 0.000000 0.920617 0.857614
O O17 0.784308 0.000000 0.880039
O O18 0.500000 0.201902 0.903152
O O19 0.708997 0.220262 0.000000
O O20 0.272291 0.818159 0.500000
O O21 0.500000 0.808031 0.585754
O O22 0.275700 0.869407 0.637061
O O23 0.500000 0.077976 0.296639
O O24 0.294933 0.000000 0.337956
#
# Coordination Sequence:
#
# PCOD9389449 Si02
#       8
#     8   8   8   8   8   8   8   8
#     4  11  23  38  57  83 115 148 184 230 282 341
#     4   9  19  36  57  82 112 147 191 242 291 339
#     4   9  18  33  53  77 107 145 187 229 275 329
#     4  10  23  41  58  81 114 149 187 234 287 342
#     4  10  22  40  61  86 118 155 193 237 289 340
#     4  11  25  43  63  88 117 150 189 234 285 341
#     4   8  15  29  50  79 115 152 192 241 291 335
#     4   9  17  30  52  83 117 155 199 242 285 337
#
# _framework density 18.812463000000001
#
# number of rings (size 3 to 8) (size 9 to 14) (size 15 to 20)
#    0.000    2.375    0.000    3.000    1.750    6.500 
#    0.000    4.375    0.000    1.125    0.000    1.750 
#    0.000    0.000    0.000    0.000    0.000    0.000 
#
# Total GULP energy -356529.775100 kJ/mol
# GULP energy per Si atom -5570.777736 kJ/mol
# Density = 1.876965 g / cm^3
# Si number density = 18.812463 Si / 1000 Ang^3
#
#
#
# Elastic Constant Matrix: (Units=GPa)
#
#
# Indices 1 2 3 4 5 6 
#
# 1 38.2087 37.6887 15.3373 0.0000 0.0000 0.0000
# 2 37.6887 158.3646 44.9596 0.0000 0.0000 0.0000
# 3 15.3373 44.9596 48.1502 0.0000 0.0000 0.0000
# 4 0.0000 0.0000 0.0000 32.7464 0.0000 0.0000
# 5 0.0000 0.0000 0.0000 0.0000 18.8215 0.0000
# 6 0.0000 0.0000 0.0000 0.0000 0.0000 33.5375
#
#
#
# Elastic Compliance Matrix: (Units=1/GPa)
#
#
# Indices 1 2 3 4 5 6 
#
# 1 0.034927 -0.007013 -0.004577 0.000000 0.000000 0.000000
# 2 -0.007013 0.010000 -0.007104 0.000000 0.000000 0.000000
# 3 -0.004577 -0.007104 0.028859 0.000000 0.000000 0.000000
# 4 0.000000 0.000000 0.000000 0.030538 0.000000 0.000000
# 5 0.000000 0.000000 0.000000 0.000000 0.053131 0.000000
# 6 0.000000 0.000000 0.000000 0.000000 0.000000 0.029817
#
#
# Mechanical properties :
#
#
# Convention : Reuss Voigt Hill
#
# Bulk Modulus (GPa) = 27.47339 48.96608 38.21973
# Shear Modulus (GPa) = 21.11554 26.80360 23.95957
#
# Velocity S-wave (km/s) = 3.35389 3.77872 3.57263
# Velocity P-wave (km/s) = 5.44368 6.71739 6.11380
#
# Compressibility (1/GPa) = 0.03639886
#
# Stress axis : x y z
#
# Youngs Moduli (GPa) = 28.63152 99.99769 34.65069
#
# Poissons Ratio (x) = 0.70124 0.15860
# Poissons Ratio (y) = 0.20078 0.24615
# Poissons Ratio (z) = 0.13105 0.71037
#
# Static dielectric constant tensor:
#      x y z
#    x 1.648160 0.000000 0.000000 
#    y 0.000000 1.663900 0.000000 
#    z 0.000000 0.000000 1.699720 
# 
# From -- ./inp_files/27046.got.cif
#   From: 2010.05.17/outbox.ucp.g08.bks.cvg/sg47_14_cif.got.tgz:27046.got - 2010.06.11 16:36:43.
