data_PCOD9389583
_publ_section_title
;
Structure prediction by ZEFSAII (Michael W. Deem and Ramdas Pophale) SiO2 
 PCOD9389583
Probable space group: P N N N
;
_chemical_formula_sum "Si O2"
_cell_formula_units_Z 32
_cell_length_a 9.097731
_cell_length_b 9.536010
_cell_length_c 16.540589
_cell_angle_alpha 90.000000
_cell_angle_beta 90.000000
_cell_angle_gamma 90.000000
_cell_volume 1434.996229
_symmetry_space_group_name_H-M "P N N N"
_symmetry_group_IT_number 48
_space_group.IT_coordinate_system_code '2'
_symmetry_cell_setting 'orthorhombic'
loop_
_space_group_symop_operation_xyz
x,y,z
1/2-x,1/2-y,z
x,1/2-y,1/2-z
1/2-x,y,1/2-z
-x,-y,-z
1/2+x,1/2+y,-z
-x,1/2+y,1/2+z
1/2+x,-y,1/2+z
loop_
_atom_site_type_symbol
_atom_site_label
_atom_site_fract_x
_atom_site_fract_y
_atom_site_fract_z
Si Si1 0.750000 0.567691 0.750000
Si Si2 0.005952 0.624007 0.184605
Si Si3 0.080252 0.197761 0.953624
Si Si4 0.991889 0.107833 0.127408
Si Si5 0.250000 0.929696 0.750000
O O1 0.646701 0.470311 0.696388
O O2 0.633223 0.631204 0.813914
O O3 0.005943 0.750000 0.250000
O O4 0.005956 0.686816 0.096416
O O5 0.863198 0.530389 0.202143
O O6 0.250000 0.250000 0.951322
O O7 0.023716 0.187872 0.044837
O O8 0.045085 0.051426 0.905225
O O9 0.854478 0.144647 0.184222
#
# Coordination Sequence:
#
# PCOD9389583 Si02
#       5
#     4   8   8   8   4
#     4  10  21  34  57  92 116 150 207 252 304 367
#     4  11  17  30  59  87 118 153 190 253 313 357
#     4  11  20  35  57  92 121 153 197 256 314 358
#     4  10  22  34  60  88 120 158 203 250 306 374
#     4  10  17  34  60  88 113 160 204 239 298 375
#
# _framework density 22.299710000000001
#
# number of rings (size 3 to 8) (size 9 to 14) (size 15 to 20)
#    0.000    1.500    7.500    0.750    0.000    0.000 
#    0.000    1.875   11.000    0.000    0.000    0.000 
#    0.000    0.000    0.000    0.000    0.000    0.000 
#
# Total GULP energy -178712.625742 kJ/mol
# GULP energy per Si atom -5584.769554 kJ/mol
# Density = 2.224895 g / cm^3
# Si number density = 22.299710 Si / 1000 Ang^3
#
#
#
# Elastic Constant Matrix: (Units=GPa)
#
#
# Indices 1 2 3 4 5 6 
#
# 1 143.2867 44.3670 73.8916 0.0000 0.0000 0.0000
# 2 44.3670 50.4235 55.7897 0.0000 0.0000 0.0000
# 3 73.8916 55.7897 214.6217 0.0000 0.0000 0.0000
# 4 0.0000 0.0000 0.0000 -191.3115 0.0000 0.0000
# 5 0.0000 0.0000 0.0000 0.0000 12.5951 0.0000
# 6 0.0000 0.0000 0.0000 0.0000 0.0000 25.4920
#
#
#
# Elastic Compliance Matrix: (Units=1/GPa)
#
#
# Indices 1 2 3 4 5 6 
#
# 1 0.009978 -0.006988 -0.001619 0.000000 0.000000 0.000000
# 2 -0.006988 0.032733 -0.006103 0.000000 0.000000 0.000000
# 3 -0.001619 -0.006103 0.006803 0.000000 0.000000 0.000000
# 4 0.000000 0.000000 0.000000 -0.005227 0.000000 0.000000
# 5 0.000000 0.000000 0.000000 0.000000 0.079396 0.000000
# 6 0.000000 0.000000 0.000000 0.000000 0.000000 0.039228
#
#
# Mechanical properties :
#
#
# Convention : Reuss Voigt Hill
#
# Bulk Modulus (GPa) = 49.76510 84.04763 66.90636
# Shear Modulus (GPa) = 25.12205 -15.02597 5.04804
#
# Velocity S-wave (km/s) = 3.36007 -2.59862 1.50620
# Velocity P-wave (km/s) = 6.11706 5.36359 5.75267
#
# Compressibility (1/GPa) = 0.02009440
#
# Stress axis : x y z
#
# Youngs Moduli (GPa) = 100.22512 30.54996 146.99353
#
# Poissons Ratio (x) = 0.21349 0.23792
# Poissons Ratio (y) = 0.70040 0.89708
# Poissons Ratio (z) = 0.16222 0.18644
#
# Static dielectric constant tensor:
#      x y z
#    x 1.729460 0.000000 0.000000 
#    y 0.000000 1.946660 0.000000 
#    z 0.000000 0.000000 1.793080 
# 
# From -- ./inp_files/10177.got.cif
#   From: 2010.05.17/outbox.cif.g08.bks.cpg/sg48_6_cif.got.tgz:10177.got - 2010.06.03 20:39:00.
