data_PCOD9389549
_publ_section_title
;
Structure prediction by ZEFSAII (Michael W. Deem and Ramdas Pophale) SiO2 
 PCOD9389549
Probable space group: P N N N
;
_chemical_formula_sum "Si O2"
_cell_formula_units_Z 58
_cell_length_a 14.793516
_cell_length_b 8.962507
_cell_length_c 23.635281
_cell_angle_alpha 90.000000
_cell_angle_beta 90.000000
_cell_angle_gamma 90.000000
_cell_volume 3133.730782
_symmetry_space_group_name_H-M "P N N N"
_symmetry_group_IT_number 48
_space_group.IT_coordinate_system_code '2'
_symmetry_cell_setting 'orthorhombic'
loop_
_space_group_symop_operation_xyz
x,y,z
1/2-x,1/2-y,z
x,1/2-y,1/2-z
1/2-x,y,1/2-z
-x,-y,-z
1/2+x,1/2+y,-z
-x,1/2+y,1/2+z
1/2+x,-y,1/2+z
loop_
_atom_site_type_symbol
_atom_site_label
_atom_site_fract_x
_atom_site_fract_y
_atom_site_fract_z
Si Si1 0.145395 0.289299 0.136005
Si Si2 0.250000 0.750000 0.750000
Si Si3 0.530048 0.917375 0.775949
Si Si4 0.874919 0.345384 0.154337
Si Si5 0.586727 0.600910 0.514637
Si Si6 0.004288 0.548156 0.655700
Si Si7 0.260238 0.583112 0.542149
Si Si8 0.432775 0.418898 0.955818
O O1 0.250000 0.250000 0.128962
O O2 0.124392 0.393091 0.191171
O O3 0.100194 0.359734 0.080302
O O4 0.088783 0.136966 0.144538
O O5 0.189209 0.653864 0.791426
O O6 0.511262 0.750000 0.750000
O O7 0.459438 0.945016 0.826505
O O8 0.508165 0.011199 0.719899
O O9 0.917376 0.177585 0.148748
O O10 0.816509 0.393570 0.100746
O O11 0.500000 0.500000 0.500000
O O12 0.676199 0.514710 0.496710
O O13 0.579959 0.753012 0.479000
O O14 0.024544 0.430725 0.606736
O O15 0.250000 0.750000 0.518810
O O16 0.163490 0.503894 0.546852
O O17 0.500000 0.500000 0.000000
#
# Coordination Sequence:
#
# PCOD9389549 Si02
#       8
#     8   2   8   8   8   8   8   8
#     4  10  19  35  59  88 122 157 211 268 313 372
#     4  12  12  24  52  84 116 148 188 252 280 352
#     4   8  17  30  53  87 126 150 196 247 310 356
#     4  10  17  30  54  90 119 153 198 241 298 368
#     4  12  25  42  60  86 123 171 214 264 318 374
#     4  10  18  35  56  90 124 159 193 256 315 362
#     4  12  23  37  61  91 122 161 203 250 314 378
#     4  12  23  39  60  86 127 162 206 258 306 376
#
# _framework density 18.508289999999999
#
# number of rings (size 3 to 8) (size 9 to 14) (size 15 to 20)
#    0.000    1.655    5.517    3.724    0.000    2.483 
#    0.000    0.000    0.000    3.310    0.000    0.000 
#    0.000    0.000    0.000    0.000    0.000    0.000 
#
# Total GULP energy -323071.364071 kJ/mol
# GULP energy per Si atom -5570.195932 kJ/mol
# Density = 1.846616 g / cm^3
# Si number density = 18.508290 Si / 1000 Ang^3
#
#
#
# Elastic Constant Matrix: (Units=GPa)
#
#
# Indices 1 2 3 4 5 6 
#
# 1 119.6158 28.8025 37.2910 0.0000 0.0000 0.0000
# 2 28.8025 74.6441 34.8171 0.0000 0.0000 0.0000
# 3 37.2910 34.8171 127.6703 0.0000 0.0000 0.0000
# 4 0.0000 0.0000 0.0000 17.3706 0.0000 0.0000
# 5 0.0000 0.0000 0.0000 0.0000 34.6227 0.0000
# 6 0.0000 0.0000 0.0000 0.0000 0.0000 23.4876
#
#
#
# Elastic Compliance Matrix: (Units=1/GPa)
#
#
# Indices 1 2 3 4 5 6 
#
# 1 0.009672 -0.002766 -0.002071 0.000000 0.000000 0.000000
# 2 -0.002766 0.016141 -0.003594 0.000000 0.000000 0.000000
# 3 -0.002071 -0.003594 0.009418 0.000000 0.000000 0.000000
# 4 0.000000 0.000000 0.000000 0.057569 0.000000 0.000000
# 5 0.000000 0.000000 0.000000 0.000000 0.028883 0.000000
# 6 0.000000 0.000000 0.000000 0.000000 0.000000 0.042576
#
#
# Mechanical properties :
#
#
# Convention : Reuss Voigt Hill
#
# Bulk Modulus (GPa) = 54.44031 58.19459 56.31745
# Shear Modulus (GPa) = 26.70359 29.83081 28.26720
#
# Velocity S-wave (km/s) = 3.80253 4.01902 3.91227
# Velocity P-wave (km/s) = 6.98261 7.28337 7.13457
#
# Compressibility (1/GPa) = 0.01836874
#
# Stress axis : x y z
#
# Youngs Moduli (GPa) = 103.39444 61.95581 106.18483
#
# Poissons Ratio (x) = 0.17138 0.21987
# Poissons Ratio (y) = 0.28600 0.38160
# Poissons Ratio (z) = 0.21409 0.22265
#
# Static dielectric constant tensor:
#      x y z
#    x 1.583820 0.000000 0.000000 
#    y 0.000000 1.639930 0.000000 
#    z 0.000000 0.000000 1.731110 
# 
# From -- ./inp_files/36545.got.cif
#   From: 2010.05.17/outbox.cif.g08.bks.cpg/sg48_19_cif.got.tgz:36545.got - 2010.06.03 20:39:00.
