data_PCOD9389514
_publ_section_title
;
Structure prediction by ZEFSAII (Michael W. Deem and Ramdas Pophale) SiO2 
 PCOD9389514
Probable space group: P N N N
;
_chemical_formula_sum "Si O2"
_cell_formula_units_Z 36
_cell_length_a 13.897088
_cell_length_b 14.646155
_cell_length_c 9.379568
_cell_angle_alpha 90.000000
_cell_angle_beta 90.000000
_cell_angle_gamma 90.000000
_cell_volume 1909.106999
_symmetry_space_group_name_H-M "P N N N"
_symmetry_group_IT_number 48
_space_group.IT_coordinate_system_code '2'
_symmetry_cell_setting 'orthorhombic'
loop_
_space_group_symop_operation_xyz
x,y,z
1/2-x,1/2-y,z
x,1/2-y,1/2-z
1/2-x,y,1/2-z
-x,-y,-z
1/2+x,1/2+y,-z
-x,1/2+y,1/2+z
1/2+x,-y,1/2+z
loop_
_atom_site_type_symbol
_atom_site_label
_atom_site_fract_x
_atom_site_fract_y
_atom_site_fract_z
Si Si1 0.808763 0.663767 0.102254
Si Si2 0.511118 0.750000 0.250000
Si Si3 0.891799 0.492887 0.947533
Si Si4 0.148103 0.895001 0.177736
Si Si5 0.244120 0.640937 0.916239
O O1 0.750000 0.750000 0.038846
O O2 0.750000 0.641882 0.250000
O O3 0.914881 0.700443 0.143273
O O4 0.826534 0.575562 0.006095
O O5 0.438927 0.675561 0.186370
O O6 0.880617 0.479874 0.777756
O O7 0.852853 0.399599 0.018338
O O8 0.000000 0.500000 0.000000
O O9 0.250000 0.861932 0.250000
O O10 0.174417 0.906868 0.012880
O O11 0.250000 0.750000 0.934811
O O12 0.250000 0.619753 0.750000
#
# Coordination Sequence:
#
# PCOD9389514 Si02
#       5
#     8   4   8   8   8
#     4   9  20  35  58  89 132 175 209 259 323 392
#     4  10  16  32  58  94 122 158 214 258 316 388
#     4  11  20  36  63  93 125 167 212 267 316 393
#     4  10  19  32  59  93 122 155 207 257 318 373
#     4  10  22  39  62  89 128 164 208 270 329 373
#
# _framework density 18.856984000000001
#
# number of rings (size 3 to 8) (size 9 to 14) (size 15 to 20)
#    0.000    2.222    2.222    3.667    0.000    0.889 
#    0.000    1.111   19.556    6.000    0.000    0.000 
#    0.000    0.000    0.000    0.000    0.000    0.000 
#
# Total GULP energy -200530.700015 kJ/mol
# GULP energy per Si atom -5570.297223 kJ/mol
# Density = 1.881406 g / cm^3
# Si number density = 18.856984 Si / 1000 Ang^3
#
#
#
# Elastic Constant Matrix: (Units=GPa)
#
#
# Indices 1 2 3 4 5 6 
#
# 1 133.5267 39.9614 37.5597 0.0000 0.0000 0.0000
# 2 39.9614 95.7564 54.1089 0.0000 0.0000 0.0000
# 3 37.5597 54.1089 129.9249 0.0000 0.0000 0.0000
# 4 0.0000 0.0000 0.0000 21.9832 0.0000 0.0000
# 5 0.0000 0.0000 0.0000 0.0000 12.1478 0.0000
# 6 0.0000 0.0000 0.0000 0.0000 0.0000 35.5543
#
#
#
# Elastic Compliance Matrix: (Units=1/GPa)
#
#
# Indices 1 2 3 4 5 6 
#
# 1 0.008727 -0.002898 -0.001316 0.000000 0.000000 0.000000
# 2 -0.002898 0.014620 -0.005251 0.000000 0.000000 0.000000
# 3 -0.001316 -0.005251 0.010264 0.000000 0.000000 0.000000
# 4 0.000000 0.000000 0.000000 0.045489 0.000000 0.000000
# 5 0.000000 0.000000 0.000000 0.000000 0.082320 0.000000
# 6 0.000000 0.000000 0.000000 0.000000 0.000000 0.028126
#
#
# Mechanical properties :
#
#
# Convention : Reuss Voigt Hill
#
# Bulk Modulus (GPa) = 68.11680 69.16313 68.63997
# Shear Modulus (GPa) = 23.43367 29.10893 26.27130
#
# Velocity S-wave (km/s) = 3.52903 3.93322 3.73659
# Velocity P-wave (km/s) = 7.26682 7.57524 7.42263
#
# Compressibility (1/GPa) = 0.01468067
#
# Stress axis : x y z
#
# Youngs Moduli (GPa) = 114.59158 68.40070 97.42955
#
# Poissons Ratio (x) = 0.19825 0.12819
# Poissons Ratio (y) = 0.33213 0.51157
# Poissons Ratio (z) = 0.15077 0.35915
#
# Static dielectric constant tensor:
#      x y z
#    x 1.655970 0.000000 0.000000 
#    y 0.000000 1.688690 0.000000 
#    z 0.000000 0.000000 1.701120 
# 
# From -- ./inp_files/12226.got.cif
#   From: 2010.05.17/outbox.cif.g08.bks.cpg/sg48_7_cif.got.tgz:12226.got - 2010.06.03 20:39:00.
