data_PCOD9389996
_publ_section_title
;
Structure prediction by ZEFSAII (Michael W. Deem and Ramdas Pophale) SiO2 
 PCOD9389996
Probable space group: P N N N
;
_chemical_formula_sum "Si O2"
_cell_formula_units_Z 64
_cell_length_a 19.121787
_cell_length_b 11.312786
_cell_length_c 14.457449
_cell_angle_alpha 90.000000
_cell_angle_beta 90.000000
_cell_angle_gamma 90.000000
_cell_volume 3127.445260
_symmetry_space_group_name_H-M "P N N N"
_symmetry_group_IT_number 48
_space_group.IT_coordinate_system_code '2'
_symmetry_cell_setting 'orthorhombic'
loop_
_space_group_symop_operation_xyz
x,y,z
1/2-x,1/2-y,z
x,1/2-y,1/2-z
1/2-x,y,1/2-z
-x,-y,-z
1/2+x,1/2+y,-z
-x,1/2+y,1/2+z
1/2+x,-y,1/2+z
loop_
_atom_site_type_symbol
_atom_site_label
_atom_site_fract_x
_atom_site_fract_y
_atom_site_fract_z
Si Si1 0.828430 0.108934 0.923730
Si Si2 0.170986 0.265355 0.860130
Si Si3 0.987871 0.872915 0.628967
Si Si4 0.668836 0.381581 0.605947
Si Si5 0.032185 0.384113 0.616350
Si Si6 0.094103 0.039370 0.536538
Si Si7 0.939211 0.150321 0.060082
Si Si8 0.922023 0.021814 0.772017
O O1 0.747909 0.075916 0.912434
O O2 0.832991 0.240980 0.882011
O O3 0.878894 0.019648 0.868096
O O4 0.859549 0.131109 0.025976
O O5 0.250000 0.250000 0.896891
O O6 0.174465 0.250000 0.750000
O O7 0.107574 0.176375 0.886056
O O8 0.146017 0.392317 0.896469
O O9 0.038406 0.760353 0.622778
O O10 0.930585 0.872858 0.546128
O O11 0.031238 0.989887 0.598554
O O12 0.953109 0.902852 0.727007
O O13 0.625581 0.426950 0.517466
O O14 0.633042 0.434794 0.696021
O O15 0.039399 0.524593 0.601038
O O16 0.984069 0.333147 0.534381
O O17 0.984886 0.384755 0.708996
#
# Coordination Sequence:
#
# PCOD9389996 Si02
#       8
#     8   8   8   8   8   8   8   8
#     4  10  20  35  56  89 125 159 200 251 319 381
#     4  11  24  40  59  84 116 157 207 255 301 359
#     4  10  19  35  59  89 118 151 200 253 300 361
#     4  10  20  34  58  91 122 158 197 255 322 378
#     4  10  22  38  58  84 115 161 203 249 303 364
#     4  10  20  35  58  88 117 153 200 250 306 360
#     4  10  20  37  58  85 119 157 202 247 301 371
#     4  10  21  33  56  86 124 159 195 254 308 367
#
# _framework density 20.463986999999999
#
# number of rings (size 3 to 8) (size 9 to 14) (size 15 to 20)
#    0.000    1.875    2.500    1.500    1.750    4.500 
#    0.000    0.000    0.000    0.000    0.000    3.500 
#    0.000    0.000    0.000    0.000    0.000    0.000 
#
# Total GULP energy -356776.280991 kJ/mol
# GULP energy per Si atom -5574.629390 kJ/mol
# Density = 2.041741 g / cm^3
# Si number density = 20.463987 Si / 1000 Ang^3
#
#
#
# Elastic Constant Matrix: (Units=GPa)
#
#
# Indices 1 2 3 4 5 6 
#
# 1 127.5676 16.4482 23.6927 0.0000 0.0000 0.0000
# 2 16.4482 47.0884 17.3212 0.0000 0.0000 0.0000
# 3 23.6927 17.3212 46.7000 0.0000 0.0000 0.0000
# 4 0.0000 0.0000 0.0000 24.3486 0.0000 0.0000
# 5 0.0000 0.0000 0.0000 0.0000 19.7175 0.0000
# 6 0.0000 0.0000 0.0000 0.0000 0.0000 17.7446
#
#
#
# Elastic Compliance Matrix: (Units=1/GPa)
#
#
# Indices 1 2 3 4 5 6 
#
# 1 0.008764 -0.001651 -0.003834 0.000000 0.000000 0.000000
# 2 -0.001651 0.024903 -0.008399 0.000000 0.000000 0.000000
# 3 -0.003834 -0.008399 0.026474 0.000000 0.000000 0.000000
# 4 0.000000 0.000000 0.000000 0.041070 0.000000 0.000000
# 5 0.000000 0.000000 0.000000 0.000000 0.050716 0.000000
# 6 0.000000 0.000000 0.000000 0.000000 0.000000 0.056355
#
#
# Mechanical properties :
#
#
# Convention : Reuss Voigt Hill
#
# Bulk Modulus (GPa) = 30.89030 37.36448 34.12739
# Shear Modulus (GPa) = 20.25600 23.28841 21.77221
#
# Velocity S-wave (km/s) = 3.14958 3.37711 3.26533
# Velocity P-wave (km/s) = 5.32487 5.78833 5.56143
#
# Compressibility (1/GPa) = 0.03237262
#
# Stress axis : x y z
#
# Youngs Moduli (GPa) = 114.10422 40.15604 37.77349
#
# Poissons Ratio (x) = 0.06630 0.14482
# Poissons Ratio (y) = 0.18838 0.31726
# Poissons Ratio (z) = 0.43747 0.33727
#
# Static dielectric constant tensor:
#      x y z
#    x 1.778580 0.000000 0.000000 
#    y 0.000000 1.734520 0.000000 
#    z 0.000000 0.000000 1.766670 
# 
# From -- ./inp_files/28060.got.cif
#   From: 2010.05.17/outbox.cif.g08.bks.cpg/sg48_15_cif.got.tgz:28060.got - 2010.06.03 20:39:00.
