data_PCOD9389163
_publ_section_title
;
Structure prediction by ZEFSAII (Michael W. Deem and Ramdas Pophale) SiO2 
 PCOD9389163
Probable space group: P M M M
;
_chemical_formula_sum "Si O2"
_cell_formula_units_Z 48
_cell_length_a 8.198681
_cell_length_b 7.922105
_cell_length_c 34.675511
_cell_angle_alpha 90.000000
_cell_angle_beta 90.000000
_cell_angle_gamma 90.000000
_cell_volume 2252.202587
_symmetry_space_group_name_H-M "P M M M"
_symmetry_group_IT_number 47
_symmetry_cell_setting 'orthorhombic'
loop_
_space_group_symop_operation_xyz
x,y,z
-x,-y,z
x,-y,-z
-x,y,-z
-x,-y,-z
x,y,-z
-x,y,z
x,-y,z
loop_
_atom_site_type_symbol
_atom_site_label
_atom_site_fract_x
_atom_site_fract_y
_atom_site_fract_z
Si Si1 0.306096 0.304796 0.500000
Si Si2 0.814401 0.304098 0.090565
Si Si3 0.806115 0.304819 0.418974
Si Si4 0.693816 0.695217 0.337978
Si Si5 0.803724 0.303287 0.743349
Si Si6 0.500000 0.292921 0.044953
Si Si7 0.197300 0.810205 0.826671
O O1 0.240618 0.500000 0.500000
O O2 0.500000 0.310801 0.500000
O O3 0.250452 0.227128 0.540552
O O4 0.828391 0.500000 0.079513
O O5 0.666180 0.231257 0.065568
O O6 0.763422 0.297121 0.135672
O O7 0.000000 0.231010 0.087093
O O8 0.740553 0.500000 0.418852
O O9 0.751665 0.226989 0.378338
O O10 0.000000 0.310950 0.419261
O O11 0.500000 0.688741 0.338693
O O12 0.759348 0.500000 0.337760
O O13 0.746208 0.773374 0.297201
O O14 0.755965 0.500000 0.743192
O O15 0.740650 0.233061 0.784009
O O16 0.000000 0.292618 0.743373
O O17 0.500000 0.500000 0.048051
O O18 0.500000 0.250012 0.000000
O O19 0.000000 0.800642 0.823390
O O20 0.244793 0.000000 0.836167
#
# Coordination Sequence:
#
# PCOD9389163 Si02
#       7
#     4   8   8   8   8   4   8
#     4   9  15  21  29  43  65  95 130 169 214 263
#     4   9  17  31  52  76 102 134 169 204 244 289
#     4   9  15  22  32  46  66  95 133 174 215 262
#     4   9  16  25  36  52  75 103 137 178 222 268
#     4   9  16  27  44  64  86 114 149 188 230 278
#     4   9  18  32  51  79 109 133 165 209 249 286
#     4   9  17  30  49  71  95 124 158 197 240 285
#
# _framework density 21.312470000000001
#
# number of rings (size 3 to 8) (size 9 to 14) (size 15 to 20)
#    0.000    3.000    0.000    1.750    0.000    7.333 
#    1.500    2.083    0.000    1.000    0.000    2.333 
#    0.000    0.000    0.000    0.750    0.000   16.333 
#
# Total GULP energy -267349.521761 kJ/mol
# GULP energy per Si atom -5569.781703 kJ/mol
# Density = 2.126396 g / cm^3
# Si number density = 21.312470 Si / 1000 Ang^3
#
#
#
# Elastic Constant Matrix: (Units=GPa)
#
#
# Indices 1 2 3 4 5 6 
#
# 1 61.8353 13.5584 67.4672 0.0000 0.0000 0.0000
# 2 13.5584 14.3972 12.3262 0.0000 0.0000 0.0000
# 3 67.4672 12.3262 184.7221 0.0000 0.0000 0.0000
# 4 0.0000 0.0000 0.0000 -34.1308 0.0000 0.0000
# 5 0.0000 0.0000 0.0000 0.0000 76.7546 0.0000
# 6 0.0000 0.0000 0.0000 0.0000 0.0000 -1.1937
#
#
#
# Elastic Compliance Matrix: (Units=1/GPa)
#
#
# Indices 1 2 3 4 5 6 
#
# 1 0.032101 -0.021416 -0.010295 0.000000 0.000000 0.000000
# 2 -0.021416 0.087954 0.001953 0.000000 0.000000 0.000000
# 3 -0.010295 0.001953 0.009043 0.000000 0.000000 0.000000
# 4 0.000000 0.000000 0.000000 -0.029299 0.000000 0.000000
# 5 0.000000 0.000000 0.000000 0.000000 0.013029 0.000000
# 6 0.000000 0.000000 0.000000 0.000000 0.000000 -0.837698
#
#
# Mechanical properties :
#
#
# Convention : Reuss Voigt Hill
#
# Bulk Modulus (GPa) = 14.37167 49.73979 32.05573
# Shear Modulus (GPa) = -7.78622 19.45955 5.83666
#
# Velocity S-wave (km/s) = -1.91345 3.02497 1.65667
# Velocity P-wave (km/s) = 1.36975 5.96570 4.32815
#
# Compressibility (1/GPa) = 0.06958134
#
# Stress axis : x y z
#
# Youngs Moduli (GPa) = 31.15188 11.36957 110.57732
#
# Poissons Ratio (x) = 0.24349 1.13843
# Poissons Ratio (y) = 0.66715 -0.21595
# Poissons Ratio (z) = 0.32072 -0.02220
#
# Static dielectric constant tensor:
#      x y z
#    x 1.752740 0.000000 0.000000 
#    y 0.000000 1.791830 0.000000 
#    z 0.000000 0.000000 1.811090 
# 
# From -- ./inp_files/34136.got.cif
#   From: 2010.05.17/outbox.cif.g08.bks.cpg/sg47_18_cif.got.tgz:34136.got - 2010.06.03 20:15:42.
