data_PCOD9389146
_publ_section_title
;
Structure prediction by ZEFSAII (Michael W. Deem and Ramdas Pophale) SiO2 
 PCOD9389146
Probable space group: P M M M
;
_chemical_formula_sum "Si O2"
_cell_formula_units_Z 52
_cell_length_a 10.097081
_cell_length_b 7.620588
_cell_length_c 36.384118
_cell_angle_alpha 90.000000
_cell_angle_beta 90.000000
_cell_angle_gamma 90.000000
_cell_volume 2799.601221
_symmetry_space_group_name_H-M "P M M M"
_symmetry_group_IT_number 47
_symmetry_cell_setting 'orthorhombic'
loop_
_space_group_symop_operation_xyz
x,y,z
-x,-y,z
x,-y,-z
-x,y,-z
-x,-y,-z
x,y,-z
-x,y,z
x,-y,z
loop_
_atom_site_type_symbol
_atom_site_label
_atom_site_fract_x
_atom_site_fract_y
_atom_site_fract_z
Si Si1 0.651027 0.289504 0.166008
Si Si2 0.350133 0.710556 0.459070
Si Si3 0.839757 0.000000 0.958376
Si Si4 0.850826 0.789969 0.394162
Si Si5 0.847298 0.785550 0.311954
Si Si6 0.349800 0.210200 0.249180
Si Si7 0.157097 0.709085 0.100151
O O1 0.500000 0.222336 0.160804
O O2 0.645302 0.500000 0.163769
O O3 0.693936 0.244801 0.207410
O O4 0.753715 0.233621 0.134756
O O5 0.309995 0.773242 0.500000
O O6 0.500000 0.774620 0.451781
O O7 0.356351 0.500000 0.460861
O O8 0.249742 0.752187 0.426703
O O9 0.804660 0.172335 0.934757
O O10 0.000000 0.000000 0.960553
O O11 0.788108 0.000000 0.000000
O O12 0.809584 0.728627 0.353337
O O13 0.000000 0.723718 0.401703
O O14 0.859176 0.000000 0.391577
O O15 0.749363 0.722226 0.280252
O O16 0.000000 0.734273 0.305628
O O17 0.844619 0.000000 0.311359
O O18 0.500000 0.279068 0.253095
O O19 0.355901 0.000000 0.253450
O O20 0.175809 0.500000 0.093729
O O21 0.000000 0.736107 0.107483
#
# Coordination Sequence:
#
# PCOD9389146 Si02
#       7
#     8   8   4   8   8   8   8
#     4   9  18  32  48  67  95 130 162 196 243 291
#     4   9  19  35  51  68  93 123 155 193 237 286
#     4   9  18  32  51  77 105 131 165 209 253 299
#     4   9  18  32  50  72  97 124 156 195 237 285
#     4   8  15  29  46  65  92 123 153 188 233 281
#     4   9  17  28  44  67  91 118 156 196 231 275
#     4   9  18  32  50  73 100 130 166 207 249 296
#
# _framework density 18.574072999999999
#
# number of rings (size 3 to 8) (size 9 to 14) (size 15 to 20)
#    0.000    3.154    0.000    1.385    1.077    2.769 
#    0.000    6.154    0.000    3.692    0.000    2.154 
#    0.000    0.000    0.000    0.000    0.000    0.000 
#
# Total GULP energy -289750.248696 kJ/mol
# GULP energy per Si atom -5572.120167 kJ/mol
# Density = 1.853180 g / cm^3
# Si number density = 18.574073 Si / 1000 Ang^3
#
#
#
# Elastic Constant Matrix: (Units=GPa)
#
#
# Indices 1 2 3 4 5 6 
#
# 1 86.9730 22.0920 117.9447 0.0000 0.0000 0.0000
# 2 22.0920 45.1732 31.6147 0.0000 0.0000 0.0000
# 3 117.9447 31.6147 214.8890 0.0000 0.0000 0.0000
# 4 0.0000 0.0000 0.0000 37.9166 0.0000 0.0000
# 5 0.0000 0.0000 0.0000 0.0000 326.6098 0.0000
# 6 0.0000 0.0000 0.0000 0.0000 0.0000 13.8428
#
#
#
# Elastic Compliance Matrix: (Units=1/GPa)
#
#
# Indices 1 2 3 4 5 6 
#
# 1 0.046119 -0.005395 -0.024519 0.000000 0.000000 0.000000
# 2 -0.005395 0.025309 -0.000763 0.000000 0.000000 0.000000
# 3 -0.024519 -0.000763 0.018224 0.000000 0.000000 0.000000
# 4 0.000000 0.000000 0.000000 0.026374 0.000000 0.000000
# 5 0.000000 0.000000 0.000000 0.000000 0.003062 0.000000
# 6 0.000000 0.000000 0.000000 0.000000 0.000000 0.072240
#
#
# Mechanical properties :
#
#
# Convention : Reuss Voigt Hill
#
# Bulk Modulus (GPa) = 35.33768 76.70425 56.02096
# Shear Modulus (GPa) = 19.07576 87.36609 53.22093
#
# Velocity S-wave (km/s) = 3.20818 6.86576 5.35869
# Velocity P-wave (km/s) = 5.72624 10.20968 8.27730
#
# Compressibility (1/GPa) = 0.02829840
#
# Stress axis : x y z
#
# Youngs Moduli (GPa) = 21.68304 39.51171 54.87403
#
# Poissons Ratio (x) = 0.21315 1.34548
# Poissons Ratio (y) = 0.11697 0.04185
# Poissons Ratio (z) = 0.53165 0.03013
#
# Static dielectric constant tensor:
#      x y z
#    x 1.637930 0.000000 0.000000 
#    y 0.000000 1.696090 0.000000 
#    z 0.000000 0.000000 1.628390 
# 
# From -- ./inp_files/34508.got.cif
#   From: 2010.05.17/outbox.cif.g08.bks.cpg/sg47_18_cif.got.tgz:34508.got - 2010.06.03 20:15:42.
