data_PCOD9389041
_publ_section_title
;
Structure prediction by ZEFSAII (Michael W. Deem and Ramdas Pophale) SiO2 
 PCOD9389041
Probable space group: P M M M
;
_chemical_formula_sum "Si O2"
_cell_formula_units_Z 52
_cell_length_a 27.629286
_cell_length_b 14.247129
_cell_length_c 7.771056
_cell_angle_alpha 90.000000
_cell_angle_beta 90.000000
_cell_angle_gamma 90.000000
_cell_volume 3058.982956
_symmetry_space_group_name_H-M "P M M M"
_symmetry_group_IT_number 47
_symmetry_cell_setting 'orthorhombic'
loop_
_space_group_symop_operation_xyz
x,y,z
-x,-y,z
x,-y,-z
-x,y,-z
-x,-y,-z
x,y,-z
-x,y,z
x,-y,z
loop_
_atom_site_type_symbol
_atom_site_label
_atom_site_fract_x
_atom_site_fract_y
_atom_site_fract_z
Si Si1 0.500000 0.106884 0.204588
Si Si2 0.850529 0.288187 0.206611
Si Si3 0.245928 0.605854 0.207098
Si Si4 0.796896 0.894207 0.292693
Si Si5 0.394926 0.107814 0.706022
Si Si6 0.945817 0.608888 0.789940
Si Si7 0.299706 0.788369 0.707057
O O1 0.551654 0.148015 0.257658
O O2 0.500000 0.000000 0.277392
O O3 0.500000 0.101903 0.000000
O O4 0.804965 0.350104 0.271250
O O5 0.838030 0.180707 0.246773
O O6 0.901652 0.327089 0.271296
O O7 0.851021 0.298038 0.000000
O O8 0.253347 0.500000 0.270752
O O9 0.287310 0.681060 0.249998
O O10 0.242749 0.601938 0.000000
O O11 0.794189 0.897615 0.500000
O O12 0.745855 0.850621 0.229800
O O13 0.804228 0.000000 0.229372
O O14 0.390172 0.102215 0.500000
O O15 0.350325 0.169852 0.771664
O O16 0.392430 0.000000 0.773027
O O17 0.937546 0.500000 0.742180
O O18 0.000000 0.636036 0.733510
O O19 0.946001 0.611448 0.000000
O O20 0.300033 0.795596 0.500000
#
# Coordination Sequence:
#
# PCOD9389041 Si02
#       7
#     4   8   8   8   8   8   8
#     4   9  17  27  39  59  86 113 140 169 201 238
#     4   9  16  26  42  63  84 106 135 170 204 241
#     4   9  17  28  41  59  85 113 136 161 200 249
#     4   9  17  29  43  59  82 111 140 169 203 243
#     4   9  16  27  43  61  83 111 140 169 202 240
#     4   8  13  22  39  63  86 106 131 166 208 250
#     4   9  17  28  43  63  83 106 139 174 204 236
#
# _framework density 16.999113000000001
#
# number of rings (size 3 to 8) (size 9 to 14) (size 15 to 20)
#    0.000    3.154    0.000    1.615    0.000    5.846 
#    0.000    0.000    0.000    5.077    0.000    4.846 
#    0.000    4.308    0.000    0.000    0.000    0.000 
#
# Total GULP energy -289656.822653 kJ/mol
# GULP energy per Si atom -5570.323513 kJ/mol
# Density = 1.696042 g / cm^3
# Si number density = 16.999113 Si / 1000 Ang^3
#
#
#
# Elastic Constant Matrix: (Units=GPa)
#
#
# Indices 1 2 3 4 5 6 
#
# 1 157.6261 91.7555 5.8991 0.0000 0.0000 0.0000
# 2 91.7555 133.2736 3.7176 0.0000 0.0000 0.0000
# 3 5.8991 3.7176 22.2888 0.0000 0.0000 0.0000
# 4 0.0000 0.0000 0.0000 23.3220 0.0000 0.0000
# 5 0.0000 0.0000 0.0000 0.0000 11.9353 0.0000
# 6 0.0000 0.0000 0.0000 0.0000 0.0000 24.3191
#
#
#
# Elastic Compliance Matrix: (Units=1/GPa)
#
#
# Indices 1 2 3 4 5 6 
#
# 1 0.010644 -0.007283 -0.001602 0.000000 0.000000 0.000000
# 2 -0.007283 0.012522 -0.000161 0.000000 0.000000 0.000000
# 3 -0.001602 -0.000161 0.045317 0.000000 0.000000 0.000000
# 4 0.000000 0.000000 0.000000 0.042878 0.000000 0.000000
# 5 0.000000 0.000000 0.000000 0.000000 0.083785 0.000000
# 6 0.000000 0.000000 0.000000 0.000000 0.000000 0.041120
#
#
# Mechanical properties :
#
#
# Convention : Reuss Voigt Hill
#
# Bulk Modulus (GPa) = 19.84540 57.32586 38.58563
# Shear Modulus (GPa) = 18.43966 26.03638 22.23802
#
# Velocity S-wave (km/s) = 3.29712 3.91785 3.62081
# Velocity P-wave (km/s) = 5.11804 7.36628 6.34257
#
# Compressibility (1/GPa) = 0.05038950
#
# Stress axis : x y z
#
# Youngs Moduli (GPa) = 93.95207 79.85834 22.06701
#
# Poissons Ratio (x) = 0.58163 0.03536
# Poissons Ratio (y) = 0.68428 0.00355
# Poissons Ratio (z) = 0.15053 0.01286
#
# Static dielectric constant tensor:
#      x y z
#    x 1.589360 0.000000 0.000000 
#    y 0.000000 1.562240 0.000000 
#    z 0.000000 0.000000 1.629260 
# 
# From -- ./inp_files/12498.got.cif
#   From: 2010.05.17/outbox.cif.g08.bks.cpg/sg47_7_cif.got.tgz:12498.got - 2010.06.03 20:15:42.
