data_PCOD9389861
_publ_section_title
;
Structure prediction by ZEFSAII (Michael W. Deem and Ramdas Pophale) SiO2 
 PCOD9389861
Probable space group: P N N N
;
_chemical_formula_sum "Si O2"
_cell_formula_units_Z 48
_cell_length_a 11.647844
_cell_length_b 22.914513
_cell_length_c 9.017258
_cell_angle_alpha 90.000000
_cell_angle_beta 90.000000
_cell_angle_gamma 90.000000
_cell_volume 2406.748296
_symmetry_space_group_name_H-M "P N N N"
_symmetry_group_IT_number 48
_space_group.IT_coordinate_system_code '2'
_symmetry_cell_setting 'orthorhombic'
loop_
_space_group_symop_operation_xyz
x,y,z
1/2-x,1/2-y,z
x,1/2-y,1/2-z
1/2-x,y,1/2-z
-x,-y,-z
1/2+x,1/2+y,-z
-x,1/2+y,1/2+z
1/2+x,-y,1/2+z
loop_
_atom_site_type_symbol
_atom_site_label
_atom_site_fract_x
_atom_site_fract_y
_atom_site_fract_z
Si Si1 0.013706 0.009872 0.244566
Si Si2 0.738082 0.646290 0.419133
Si Si3 0.992861 0.626067 0.914762
Si Si4 0.633393 0.685250 0.815697
Si Si5 0.335274 0.585471 0.380157
Si Si6 0.315019 0.484788 0.970727
O O1 0.021436 0.057609 0.373741
O O2 0.057601 0.947322 0.301363
O O3 0.099913 0.026429 0.110501
O O4 0.889537 0.005686 0.169560
O O5 0.750000 0.663804 0.250000
O O6 0.611063 0.653213 0.488785
O O7 0.836614 0.679741 0.512927
O O8 0.759760 0.576950 0.433609
O O9 0.977572 0.654776 0.752580
O O10 0.110011 0.631024 0.005796
O O11 0.632006 0.750000 0.750000
O O12 0.750000 0.654900 0.750000
O O13 0.250000 0.606234 0.250000
O O14 0.269483 0.534951 0.471770
#
# Coordination Sequence:
#
# PCOD9389861 Si02
#       6
#     8   8   8   8   8   8
#     4  10  19  32  50  78 118 155 192 220 283 349
#     4  11  21  33  57  87 120 151 185 230 292 348
#     4  11  20  35  56  78 115 158 192 232 291 350
#     4   9  20  39  60  83 113 150 191 246 298 347
#     4  10  21  33  48  77 121 156 192 230 278 342
#     4  10  20  31  49  81 123 155 182 231 272 347
#
# _framework density 19.943923000000002
#
# number of rings (size 3 to 8) (size 9 to 14) (size 15 to 20)
#    0.000    1.833    3.333    1.500    2.333    0.000 
#    0.000    6.667    0.000    0.000    0.000    2.333 
#    5.000    0.000    0.000    0.000    0.000    0.000 
#
# Total GULP energy -267770.901023 kJ/mol
# GULP energy per Si atom -5578.560438 kJ/mol
# Density = 1.989853 g / cm^3
# Si number density = 19.943923 Si / 1000 Ang^3
#
#
#
# Elastic Constant Matrix: (Units=GPa)
#
#
# Indices 1 2 3 4 5 6 
#
# 1 77.8740 21.9111 46.1297 0.0000 0.0000 0.0000
# 2 21.9111 36.5081 23.0173 0.0000 0.0000 0.0000
# 3 46.1297 23.0173 141.2329 0.0000 0.0000 0.0000
# 4 0.0000 0.0000 0.0000 5.4853 0.0000 0.0000
# 5 0.0000 0.0000 0.0000 0.0000 34.9351 0.0000
# 6 0.0000 0.0000 0.0000 0.0000 0.0000 9.1436
#
#
#
# Elastic Compliance Matrix: (Units=1/GPa)
#
#
# Indices 1 2 3 4 5 6 
#
# 1 0.017705 -0.007779 -0.004515 0.000000 0.000000 0.000000
# 2 -0.007779 0.033946 -0.002991 0.000000 0.000000 0.000000
# 3 -0.004515 -0.002991 0.009043 0.000000 0.000000 0.000000
# 4 0.000000 0.000000 0.000000 0.182304 0.000000 0.000000
# 5 0.000000 0.000000 0.000000 0.000000 0.028625 0.000000
# 6 0.000000 0.000000 0.000000 0.000000 0.000000 0.109366
#
#
# Mechanical properties :
#
#
# Convention : Reuss Voigt Hill
#
# Bulk Modulus (GPa) = 33.19817 48.63681 40.91749
# Shear Modulus (GPa) = 11.85958 20.88325 16.37142
#
# Velocity S-wave (km/s) = 2.44118 3.23940 2.86820
# Velocity P-wave (km/s) = 4.96263 6.19930 5.61512
#
# Compressibility (1/GPa) = 0.03012214
#
# Stress axis : x y z
#
# Youngs Moduli (GPa) = 56.48275 29.45846 110.58663
#
# Poissons Ratio (x) = 0.22917 0.49928
# Poissons Ratio (y) = 0.43939 0.33081
# Poissons Ratio (z) = 0.25501 0.08812
#
# Static dielectric constant tensor:
#      x y z
#    x 1.735470 0.000000 0.000000 
#    y 0.000000 1.709160 0.000000 
#    z 0.000000 0.000000 1.790040 
# 
# From -- ./inp_files/11251.got.cif
#   From: 2010.05.17/outbox.cif.g08.bks.cpg/sg48_6_cif.got.tgz:11251.got - 2010.06.03 20:39:00.
