data_PCOD9389229
_publ_section_title
;
Structure prediction by ZEFSAII (Michael W. Deem and Ramdas Pophale) SiO2 
 PCOD9389229
Probable space group: P M M M
;
_chemical_formula_sum "Si O2"
_cell_formula_units_Z 64
_cell_length_a 9.000000
_cell_length_b 30.000000
_cell_length_c 15.000000
_cell_angle_alpha 90.000000
_cell_angle_beta 90.000000
_cell_angle_gamma 90.000000
_cell_volume 4050.000000
_symmetry_space_group_name_H-M "P M M M"
_symmetry_group_IT_number 47
_symmetry_cell_setting 'orthorhombic'
loop_
_space_group_symop_operation_xyz
x,y,z
-x,-y,z
x,-y,-z
-x,y,-z
-x,-y,-z
x,y,-z
-x,y,z
x,-y,z
loop_
_atom_site_type_symbol
_atom_site_label
_atom_site_fract_x
_atom_site_fract_y
_atom_site_fract_z
Si Si1 0.179511 0.279692 0.220834
Si Si2 0.321834 0.145630 0.400839
Si Si3 0.824437 0.886870 0.225954
Si Si4 0.821746 0.638251 0.897629
Si Si5 0.678504 0.749448 0.399891
Si Si6 0.330166 0.053162 0.901668
Si Si7 0.327343 0.548407 0.108124
Si Si8 0.180978 0.805064 0.102219
O O1 0.229296 0.323344 0.168128
O O2 0.245714 0.275678 0.318870
O O3 0.224968 0.237897 0.159425
O O4 0.000000 0.279313 0.226441
O O5 0.274839 0.131500 0.500000
O O6 0.500000 0.142410 0.396156
O O7 0.249456 0.119005 0.321206
O O8 0.283686 0.198017 0.390748
O O9 0.775688 0.931040 0.175889
O O10 0.771412 0.847866 0.158653
O O11 0.000000 0.883121 0.235165
O O12 0.767219 0.590515 0.864511
O O13 0.000000 0.639182 0.900223
O O14 0.769813 0.645460 0.000000
O O15 0.722683 0.735386 0.500000
O O16 0.500000 0.745868 0.393857
O O17 0.500000 0.068707 0.887036
O O18 0.333874 0.000000 0.904377
O O19 0.280792 0.069122 0.000000
O O20 0.500000 0.553643 0.132596
O O21 0.274365 0.500000 0.139598
O O22 0.321827 0.547607 0.000000
O O23 0.000000 0.805371 0.098912
O O24 0.233395 0.804421 0.000000
#
# Coordination Sequence:
#
# PCOD9389229 Si02
#       8
#     8   8   8   8   8   8   8   8
#     4  10  18  29  44  63  89 122 156 187 220 264
#     4   9  18  33  51  69  92 123 157 193 233 277
#     4  11  20  30  49  76 100 123 153 192 235 275
#     4   9  17  27  40  60  87 121 156 187 222 264
#     4   9  18  32  48  65  87 116 151 193 235 269
#     4   9  19  36  55  73  96 128 161 191 226 270
#     4   8  14  25  40  57  79 110 149 192 233 268
#     4   9  17  28  41  61  92 126 154 180 214 259
#
# _framework density 15.802469
#
# number of rings (size 3 to 8) (size 9 to 14) (size 15 to 20)
#    0.000    2.750    1.250    2.625    0.000    3.750 
#    0.000    3.125    0.000    2.250    0.000    2.625 
#    0.000    0.500    0.000    5.500    0.000    4.250 
#
# Total GULP energy -356375.221999 kJ/mol
# GULP energy per Si atom -5568.362844 kJ/mol
# Density = 1.576650 g / cm^3
# Si number density = 15.802469 Si / 1000 Ang^3
#
#
#
# Elastic Constant Matrix: (Units=GPa)
#
#
# Indices 1 2 3 4 5 6 
#
# 1 6.5027 16.3278 29.1532 0.0000 0.0000 0.0000
# 2 16.3278 53.6075 41.6773 0.0000 0.0000 0.0000
# 3 29.1532 41.6773 117.3517 0.0000 0.0000 0.0000
# 4 0.0000 0.0000 0.0000 -18.0625 0.0000 0.0000
# 5 0.0000 0.0000 0.0000 0.0000 20.9969 0.0000
# 6 0.0000 0.0000 0.0000 0.0000 0.0000 17.2039
#
#
#
# Elastic Compliance Matrix: (Units=1/GPa)
#
#
# Indices 1 2 3 4 5 6 
#
# 1 -0.602603 0.092770 0.116755 0.000000 0.000000 0.000000
# 2 0.092770 0.011488 -0.027126 0.000000 0.000000 0.000000
# 3 0.116755 -0.027126 -0.010850 0.000000 0.000000 0.000000
# 4 0.000000 0.000000 0.000000 -0.055363 0.000000 0.000000
# 5 0.000000 0.000000 0.000000 0.000000 0.047626 0.000000
# 6 0.000000 0.000000 0.000000 0.000000 0.000000 0.058126
#
#
# Mechanical properties :
#
#
# Convention : Reuss Voigt Hill
#
# Bulk Modulus (GPa) = -4.21642 39.08652 17.43505
# Shear Modulus (GPa) = -5.02296 10.04789 2.51246
#
# Velocity S-wave (km/s) = -1.78479 2.52433 1.26229
# Velocity P-wave (km/s) = 2.63084 5.76927 3.63064
#
# Compressibility (1/GPa) = -0.23716792
#
# Stress axis : x y z
#
# Youngs Moduli (GPa) = -1.65947 87.05060 -92.16738
#
# Poissons Ratio (x) = -8.07566 10.76103
# Poissons Ratio (y) = 0.15395 -2.50015
# Poissons Ratio (z) = 0.19375 2.36135
#
# Static dielectric constant tensor:
#      x y z
#    x 1.535110 0.000000 0.000000 
#    y 0.000000 1.547160 0.000000 
#    z 0.000000 0.000000 1.514440 
# 
# From -- ./inp_files/8348.got.cif
#   From: 2010.05.17/outbox.ucp.g08.bks.cvg/sg47_5_cif.got.tgz:8348.got - 2010.06.11 16:36:43.
