data_PCOD9389631
_publ_section_title
;
Structure prediction by ZEFSAII (Michael W. Deem and Ramdas Pophale) SiO2 
 PCOD9389631
Probable space group: P N N N
;
_chemical_formula_sum "Si O2"
_cell_formula_units_Z 44
_cell_length_a 10.260696
_cell_length_b 8.342329
_cell_length_c 26.080357
_cell_angle_alpha 90.000000
_cell_angle_beta 90.000000
_cell_angle_gamma 90.000000
_cell_volume 2232.429053
_symmetry_space_group_name_H-M "P N N N"
_symmetry_group_IT_number 48
_space_group.IT_coordinate_system_code '2'
_symmetry_cell_setting 'orthorhombic'
loop_
_space_group_symop_operation_xyz
x,y,z
1/2-x,1/2-y,z
x,1/2-y,1/2-z
1/2-x,y,1/2-z
-x,-y,-z
1/2+x,1/2+y,-z
-x,1/2+y,1/2+z
1/2+x,-y,1/2+z
loop_
_atom_site_type_symbol
_atom_site_label
_atom_site_fract_x
_atom_site_fract_y
_atom_site_fract_z
Si Si1 0.750000 0.750000 0.491722
Si Si2 0.405964 0.539620 0.952268
Si Si3 0.409119 0.565639 0.138858
Si Si4 0.397342 0.554592 0.361042
Si Si5 0.592246 0.566202 0.750323
Si Si6 0.999178 0.130539 0.455136
O O1 0.788890 0.590708 0.458537
O O2 0.868192 0.780514 0.529855
O O3 0.489224 0.508861 0.900816
O O4 0.389804 0.732003 0.955784
O O5 0.500000 0.500000 0.000000
O O6 0.409455 0.756154 0.130018
O O7 0.257212 0.512227 0.132140
O O8 0.446014 0.522091 0.197329
O O9 0.441085 0.517597 0.303119
O O10 0.482495 0.456215 0.401212
O O11 0.546753 0.750000 0.750000
O O12 0.750000 0.567888 0.750000
O O13 0.000000 0.000000 0.500000
#
# Coordination Sequence:
#
# PCOD9389631 Si02
#       6
#     4   8   8   8   8   8
#     4  10  22  38  54  76 110 142 182 228 268 324
#     4  10  20  35  52  73 103 141 180 220 269 321
#     4  10  19  31  49  75 107 143 178 216 266 327
#     4  10  18  30  49  75 109 141 175 219 267 323
#     4   9  17  28  45  71 104 140 174 213 265 322
#     4  11  22  35  54  80 107 141 180 220 272 328
#
# _framework density 19.709472000000002
#
# number of rings (size 3 to 8) (size 9 to 14) (size 15 to 20)
#    0.000    2.000    0.000    6.000    0.000    7.273 
#    0.000    0.000    0.000    0.000    0.000   10.182 
#    0.000   14.545    0.000    0.000    0.000    0.000 
#
# Total GULP energy -245310.361672 kJ/mol
# GULP energy per Si atom -5575.235493 kJ/mol
# Density = 1.966461 g / cm^3
# Si number density = 19.709472 Si / 1000 Ang^3
#
#
#
# Elastic Constant Matrix: (Units=GPa)
#
#
# Indices 1 2 3 4 5 6 
#
# 1 56.6745 29.4499 25.2846 0.0000 0.0000 0.0000
# 2 29.4499 125.0213 45.5057 0.0000 0.0000 0.0000
# 3 25.2846 45.5057 134.6824 0.0000 0.0000 0.0000
# 4 0.0000 0.0000 0.0000 42.2076 0.0000 0.0000
# 5 0.0000 0.0000 0.0000 0.0000 19.9069 0.0000
# 6 0.0000 0.0000 0.0000 0.0000 0.0000 27.0535
#
#
#
# Elastic Compliance Matrix: (Units=1/GPa)
#
#
# Indices 1 2 3 4 5 6 
#
# 1 0.020859 -0.003977 -0.002572 0.000000 0.000000 0.000000
# 2 -0.003977 0.009879 -0.002591 0.000000 0.000000 0.000000
# 3 -0.002572 -0.002591 0.008783 0.000000 0.000000 0.000000
# 4 0.000000 0.000000 0.000000 0.023692 0.000000 0.000000
# 5 0.000000 0.000000 0.000000 0.000000 0.050234 0.000000
# 6 0.000000 0.000000 0.000000 0.000000 0.000000 0.036964
#
#
# Mechanical properties :
#
#
# Convention : Reuss Voigt Hill
#
# Bulk Modulus (GPa) = 47.08147 57.42874 52.25510
# Shear Modulus (GPa) = 28.44599 32.24279 30.34439
#
# Velocity S-wave (km/s) = 3.80315 4.04902 3.92801
# Velocity P-wave (km/s) = 6.57456 7.14565 6.86605
#
# Compressibility (1/GPa) = 0.02123978
#
# Stress axis : x y z
#
# Youngs Moduli (GPa) = 47.94121 101.22862 113.85372
#
# Poissons Ratio (x) = 0.40262 0.29284
# Poissons Ratio (y) = 0.19068 0.29500
# Poissons Ratio (z) = 0.12331 0.26229
#
# Static dielectric constant tensor:
#      x y z
#    x 1.732180 0.000000 0.000000 
#    y 0.000000 1.841170 0.000000 
#    z 0.000000 0.000000 1.661500 
# 
# From -- ./inp_files/36272.got.cif
#   From: 2010.05.17/outbox.cif.g08.bks.cpg/sg48_19_cif.got.tgz:36272.got - 2010.06.03 20:39:00.
