data_PCOD9389924
_publ_section_title
;
Structure prediction by ZEFSAII (Michael W. Deem and Ramdas Pophale) SiO2 
 PCOD9389924
Probable space group: P N N N
;
_chemical_formula_sum "Si O2"
_cell_formula_units_Z 64
_cell_length_a 18.426500
_cell_length_b 20.124438
_cell_length_c 9.459470
_cell_angle_alpha 90.000000
_cell_angle_beta 90.000000
_cell_angle_gamma 90.000000
_cell_volume 3507.788635
_symmetry_space_group_name_H-M "P N N N"
_symmetry_group_IT_number 48
_space_group.IT_coordinate_system_code '2'
_symmetry_cell_setting 'orthorhombic'
loop_
_space_group_symop_operation_xyz
x,y,z
1/2-x,1/2-y,z
x,1/2-y,1/2-z
1/2-x,y,1/2-z
-x,-y,-z
1/2+x,1/2+y,-z
-x,1/2+y,1/2+z
1/2+x,-y,1/2+z
loop_
_atom_site_type_symbol
_atom_site_label
_atom_site_fract_x
_atom_site_fract_y
_atom_site_fract_z
Si Si1 0.077206 0.499035 0.188544
Si Si2 0.832763 0.067489 0.213969
Si Si3 0.431198 0.335185 0.889346
Si Si4 0.454152 0.912171 0.916838
Si Si5 0.301686 0.395433 0.377116
Si Si6 0.425253 0.319752 0.551423
Si Si7 0.051936 0.564910 0.470621
Si Si8 0.203107 0.079191 0.871690
O O1 0.143401 0.448567 0.188341
O O2 0.082793 0.548594 0.316797
O O3 0.004116 0.454800 0.190739
O O4 0.069146 0.539878 0.044423
O O5 0.750000 0.086911 0.250000
O O6 0.881302 0.101925 0.333535
O O7 0.828343 0.986193 0.206093
O O8 0.880192 0.078941 0.072655
O O9 0.429275 0.340948 0.717190
O O10 0.428032 0.259606 0.939943
O O11 0.499392 0.372350 0.955914
O O12 0.359858 0.375283 0.931964
O O13 0.505566 0.853963 0.975314
O O14 0.250000 0.369126 0.250000
O O15 0.353566 0.344815 0.466323
O O16 0.254585 0.434058 0.495493
O O17 0.000000 0.500000 0.500000
O O18 0.250000 0.115182 0.750000
#
# Coordination Sequence:
#
# PCOD9389924 Si02
#       8
#     8   8   8   8   8   8   8   8
#     4  10  19  33  58  85 116 158 201 245 301 347
#     4  11  23  36  60  93 125 152 193 253 323 370
#     4  11  22  40  64  87 115 166 216 250 287 373
#     4  10  19  36  59  85 117 154 198 258 303 343
#     4  11  23  36  56  89 130 164 196 247 304 363
#     4  10  23  41  61  86 118 165 217 241 295 365
#     4  12  21  37  63  91 118 158 203 257 307 361
#     4  11  20  36  58  88 127 166 199 238 297 375
#
# _framework density 18.245113
#
# number of rings (size 3 to 8) (size 9 to 14) (size 15 to 20)
#    0.000    1.250    5.000    2.250    1.750    0.500 
#    0.000    3.125    0.000    1.500    0.000    1.750 
#    0.000    0.000    0.000    0.000    0.000    0.000 
#
# Total GULP energy -356669.429687 kJ/mol
# GULP energy per Si atom -5572.959839 kJ/mol
# Density = 1.820359 g / cm^3
# Si number density = 18.245113 Si / 1000 Ang^3
#
#
#
# Elastic Constant Matrix: (Units=GPa)
#
#
# Indices 1 2 3 4 5 6 
#
# 1 133.9670 35.3765 48.2242 0.0000 0.0000 0.0000
# 2 35.3765 55.2898 12.8110 0.0000 0.0000 0.0000
# 3 48.2242 12.8110 67.4794 0.0000 0.0000 0.0000
# 4 0.0000 0.0000 0.0000 17.4545 0.0000 0.0000
# 5 0.0000 0.0000 0.0000 0.0000 29.0834 0.0000
# 6 0.0000 0.0000 0.0000 0.0000 0.0000 12.7730
#
#
#
# Elastic Compliance Matrix: (Units=1/GPa)
#
#
# Indices 1 2 3 4 5 6 
#
# 1 0.011561 -0.005735 -0.007173 0.000000 0.000000 0.000000
# 2 -0.005735 0.021764 -0.000033 0.000000 0.000000 0.000000
# 3 -0.007173 -0.000033 0.019952 0.000000 0.000000 0.000000
# 4 0.000000 0.000000 0.000000 0.057292 0.000000 0.000000
# 5 0.000000 0.000000 0.000000 0.000000 0.034384 0.000000
# 6 0.000000 0.000000 0.000000 0.000000 0.000000 0.078290
#
#
# Mechanical properties :
#
#
# Convention : Reuss Voigt Hill
#
# Bulk Modulus (GPa) = 36.50495 49.95107 43.22801
# Shear Modulus (GPa) = 19.36050 22.55049 20.95549
#
# Velocity S-wave (km/s) = 3.26104 3.51946 3.39271
# Velocity P-wave (km/s) = 5.85070 6.62968 6.25233
#
# Compressibility (1/GPa) = 0.02739354
#
# Stress axis : x y z
#
# Youngs Moduli (GPa) = 86.49601 45.94786 50.11996
#
# Poissons Ratio (x) = 0.26352 0.35953
# Poissons Ratio (y) = 0.49607 0.00166
# Poissons Ratio (z) = 0.62047 0.00153
#
# Static dielectric constant tensor:
#      x y z
#    x 1.654330 0.000000 0.000000 
#    y 0.000000 1.597170 0.000000 
#    z 0.000000 0.000000 1.670910 
# 
# From -- ./inp_files/14592.got.cif
#   From: 2010.05.17/outbox.cif.g08.bks.cpg/sg48_8_cif.got.tgz:14592.got - 2010.06.03 20:39:00.
