data_PCOD9389650
_publ_section_title
;
Structure prediction by ZEFSAII (Michael W. Deem and Ramdas Pophale) SiO2 
 PCOD9389650
Probable space group: P N N N
;
_chemical_formula_sum "Si O2"
_cell_formula_units_Z 64
_cell_length_a 10.721126
_cell_length_b 13.907843
_cell_length_c 21.814222
_cell_angle_alpha 90.000000
_cell_angle_beta 90.000000
_cell_angle_gamma 90.000000
_cell_volume 3252.669281
_symmetry_space_group_name_H-M "P N N N"
_symmetry_group_IT_number 48
_space_group.IT_coordinate_system_code '2'
_symmetry_cell_setting 'orthorhombic'
loop_
_space_group_symop_operation_xyz
x,y,z
1/2-x,1/2-y,z
x,1/2-y,1/2-z
1/2-x,y,1/2-z
-x,-y,-z
1/2+x,1/2+y,-z
-x,1/2+y,1/2+z
1/2+x,-y,1/2+z
loop_
_atom_site_type_symbol
_atom_site_label
_atom_site_fract_x
_atom_site_fract_y
_atom_site_fract_z
Si Si1 0.154024 0.023871 0.879113
Si Si2 0.944263 0.329422 0.422593
Si Si3 0.318619 0.415289 0.020206
Si Si4 0.831956 0.368329 0.545844
Si Si5 0.544048 0.633508 0.569066
Si Si6 0.054413 0.821263 0.434288
Si Si7 0.065078 0.465062 0.850757
Si Si8 0.399066 0.141704 0.735128
O O1 0.080715 0.922476 0.881351
O O2 0.292502 0.002165 0.854444
O O3 0.092816 0.100543 0.833285
O O4 0.178787 0.066073 0.947343
O O5 0.834433 0.337097 0.473602
O O6 0.070242 0.346339 0.461456
O O7 0.978342 0.224834 0.396736
O O8 0.357426 0.519373 0.047435
O O9 0.189742 0.376184 0.049023
O O10 0.930822 0.293055 0.571933
O O11 0.696884 0.354867 0.575353
O O12 0.477904 0.639461 0.502300
O O13 0.514751 0.542289 0.611520
O O14 0.955968 0.866535 0.388584
O O15 0.037601 0.434865 0.781287
O O16 0.444077 0.250000 0.750000
O O17 0.250000 0.143002 0.750000
#
# Coordination Sequence:
#
# PCOD9389650 Si02
#       8
#     8   8   8   8   8   8   8   8
#     4  10  20  37  58  80 117 153 188 236 297 346
#     4  10  22  33  50  83 116 151 186 239 292 350
#     4  11  19  34  54  82 116 152 185 233 295 365
#     4   9  18  30  49  77 114 144 187 223 292 359
#     4  11  20  33  52  84 117 146 194 233 298 359
#     4  10  18  31  50  82 113 149 179 237 298 352
#     4  11  20  34  59  81 113 152 191 240 287 347
#     4   9  21  39  57  86 113 147 198 240 283 342
#
# _framework density 19.676147
#
# number of rings (size 3 to 8) (size 9 to 14) (size 15 to 20)
#    0.000    1.875    2.500    3.750    0.000    4.500 
#    4.500    0.625    0.000    3.000    0.000    1.750 
#    0.000    0.000    0.000    0.000    0.000    0.000 
#
# Total GULP energy -356403.369367 kJ/mol
# GULP energy per Si atom -5568.802646 kJ/mol
# Density = 1.963136 g / cm^3
# Si number density = 19.676147 Si / 1000 Ang^3
#
#
#
# Elastic Constant Matrix: (Units=GPa)
#
#
# Indices 1 2 3 4 5 6 
#
# 1 61.1152 26.3720 18.4564 0.0000 0.0000 0.0000
# 2 26.3720 96.1545 33.5064 0.0000 0.0000 0.0000
# 3 18.4564 33.5064 71.1969 0.0000 0.0000 0.0000
# 4 0.0000 0.0000 0.0000 25.0088 0.0000 0.0000
# 5 0.0000 0.0000 0.0000 0.0000 12.8690 0.0000
# 6 0.0000 0.0000 0.0000 0.0000 0.0000 32.4894
#
#
#
# Elastic Compliance Matrix: (Units=1/GPa)
#
#
# Indices 1 2 3 4 5 6 
#
# 1 0.019070 -0.004196 -0.002969 0.000000 0.000000 0.000000
# 2 -0.004196 0.013363 -0.005201 0.000000 0.000000 0.000000
# 3 -0.002969 -0.005201 0.017263 0.000000 0.000000 0.000000
# 4 0.000000 0.000000 0.000000 0.039986 0.000000 0.000000
# 5 0.000000 0.000000 0.000000 0.000000 0.077706 0.000000
# 6 0.000000 0.000000 0.000000 0.000000 0.000000 0.030779
#
#
# Mechanical properties :
#
#
# Convention : Reuss Voigt Hill
#
# Bulk Modulus (GPa) = 40.05743 42.79290 41.42516
# Shear Modulus (GPa) = 21.62443 24.08223 22.85333
#
# Velocity S-wave (km/s) = 3.31874 3.50227 3.41174
# Velocity P-wave (km/s) = 5.92351 6.17659 6.05137
#
# Compressibility (1/GPa) = 0.02496416
#
# Stress axis : x y z
#
# Youngs Moduli (GPa) = 52.43952 74.83295 57.92744
#
# Poissons Ratio (x) = 0.31397 0.17198
# Poissons Ratio (y) = 0.22002 0.30130
# Poissons Ratio (z) = 0.15569 0.38923
#
# Static dielectric constant tensor:
#      x y z
#    x 1.698530 0.000000 0.000000 
#    y 0.000000 1.757610 0.000000 
#    z 0.000000 0.000000 1.693240 
# 
# From -- ./inp_files/31178.got.cif
#   From: 2010.05.17/outbox.cif.g08.bks.cpg/sg48_16_cif.got.tgz:31178.got - 2010.06.03 20:39:00.
