data_PCOD9389234
_publ_section_title
;
Structure prediction by ZEFSAII (Michael W. Deem and Ramdas Pophale) SiO2 
 PCOD9389234
Probable space group: P M M M
;
_chemical_formula_sum "Si O2"
_cell_formula_units_Z 64
_cell_length_a 21.000000
_cell_length_b 21.000000
_cell_length_c 9.000000
_cell_angle_alpha 90.000000
_cell_angle_beta 90.000000
_cell_angle_gamma 90.000000
_cell_volume 3969.000000
_symmetry_space_group_name_H-M "P M M M"
_symmetry_group_IT_number 47
_symmetry_cell_setting 'orthorhombic'
loop_
_space_group_symop_operation_xyz
x,y,z
-x,-y,z
x,-y,-z
-x,y,-z
-x,-y,-z
x,y,-z
-x,y,z
x,-y,z
loop_
_atom_site_type_symbol
_atom_site_label
_atom_site_fract_x
_atom_site_fract_y
_atom_site_fract_z
Si Si1 0.734858 0.069110 0.175422
Si Si2 0.927891 0.668112 0.177350
Si Si3 0.813905 0.426248 0.819309
Si Si4 0.889394 0.071271 0.175121
Si Si5 0.574074 0.573996 0.320816
Si Si6 0.882756 0.203244 0.678019
Si Si7 0.687661 0.346914 0.820765
Si Si8 0.741792 0.791117 0.180897
O O1 0.812004 0.070160 0.187021
O O2 0.713525 0.139514 0.227740
O O3 0.713850 0.000000 0.239669
O O4 0.719692 0.067230 0.000000
O O5 0.874576 0.616836 0.225380
O O6 0.919597 0.735174 0.260798
O O7 0.000000 0.644242 0.198631
O O8 0.918599 0.679491 0.000000
O O9 0.815850 0.500000 0.768646
O O10 0.749126 0.389533 0.775626
O O11 0.814472 0.427739 0.000000
O O12 0.908937 0.135104 0.261880
O O13 0.911354 0.000000 0.223093
O O14 0.904853 0.078042 0.000000
O O15 0.578349 0.577697 0.500000
O O16 0.500000 0.586974 0.280331
O O17 0.587947 0.500000 0.278720
O O18 0.624736 0.621966 0.249367
O O19 0.881455 0.202283 0.500000
O O20 0.811338 0.212095 0.744437
O O21 0.702494 0.272850 0.782142
O O22 0.682730 0.349969 0.000000
O O23 0.749927 0.792098 0.000000
#
# Coordination Sequence:
#
# PCOD9389234 Si02
#       8
#     8   8   8   8   8   8   8   8
#     4   7  10  18  35  59  85 116 152 185 217 259
#     4  10  20  35  53  68  87 121 161 199 242 295
#     4   9  17  30  49  74  98 117 147 196 248 290
#     4   8  14  26  45  66  89 120 156 191 230 283
#     4   9  19  35  51  68  96 133 166 195 231 283
#     4  11  20  29  45  68  96 124 153 196 243 287
#     4  10  18  29  49  74 101 128 156 199 243 281
#     4   9  16  28  45  65  94 127 160 195 234 283
#
# _framework density 16.124969
#
# number of rings (size 3 to 8) (size 9 to 14) (size 15 to 20)
#    0.000    2.875    1.250    3.375    0.000    2.250 
#    0.000    1.875    0.000    0.750    0.000    3.500 
#    0.000    0.500    0.000    6.250    0.000    1.125 
#
# Total GULP energy -356368.740879 kJ/mol
# GULP energy per Si atom -5568.261576 kJ/mol
# Density = 1.608827 g / cm^3
# Si number density = 16.124969 Si / 1000 Ang^3
#
#
#
# Elastic Constant Matrix: (Units=GPa)
#
#
# Indices 1 2 3 4 5 6 
#
# 1 73.4450 56.3532 17.8610 0.0000 0.0000 0.0000
# 2 56.3532 167.2955 27.9542 0.0000 0.0000 0.0000
# 3 17.8610 27.9542 27.7332 0.0000 0.0000 0.0000
# 4 0.0000 0.0000 0.0000 14.8205 0.0000 0.0000
# 5 0.0000 0.0000 0.0000 0.0000 12.5141 0.0000
# 6 0.0000 0.0000 0.0000 0.0000 0.0000 16.2897
#
#
#
# Elastic Compliance Matrix: (Units=1/GPa)
#
#
# Indices 1 2 3 4 5 6 
#
# 1 0.019466 -0.005366 -0.007128 0.000000 0.000000 0.000000
# 2 -0.005366 0.008667 -0.005280 0.000000 0.000000 0.000000
# 3 -0.007128 -0.005280 0.045971 0.000000 0.000000 0.000000
# 4 0.000000 0.000000 0.000000 0.067474 0.000000 0.000000
# 5 0.000000 0.000000 0.000000 0.000000 0.079910 0.000000
# 6 0.000000 0.000000 0.000000 0.000000 0.000000 0.061388
#
#
# Mechanical properties :
#
#
# Convention : Reuss Voigt Hill
#
# Bulk Modulus (GPa) = 25.93661 52.53450 39.23556
# Shear Modulus (GPa) = 15.09306 19.81190 17.45248
#
# Velocity S-wave (km/s) = 3.06274 3.50901 3.29344
# Velocity P-wave (km/s) = 5.35041 7.00485 6.23276
#
# Compressibility (1/GPa) = 0.03855554
#
# Stress axis : x y z
#
# Youngs Moduli (GPa) = 51.37033 115.37513 21.75285
#
# Poissons Ratio (x) = 0.61913 0.15505
# Poissons Ratio (y) = 0.27566 0.11486
# Poissons Ratio (z) = 0.36617 0.60923
#
# Static dielectric constant tensor:
#      x y z
#    x 1.524190 0.000000 0.000000 
#    y 0.000000 1.581450 0.000000 
#    z 0.000000 0.000000 1.531920 
# 
# From -- ./inp_files/11815.got.cif
#   From: 2010.05.17/outbox.ucp.g08.bks.cvg/sg47_6_cif.got.tgz:11815.got - 2010.06.11 16:36:43.
