data_PCOD9389274
_publ_section_title
;
Structure prediction by ZEFSAII (Michael W. Deem and Ramdas Pophale) SiO2 
 PCOD9389274
Probable space group: P M M M
;
_chemical_formula_sum "Si O2"
_cell_formula_units_Z 44
_cell_length_a 9.000000
_cell_length_b 18.000000
_cell_length_c 15.000000
_cell_angle_alpha 90.000000
_cell_angle_beta 90.000000
_cell_angle_gamma 90.000000
_cell_volume 2430.000000
_symmetry_space_group_name_H-M "P M M M"
_symmetry_group_IT_number 47
_symmetry_cell_setting 'orthorhombic'
loop_
_space_group_symop_operation_xyz
x,y,z
-x,-y,z
x,-y,-z
-x,y,-z
-x,-y,-z
x,y,-z
-x,y,z
x,-y,z
loop_
_atom_site_type_symbol
_atom_site_label
_atom_site_fract_x
_atom_site_fract_y
_atom_site_fract_z
Si Si1 0.668569 0.089103 0.399983
Si Si2 0.680502 0.582076 0.101832
Si Si3 0.823203 0.865518 0.776537
Si Si4 0.679446 0.000000 0.892292
Si Si5 0.319582 0.585067 0.603829
Si Si6 0.680536 0.296912 0.754558
O O1 0.703883 0.116237 0.500000
O O2 0.500000 0.115308 0.377182
O O3 0.783641 0.108876 0.323858
O O4 0.661948 0.000000 0.403632
O O5 0.500000 0.581258 0.102139
O O6 0.728542 0.500000 0.132212
O O7 0.724526 0.647809 0.165776
O O8 0.728342 0.592630 0.000000
O O9 0.753809 0.782522 0.775760
O O10 0.000000 0.864420 0.792169
O O11 0.747517 0.926329 0.843470
O O12 0.500000 0.000000 0.879353
O O13 0.707948 0.000000 0.000000
O O14 0.277564 0.595692 0.500000
O O15 0.500000 0.583882 0.608068
O O16 0.272857 0.500000 0.630398
O O17 0.275165 0.654779 0.666346
O O18 0.500000 0.288008 0.752240
#
# Coordination Sequence:
#
# PCOD9389274 Si02
#       6
#     8   8   8   4   8   8
#     4   9  18  35  61  87 110 141 183 230 275 322
#     4   8  14  26  47  76 105 131 169 227 285 328
#     4  12  25  39  57  85 121 155 186 229 284 345
#     4  11  25  47  72  89 104 137 189 244 294 347
#     4   8  14  26  47  77 110 144 188 241 288 324
#     4  10  19  31  51  78 108 145 187 231 277 329
#
# _framework density 18.106995999999999
#
# number of rings (size 3 to 8) (size 9 to 14) (size 15 to 20)
#    0.000    2.455    0.909    4.091    0.000    4.727 
#    0.000    4.545    0.000    2.182    0.000    2.545 
#    0.000    0.000    0.000    0.000    0.000    0.000 
#
# Total GULP energy -245095.583020 kJ/mol
# GULP energy per Si atom -5570.354160 kJ/mol
# Density = 1.806578 g / cm^3
# Si number density = 18.106996 Si / 1000 Ang^3
#
#
#
# Elastic Constant Matrix: (Units=GPa)
#
#
# Indices 1 2 3 4 5 6 
#
# 1 66.6548 48.4823 41.8021 0.0000 0.0000 0.0000
# 2 48.4823 166.8232 85.5667 0.0000 0.0000 0.0000
# 3 41.8021 85.5667 115.5025 0.0000 0.0000 0.0000
# 4 0.0000 0.0000 0.0000 11.7784 0.0000 0.0000
# 5 0.0000 0.0000 0.0000 0.0000 8.9527 0.0000
# 6 0.0000 0.0000 0.0000 0.0000 0.0000 6.7495
#
#
#
# Elastic Compliance Matrix: (Units=1/GPa)
#
#
# Indices 1 2 3 4 5 6 
#
# 1 0.020593 -0.003487 -0.004870 0.000000 0.000000 0.000000
# 2 -0.003487 0.010258 -0.006338 0.000000 0.000000 0.000000
# 3 -0.004870 -0.006338 0.015115 0.000000 0.000000 0.000000
# 4 0.000000 0.000000 0.000000 0.084901 0.000000 0.000000
# 5 0.000000 0.000000 0.000000 0.000000 0.111698 0.000000
# 6 0.000000 0.000000 0.000000 0.000000 0.000000 0.148159
#
#
# Mechanical properties :
#
#
# Convention : Reuss Voigt Hill
#
# Bulk Modulus (GPa) = 60.32071 77.85363 69.08717
# Shear Modulus (GPa) = 11.74703 17.03809 14.39256
#
# Velocity S-wave (km/s) = 2.54983 3.07085 2.82239
# Velocity P-wave (km/s) = 6.48496 7.46078 6.98992
#
# Compressibility (1/GPa) = 0.01657805
#
# Stress axis : x y z
#
# Youngs Moduli (GPa) = 48.56023 97.48014 66.15793
#
# Poissons Ratio (x) = 0.33991 0.32217
# Poissons Ratio (y) = 0.16933 0.41929
# Poissons Ratio (z) = 0.23647 0.61780
#
# Static dielectric constant tensor:
#      x y z
#    x 1.610750 0.000000 0.000000 
#    y 0.000000 1.660110 0.000000 
#    z 0.000000 0.000000 1.648530 
# 
# From -- ./inp_files/20915.got.cif
#   From: 2010.05.17/outbox.ucp.g08.bks.cvg/sg47_11_cif.got.tgz:20915.got - 2010.06.11 16:36:43.
