data_PCOD9389175
_publ_section_title
;
Structure prediction by ZEFSAII (Michael W. Deem and Ramdas Pophale) SiO2 
 PCOD9389175
Probable space group: P M M M
;
_chemical_formula_sum "Si O2"
_cell_formula_units_Z 44
_cell_length_a 8.777331
_cell_length_b 16.570380
_cell_length_c 15.014922
_cell_angle_alpha 90.000000
_cell_angle_beta 90.000000
_cell_angle_gamma 90.000000
_cell_volume 2183.825962
_symmetry_space_group_name_H-M "P M M M"
_symmetry_group_IT_number 47
_symmetry_cell_setting 'orthorhombic'
loop_
_space_group_symop_operation_xyz
x,y,z
-x,-y,z
x,-y,-z
-x,y,-z
-x,-y,-z
x,y,-z
-x,y,z
x,-y,z
loop_
_atom_site_type_symbol
_atom_site_label
_atom_site_fract_x
_atom_site_fract_y
_atom_site_fract_z
Si Si1 0.684586 0.161958 0.798855
Si Si2 0.680506 0.170678 0.403842
Si Si3 0.827383 0.663872 0.374049
Si Si4 0.685699 0.000000 0.898945
Si Si5 0.675482 0.500000 0.152091
Si Si6 0.675950 0.500000 0.630433
Si Si7 0.826724 0.669606 0.840773
O O1 0.500000 0.167591 0.795887
O O2 0.738785 0.149543 0.695662
O O3 0.732366 0.082139 0.850909
O O4 0.742277 0.243850 0.847162
O O5 0.739818 0.138153 0.500000
O O6 0.500000 0.154611 0.403212
O O7 0.715625 0.265796 0.403935
O O8 0.763461 0.578360 0.401404
O O9 0.830122 0.661291 0.266665
O O10 0.000000 0.679842 0.402710
O O11 0.500000 0.000000 0.897958
O O12 0.737835 0.000000 0.000000
O O13 0.500000 0.500000 0.123603
O O14 0.678253 0.500000 0.260737
O O15 0.752052 0.414289 0.125030
O O16 0.500000 0.500000 0.604599
O O17 0.000000 0.675414 0.873669
#
# Coordination Sequence:
#
# PCOD9389175 Si02
#       7
#     8   8   8   4   4   4   8
#     4   9  17  31  51  74 101 134 171 210 254 304
#     4   9  17  29  44  63  90 125 163 202 245 293
#     4   9  16  25  38  57  83 119 165 213 255 294
#     4   9  18  34  58  86 110 131 161 205 254 304
#     4   9  15  23  39  66  99 136 178 217 253 300
#     4   9  15  23  36  54  81 120 165 214 262 299
#     4   9  16  26  42  67 100 136 173 214 258 302
#
# _framework density 20.148126000000001
#
# number of rings (size 3 to 8) (size 9 to 14) (size 15 to 20)
#    0.000    3.000    0.000    1.636    0.000    6.909 
#    0.000    1.364    0.000    6.545    0.000    0.636 
#    0.000   10.909    0.000    0.000    0.000    0.000 
#
# Total GULP energy -244945.086991 kJ/mol
# GULP energy per Si atom -5566.933795 kJ/mol
# Density = 2.010227 g / cm^3
# Si number density = 20.148126 Si / 1000 Ang^3
#
#
#
# Elastic Constant Matrix: (Units=GPa)
#
#
# Indices 1 2 3 4 5 6 
#
# 1 37.9006 29.4066 2.7599 0.0000 0.0000 0.0000
# 2 29.4066 148.9010 59.6140 0.0000 0.0000 0.0000
# 3 2.7599 59.6140 64.1819 0.0000 0.0000 0.0000
# 4 0.0000 0.0000 0.0000 17.1266 0.0000 0.0000
# 5 0.0000 0.0000 0.0000 0.0000 4.9487 0.0000
# 6 0.0000 0.0000 0.0000 0.0000 0.0000 -9.5831
#
#
#
# Elastic Compliance Matrix: (Units=1/GPa)
#
#
# Indices 1 2 3 4 5 6 
#
# 1 0.033247 -0.009542 0.007433 0.000000 0.000000 0.000000
# 2 -0.009542 0.013430 -0.012064 0.000000 0.000000 0.000000
# 3 0.007433 -0.012064 0.026467 0.000000 0.000000 0.000000
# 4 0.000000 0.000000 0.000000 0.058389 0.000000 0.000000
# 5 0.000000 0.000000 0.000000 0.000000 0.202075 0.000000
# 6 0.000000 0.000000 0.000000 0.000000 0.000000 -0.104350
#
#
# Mechanical properties :
#
#
# Convention : Reuss Voigt Hill
#
# Bulk Modulus (GPa) = 22.32238 48.28269 35.30253
# Shear Modulus (GPa) = 18.34624 13.11197 15.72911
#
# Velocity S-wave (km/s) = 3.02084 2.55380 2.79708
# Velocity P-wave (km/s) = 4.82395 5.71942 5.29066
#
# Compressibility (1/GPa) = 0.04479810
#
# Stress axis : x y z
#
# Youngs Moduli (GPa) = 30.07792 74.45842 37.78345
#
# Poissons Ratio (x) = 0.71048 -0.28085
# Poissons Ratio (y) = 0.28700 0.45583
# Poissons Ratio (z) = -0.22357 0.89828
#
# Static dielectric constant tensor:
#      x y z
#    x 1.695980 0.000000 0.000000 
#    y 0.000000 1.699860 0.000000 
#    z 0.000000 0.000000 1.797710 
# 
# From -- ./inp_files/26427.got.cif
#   From: 2010.05.17/outbox.cif.g08.bks.cpg/sg47_14_cif.got.tgz:26427.got - 2010.06.03 20:15:42.
