data_PCOD9389178
_publ_section_title
;
Structure prediction by ZEFSAII (Michael W. Deem and Ramdas Pophale) SiO2 
 PCOD9389178
Probable space group: P M M M
;
_chemical_formula_sum "Si O2"
_cell_formula_units_Z 40
_cell_length_a 29.401574
_cell_length_b 7.672931
_cell_length_c 8.108606
_cell_angle_alpha 90.000000
_cell_angle_beta 90.000000
_cell_angle_gamma 90.000000
_cell_volume 1829.271095
_symmetry_space_group_name_H-M "P M M M"
_symmetry_group_IT_number 47
_symmetry_cell_setting 'orthorhombic'
loop_
_space_group_symop_operation_xyz
x,y,z
-x,-y,z
x,-y,-z
-x,y,-z
-x,-y,-z
x,y,-z
-x,y,z
x,-y,z
loop_
_atom_site_type_symbol
_atom_site_label
_atom_site_fract_x
_atom_site_fract_y
_atom_site_fract_z
Si Si1 0.110562 0.704734 0.310248
Si Si2 0.595356 0.699874 0.804782
Si Si3 0.500000 0.700348 0.695359
Si Si4 0.947180 0.713846 0.000000
Si Si5 0.789798 0.793478 0.311202
Si Si6 0.307755 0.290295 0.689838
O O1 0.107838 0.776513 0.500000
O O2 0.100432 0.500000 0.324635
O O3 0.077745 0.775640 0.167594
O O4 0.162608 0.722040 0.246865
O O5 0.595149 0.500000 0.735497
O O6 0.547999 0.782402 0.747115
O O7 0.644436 0.776581 0.759733
O O8 0.593478 0.690263 0.000000
O O9 0.500000 0.500000 0.765428
O O10 0.500000 0.690106 0.500000
O O11 0.944485 0.500000 0.000000
O O12 0.000000 0.761535 0.000000
O O13 0.786982 0.723054 0.500000
O O14 0.740795 0.757166 0.231129
O O15 0.794837 0.000000 0.317515
O O16 0.306340 0.231036 0.500000
O O17 0.309397 0.500000 0.695467
#
# Coordination Sequence:
#
# PCOD9389178 Si02
#       6
#     8   8   4   4   8   8
#     4   9  17  31  52  76 102 134 169 204 245 291
#     4   9  16  25  37  57  86 117 148 185 230 279
#     4   9  15  23  37  57  82 113 148 185 228 278
#     4   9  18  32  51  79 109 133 165 208 247 286
#     4   9  17  30  49  71  95 125 161 201 244 288
#     4   9  16  27  44  65  90 120 154 192 234 283
#
# _framework density 21.866633
#
# number of rings (size 3 to 8) (size 9 to 14) (size 15 to 20)
#    0.000    3.000    0.000    1.500    0.000    6.400 
#    1.800    2.500    0.000    1.200    0.000    3.500 
#    0.000    5.600    0.000    0.000    0.000    0.000 
#
# Total GULP energy -222805.087863 kJ/mol
# GULP energy per Si atom -5570.127197 kJ/mol
# Density = 2.181686 g / cm^3
# Si number density = 21.866633 Si / 1000 Ang^3
#
#
#
# Elastic Constant Matrix: (Units=GPa)
#
#
# Indices 1 2 3 4 5 6 
#
# 1 232.9861 2.0748 85.5146 0.0000 0.0000 0.0000
# 2 2.0748 37.7510 6.3235 0.0000 0.0000 0.0000
# 3 85.5146 6.3235 79.1226 0.0000 0.0000 0.0000
# 4 0.0000 0.0000 0.0000 -1.6227 0.0000 0.0000
# 5 0.0000 0.0000 0.0000 0.0000 60.5351 0.0000
# 6 0.0000 0.0000 0.0000 0.0000 0.0000 438.7298
#
#
#
# Elastic Compliance Matrix: (Units=1/GPa)
#
#
# Indices 1 2 3 4 5 6 
#
# 1 0.007145 0.000913 -0.007795 0.000000 0.000000 0.000000
# 2 0.000913 0.026965 -0.003142 0.000000 0.000000 0.000000
# 3 -0.007795 -0.003142 0.021315 0.000000 0.000000 0.000000
# 4 0.000000 0.000000 0.000000 -0.616246 0.000000 0.000000
# 5 0.000000 0.000000 0.000000 0.000000 0.016519 0.000000
# 6 0.000000 0.000000 0.000000 0.000000 0.000000 0.002279
#
#
# Mechanical properties :
#
#
# Convention : Reuss Voigt Hill
#
# Bulk Modulus (GPa) = 28.26689 59.74283 44.00486
# Shear Modulus (GPa) = -9.80045 116.59155 53.39555
#
# Velocity S-wave (km/s) = -2.11935 7.30993 4.94689
# Velocity P-wave (km/s) = 2.63935 9.93114 7.26615
#
# Compressibility (1/GPa) = 0.03537708
#
# Stress axis : x y z
#
# Youngs Moduli (GPa) = 139.95489 37.08444 46.91571
#
# Poissons Ratio (x) = -0.03386 0.36572
# Poissons Ratio (y) = -0.12779 0.14740
# Poissons Ratio (z) = 1.09100 0.11652
#
# Static dielectric constant tensor:
#      x y z
#    x 1.847270 0.000000 0.000000 
#    y 0.000000 1.815260 0.000000 
#    z 0.000000 0.000000 1.791010 
# 
# From -- ./inp_files/13056.got.cif
#   From: 2010.05.17/outbox.cif.g08.bks.cpg/sg47_7_cif.got.tgz:13056.got - 2010.06.03 20:15:42.
