data_PCOD9389589
_publ_section_title
;
Structure prediction by ZEFSAII (Michael W. Deem and Ramdas Pophale) SiO2 
 PCOD9389589
Probable space group: P N N N
;
_chemical_formula_sum "Si O2"
_cell_formula_units_Z 48
_cell_length_a 16.620729
_cell_length_b 11.690091
_cell_length_c 11.921907
_cell_angle_alpha 90.000000
_cell_angle_beta 90.000000
_cell_angle_gamma 90.000000
_cell_volume 2316.400713
_symmetry_space_group_name_H-M "P N N N"
_symmetry_group_IT_number 48
_space_group.IT_coordinate_system_code '2'
_symmetry_cell_setting 'orthorhombic'
loop_
_space_group_symop_operation_xyz
x,y,z
1/2-x,1/2-y,z
x,1/2-y,1/2-z
1/2-x,y,1/2-z
-x,-y,-z
1/2+x,1/2+y,-z
-x,1/2+y,1/2+z
1/2+x,-y,1/2+z
loop_
_atom_site_type_symbol
_atom_site_label
_atom_site_fract_x
_atom_site_fract_y
_atom_site_fract_z
Si Si1 0.310023 0.354319 0.998718
Si Si2 0.575309 0.254623 0.067308
Si Si3 0.054109 0.986665 0.687461
Si Si4 0.194354 0.937795 0.850898
Si Si5 0.458367 0.274855 0.619544
Si Si6 0.456415 0.054892 0.386055
O O1 0.250000 0.250000 0.028523
O O2 0.271146 0.458582 0.926408
O O3 0.383099 0.293674 0.930829
O O4 0.363084 0.420914 0.091898
O O5 0.573360 0.130915 0.123693
O O6 0.655295 0.330301 0.084227
O O7 0.504366 0.326145 0.127364
O O8 0.542299 0.252177 0.941220
O O9 0.121253 0.996816 0.783824
O O10 0.974273 0.999856 0.765027
O O11 0.057450 0.091101 0.602877
O O12 0.250000 0.896921 0.750000
O O13 0.461918 0.250000 0.750000
O O14 0.500000 0.000000 0.500000
#
# Coordination Sequence:
#
# PCOD9389589 Si02
#       6
#     8   8   8   8   8   8
#     4  11  22  34  56  90 125 158 200 256 312 373
#     4  10  22  35  55  87 120 155 204 257 308 367
#     4  11  20  35  58  87 119 160 204 262 303 365
#     4  11  21  35  55  84 123 156 197 247 319 374
#     4  11  21  36  59  86 122 157 207 258 312 365
#     4  10  17  36  57  81 119 164 201 243 305 378
#
# _framework density 20.721805
#
# number of rings (size 3 to 8) (size 9 to 14) (size 15 to 20)
#    0.000    1.333    5.000    4.500    0.000    1.333 
#    0.000    0.000    0.000    8.000    0.000    2.333 
#    0.000    0.000    0.000    0.000    0.000    0.000 
#
# Total GULP energy -267342.834071 kJ/mol
# GULP energy per Si atom -5569.642376 kJ/mol
# Density = 2.067464 g / cm^3
# Si number density = 20.721805 Si / 1000 Ang^3
#
#
#
# Elastic Constant Matrix: (Units=GPa)
#
#
# Indices 1 2 3 4 5 6 
#
# 1 75.9598 20.0945 23.6152 0.0000 0.0000 0.0000
# 2 20.0945 131.5469 5.6064 0.0000 0.0000 0.0000
# 3 23.6152 5.6064 37.4183 0.0000 0.0000 0.0000
# 4 0.0000 0.0000 0.0000 22.6367 0.0000 0.0000
# 5 0.0000 0.0000 0.0000 0.0000 33.6305 0.0000
# 6 0.0000 0.0000 0.0000 0.0000 0.0000 32.0489
#
#
#
# Elastic Compliance Matrix: (Units=1/GPa)
#
#
# Indices 1 2 3 4 5 6 
#
# 1 0.016961 -0.002148 -0.010382 0.000000 0.000000 0.000000
# 2 -0.002148 0.007923 0.000169 0.000000 0.000000 0.000000
# 3 -0.010382 0.000169 0.033252 0.000000 0.000000 0.000000
# 4 0.000000 0.000000 0.000000 0.044176 0.000000 0.000000
# 5 0.000000 0.000000 0.000000 0.000000 0.029735 0.000000
# 6 0.000000 0.000000 0.000000 0.000000 0.000000 0.031202
#
#
# Mechanical properties :
#
#
# Convention : Reuss Voigt Hill
#
# Bulk Modulus (GPa) = 29.92948 38.17304 34.05126
# Shear Modulus (GPa) = 25.11168 30.70382 27.90775
#
# Velocity S-wave (km/s) = 3.48494 3.85348 3.67383
# Velocity P-wave (km/s) = 5.53786 6.18553 5.87063
#
# Compressibility (1/GPa) = 0.03341188
#
# Stress axis : x y z
#
# Youngs Moduli (GPa) = 58.95878 126.21741 30.07328
#
# Poissons Ratio (x) = 0.27117 0.31223
# Poissons Ratio (y) = 0.12667 -0.00508
# Poissons Ratio (z) = 0.61214 -0.02131
#
# Static dielectric constant tensor:
#      x y z
#    x 1.804470 0.000000 0.000000 
#    y 0.000000 1.878230 0.000000 
#    z 0.000000 0.000000 1.818150 
# 
# From -- ./inp_files/20053.got.cif
#   From: 2010.05.17/outbox.cif.g08.bks.cpg/sg48_11_cif.got.tgz:20053.got - 2010.06.03 20:39:00.
