data_PCOD9389021
_publ_section_title
;
Structure prediction by ZEFSAII (Michael W. Deem and Ramdas Pophale) SiO2 
 PCOD9389021
Probable space group: P M M M
;
_chemical_formula_sum "Si O2"
_cell_formula_units_Z 56
_cell_length_a 18.711072
_cell_length_b 9.312594
_cell_length_c 22.091183
_cell_angle_alpha 90.000000
_cell_angle_beta 90.000000
_cell_angle_gamma 90.000000
_cell_volume 3849.358082
_symmetry_space_group_name_H-M "P M M M"
_symmetry_group_IT_number 47
_symmetry_cell_setting 'orthorhombic'
loop_
_space_group_symop_operation_xyz
x,y,z
-x,-y,z
x,-y,-z
-x,y,-z
-x,-y,-z
x,y,-z
-x,y,z
x,-y,z
loop_
_atom_site_type_symbol
_atom_site_label
_atom_site_fract_x
_atom_site_fract_y
_atom_site_fract_z
Si Si1 0.795893 0.165072 0.746265
Si Si2 0.416672 0.328873 0.804986
Si Si3 0.827726 0.671508 0.067920
Si Si4 0.326911 0.672080 0.316852
Si Si5 0.417923 0.325253 0.431451
Si Si6 0.703424 0.164678 0.129179
Si Si7 0.916739 0.327710 0.186940
O O1 0.746524 0.247711 0.698326
O O2 0.749068 0.165861 0.808226
O O3 0.868143 0.247449 0.763901
O O4 0.808663 0.000000 0.729399
O O5 0.500000 0.289872 0.805309
O O6 0.410541 0.500000 0.815579
O O7 0.381565 0.301445 0.739004
O O8 0.369715 0.244644 0.854067
O O9 0.816001 0.500000 0.071706
O O10 0.753744 0.751362 0.082546
O O11 0.884249 0.708428 0.120610
O O12 0.852541 0.705634 0.000000
O O13 0.314983 0.500000 0.318956
O O14 0.364363 0.720643 0.378864
O O15 0.399305 0.280831 0.500000
O O16 0.500000 0.281161 0.419038
O O17 0.417889 0.500000 0.430594
O O18 0.691952 0.000000 0.111307
O O19 0.909556 0.500000 0.194425
O O20 0.000000 0.290303 0.190402
#
# Coordination Sequence:
#
# PCOD9389021 Si02
#       7
#     8   8   8   8   8   8   8
#     4   9  17  28  41  58  81 109 139 169 202 240
#     4   9  16  25  39  59  80 102 131 169 211 250
#     4   9  17  29  45  63  82 106 134 160 189 231
#     4   9  15  24  40  60  82 109 142 176 206 239
#     4   8  13  21  35  58  87 116 146 180 214 244
#     4   9  17  28  41  57  78 104 133 166 203 240
#     4   9  17  29  45  65  88 110 131 159 196 237
#
# _framework density 14.547879999999999
#
# number of rings (size 3 to 8) (size 9 to 14) (size 15 to 20)
#    0.000    3.143    0.000    1.714    0.000    6.286 
#    0.000    1.429    0.000    2.143    0.000    8.000 
#    0.000    0.571    0.000    6.571    0.000    1.857 
#
# Total GULP energy -311747.549191 kJ/mol
# GULP energy per Si atom -5566.920521 kJ/mol
# Density = 1.451477 g / cm^3
# Si number density = 14.547880 Si / 1000 Ang^3
#
#
#
# Elastic Constant Matrix: (Units=GPa)
#
#
# Indices 1 2 3 4 5 6 
#
# 1 132.0498 53.2000 54.7337 0.0000 0.0000 0.0000
# 2 53.2000 35.0520 27.5179 0.0000 0.0000 0.0000
# 3 54.7337 27.5179 64.0641 0.0000 0.0000 0.0000
# 4 0.0000 0.0000 0.0000 8.4933 0.0000 0.0000
# 5 0.0000 0.0000 0.0000 0.0000 17.6854 0.0000
# 6 0.0000 0.0000 0.0000 0.0000 0.0000 8.2350
#
#
#
# Elastic Compliance Matrix: (Units=1/GPa)
#
#
# Indices 1 2 3 4 5 6 
#
# 1 0.021122 -0.026993 -0.006451 0.000000 0.000000 0.000000
# 2 -0.026993 0.077540 -0.010245 0.000000 0.000000 0.000000
# 3 -0.006451 -0.010245 0.025521 0.000000 0.000000 0.000000
# 4 0.000000 0.000000 0.000000 0.117739 0.000000 0.000000
# 5 0.000000 0.000000 0.000000 0.000000 0.056544 0.000000
# 6 0.000000 0.000000 0.000000 0.000000 0.000000 0.121434
#
#
# Mechanical properties :
#
#
# Convention : Reuss Voigt Hill
#
# Bulk Modulus (GPa) = 27.16964 55.78544 41.47754
# Shear Modulus (GPa) = 9.62380 13.26369 11.44375
#
# Velocity S-wave (km/s) = 2.57481 3.02276 2.80773
# Velocity P-wave (km/s) = 5.24939 7.11422 6.25173
#
# Compressibility (1/GPa) = 0.03680579
#
# Stress axis : x y z
#
# Youngs Moduli (GPa) = 47.34487 12.89659 39.18293
#
# Poissons Ratio (x) = 0.34811 0.25277
# Poissons Ratio (y) = 1.27797 0.40142
# Poissons Ratio (z) = 0.30542 0.13212
#
# Static dielectric constant tensor:
#      x y z
#    x 1.463060 0.000000 0.000000 
#    y 0.000000 1.483750 0.000000 
#    z 0.000000 0.000000 1.473960 
# 
# From -- ./inp_files/9817.got.cif
#   From: 2010.05.17/outbox.cif.g08.bks.cpg/sg47_5_cif.got.tgz:9817.got - 2010.06.03 20:15:42.
