data_PCOD9389521
_publ_section_title
;
Structure prediction by ZEFSAII (Michael W. Deem and Ramdas Pophale) SiO2 
 PCOD9389521
Probable space group: P N N N
;
_chemical_formula_sum "Si O2"
_cell_formula_units_Z 64
_cell_length_a 8.830356
_cell_length_b 11.365590
_cell_length_c 29.471665
_cell_angle_alpha 90.000000
_cell_angle_beta 90.000000
_cell_angle_gamma 90.000000
_cell_volume 2957.841309
_symmetry_space_group_name_H-M "P N N N"
_symmetry_group_IT_number 48
_space_group.IT_coordinate_system_code '2'
_symmetry_cell_setting 'orthorhombic'
loop_
_space_group_symop_operation_xyz
x,y,z
1/2-x,1/2-y,z
x,1/2-y,1/2-z
1/2-x,y,1/2-z
-x,-y,-z
1/2+x,1/2+y,-z
-x,1/2+y,1/2+z
1/2+x,-y,1/2+z
loop_
_atom_site_type_symbol
_atom_site_label
_atom_site_fract_x
_atom_site_fract_y
_atom_site_fract_z
Si Si1 0.070682 0.738854 0.900487
Si Si2 0.906106 0.180160 0.998550
Si Si3 0.546551 0.964108 0.092202
Si Si4 0.043420 0.976008 0.862301
Si Si5 0.326646 0.058053 0.541401
Si Si6 0.602500 0.377873 0.726204
Si Si7 0.261287 0.619407 0.373835
Si Si8 0.700603 0.885482 0.183382
O O1 0.250000 0.750000 0.895896
O O2 0.034249 0.771906 0.952638
O O3 0.046138 0.601229 0.893836
O O4 0.006913 0.836786 0.865690
O O5 0.750000 0.250000 0.989130
O O6 0.852860 0.044749 0.005169
O O7 0.056484 0.164524 0.967558
O O8 0.646816 0.930264 0.048796
O O9 0.369684 0.940482 0.089946
O O10 0.619666 0.890196 0.133800
O O11 0.125109 0.002860 0.910174
O O12 0.156380 0.027013 0.823867
O O13 0.892612 0.052371 0.864244
O O14 0.589226 0.250000 0.750000
O O15 0.750000 0.438299 0.750000
O O16 0.658499 0.368449 0.674793
O O17 0.429177 0.422384 0.719756
O O18 0.250000 0.750000 0.391106
O O19 0.750000 0.750000 0.191826
#
# Coordination Sequence:
#
# PCOD9389521 Si02
#       8
#     8   8   8   8   8   8   8   8
#     4  10  16  35  58  90 122 156 213 264 316 372
#     4   9  15  28  55  86 119 159 201 267 319 380
#     4  10  19  35  59  89 122 162 203 267 315 379
#     4  10  20  34  55  88 122 160 208 264 306 362
#     4   9  17  30  53  87 113 158 209 250 326 375
#     4  10  20  37  55  83 130 160 189 238 303 376
#     4  11  22  38  59  89 130 156 200 256 311 376
#     4  10  20  33  56  89 122 152 209 248 304 373
#
# _framework density 21.637402000000002
#
# number of rings (size 3 to 8) (size 9 to 14) (size 15 to 20)
#    0.000    2.125    6.250    1.500    0.000    1.250 
#    0.000    0.000    0.000    6.750   58.500    7.000 
#    7.500    0.000    0.000    0.000    0.000    0.000 
#
# Total GULP energy -356393.560567 kJ/mol
# GULP energy per Si atom -5568.649384 kJ/mol
# Density = 2.158815 g / cm^3
# Si number density = 21.637402 Si / 1000 Ang^3
#
#
#
# Elastic Constant Matrix: (Units=GPa)
#
#
# Indices 1 2 3 4 5 6 
#
# 1 159.1314 63.7458 29.3150 0.0000 0.0000 0.0000
# 2 63.7458 114.1260 14.5812 0.0000 0.0000 0.0000
# 3 29.3150 14.5812 52.9216 0.0000 0.0000 0.0000
# 4 0.0000 0.0000 0.0000 14.1190 0.0000 0.0000
# 5 0.0000 0.0000 0.0000 0.0000 39.0562 0.0000
# 6 0.0000 0.0000 0.0000 0.0000 0.0000 20.0170
#
#
#
# Elastic Compliance Matrix: (Units=1/GPa)
#
#
# Indices 1 2 3 4 5 6 
#
# 1 0.008715 -0.004406 -0.003613 0.000000 0.000000 0.000000
# 2 -0.004406 0.011310 -0.000675 0.000000 0.000000 0.000000
# 3 -0.003613 -0.000675 0.021084 0.000000 0.000000 0.000000
# 4 0.000000 0.000000 0.000000 0.070827 0.000000 0.000000
# 5 0.000000 0.000000 0.000000 0.000000 0.025604 0.000000
# 6 0.000000 0.000000 0.000000 0.000000 0.000000 0.049957
#
#
# Mechanical properties :
#
#
# Convention : Reuss Voigt Hill
#
# Bulk Modulus (GPa) = 42.16180 60.16255 51.16218
# Shear Modulus (GPa) = 23.49711 29.20757 26.35234
#
# Velocity S-wave (km/s) = 3.29895 3.67804 3.49364
# Velocity P-wave (km/s) = 5.83427 6.77514 6.32223
#
# Compressibility (1/GPa) = 0.02371815
#
# Stress axis : x y z
#
# Youngs Moduli (GPa) = 114.74775 88.42085 47.43030
#
# Poissons Ratio (x) = 0.38958 0.17139
# Poissons Ratio (y) = 0.50558 0.03204
# Poissons Ratio (z) = 0.41463 0.05972
#
# Static dielectric constant tensor:
#      x y z
#    x 1.960790 0.000000 0.000000 
#    y 0.000000 1.838450 0.000000 
#    z 0.000000 0.000000 1.834070 
# 
# From -- ./inp_files/38825.got.cif
#   From: 2010.05.17/outbox.cif.g08.bks.cpg/sg48_20_cif.got.tgz:38825.got - 2010.06.03 20:39:00.
