data_PCOD9389640
_publ_section_title
;
Structure prediction by ZEFSAII (Michael W. Deem and Ramdas Pophale) SiO2 
 PCOD9389640
Probable space group: P N N N
;
_chemical_formula_sum "Si O2"
_cell_formula_units_Z 52
_cell_length_a 20.300392
_cell_length_b 32.962050
_cell_length_c 5.531412
_cell_angle_alpha 90.000000
_cell_angle_beta 90.000000
_cell_angle_gamma 90.000000
_cell_volume 3701.303054
_symmetry_space_group_name_H-M "P N N N"
_symmetry_group_IT_number 48
_space_group.IT_coordinate_system_code '2'
_symmetry_cell_setting 'orthorhombic'
loop_
_space_group_symop_operation_xyz
x,y,z
1/2-x,1/2-y,z
x,1/2-y,1/2-z
1/2-x,y,1/2-z
-x,-y,-z
1/2+x,1/2+y,-z
-x,1/2+y,1/2+z
1/2+x,-y,1/2+z
loop_
_atom_site_type_symbol
_atom_site_label
_atom_site_fract_x
_atom_site_fract_y
_atom_site_fract_z
Si Si1 0.686650 0.508327 0.868327
Si Si2 0.510170 0.450817 0.516809
Si Si3 0.750000 0.930744 0.250000
Si Si4 0.631414 0.920750 0.944583
Si Si5 0.442372 0.534803 0.986247
Si Si6 0.169981 0.158525 0.238266
Si Si7 0.670183 0.703179 0.259415
O O1 0.750000 0.486113 0.750000
O O2 0.650605 0.535384 0.664628
O O3 0.718449 0.540956 0.047225
O O4 0.630323 0.484343 0.009249
O O5 0.500000 0.500000 0.500000
O O6 0.440937 0.427932 0.543789
O O7 0.543217 0.441151 0.259251
O O8 0.550964 0.442583 0.758324
O O9 0.811460 0.907859 0.367025
O O10 0.636762 0.885710 0.746670
O O11 0.500000 0.500000 0.000000
O O12 0.250000 0.154041 0.250000
O O13 0.151031 0.182583 0.484806
O O14 0.151014 0.180667 0.989269
O O15 0.648413 0.750000 0.250000
O O16 0.750000 0.703190 0.250000
#
# Coordination Sequence:
#
# PCOD9389640 Si02
#       7
#     8   8   4   8   8   8   8
#     4  10  20  29  41  60  80 103 136 175 221 261
#     4  10  19  31  46  56  75 107 142 163 202 262
#     4  10  20  28  40  54  85 108 122 170 226 270
#     4  11  21  29  42  61  83 106 135 174 220 267
#     4  10  18  31  45  56  73 105 138 167 201 263
#     4  10  20  29  43  62  82 102 128 170 218 255
#     4   9  18  32  46  58  76 104 134 160 200 262
#
# _framework density 14.049106
#
# number of rings (size 3 to 8) (size 9 to 14) (size 15 to 20)
#    0.000    2.000    3.077    3.692    7.538    1.846 
#    0.000    0.000    0.000    0.000    0.000    0.000 
#    0.000    0.000    0.000    0.000    0.000    0.000 
#
# Total GULP energy -289566.250702 kJ/mol
# GULP energy per Si atom -5568.581744 kJ/mol
# Density = 1.401713 g / cm^3
# Si number density = 14.049106 Si / 1000 Ang^3
#
#
#
# Elastic Constant Matrix: (Units=GPa)
#
#
# Indices 1 2 3 4 5 6 
#
# 1 49.8836 21.2622 12.8226 0.0000 0.0000 0.0000
# 2 21.2622 34.7923 14.4450 0.0000 0.0000 0.0000
# 3 12.8226 14.4450 90.8952 0.0000 0.0000 0.0000
# 4 0.0000 0.0000 0.0000 15.6366 0.0000 0.0000
# 5 0.0000 0.0000 0.0000 0.0000 15.5231 0.0000
# 6 0.0000 0.0000 0.0000 0.0000 0.0000 2.4572
#
#
#
# Elastic Compliance Matrix: (Units=1/GPa)
#
#
# Indices 1 2 3 4 5 6 
#
# 1 0.027247 -0.016119 -0.001282 0.000000 0.000000 0.000000
# 2 -0.016119 0.040308 -0.004132 0.000000 0.000000 0.000000
# 3 -0.001282 -0.004132 0.011839 0.000000 0.000000 0.000000
# 4 0.000000 0.000000 0.000000 0.063953 0.000000 0.000000
# 5 0.000000 0.000000 0.000000 0.000000 0.064420 0.000000
# 6 0.000000 0.000000 0.000000 0.000000 0.000000 0.406964
#
#
# Mechanical properties :
#
#
# Convention : Reuss Voigt Hill
#
# Bulk Modulus (GPa) = 27.52663 30.29230 28.90946
# Shear Modulus (GPa) = 7.46374 15.19280 11.32827
#
# Velocity S-wave (km/s) = 2.30741 3.29204 2.84268
# Velocity P-wave (km/s) = 5.17055 6.00488 5.60326
#
# Compressibility (1/GPa) = 0.03632846
#
# Stress axis : x y z
#
# Youngs Moduli (GPa) = 36.70186 24.80913 84.46529
#
# Poissons Ratio (x) = 0.39989 0.10829
# Poissons Ratio (y) = 0.59158 0.34900
# Poissons Ratio (z) = 0.04706 0.10251
#
# Static dielectric constant tensor:
#      x y z
#    x 1.466980 0.000000 0.000000 
#    y 0.000000 1.442930 0.000000 
#    z 0.000000 0.000000 1.557160 
# 
# From -- ./inp_files/4684.got.cif
#   From: 2010.05.17/outbox.cif.g08.bks.cpg/sg48_3_cif.got.tgz:4684.got - 2010.06.03 20:39:00.
