data_PCOD9389680
_publ_section_title
;
Structure prediction by ZEFSAII (Michael W. Deem and Ramdas Pophale) SiO2 
 PCOD9389680
Probable space group: P N N N
;
_chemical_formula_sum "Si O2"
_cell_formula_units_Z 64
_cell_length_a 28.792662
_cell_length_b 20.957604
_cell_length_c 5.309486
_cell_angle_alpha 90.000000
_cell_angle_beta 90.000000
_cell_angle_gamma 90.000000
_cell_volume 3203.877696
_symmetry_space_group_name_H-M "P N N N"
_symmetry_group_IT_number 48
_space_group.IT_coordinate_system_code '2'
_symmetry_cell_setting 'orthorhombic'
loop_
_space_group_symop_operation_xyz
x,y,z
1/2-x,1/2-y,z
x,1/2-y,1/2-z
1/2-x,y,1/2-z
-x,-y,-z
1/2+x,1/2+y,-z
-x,1/2+y,1/2+z
1/2+x,-y,1/2+z
loop_
_atom_site_type_symbol
_atom_site_label
_atom_site_fract_x
_atom_site_fract_y
_atom_site_fract_z
Si Si1 0.608771 0.385790 0.499687
Si Si2 0.201818 0.384996 0.839812
Si Si3 0.920520 0.319569 0.499276
Si Si4 0.392188 0.467403 0.633956
Si Si5 0.078955 0.405513 0.368539
Si Si6 0.172864 0.322043 0.341297
Si Si7 0.328228 0.728298 0.499513
Si Si8 0.524442 0.714627 0.001055
O O1 0.585065 0.366452 0.762749
O O2 0.614488 0.460164 0.452385
O O3 0.656616 0.345089 0.499807
O O4 0.581118 0.357643 0.261589
O O5 0.250000 0.416437 0.750000
O O6 0.157765 0.432271 0.846817
O O7 0.193406 0.331933 0.620920
O O8 0.202388 0.355027 0.117863
O O9 0.876594 0.271085 0.502226
O O10 0.968777 0.282924 0.512885
O O11 0.422941 0.434286 0.412615
O O12 0.413613 0.457869 0.912205
O O13 0.124126 0.359569 0.356765
O O14 0.038678 0.358746 0.464965
O O15 0.166438 0.250000 0.250000
O O16 0.303412 0.750000 0.250000
O O17 0.303762 0.750000 0.750000
O O18 0.543430 0.750000 0.250000
O O19 0.540827 0.750000 0.750000
#
# Coordination Sequence:
#
# PCOD9389680 Si02
#       8
#     8   8   8   8   8   8   8   8
#     4  10  18  32  52  70  97 134 164 201 256 304
#     4  10  21  35  53  76 102 130 163 208 252 300
#     4  10  19  32  50  76  99 122 164 218 259 292
#     4  10  21  38  53  70 101 138 170 203 248 307
#     4  10  22  37  50  71 101 136 177 212 247 302
#     4  10  20  34  53  75 101 130 165 211 262 304
#     4   8  14  25  43  67  92 114 148 199 249 287
#     4  12  22  35  55  75  98 133 176 222 270 306
#
# _framework density 19.975792999999999
#
# number of rings (size 3 to 8) (size 9 to 14) (size 15 to 20)
#    0.000    2.000    0.000    5.625    0.000    3.500 
#    0.000    3.750    0.000    0.000    0.000    0.000 
#    0.000    4.500    0.000   22.625    0.000    0.000 
#
# Total GULP energy -356970.324181 kJ/mol
# GULP energy per Si atom -5577.661315 kJ/mol
# Density = 1.993033 g / cm^3
# Si number density = 19.975793 Si / 1000 Ang^3
#
#
#
# Elastic Constant Matrix: (Units=GPa)
#
#
# Indices 1 2 3 4 5 6 
#
# 1 38.7931 1.6964 18.2186 0.0000 0.0000 0.0000
# 2 1.6964 104.3667 39.8941 0.0000 0.0000 0.0000
# 3 18.2186 39.8941 174.8986 0.0000 0.0000 0.0000
# 4 0.0000 0.0000 0.0000 34.2085 0.0000 0.0000
# 5 0.0000 0.0000 0.0000 0.0000 -5.5623 0.0000
# 6 0.0000 0.0000 0.0000 0.0000 0.0000 37.0643
#
#
#
# Elastic Compliance Matrix: (Units=1/GPa)
#
#
# Indices 1 2 3 4 5 6 
#
# 1 0.027150 0.000701 -0.002988 0.000000 0.000000 0.000000
# 2 0.000701 0.010515 -0.002471 0.000000 0.000000 0.000000
# 3 -0.002988 -0.002471 0.006593 0.000000 0.000000 0.000000
# 4 0.000000 0.000000 0.000000 0.029233 0.000000 0.000000
# 5 0.000000 0.000000 0.000000 0.000000 -0.179782 0.000000
# 6 0.000000 0.000000 0.000000 0.000000 0.000000 0.026980
#
#
# Mechanical properties :
#
#
# Convention : Reuss Voigt Hill
#
# Bulk Modulus (GPa) = 28.78467 48.63071 38.70769
# Shear Modulus (GPa) = -85.88989 30.35872 -27.76559
#
# Velocity S-wave (km/s) = -6.56432 3.90266 -3.73226
# Velocity P-wave (km/s) = 6.55841 6.68621 0.91995
#
# Compressibility (1/GPa) = 0.03474072
#
# Stress axis : x y z
#
# Youngs Moduli (GPa) = 36.83184 95.10299 151.68556
#
# Poissons Ratio (x) = -0.06666 0.45324
# Poissons Ratio (y) = -0.02581 0.37488
# Poissons Ratio (z) = 0.11005 0.23504
#
# Static dielectric constant tensor:
#      x y z
#    x 1.721280 0.000000 0.000000 
#    y 0.000000 1.689560 0.000000 
#    z 0.000000 0.000000 1.772600 
# 
# From -- ./inp_files/7145.got.cif
#   From: 2010.05.17/outbox.cif.g08.bks.cpg/sg48_4_cif.got.tgz:7145.got - 2010.06.03 20:39:00.
