data_PCOD9389727
_publ_section_title
;
Structure prediction by ZEFSAII (Michael W. Deem and Ramdas Pophale) SiO2 
 PCOD9389727
Probable space group: P N N N
;
_chemical_formula_sum "Si O2"
_cell_formula_units_Z 48
_cell_length_a 12.324891
_cell_length_b 15.916341
_cell_length_c 13.767024
_cell_angle_alpha 90.000000
_cell_angle_beta 90.000000
_cell_angle_gamma 90.000000
_cell_volume 2700.638109
_symmetry_space_group_name_H-M "P N N N"
_symmetry_group_IT_number 48
_space_group.IT_coordinate_system_code '2'
_symmetry_cell_setting 'orthorhombic'
loop_
_space_group_symop_operation_xyz
x,y,z
1/2-x,1/2-y,z
x,1/2-y,1/2-z
1/2-x,y,1/2-z
-x,-y,-z
1/2+x,1/2+y,-z
-x,1/2+y,1/2+z
1/2+x,-y,1/2+z
loop_
_atom_site_type_symbol
_atom_site_label
_atom_site_fract_x
_atom_site_fract_y
_atom_site_fract_z
Si Si1 0.350896 0.114494 0.302661
Si Si2 0.628416 0.215797 0.446242
Si Si3 0.377100 0.376080 0.772445
Si Si4 0.750000 0.750000 0.549667
Si Si5 0.948415 0.031887 0.098798
Si Si6 0.055895 0.279775 0.907676
Si Si7 0.498625 0.750000 0.750000
O O1 0.250000 0.072851 0.250000
O O2 0.304581 0.177505 0.384845
O O3 0.443395 0.057211 0.343907
O O4 0.419011 0.173863 0.231044
O O5 0.750000 0.250000 0.456338
O O6 0.620718 0.114097 0.433544
O O7 0.551662 0.255184 0.530851
O O8 0.575168 0.242178 0.343924
O O9 0.250000 0.365020 0.750000
O O10 0.391691 0.463088 0.831994
O O11 0.415833 0.302839 0.844708
O O12 0.440879 0.356645 0.670553
O O13 0.844493 0.788904 0.482790
O O14 0.000000 0.000000 0.000000
#
# Coordination Sequence:
#
# PCOD9389727 Si02
#       7
#     8   8   8   4   8   8   4
#     4  11  19  33  61  89 119 156 210 265 321 369
#     4  11  23  40  65  88 128 174 218 259 327 406
#     4  11  22  38  64  94 126 163 213 268 329 384
#     4  12  15  33  66  94 114 152 208 272 302 370
#     4  11  23  41  59  89 134 171 208 265 338 398
#     4  11  20  38  65  95 120 162 221 269 315 388
#     4  10  18  34  60  90 114 153 219 260 306 378
#
# _framework density 17.773575999999998
#
# number of rings (size 3 to 8) (size 9 to 14) (size 15 to 20)
#    0.000    1.000    8.333    0.750    0.000    2.667 
#    3.000    1.667    0.000    6.000    0.000    0.000 
#    0.000    0.000    0.000    0.000    0.000    0.000 
#
# Total GULP energy -267283.931725 kJ/mol
# GULP energy per Si atom -5568.415244 kJ/mol
# Density = 1.773312 g / cm^3
# Si number density = 17.773576 Si / 1000 Ang^3
#
#
#
# Elastic Constant Matrix: (Units=GPa)
#
#
# Indices 1 2 3 4 5 6 
#
# 1 126.8493 39.6938 37.9873 0.0000 0.0000 0.0000
# 2 39.6938 73.5402 37.1166 0.0000 0.0000 0.0000
# 3 37.9873 37.1166 81.6958 0.0000 0.0000 0.0000
# 4 0.0000 0.0000 0.0000 28.9066 0.0000 0.0000
# 5 0.0000 0.0000 0.0000 0.0000 13.3256 0.0000
# 6 0.0000 0.0000 0.0000 0.0000 0.0000 12.0965
#
#
#
# Elastic Compliance Matrix: (Units=1/GPa)
#
#
# Indices 1 2 3 4 5 6 
#
# 1 0.009970 -0.003946 -0.002843 0.000000 0.000000 0.000000
# 2 -0.003946 0.019206 -0.006891 0.000000 0.000000 0.000000
# 3 -0.002843 -0.006891 0.016693 0.000000 0.000000 0.000000
# 4 0.000000 0.000000 0.000000 0.034594 0.000000 0.000000
# 5 0.000000 0.000000 0.000000 0.000000 0.075043 0.000000
# 6 0.000000 0.000000 0.000000 0.000000 0.000000 0.082669
#
#
# Mechanical properties :
#
#
# Convention : Reuss Voigt Hill
#
# Bulk Modulus (GPa) = 54.02853 56.85343 55.44098
# Shear Modulus (GPa) = 18.40237 22.01825 20.21031
#
# Velocity S-wave (km/s) = 3.22122 3.52351 3.37575
# Velocity P-wave (km/s) = 6.65577 6.97212 6.81578
#
# Compressibility (1/GPa) = 0.01850874
#
# Stress axis : x y z
#
# Youngs Moduli (GPa) = 100.30508 52.06723 59.90521
#
# Poissons Ratio (x) = 0.20548 0.17030
# Poissons Ratio (y) = 0.39584 0.41279
# Poissons Ratio (z) = 0.28514 0.35878
#
# Static dielectric constant tensor:
#      x y z
#    x 1.599330 0.000000 0.000000 
#    y 0.000000 1.643510 0.000000 
#    z 0.000000 0.000000 1.599310 
# 
# From -- ./inp_files/26489.got.cif
#   From: 2010.05.17/outbox.cif.g08.bks.cpg/sg48_14_cif.got.tgz:26489.got - 2010.06.03 20:39:00.
