data_PCOD9389444
_publ_section_title
;
Structure prediction by ZEFSAII (Michael W. Deem and Ramdas Pophale) SiO2 
 PCOD9389444
Probable space group: P M M M
;
_chemical_formula_sum "Si O2"
_cell_formula_units_Z 64
_cell_length_a 24.000000
_cell_length_b 15.000000
_cell_length_c 9.000000
_cell_angle_alpha 90.000000
_cell_angle_beta 90.000000
_cell_angle_gamma 90.000000
_cell_volume 3240.000000
_symmetry_space_group_name_H-M "P M M M"
_symmetry_group_IT_number 47
_symmetry_cell_setting 'orthorhombic'
loop_
_space_group_symop_operation_xyz
x,y,z
-x,-y,z
x,-y,-z
-x,y,-z
-x,-y,-z
x,y,-z
-x,y,z
x,-y,z
loop_
_atom_site_type_symbol
_atom_site_label
_atom_site_fract_x
_atom_site_fract_y
_atom_site_fract_z
Si Si1 0.788111 0.099825 0.832915
Si Si2 0.436614 0.593850 0.819630
Si Si3 0.436769 0.106492 0.670230
Si Si4 0.059831 0.708328 0.818874
Si Si5 0.250330 0.732545 0.671339
Si Si6 0.365533 0.240089 0.824719
Si Si7 0.921500 0.904966 0.172306
Si Si8 0.167113 0.601236 0.820784
O O1 0.773402 0.170210 0.709447
O O2 0.854770 0.095764 0.834547
O O3 0.766436 0.000000 0.807728
O O4 0.770340 0.128959 0.000000
O O5 0.500000 0.593878 0.769409
O O6 0.409639 0.500000 0.772733
O O7 0.408154 0.683819 0.775442
O O8 0.436918 0.593943 0.000000
O O9 0.424841 0.134500 0.500000
O O10 0.500000 0.134603 0.707590
O O11 0.392893 0.147042 0.782311
O O12 0.435465 0.000000 0.673216
O O13 0.061780 0.810114 0.762590
O O14 0.111361 0.650568 0.767054
O O15 0.000000 0.668190 0.782888
O O16 0.064018 0.713482 0.000000
O O17 0.245752 0.711420 0.500000
O O18 0.312009 0.740084 0.729920
O O19 0.217905 0.659629 0.765807
O O20 0.354636 0.246336 0.000000
O O21 0.938228 0.000000 0.240580
O O22 0.940086 0.905668 0.000000
O O23 0.169772 0.500000 0.769185
O O24 0.166283 0.601100 0.000000
#
# Coordination Sequence:
#
# PCOD9389444 Si02
#       8
#     8   8   8   8   8   8   8   8
#     4   9  17  33  58  82 106 140 182 226 270 323
#     4   8  15  30  53  81 110 136 165 208 264 323
#     4   9  19  37  59  83 117 161 201 237 284 340
#     4   9  16  27  49  83 118 145 176 226 285 343
#     4  12  25  39  56  79 111 149 189 236 288 345
#     4  11  22  35  56  85 114 145 188 237 284 337
#     4   8  13  23  44  75 110 143 172 210 263 321
#     4  10  21  39  61  81 107 145 190 240 292 346
#
# _framework density 19.753086
#
# number of rings (size 3 to 8) (size 9 to 14) (size 15 to 20)
#    0.000    2.500    1.250    3.375    0.000    3.000 
#    0.000    4.375    0.000    1.500    0.000    5.250 
#    0.000    2.000    0.000    0.000    0.000    0.000 
#
# Total GULP energy -356363.837163 kJ/mol
# GULP energy per Si atom -5568.184956 kJ/mol
# Density = 1.970813 g / cm^3
# Si number density = 19.753086 Si / 1000 Ang^3
#
#
#
# Elastic Constant Matrix: (Units=GPa)
#
#
# Indices 1 2 3 4 5 6 
#
# 1 58.6370 41.8341 -0.3785 0.0000 0.0000 0.0000
# 2 41.8341 81.2523 14.6924 0.0000 0.0000 0.0000
# 3 -0.3785 14.6924 -5.4515 0.0000 0.0000 0.0000
# 4 0.0000 0.0000 0.0000 -23.6147 0.0000 0.0000
# 5 0.0000 0.0000 0.0000 0.0000 -523.4869 0.0000
# 6 0.0000 0.0000 0.0000 0.0000 0.0000 397.4683
#
#
#
# Elastic Compliance Matrix: (Units=1/GPa)
#
#
# Indices 1 2 3 4 5 6 
#
# 1 0.022282 -0.007525 -0.021828 0.000000 0.000000 0.000000
# 2 -0.007525 0.010816 0.029673 0.000000 0.000000 0.000000
# 3 -0.021828 0.029673 -0.101948 0.000000 0.000000 0.000000
# 4 0.000000 0.000000 0.000000 -0.042346 0.000000 0.000000
# 5 0.000000 0.000000 0.000000 0.000000 -0.001910 0.000000
# 6 0.000000 0.000000 0.000000 0.000000 0.000000 0.002516
#
#
# Mechanical properties :
#
#
# Convention : Reuss Voigt Hill
#
# Bulk Modulus (GPa) = -14.66060 27.41486 6.37713
# Shear Modulus (GPa) = -37.32260 -24.70734 -31.01497
#
# Velocity S-wave (km/s) = -4.35150 -3.54051 -3.96679
# Velocity P-wave (km/s) = 5.71712 1.67474 4.21250
#
# Compressibility (1/GPa) = -0.06821002
#
# Stress axis : x y z
#
# Youngs Moduli (GPa) = 44.87945 92.45431 -9.80893
#
# Poissons Ratio (x) = 0.69573 -0.21411
# Poissons Ratio (y) = 0.33772 0.29106
# Poissons Ratio (z) = 0.97964 -2.74342
#
# Static dielectric constant tensor:
#      x y z
#    x 1.719410 0.000000 0.000000 
#    y 0.000000 1.806290 0.000000 
#    z 0.000000 0.000000 1.664830 
# 
# From -- ./inp_files/12771.got.cif
#   From: 2010.05.17/outbox.ucp.g08.bks.cvg/sg47_7_cif.got.tgz:12771.got - 2010.06.11 16:36:43.
