data_PCOD9389381
_publ_section_title
;
Structure prediction by ZEFSAII (Michael W. Deem and Ramdas Pophale) SiO2 
 PCOD9389381
Probable space group: P M M M
;
_chemical_formula_sum "Si O2"
_cell_formula_units_Z 40
_cell_length_a 9.000000
_cell_length_b 9.000000
_cell_length_c 27.000000
_cell_angle_alpha 90.000000
_cell_angle_beta 90.000000
_cell_angle_gamma 90.000000
_cell_volume 2187.000000
_symmetry_space_group_name_H-M "P M M M"
_symmetry_group_IT_number 47
_symmetry_cell_setting 'orthorhombic'
loop_
_space_group_symop_operation_xyz
x,y,z
-x,-y,z
x,-y,-z
-x,y,-z
-x,-y,-z
x,y,-z
-x,y,z
x,-y,z
loop_
_atom_site_type_symbol
_atom_site_label
_atom_site_fract_x
_atom_site_fract_y
_atom_site_fract_z
Si Si1 0.320184 0.679363 0.901177
Si Si2 0.000000 0.824480 0.940548
Si Si3 0.828748 0.677932 0.201389
Si Si4 0.673673 0.820627 0.705444
Si Si5 0.678674 0.825655 0.405848
Si Si6 0.171794 0.322838 0.500000
O O1 0.500000 0.719681 0.912411
O O2 0.311765 0.500000 0.909618
O O3 0.285266 0.711303 0.843353
O O4 0.164316 0.750823 0.925097
O O5 0.000000 0.000000 0.924880
O O6 0.000000 0.818820 0.000000
O O7 0.828359 0.500000 0.207389
O O8 0.773649 0.753272 0.251569
O O9 0.000000 0.721578 0.188898
O O10 0.500000 0.778282 0.712496
O O11 0.720384 0.775196 0.649749
O O12 0.680026 0.000000 0.707056
O O13 0.500000 0.814469 0.408942
O O14 0.751161 0.738561 0.450671
O O15 0.716957 0.000000 0.410443
O O16 0.180484 0.500000 0.500000
O O17 0.000000 0.276784 0.500000
#
# Coordination Sequence:
#
# PCOD9389381 Si02
#       6
#     8   4   8   8   8   4
#     4  10  21  40  66  92 121 162 211 257 302 359
#     4  11  25  43  63  91 129 167 203 252 311 366
#     4  10  20  35  56  83 117 154 191 235 286 340
#     4   9  19  35  54  79 110 142 180 227 278 336
#     4   9  19  37  58  77 100 135 180 226 273 331
#     4  11  24  37  50  74 106 135 170 221 278 336
#
# _framework density 18.289895000000001
#
# number of rings (size 3 to 8) (size 9 to 14) (size 15 to 20)
#    0.000    2.200    1.000    2.700    0.000    8.000 
#    0.000    8.000    0.000    0.000    0.000    0.000 
#    0.000    0.000    0.000    0.000    0.000    0.000 
#
# Total GULP energy -222711.759067 kJ/mol
# GULP energy per Si atom -5567.793977 kJ/mol
# Density = 1.824827 g / cm^3
# Si number density = 18.289895 Si / 1000 Ang^3
#
#
#
# Elastic Constant Matrix: (Units=GPa)
#
#
# Indices 1 2 3 4 5 6 
#
# 1 113.6122 35.6584 42.7908 0.0000 0.0000 0.0000
# 2 35.6584 33.8894 28.5676 0.0000 0.0000 0.0000
# 3 42.7908 28.5676 97.3293 0.0000 0.0000 0.0000
# 4 0.0000 0.0000 0.0000 40.0116 0.0000 0.0000
# 5 0.0000 0.0000 0.0000 0.0000 39.3362 0.0000
# 6 0.0000 0.0000 0.0000 0.0000 0.0000 28.0802
#
#
#
# Elastic Compliance Matrix: (Units=1/GPa)
#
#
# Indices 1 2 3 4 5 6 
#
# 1 0.013536 -0.012259 -0.002353 0.000000 0.000000 0.000000
# 2 -0.012259 0.050312 -0.009378 0.000000 0.000000 0.000000
# 3 -0.002353 -0.009378 0.014061 0.000000 0.000000 0.000000
# 4 0.000000 0.000000 0.000000 0.024993 0.000000 0.000000
# 5 0.000000 0.000000 0.000000 0.000000 0.025422 0.000000
# 6 0.000000 0.000000 0.000000 0.000000 0.000000 0.035612
#
#
# Mechanical properties :
#
#
# Convention : Reuss Voigt Hill
#
# Bulk Modulus (GPa) = 33.41132 50.98494 42.19813
# Shear Modulus (GPa) = 22.53364 30.67321 26.60343
#
# Velocity S-wave (km/s) = 3.51383 4.09963 3.81798
# Velocity P-wave (km/s) = 5.89661 7.09548 6.52364
#
# Compressibility (1/GPa) = 0.02992998
#
# Stress axis : x y z
#
# Youngs Moduli (GPa) = 73.87930 19.87614 71.11734
#
# Poissons Ratio (x) = 0.24366 0.16732
# Poissons Ratio (y) = 0.90568 0.66691
# Poissons Ratio (z) = 0.17382 0.18639
#
# Static dielectric constant tensor:
#      x y z
#    x 1.649330 0.000000 0.000000 
#    y 0.000000 1.628080 0.000000 
#    z 0.000000 0.000000 1.632360 
# 
# From -- ./inp_files/33003.got.cif
#   From: 2010.05.17/outbox.ucp.g08.bks.cvg/sg47_17_cif.got.tgz:33003.got - 2010.06.11 16:36:43.
