data_PCOD9389966
_publ_section_title
;
Structure prediction by ZEFSAII (Michael W. Deem and Ramdas Pophale) SiO2 
 PCOD9389966
Probable space group: P N N N
;
_chemical_formula_sum "Si O2"
_cell_formula_units_Z 32
_cell_length_a 8.664130
_cell_length_b 34.079910
_cell_length_c 5.208968
_cell_angle_alpha 90.000000
_cell_angle_beta 90.000000
_cell_angle_gamma 90.000000
_cell_volume 1538.066413
_symmetry_space_group_name_H-M "P N N N"
_symmetry_group_IT_number 48
_space_group.IT_coordinate_system_code '2'
_symmetry_cell_setting 'orthorhombic'
loop_
_space_group_symop_operation_xyz
x,y,z
1/2-x,1/2-y,z
x,1/2-y,1/2-z
1/2-x,y,1/2-z
-x,-y,-z
1/2+x,1/2+y,-z
-x,1/2+y,1/2+z
1/2+x,-y,1/2+z
loop_
_atom_site_type_symbol
_atom_site_label
_atom_site_fract_x
_atom_site_fract_y
_atom_site_fract_z
Si Si1 0.925616 0.855346 0.741189
Si Si2 0.074615 0.232231 0.489399
Si Si3 0.435203 0.478025 0.753317
Si Si4 0.566108 0.109324 0.748378
O O1 0.750000 0.869885 0.750000
O O2 0.915029 0.812919 0.595602
O O3 0.020932 0.879474 0.536763
O O4 0.998502 0.861207 0.025889
O O5 0.250000 0.250000 0.494011
O O6 0.006756 0.250000 0.750000
O O7 0.985139 0.250000 0.250000
O O8 0.250000 0.478724 0.750000
O O9 0.500000 0.500000 0.500000
O O10 0.494156 0.433548 0.786827
O O11 0.500000 0.500000 0.000000
O O12 0.750000 0.108768 0.750000
#
# Coordination Sequence:
#
# PCOD9389966 Si02
#       4
#     8   8   8   8
#     4  12  23  41  70 103 132 174 236 298 339 411
#     4  10  19  34  61 100 127 161 222 284 343 399
#     4  12  25  46  73 103 139 184 236 284 343 416
#     4  12  27  45  65  99 147 187 227 282 361 416
#
# _framework density 20.805346
#
# number of rings (size 3 to 8) (size 9 to 14) (size 15 to 20)
#    0.000    0.500    2.500    8.250    3.500    0.000 
#    0.000    0.000    0.000   11.250    0.000    0.000 
#    0.000    0.000    0.000    0.000    0.000    0.000 
#
# Total GULP energy -178417.099361 kJ/mol
# GULP energy per Si atom -5575.534355 kJ/mol
# Density = 2.075799 g / cm^3
# Si number density = 20.805346 Si / 1000 Ang^3
#
#
#
# Elastic Constant Matrix: (Units=GPa)
#
#
# Indices 1 2 3 4 5 6 
#
# 1 162.7917 9.0361 31.6225 0.0000 0.0000 0.0000
# 2 9.0361 57.6626 -6.2095 0.0000 0.0000 0.0000
# 3 31.6225 -6.2095 161.9275 0.0000 0.0000 0.0000
# 4 0.0000 0.0000 0.0000 23.7829 0.0000 0.0000
# 5 0.0000 0.0000 0.0000 0.0000 21.4758 0.0000
# 6 0.0000 0.0000 0.0000 0.0000 0.0000 1140.7058
#
#
#
# Elastic Compliance Matrix: (Units=1/GPa)
#
#
# Indices 1 2 3 4 5 6 
#
# 1 0.006460 -0.001153 -0.001306 0.000000 0.000000 0.000000
# 2 -0.001153 0.017620 0.000901 0.000000 0.000000 0.000000
# 3 -0.001306 0.000901 0.006465 0.000000 0.000000 0.000000
# 4 0.000000 0.000000 0.000000 0.042047 0.000000 0.000000
# 5 0.000000 0.000000 0.000000 0.000000 0.046564 0.000000
# 6 0.000000 0.000000 0.000000 0.000000 0.000000 0.000877
#
#
# Mechanical properties :
#
#
# Convention : Reuss Voigt Hill
#
# Bulk Modulus (GPa) = 36.45706 50.14222 43.29964
# Shear Modulus (GPa) = 37.79505 260.38842 149.09173
#
# Velocity S-wave (km/s) = 4.26679 11.19939 8.47442
# Velocity P-wave (km/s) = 6.46799 13.83430 10.79868
#
# Compressibility (1/GPa) = 0.02742953
#
# Stress axis : x y z
#
# Youngs Moduli (GPa) = 154.78713 56.75381 154.67498
#
# Poissons Ratio (x) = 0.06544 0.20199
# Poissons Ratio (y) = 0.17847 -0.13934
# Poissons Ratio (z) = 0.20213 -0.05113
#
# Static dielectric constant tensor:
#      x y z
#    x 1.625960 0.000000 0.000000 
#    y 0.000000 1.951760 0.000000 
#    z 0.000000 0.000000 1.627410 
# 
# From -- ./inp_files/1144.got.cif
#   From: 2010.05.17/outbox.cif.g08.bks.cpg/sg48_1_cif.got.tgz:1144.got - 2010.06.03 20:39:00.
