data_PCOD9389717
_publ_section_title
;
Structure prediction by ZEFSAII (Michael W. Deem and Ramdas Pophale) SiO2 
 PCOD9389717
Probable space group: P N N N
;
_chemical_formula_sum "Si O2"
_cell_formula_units_Z 52
_cell_length_a 13.667923
_cell_length_b 24.160588
_cell_length_c 8.581534
_cell_angle_alpha 90.000000
_cell_angle_beta 90.000000
_cell_angle_gamma 90.000000
_cell_volume 2833.837549
_symmetry_space_group_name_H-M "P N N N"
_symmetry_group_IT_number 48
_space_group.IT_coordinate_system_code '2'
_symmetry_cell_setting 'orthorhombic'
loop_
_space_group_symop_operation_xyz
x,y,z
1/2-x,1/2-y,z
x,1/2-y,1/2-z
1/2-x,y,1/2-z
-x,-y,-z
1/2+x,1/2+y,-z
-x,1/2+y,1/2+z
1/2+x,-y,1/2+z
loop_
_atom_site_type_symbol
_atom_site_label
_atom_site_fract_x
_atom_site_fract_y
_atom_site_fract_z
Si Si1 0.640089 0.845705 0.229056
Si Si2 0.010790 0.750000 0.750000
Si Si3 0.624999 0.453557 0.097560
Si Si4 0.998167 0.447760 0.720247
Si Si5 0.189425 0.569558 0.090763
Si Si6 0.359175 0.252075 0.995298
Si Si7 0.350036 0.651037 0.676854
O O1 0.750000 0.869891 0.250000
O O2 0.558185 0.892026 0.245923
O O3 0.624754 0.809571 0.073052
O O4 0.638590 0.797784 0.359839
O O5 0.073251 0.800279 0.684274
O O6 0.940114 0.729657 0.614879
O O7 0.576523 0.503309 0.194397
O O8 0.624750 0.400181 0.208581
O O9 0.558219 0.443189 0.945223
O O10 0.734861 0.462300 0.026253
O O11 0.913178 0.456922 0.850711
O O12 0.250000 0.580234 0.250000
O O13 0.165204 0.624957 0.993786
O O14 0.250000 0.250000 0.061832
O O15 0.250000 0.673742 0.750000
#
# Coordination Sequence:
#
# PCOD9389717 Si02
#       7
#     8   4   8   8   8   8   8
#     4   9  18  33  53  75 102 137 178 216 254 308
#     4  12  20  32  56  76 100 138 174 208 258 322
#     4   9  20  35  53  78 110 138 169 223 272 309
#     4  10  18  34  57  79 103 141 182 213 261 325
#     4   9  19  36  56  77 107 142 175 217 269 319
#     4   9  19  34  50  75 107 135 168 217 264 302
#     4  10  21  36  52  76 107 137 172 218 267 311
#
# _framework density 18.349675999999999
#
# number of rings (size 3 to 8) (size 9 to 14) (size 15 to 20)
#    0.000    2.462    0.000    3.231    0.000    2.462 
#    0.000    3.077    0.000   12.923    0.000    0.000 
#    0.000    0.000    0.000    0.000    0.000    0.000 
#
# Total GULP energy -289689.359139 kJ/mol
# GULP energy per Si atom -5570.949214 kJ/mol
# Density = 1.830791 g / cm^3
# Si number density = 18.349676 Si / 1000 Ang^3
#
#
#
# Elastic Constant Matrix: (Units=GPa)
#
#
# Indices 1 2 3 4 5 6 
#
# 1 126.3184 56.2128 33.6626 0.0000 0.0000 0.0000
# 2 56.2128 67.1239 16.9481 0.0000 0.0000 0.0000
# 3 33.6626 16.9481 58.1763 0.0000 0.0000 0.0000
# 4 0.0000 0.0000 0.0000 11.6715 0.0000 0.0000
# 5 0.0000 0.0000 0.0000 0.0000 23.1545 0.0000
# 6 0.0000 0.0000 0.0000 0.0000 0.0000 47.1890
#
#
#
# Elastic Compliance Matrix: (Units=1/GPa)
#
#
# Indices 1 2 3 4 5 6 
#
# 1 0.013848 -0.010334 -0.005003 0.000000 0.000000 0.000000
# 2 -0.010334 0.023793 -0.000952 0.000000 0.000000 0.000000
# 3 -0.005003 -0.000952 0.020361 0.000000 0.000000 0.000000
# 4 0.000000 0.000000 0.000000 0.085679 0.000000 0.000000
# 5 0.000000 0.000000 0.000000 0.000000 0.043188 0.000000
# 6 0.000000 0.000000 0.000000 0.000000 0.000000 0.021191
#
#
# Mechanical properties :
#
#
# Convention : Reuss Voigt Hill
#
# Bulk Modulus (GPa) = 39.33114 51.69618 45.51366
# Shear Modulus (GPa) = 20.07129 26.05600 23.06365
#
# Velocity S-wave (km/s) = 3.31089 3.77234 3.54912
# Velocity P-wave (km/s) = 6.00806 6.87081 6.45386
#
# Compressibility (1/GPa) = 0.02542515
#
# Stress axis : x y z
#
# Youngs Moduli (GPa) = 72.21007 42.03002 49.11359
#
# Poissons Ratio (x) = 0.43435 0.24569
# Poissons Ratio (y) = 0.74624 0.04674
# Poissons Ratio (z) = 0.36123 0.04000
#
# Static dielectric constant tensor:
#      x y z
#    x 1.664020 0.000000 0.000000 
#    y 0.000000 1.583530 0.000000 
#    z 0.000000 0.000000 1.633330 
# 
# From -- ./inp_files/11414.got.cif
#   From: 2010.05.17/outbox.cif.g08.bks.cpg/sg48_6_cif.got.tgz:11414.got - 2010.06.03 20:39:00.
