data_PCOD9389292
_publ_section_title
;
Structure prediction by ZEFSAII (Michael W. Deem and Ramdas Pophale) SiO2 
 PCOD9389292
Probable space group: P M M M
;
_chemical_formula_sum "Si O2"
_cell_formula_units_Z 52
_cell_length_a 9.000000
_cell_length_b 21.000000
_cell_length_c 15.000000
_cell_angle_alpha 90.000000
_cell_angle_beta 90.000000
_cell_angle_gamma 90.000000
_cell_volume 2835.000000
_symmetry_space_group_name_H-M "P M M M"
_symmetry_group_IT_number 47
_symmetry_cell_setting 'orthorhombic'
loop_
_space_group_symop_operation_xyz
x,y,z
-x,-y,z
x,-y,-z
-x,y,-z
-x,-y,-z
x,y,-z
-x,y,z
x,-y,z
loop_
_atom_site_type_symbol
_atom_site_label
_atom_site_fract_x
_atom_site_fract_y
_atom_site_fract_z
Si Si1 0.680102 0.681438 0.277776
Si Si2 0.323707 0.880310 0.172741
Si Si3 0.320638 0.739597 0.102058
Si Si4 0.177950 0.927839 0.648170
Si Si5 0.674008 0.798286 0.598928
Si Si6 0.164760 0.073831 0.000000
Si Si7 0.821363 0.425861 0.602460
O O1 0.500000 0.680208 0.281293
O O2 0.727071 0.687046 0.174223
O O3 0.727680 0.745487 0.331339
O O4 0.744732 0.621332 0.328934
O O5 0.500000 0.887334 0.186539
O O6 0.290933 0.806136 0.152605
O O7 0.235246 0.913086 0.252427
O O8 0.264482 0.911112 0.083903
O O9 0.500000 0.736037 0.095212
O O10 0.263190 0.738033 0.000000
O O11 0.244402 0.866100 0.599528
O O12 0.000000 0.926106 0.643012
O O13 0.224538 0.000000 0.621219
O O14 0.684999 0.770332 0.500000
O O15 0.500000 0.811007 0.618617
O O16 0.000000 0.105585 0.000000
O O17 0.140291 0.000000 0.000000
O O18 0.778724 0.410674 0.500000
O O19 0.784332 0.500000 0.618587
O O20 0.000000 0.419735 0.608383
#
# Coordination Sequence:
#
# PCOD9389292 Si02
#       7
#     8   8   8   8   8   4   8
#     4  10  19  34  58  86 115 144 179 227 276 321
#     4  11  20  35  57  76  97 134 183 229 279 339
#     4   9  17  32  55  81 108 138 176 224 273 320
#     4  11  24  39  53  72 103 141 180 229 288 342
#     4  10  21  37  57  81 107 138 182 233 281 334
#     4  11  23  35  47  71 107 137 168 223 290 347
#     4   9  19  36  57  84 120 157 188 219 261 318
#
# _framework density 18.342151999999999
#
# number of rings (size 3 to 8) (size 9 to 14) (size 15 to 20)
#    0.000    1.923    2.308    2.538    0.000    6.154 
#    0.000    2.308    0.000    0.462    0.000    3.231 
#    0.000    0.000    0.000    0.000    0.000    0.000 
#
# Total GULP energy -289752.045196 kJ/mol
# GULP energy per Si atom -5572.154715 kJ/mol
# Density = 1.830040 g / cm^3
# Si number density = 18.342152 Si / 1000 Ang^3
#
#
#
# Elastic Constant Matrix: (Units=GPa)
#
#
# Indices 1 2 3 4 5 6 
#
# 1 12.6253 24.5817 13.2921 0.0000 0.0000 0.0000
# 2 24.5817 93.7403 42.9056 0.0000 0.0000 0.0000
# 3 13.2921 42.9056 67.5087 0.0000 0.0000 0.0000
# 4 0.0000 0.0000 0.0000 33.3112 0.0000 0.0000
# 5 0.0000 0.0000 0.0000 0.0000 53.3713 0.0000
# 6 0.0000 0.0000 0.0000 0.0000 0.0000 32.4541
#
#
#
# Elastic Compliance Matrix: (Units=1/GPa)
#
#
# Indices 1 2 3 4 5 6 
#
# 1 0.164144 -0.039841 -0.006998 0.000000 0.000000 0.000000
# 2 -0.039841 0.024714 -0.007863 0.000000 0.000000 0.000000
# 3 -0.006998 -0.007863 0.021188 0.000000 0.000000 0.000000
# 4 0.000000 0.000000 0.000000 0.030020 0.000000 0.000000
# 5 0.000000 0.000000 0.000000 0.000000 0.018737 0.000000
# 6 0.000000 0.000000 0.000000 0.000000 0.000000 0.030813
#
#
# Mechanical properties :
#
#
# Convention : Reuss Voigt Hill
#
# Bulk Modulus (GPa) = 9.93610 37.27035 23.60323
# Shear Modulus (GPa) = 11.55891 30.03365 20.79628
#
# Velocity S-wave (km/s) = 2.51307 4.05088 3.37084
# Velocity P-wave (km/s) = 3.72149 6.49947 5.29588
#
# Compressibility (1/GPa) = 0.10064311
#
# Stress axis : x y z
#
# Youngs Moduli (GPa) = 6.09221 40.46255 47.19638
#
# Poissons Ratio (x) = 1.61206 0.33028
# Poissons Ratio (y) = 0.24272 0.37110
# Poissons Ratio (z) = 0.04263 0.31815
#
# Static dielectric constant tensor:
#      x y z
#    x 1.633540 0.000000 0.000000 
#    y 0.000000 1.639910 0.000000 
#    z 0.000000 0.000000 1.645810 
# 
# From -- ./inp_files/21405.got.cif
#   From: 2010.05.17/outbox.ucp.g08.bks.cvg/sg47_11_cif.got.tgz:21405.got - 2010.06.11 16:36:43.
