data_PCOD9389586
_publ_section_title
;
Structure prediction by ZEFSAII (Michael W. Deem and Ramdas Pophale) SiO2 
 PCOD9389586
Probable space group: P N N N
;
_chemical_formula_sum "Si O2"
_cell_formula_units_Z 44
_cell_length_a 8.474056
_cell_length_b 31.623719
_cell_length_c 8.025505
_cell_angle_alpha 90.000000
_cell_angle_beta 90.000000
_cell_angle_gamma 90.000000
_cell_volume 2150.684186
_symmetry_space_group_name_H-M "P N N N"
_symmetry_group_IT_number 48
_space_group.IT_coordinate_system_code '2'
_symmetry_cell_setting 'orthorhombic'
loop_
_space_group_symop_operation_xyz
x,y,z
1/2-x,1/2-y,z
x,1/2-y,1/2-z
1/2-x,y,1/2-z
-x,-y,-z
1/2+x,1/2+y,-z
-x,1/2+y,1/2+z
1/2+x,-y,1/2+z
loop_
_atom_site_type_symbol
_atom_site_label
_atom_site_fract_x
_atom_site_fract_y
_atom_site_fract_z
Si Si1 0.193369 0.794046 0.944343
Si Si2 0.340576 0.424270 0.981739
Si Si3 0.641239 0.123742 0.095819
Si Si4 0.509177 0.443450 0.655577
Si Si5 0.750000 0.514102 0.750000
Si Si6 0.106939 0.163933 0.153588
O O1 0.250000 0.750000 0.020978
O O2 0.250000 0.792603 0.750000
O O3 0.275745 0.837252 0.000245
O O4 0.007762 0.803587 0.940110
O O5 0.357673 0.454774 0.139246
O O6 0.338817 0.375281 0.037849
O O7 0.479195 0.430619 0.848084
O O8 0.171323 0.440636 0.911942
O O9 0.750000 0.108160 0.250000
O O10 0.493214 0.142198 0.197488
O O11 0.597846 0.089295 0.962357
O O12 0.621226 0.484506 0.657967
O O13 0.250000 0.185383 0.250000
#
# Coordination Sequence:
#
# PCOD9389586 Si02
#       6
#     8   8   8   8   4   8
#     4   8  17  33  56  90 124 146 195 250 290 364
#     4  11  23  41  58  85 122 154 210 261 306 367
#     4   9  19  36  59  84 121 158 201 248 308 370
#     4  11  24  39  59  86 116 162 207 260 307 370
#     4  12  24  40  60  84 119 159 214 258 314 358
#     4  10  17  34  64  82 119 164 194 248 307 361
#
# _framework density 20.458608000000002
#
# number of rings (size 3 to 8) (size 9 to 14) (size 15 to 20)
#    0.000    2.364    2.727    1.091    5.091    0.000 
#    6.545    7.273    0.000    2.182    0.000    2.545 
#    0.000    0.000    0.000    0.000    0.000    0.000 
#
# Total GULP energy -245090.315427 kJ/mol
# GULP energy per Si atom -5570.234442 kJ/mol
# Density = 2.041204 g / cm^3
# Si number density = 20.458608 Si / 1000 Ang^3
#
#
#
# Elastic Constant Matrix: (Units=GPa)
#
#
# Indices 1 2 3 4 5 6 
#
# 1 90.0737 32.5285 23.0832 0.0000 0.0000 0.0000
# 2 32.5285 102.7600 45.2024 0.0000 0.0000 0.0000
# 3 23.0832 45.2024 62.0148 0.0000 0.0000 0.0000
# 4 0.0000 0.0000 0.0000 112.4856 0.0000 0.0000
# 5 0.0000 0.0000 0.0000 0.0000 25.6194 0.0000
# 6 0.0000 0.0000 0.0000 0.0000 0.0000 -28.4291
#
#
#
# Elastic Compliance Matrix: (Units=1/GPa)
#
#
# Indices 1 2 3 4 5 6 
#
# 1 0.012829 -0.002886 -0.002672 0.000000 0.000000 0.000000
# 2 -0.002886 0.014973 -0.009840 0.000000 0.000000 0.000000
# 3 -0.002672 -0.009840 0.024292 0.000000 0.000000 0.000000
# 4 0.000000 0.000000 0.000000 0.008890 0.000000 0.000000
# 5 0.000000 0.000000 0.000000 0.000000 0.039033 0.000000
# 6 0.000000 0.000000 0.000000 0.000000 0.000000 -0.035175
#
#
# Mechanical properties :
#
#
# Convention : Reuss Voigt Hill
#
# Bulk Modulus (GPa) = 46.94977 50.71963 48.83470
# Shear Modulus (GPa) = 48.66836 32.20413 40.43624
#
# Velocity S-wave (km/s) = 4.88266 3.97181 4.45060
# Velocity P-wave (km/s) = 7.40173 6.77339 7.09452
#
# Compressibility (1/GPa) = 0.02129936
#
# Stress axis : x y z
#
# Youngs Moduli (GPa) = 77.94945 66.78581 41.16598
#
# Poissons Ratio (x) = 0.19272 0.10999
# Poissons Ratio (y) = 0.22494 0.40507
# Poissons Ratio (z) = 0.20827 0.65716
#
# Static dielectric constant tensor:
#      x y z
#    x 1.833370 0.000000 0.000000 
#    y 0.000000 1.754670 0.000000 
#    z 0.000000 0.000000 1.787500 
# 
# From -- ./inp_files/9361.got.cif
#   From: 2010.05.17/outbox.cif.g08.bks.cpg/sg48_5_cif.got.tgz:9361.got - 2010.06.03 20:39:00.
