data_PCOD9389088
_publ_section_title
;
Structure prediction by ZEFSAII (Michael W. Deem and Ramdas Pophale) SiO2 
 PCOD9389088
Probable space group: P M M M
;
_chemical_formula_sum "Si O2"
_cell_formula_units_Z 52
_cell_length_a 35.070665
_cell_length_b 9.890429
_cell_length_c 7.482695
_cell_angle_alpha 90.000000
_cell_angle_beta 90.000000
_cell_angle_gamma 90.000000
_cell_volume 2595.476936
_symmetry_space_group_name_H-M "P M M M"
_symmetry_group_IT_number 47
_symmetry_cell_setting 'orthorhombic'
loop_
_space_group_symop_operation_xyz
x,y,z
-x,-y,z
x,-y,-z
-x,y,-z
-x,-y,-z
x,y,-z
-x,y,z
x,-y,z
loop_
_atom_site_type_symbol
_atom_site_label
_atom_site_fract_x
_atom_site_fract_y
_atom_site_fract_z
Si Si1 0.568372 0.654003 0.213201
Si Si2 0.500000 0.155711 0.219093
Si Si3 0.276847 0.842696 0.718334
Si Si4 0.957125 0.655645 0.781787
Si Si5 0.806430 0.156275 0.285507
Si Si6 0.110230 0.153821 0.787981
Si Si7 0.344932 0.653689 0.285440
O O1 0.563605 0.500000 0.283501
O O2 0.537098 0.759929 0.278524
O O3 0.611863 0.697608 0.246204
O O4 0.563226 0.645817 0.000000
O O5 0.500000 0.000000 0.277169
O O6 0.500000 0.153607 0.000000
O O7 0.277418 0.841706 0.500000
O O8 0.234816 0.789823 0.773826
O O9 0.311962 0.752512 0.781521
O O10 0.280445 0.000000 0.771140
O O11 0.951114 0.500000 0.727449
O O12 0.923706 0.753373 0.717153
O O13 0.000000 0.696866 0.728388
O O14 0.956536 0.656530 0.000000
O O15 0.805493 0.154812 0.500000
O O16 0.847403 0.215258 0.235639
O O17 0.807471 0.000000 0.222530
O O18 0.109796 0.000000 0.714727
O O19 0.104321 0.143228 0.000000
O O20 0.341406 0.649058 0.500000
O O21 0.340630 0.500000 0.217883
#
# Coordination Sequence:
#
# PCOD9389088 Si02
#       7
#     8   4   8   8   8   8   8
#     4   9  17  30  47  64  84 113 144 169 200 247
#     4   9  17  29  46  67  88 110 140 177 208 236
#     4   8  14  26  44  62  80 108 143 170 196 240
#     4   8  14  25  40  57  79 108 137 162 195 244
#     4   8  14  26  43  60  80 109 140 165 196 244
#     4   9  16  25  40  63  85 102 128 171 211 236
#     4   9  17  29  45  65  87 109 136 173 211 241
#
# _framework density 20.034852999999998
#
# number of rings (size 3 to 8) (size 9 to 14) (size 15 to 20)
#    0.000    3.462    0.000    1.615    0.000    1.846 
#    0.000    3.462    0.000    5.077    0.000    3.231 
#    0.000    0.000    0.000    0.000    0.000    0.000 
#
# Total GULP energy -289715.342360 kJ/mol
# GULP energy per Si atom -5571.448892 kJ/mol
# Density = 1.998925 g / cm^3
# Si number density = 20.034853 Si / 1000 Ang^3
#
#
#
# Elastic Constant Matrix: (Units=GPa)
#
#
# Indices 1 2 3 4 5 6 
#
# 1 240.8342 121.9657 1.9122 0.0000 0.0000 0.0000
# 2 121.9657 88.7620 4.8609 0.0000 0.0000 0.0000
# 3 1.9122 4.8609 54.2028 0.0000 0.0000 0.0000
# 4 0.0000 0.0000 0.0000 -0.0273 0.0000 0.0000
# 5 0.0000 0.0000 0.0000 0.0000 19.3429 0.0000
# 6 0.0000 0.0000 0.0000 0.0000 0.0000 87.2079
#
#
#
# Elastic Compliance Matrix: (Units=1/GPa)
#
#
# Indices 1 2 3 4 5 6 
#
# 1 0.013732 -0.018935 0.001214 0.000000 0.000000 0.000000
# 2 -0.018935 0.037432 -0.002689 0.000000 0.000000 0.000000
# 3 0.001214 -0.002689 0.018648 0.000000 0.000000 0.000000
# 4 0.000000 0.000000 0.000000-36.666601 0.000000 0.000000
# 5 0.000000 0.000000 0.000000 0.000000 0.051699 0.000000
# 6 0.000000 0.000000 0.000000 0.000000 0.000000 0.011467
#
#
# Mechanical properties :
#
#
# Convention : Reuss Voigt Hill
#
# Bulk Modulus (GPa) = 34.49416 71.25297 52.87356
# Shear Modulus (GPa) = -0.13705 38.30871 19.08583
#
# Velocity S-wave (km/s) = -0.26183 4.37750 3.08982
# Velocity P-wave (km/s) = 4.14283 7.82252 6.25919
#
# Compressibility (1/GPa) = 0.02899041
#
# Stress axis : x y z
#
# Youngs Moduli (GPa) = 72.82279 26.71527 53.62631
#
# Poissons Ratio (x) = 0.50586 -0.06508
# Poissons Ratio (y) = 1.37892 0.14420
# Poissons Ratio (z) = -0.08838 0.07183
#
# Static dielectric constant tensor:
#      x y z
#    x 1.717160 0.000000 0.000000 
#    y 0.000000 1.685790 0.000000 
#    z 0.000000 0.000000 1.771410 
# 
# From -- ./inp_files/20029.got.cif
#   From: 2010.05.17/outbox.cif.g08.bks.cpg/sg47_11_cif.got.tgz:20029.got - 2010.06.03 20:15:42.
