data_PCOD9389203
_publ_section_title
;
Structure prediction by ZEFSAII (Michael W. Deem and Ramdas Pophale) SiO2 
 PCOD9389203
Probable space group: P M M M
;
_chemical_formula_sum "Si O2"
_cell_formula_units_Z 40
_cell_length_a 7.846575
_cell_length_b 29.129268
_cell_length_c 9.252311
_cell_angle_alpha 90.000000
_cell_angle_beta 90.000000
_cell_angle_gamma 90.000000
_cell_volume 2114.754335
_symmetry_space_group_name_H-M "P M M M"
_symmetry_group_IT_number 47
_symmetry_cell_setting 'orthorhombic'
loop_
_space_group_symop_operation_xyz
x,y,z
-x,-y,z
x,-y,-z
-x,y,-z
-x,-y,-z
x,y,-z
-x,y,z
x,-y,z
loop_
_atom_site_type_symbol
_atom_site_label
_atom_site_fract_x
_atom_site_fract_y
_atom_site_fract_z
Si Si1 0.702346 0.311607 0.165185
Si Si2 0.500000 0.947521 0.675964
Si Si3 0.204122 0.212691 0.165161
Si Si4 0.800660 0.879713 0.673897
Si Si5 0.209176 0.500000 0.665716
Si Si6 0.203917 0.410223 0.164966
O O1 0.500000 0.312940 0.157216
O O2 0.751160 0.262479 0.230000
O O3 0.759510 0.360008 0.230384
O O4 0.774451 0.311038 0.000000
O O5 0.500000 0.948575 0.500000
O O6 0.669609 0.919514 0.718780
O O7 0.500000 0.000000 0.727015
O O8 0.256881 0.168335 0.255512
O O9 0.000000 0.210845 0.157882
O O10 0.271998 0.210579 0.000000
O O11 0.793872 0.875621 0.500000
O O12 0.000000 0.888547 0.712572
O O13 0.262482 0.500000 0.500000
O O14 0.267121 0.546147 0.746263
O O15 0.000000 0.500000 0.668064
O O16 0.000000 0.414549 0.156706
O O17 0.271669 0.411136 0.000000
#
# Coordination Sequence:
#
# PCOD9389203 Si02
#       6
#     8   4   8   8   4   8
#     4   9  17  28  44  68  94 119 151 191 231 275
#     4   9  18  32  51  75 101 131 169 210 249 288
#     4   9  17  30  49  72  97 127 161 196 238 287
#     4   9  18  32  50  73 100 129 164 206 249 293
#     4   9  17  29  46  67  88 112 146 187 230 276
#     4   9  16  28  47  67  86 111 147 189 228 269
#
# _framework density 18.914728
#
# number of rings (size 3 to 8) (size 9 to 14) (size 15 to 20)
#    0.000    3.000    0.000    0.900    1.400    4.000 
#    0.000    3.500    0.000   10.800    0.000    2.800 
#    0.000    0.000    0.000    0.000    0.000    0.000 
#
# Total GULP energy -222810.558175 kJ/mol
# GULP energy per Si atom -5570.263954 kJ/mol
# Density = 1.887168 g / cm^3
# Si number density = 18.914728 Si / 1000 Ang^3
#
#
#
# Elastic Constant Matrix: (Units=GPa)
#
#
# Indices 1 2 3 4 5 6 
#
# 1 50.4995 54.0551 18.3338 0.0000 0.0000 0.0000
# 2 54.0551 228.6232 51.3575 0.0000 0.0000 0.0000
# 3 18.3338 51.3575 29.6746 0.0000 0.0000 0.0000
# 4 0.0000 0.0000 0.0000 25.8216 0.0000 0.0000
# 5 0.0000 0.0000 0.0000 0.0000 7.3840 0.0000
# 6 0.0000 0.0000 0.0000 0.0000 0.0000 65.8839
#
#
#
# Elastic Compliance Matrix: (Units=1/GPa)
#
#
# Indices 1 2 3 4 5 6 
#
# 1 0.028085 -0.004487 -0.009586 0.000000 0.000000 0.000000
# 2 -0.004487 0.007873 -0.010854 0.000000 0.000000 0.000000
# 3 -0.009586 -0.010854 0.058406 0.000000 0.000000 0.000000
# 4 0.000000 0.000000 0.000000 0.038727 0.000000 0.000000
# 5 0.000000 0.000000 0.000000 0.000000 0.135428 0.000000
# 6 0.000000 0.000000 0.000000 0.000000 0.000000 0.015178
#
#
# Mechanical properties :
#
#
# Convention : Reuss Voigt Hill
#
# Bulk Modulus (GPa) = 22.46675 61.81001 42.13838
# Shear Modulus (GPa) = 14.35183 32.15465 23.25324
#
# Velocity S-wave (km/s) = 2.75756 4.12755 3.51004
# Velocity P-wave (km/s) = 4.69495 7.44747 6.22524
#
# Compressibility (1/GPa) = 0.04451023
#
# Stress axis : x y z
#
# Youngs Moduli (GPa) = 35.60567 127.01613 17.12165
#
# Poissons Ratio (x) = 0.56992 0.16413
# Poissons Ratio (y) = 0.15976 0.18583
# Poissons Ratio (z) = 0.34133 1.37857
#
# Static dielectric constant tensor:
#      x y z
#    x 1.667340 0.000000 0.000000 
#    y 0.000000 1.672030 0.000000 
#    z 0.000000 0.000000 1.657500 
# 
# From -- ./inp_files/1705.got.cif
#   From: 2010.05.17/outbox.cif.g08.bks.cpg/sg47_1_cif.got.tgz:1705.got - 2010.06.03 20:15:42.
