data_PCOD9389215
_publ_section_title
;
Structure prediction by ZEFSAII (Michael W. Deem and Ramdas Pophale) SiO2 
 PCOD9389215
Probable space group: P M M M
;
_chemical_formula_sum "Si O2"
_cell_formula_units_Z 64
_cell_length_a 13.086447
_cell_length_b 26.136713
_cell_length_c 7.394192
_cell_angle_alpha 90.000000
_cell_angle_beta 90.000000
_cell_angle_gamma 90.000000
_cell_volume 2529.085101
_symmetry_space_group_name_H-M "P M M M"
_symmetry_group_IT_number 47
_symmetry_cell_setting 'orthorhombic'
loop_
_space_group_symop_operation_xyz
x,y,z
-x,-y,z
x,-y,-z
-x,y,-z
-x,-y,-z
x,y,-z
-x,y,z
x,-y,z
loop_
_atom_site_type_symbol
_atom_site_label
_atom_site_fract_x
_atom_site_fract_y
_atom_site_fract_z
Si Si1 0.165510 0.944490 0.280298
Si Si2 0.837637 0.554715 0.709722
Si Si3 0.332251 0.191859 0.779206
Si Si4 0.608380 0.921633 0.710254
Si Si5 0.112114 0.331882 0.719399
Si Si6 0.611887 0.585820 0.219723
Si Si7 0.892418 0.168801 0.209243
Si Si8 0.338204 0.698591 0.208792
O O1 0.163764 0.941989 0.500000
O O2 0.283661 0.940808 0.216857
O O3 0.112807 0.892991 0.215113
O O4 0.124077 0.000000 0.227724
O O5 0.868985 0.554383 0.500000
O O6 0.869184 0.500000 0.789405
O O7 0.876944 0.608862 0.782739
O O8 0.714204 0.558144 0.717461
O O9 0.385952 0.140044 0.720119
O O10 0.214844 0.187077 0.713583
O O11 0.372318 0.246793 0.716850
O O12 0.333398 0.191377 0.000000
O O13 0.608124 0.936744 0.500000
O O14 0.500000 0.938086 0.790103
O O15 0.116734 0.331434 0.500000
O O16 0.214174 0.303773 0.784394
O O17 0.000000 0.312464 0.773948
O O18 0.500000 0.566140 0.272866
O O19 0.623171 0.644810 0.284322
O O20 0.616053 0.585107 0.000000
O O21 0.000000 0.185448 0.292154
O O22 0.892391 0.184649 0.000000
O O23 0.370289 0.697988 0.000000
#
# Coordination Sequence:
#
# PCOD9389215 Si02
#       8
#     8   8   8   8   8   8   8   8
#     4   9  18  32  49  69  93 121 154 192 231 272
#     4   9  18  32  49  69  93 121 154 192 231 272
#     4   9  18  32  50  71  94 122 156 193 231 272
#     4   9  18  32  49  70  96 124 154 189 230 276
#     4   9  18  32  49  70  96 124 154 189 230 276
#     4   9  18  32  48  67  93 123 154 189 230 276
#     4   9  18  32  48  67  93 123 154 189 230 276
#     4   9  18  32  50  71  94 122 156 193 231 272
#
# _framework density 25.305592999999998
#
# number of rings (size 3 to 8) (size 9 to 14) (size 15 to 20)
#    0.000    3.000    0.000    0.000    0.000    4.000 
#    0.000    7.500    0.000    0.000    0.000    7.000 
#    0.000    0.000    0.000    0.000    0.000    0.000 
#
# Total GULP energy -357496.975357 kJ/mol
# GULP energy per Si atom -5585.890240 kJ/mol
# Density = 2.524800 g / cm^3
# Si number density = 25.305593 Si / 1000 Ang^3
#
#
#
# Elastic Constant Matrix: (Units=GPa)
#
#
# Indices 1 2 3 4 5 6 
#
# 1 137.9709 -7.5891 -3.3858 0.0000 0.0000 0.0000
# 2 -7.5891 131.7880 -6.7492 0.0000 0.0000 0.0000
# 3 -3.3858 -6.7492 95.7842 0.0000 0.0000 0.0000
# 4 0.0000 0.0000 0.0000 2.4511 0.0000 0.0000
# 5 0.0000 0.0000 0.0000 0.0000 6.0137 0.0000
# 6 0.0000 0.0000 0.0000 0.0000 0.0000 -20.7703
#
#
#
# Elastic Compliance Matrix: (Units=1/GPa)
#
#
# Indices 1 2 3 4 5 6 
#
# 1 0.007279 0.000434 0.000288 0.000000 0.000000 0.000000
# 2 0.000434 0.007641 0.000554 0.000000 0.000000 0.000000
# 3 0.000288 0.000554 0.010489 0.000000 0.000000 0.000000
# 4 0.000000 0.000000 0.000000 0.407974 0.000000 0.000000
# 5 0.000000 0.000000 0.000000 0.000000 0.166288 0.000000
# 6 0.000000 0.000000 0.000000 0.000000 0.000000 -0.048146
#
#
# Mechanical properties :
#
#
# Convention : Reuss Voigt Hill
#
# Bulk Modulus (GPa) = 35.76472 36.67721 36.22097
# Shear Modulus (GPa) = 8.95584 23.09006 16.02295
#
# Velocity S-wave (km/s) = 1.88328 3.02395 2.51903
# Velocity P-wave (km/s) = 4.34659 5.16890 4.77548
#
# Compressibility (1/GPa) = 0.02796052
#
# Stress axis : x y z
#
# Youngs Moduli (GPa) = 137.38464 130.86797 95.33495
#
# Poissons Ratio (x) = -0.05678 -0.02744
# Poissons Ratio (y) = -0.05961 -0.05279
# Poissons Ratio (z) = -0.03955 -0.07247
#
# Static dielectric constant tensor:
#      x y z
#    x 1.994470 0.000000 0.000000 
#    y 0.000000 1.979630 0.000000 
#    z 0.000000 0.000000 1.972980 
# 
# From -- ./inp_files/8308.got.cif
#   From: 2010.05.17/outbox.cif.g08.bks.cpg/sg47_5_cif.got.tgz:8308.got - 2010.06.03 20:15:42.
