data_PCOD9389867
_publ_section_title
;
Structure prediction by ZEFSAII (Michael W. Deem and Ramdas Pophale) SiO2 
 PCOD9389867
Probable space group: P N N N
;
_chemical_formula_sum "Si O2"
_cell_formula_units_Z 64
_cell_length_a 5.667923
_cell_length_b 26.115634
_cell_length_c 22.406726
_cell_angle_alpha 90.000000
_cell_angle_beta 90.000000
_cell_angle_gamma 90.000000
_cell_volume 3316.675010
_symmetry_space_group_name_H-M "P N N N"
_symmetry_group_IT_number 48
_space_group.IT_coordinate_system_code '2'
_symmetry_cell_setting 'orthorhombic'
loop_
_space_group_symop_operation_xyz
x,y,z
1/2-x,1/2-y,z
x,1/2-y,1/2-z
1/2-x,y,1/2-z
-x,-y,-z
1/2+x,1/2+y,-z
-x,1/2+y,1/2+z
1/2+x,-y,1/2+z
loop_
_atom_site_type_symbol
_atom_site_label
_atom_site_fract_x
_atom_site_fract_y
_atom_site_fract_z
Si Si1 0.001767 0.723184 0.513125
Si Si2 0.996328 0.922643 0.725080
Si Si3 0.002797 0.544224 0.223547
Si Si4 0.495929 0.739706 0.647779
Si Si5 0.059152 0.450648 0.916372
Si Si6 0.480522 0.625144 0.600551
Si Si7 0.160922 0.114964 0.993437
Si Si8 0.289222 0.952321 0.529788
O O1 0.750000 0.750000 0.495967
O O2 0.996080 0.665546 0.487925
O O3 0.250000 0.750000 0.495539
O O4 0.001888 0.726807 0.585976
O O5 0.250000 0.902324 0.750000
O O6 0.750000 0.900236 0.750000
O O7 0.974005 0.912791 0.654973
O O8 0.997814 0.983219 0.737887
O O9 0.750000 0.563592 0.250000
O O10 0.014267 0.550107 0.152048
O O11 0.250000 0.565101 0.250000
O O12 0.250000 0.750000 0.680502
O O13 0.472043 0.681092 0.627619
O O14 0.750000 0.750000 0.676706
O O15 0.199823 0.399189 0.933653
O O16 0.858829 0.453895 0.968084
O O17 0.215110 0.501645 0.927723
O O18 0.671455 0.627226 0.548628
O O19 0.261423 0.599890 0.566822
O O20 0.053364 0.059310 0.010848
#
# Coordination Sequence:
#
# PCOD9389867 Si02
#       8
#     8   8   8   8   8   8   8   8
#     4  10  19  35  53  81 117 150 195 227 284 359
#     4  10  23  39  56  80 106 148 208 262 289 339
#     4  10  22  40  62  79 111 163 207 246 280 334
#     4  10  19  32  52  80 105 141 193 232 286 360
#     4  10  22  37  52  90 122 158 199 238 300 361
#     4  11  21  35  58  81 111 154 199 243 308 354
#     4  11  22  33  59  87 119 163 184 247 302 374
#     4  10  21  35  54  84 125 155 186 240 304 366
#
# _framework density 19.296434000000001
#
# number of rings (size 3 to 8) (size 9 to 14) (size 15 to 20)
#    0.000    1.750    3.750    1.875    5.250    1.000 
#    0.000    0.000    0.000    2.250    0.000    0.000 
#    0.000    0.500    1.500    0.000    0.000    0.000 
#
# Total GULP energy -356357.123700 kJ/mol
# GULP energy per Si atom -5568.080058 kJ/mol
# Density = 1.925251 g / cm^3
# Si number density = 19.296434 Si / 1000 Ang^3
#
#
#
# Elastic Constant Matrix: (Units=GPa)
#
#
# Indices 1 2 3 4 5 6 
#
# 1 125.9205 28.3807 35.7754 0.0000 0.0000 0.0000
# 2 28.3807 52.2389 8.0272 0.0000 0.0000 0.0000
# 3 35.7754 8.0272 74.1918 0.0000 0.0000 0.0000
# 4 0.0000 0.0000 0.0000 2.4064 0.0000 0.0000
# 5 0.0000 0.0000 0.0000 0.0000 1.2673 0.0000
# 6 0.0000 0.0000 0.0000 0.0000 0.0000 80.1858
#
#
#
# Elastic Compliance Matrix: (Units=1/GPa)
#
#
# Indices 1 2 3 4 5 6 
#
# 1 0.010312 -0.004920 -0.004440 0.000000 0.000000 0.000000
# 2 -0.004920 0.021814 0.000012 0.000000 0.000000 0.000000
# 3 -0.004440 0.000012 0.015618 0.000000 0.000000 0.000000
# 4 0.000000 0.000000 0.000000 0.415557 0.000000 0.000000
# 5 0.000000 0.000000 0.000000 0.000000 0.789106 0.000000
# 6 0.000000 0.000000 0.000000 0.000000 0.000000 0.012471
#
#
# Mechanical properties :
#
#
# Convention : Reuss Voigt Hill
#
# Bulk Modulus (GPa) = 34.42530 44.07976 39.25253
# Shear Modulus (GPa) = 3.86621 28.78308 16.32464
#
# Velocity S-wave (km/s) = 1.41702 3.86635 2.91175
# Velocity P-wave (km/s) = 4.53390 6.54405 5.62942
#
# Compressibility (1/GPa) = 0.02904840
#
# Stress axis : x y z
#
# Youngs Moduli (GPa) = 96.97526 45.84228 64.02756
#
# Poissons Ratio (x) = 0.22555 0.28429
# Poissons Ratio (y) = 0.47712 -0.00079
# Poissons Ratio (z) = 0.43058 -0.00056
#
# Static dielectric constant tensor:
#      x y z
#    x 1.893290 0.000000 0.000000 
#    y 0.000000 1.760120 0.000000 
#    z 0.000000 0.000000 1.585890 
# 
# From -- ./inp_files/33058.got.cif
#   From: 2010.05.17/outbox.cif.g08.bks.cpg/sg48_17_cif.got.tgz:33058.got - 2010.06.03 20:39:00.
