data_PCOD9389488
_publ_section_title
;
Structure prediction by ZEFSAII (Michael W. Deem and Ramdas Pophale) SiO2 
 PCOD9389488
Probable space group: P N N N
;
_chemical_formula_sum "Si O2"
_cell_formula_units_Z 64
_cell_length_a 10.981712
_cell_length_b 31.882570
_cell_length_c 7.788639
_cell_angle_alpha 90.000000
_cell_angle_beta 90.000000
_cell_angle_gamma 90.000000
_cell_volume 2726.998800
_symmetry_space_group_name_H-M "P N N N"
_symmetry_group_IT_number 48
_space_group.IT_coordinate_system_code '2'
_symmetry_cell_setting 'orthorhombic'
loop_
_space_group_symop_operation_xyz
x,y,z
1/2-x,1/2-y,z
x,1/2-y,1/2-z
1/2-x,y,1/2-z
-x,-y,-z
1/2+x,1/2+y,-z
-x,1/2+y,1/2+z
1/2+x,-y,1/2+z
loop_
_atom_site_type_symbol
_atom_site_label
_atom_site_fract_x
_atom_site_fract_y
_atom_site_fract_z
Si Si1 0.446216 0.982265 0.300331
Si Si2 0.256353 0.298098 0.959393
Si Si3 0.177550 0.439016 0.915666
Si Si4 0.263351 0.873085 0.040889
Si Si5 0.501941 0.652847 0.016626
Si Si6 0.202202 0.966880 0.516348
Si Si7 0.532766 0.857915 0.070755
Si Si8 0.084174 0.065683 0.085902
O O1 0.469783 0.031783 0.283922
O O2 0.327981 0.980383 0.424611
O O3 0.401467 0.963852 0.125514
O O4 0.539786 0.953888 0.402037
O O5 0.250000 0.250000 0.016426
O O6 0.250000 0.298086 0.750000
O O7 0.387730 0.315302 0.021812
O O8 0.138609 0.327268 0.001717
O O9 0.250000 0.421535 0.750000
O O10 0.075379 0.405473 0.959372
O O11 0.272061 0.434314 0.071310
O O12 0.162417 0.489572 0.887562
O O13 0.250000 0.882237 0.250000
O O14 0.145046 0.844786 0.996702
O O15 0.267702 0.918282 0.942246
O O16 0.394137 0.851806 0.008573
O O17 0.522507 0.646091 0.221563
O O18 0.533053 0.611543 0.907556
#
# Coordination Sequence:
#
# PCOD9389488 Si02
#       8
#     8   8   8   8   8   8   8   8
#     4   9  17  28  42  64  85 122 160 206 229 257
#     4   9  17  30  47  66  89 115 144 185 235 287
#     4  11  20  29  42  64  90 127 165 195 229 274
#     4  10  18  29  44  62  86 121 157 192 228 269
#     4  10  16  29  47  64  83 118 155 190 227 283
#     4  10  18  29  42  61  94 125 161 199 234 263
#     4  10  18  30  43  64  91 116 151 190 234 279
#     4  10  16  27  47  61  86 117 167 196 225 273
#
# _framework density 23.469021999999999
#
# number of rings (size 3 to 8) (size 9 to 14) (size 15 to 20)
#    0.000    2.125    5.000    1.125    0.000    0.500 
#    0.000    0.625    0.000    3.750    0.000    0.000 
#    0.000    2.000    0.000    0.000    0.000    4.000 
#
# Total GULP energy -356853.759906 kJ/mol
# GULP energy per Si atom -5575.839999 kJ/mol
# Density = 2.341561 g / cm^3
# Si number density = 23.469022 Si / 1000 Ang^3
#
#
#
# Elastic Constant Matrix: (Units=GPa)
#
#
# Indices 1 2 3 4 5 6 
#
# 1 204.0317 103.3072 15.5448 0.0000 0.0000 0.0000
# 2 103.3072 136.1830 9.8108 0.0000 0.0000 0.0000
# 3 15.5448 9.8108 49.3100 0.0000 0.0000 0.0000
# 4 0.0000 0.0000 0.0000 11.9401 0.0000 0.0000
# 5 0.0000 0.0000 0.0000 0.0000 4.8937 0.0000
# 6 0.0000 0.0000 0.0000 0.0000 0.0000 12.3862
#
#
#
# Elastic Compliance Matrix: (Units=1/GPa)
#
#
# Indices 1 2 3 4 5 6 
#
# 1 0.008044 -0.006006 -0.001341 0.000000 0.000000 0.000000
# 2 -0.006006 0.011934 -0.000481 0.000000 0.000000 0.000000
# 3 -0.001341 -0.000481 0.020798 0.000000 0.000000 0.000000
# 4 0.000000 0.000000 0.000000 0.083751 0.000000 0.000000
# 5 0.000000 0.000000 0.000000 0.000000 0.204345 0.000000
# 6 0.000000 0.000000 0.000000 0.000000 0.000000 0.080735
#
#
# Mechanical properties :
#
#
# Convention : Reuss Voigt Hill
#
# Bulk Modulus (GPa) = 39.80789 71.87225 55.84007
# Shear Modulus (GPa) = 11.53038 23.23477 17.38258
#
# Velocity S-wave (km/s) = 2.21894 3.14987 2.72446
# Velocity P-wave (km/s) = 4.85424 6.62719 5.80876
#
# Compressibility (1/GPa) = 0.02512065
#
# Stress axis : x y z
#
# Youngs Moduli (GPa) = 124.31297 83.79727 48.08075
#
# Poissons Ratio (x) = 0.50326 0.06448
# Poissons Ratio (y) = 0.74658 0.02313
# Poissons Ratio (z) = 0.16670 0.04031
#
# Static dielectric constant tensor:
#      x y z
#    x 2.032580 0.000000 0.000000 
#    y 0.000000 1.852370 0.000000 
#    z 0.000000 0.000000 2.005910 
# 
# From -- ./inp_files/20481.got.cif
#   From: 2010.05.17/outbox.cif.g08.bks.cpg/sg48_11_cif.got.tgz:20481.got - 2010.06.03 20:39:00.
