data_PCOD9389486
_publ_section_title
;
Structure prediction by ZEFSAII (Michael W. Deem and Ramdas Pophale) SiO2 
 PCOD9389486
Probable space group: P N N N
;
_chemical_formula_sum "Si O2"
_cell_formula_units_Z 48
_cell_length_a 18.063685
_cell_length_b 9.776247
_cell_length_c 13.837490
_cell_angle_alpha 90.000000
_cell_angle_beta 90.000000
_cell_angle_gamma 90.000000
_cell_volume 2443.632187
_symmetry_space_group_name_H-M "P N N N"
_symmetry_group_IT_number 48
_space_group.IT_coordinate_system_code '2'
_symmetry_cell_setting 'orthorhombic'
loop_
_space_group_symop_operation_xyz
x,y,z
1/2-x,1/2-y,z
x,1/2-y,1/2-z
1/2-x,y,1/2-z
-x,-y,-z
1/2+x,1/2+y,-z
-x,1/2+y,1/2+z
1/2+x,-y,1/2+z
loop_
_atom_site_type_symbol
_atom_site_label
_atom_site_fract_x
_atom_site_fract_y
_atom_site_fract_z
Si Si1 0.801797 0.884864 0.516870
Si Si2 0.547946 0.250000 0.250000
Si Si3 0.523432 0.193648 0.930702
Si Si4 0.625507 0.250000 0.750000
Si Si5 0.904570 0.464529 0.108693
Si Si6 0.298749 0.014504 0.329940
Si Si7 0.571907 0.697603 0.914078
O O1 0.750000 0.750000 0.504888
O O2 0.756895 0.994289 0.579824
O O3 0.875657 0.832383 0.573427
O O4 0.830923 0.953380 0.419289
O O5 0.595106 0.127203 0.204155
O O6 0.492160 0.292442 0.164682
O O7 0.574598 0.239162 0.844218
O O8 0.470583 0.074948 0.888824
O O9 0.573447 0.130286 0.016663
O O10 0.470328 0.306313 0.982558
O O11 0.674389 0.382303 0.772616
O O12 0.250000 0.096109 0.250000
O O13 0.370953 0.085744 0.375340
#
# Coordination Sequence:
#
# PCOD9389486 Si02
#       7
#     8   4   8   4   8   8   8
#     4   9  18  32  52  77 109 150 190 228 276 334
#     4  10  16  26  53  84 109 136 178 232 286 332
#     4   9  19  34  53  78 112 142 180 232 286 336
#     4  12  23  34  52  84 117 150 180 228 298 346
#     4   9  17  33  53  78 107 143 183 230 280 332
#     4  11  21  32  49  78 116 151 186 226 279 347
#     4   9  18  33  54  82 109 143 185 233 282 330
#
# _framework density 19.642890999999999
#
# number of rings (size 3 to 8) (size 9 to 14) (size 15 to 20)
#    0.000    2.333    0.000    4.250    0.000    3.000 
#    0.000    0.000    0.000    0.000    0.000   88.667 
#    0.000    0.000    0.000    0.000    0.000    0.333 
#
# Total GULP energy -267451.757497 kJ/mol
# GULP energy per Si atom -5571.911615 kJ/mol
# Density = 1.959818 g / cm^3
# Si number density = 19.642891 Si / 1000 Ang^3
#
#
#
# Elastic Constant Matrix: (Units=GPa)
#
#
# Indices 1 2 3 4 5 6 
#
# 1 92.6776 41.4095 59.7849 0.0000 0.0000 0.0000
# 2 41.4095 76.3858 55.2797 0.0000 0.0000 0.0000
# 3 59.7849 55.2797 104.5771 0.0000 0.0000 0.0000
# 4 0.0000 0.0000 0.0000 38.7838 0.0000 0.0000
# 5 0.0000 0.0000 0.0000 0.0000 30.5513 0.0000
# 6 0.0000 0.0000 0.0000 0.0000 0.0000 -4.4360
#
#
#
# Elastic Compliance Matrix: (Units=1/GPa)
#
#
# Indices 1 2 3 4 5 6 
#
# 1 0.017712 -0.003683 -0.008179 0.000000 0.000000 0.000000
# 2 -0.003683 0.021968 -0.009507 0.000000 0.000000 0.000000
# 3 -0.008179 -0.009507 0.019263 0.000000 0.000000 0.000000
# 4 0.000000 0.000000 0.000000 0.025784 0.000000 0.000000
# 5 0.000000 0.000000 0.000000 0.000000 0.032732 0.000000
# 6 0.000000 0.000000 0.000000 0.000000 0.000000 -0.225431
#
#
# Mechanical properties :
#
#
# Convention : Reuss Voigt Hill
#
# Bulk Modulus (GPa) = 61.70525 65.17652 63.44089
# Shear Modulus (GPa) = -83.56548 20.79092 -31.38728
#
# Velocity S-wave (km/s) = -6.52953 3.25691 -4.00170
# Velocity P-wave (km/s) = 5.03632 6.88447 3.31899
#
# Compressibility (1/GPa) = 0.01620608
#
# Stress axis : x y z
#
# Youngs Moduli (GPa) = 56.46047 45.52076 51.91216
#
# Poissons Ratio (x) = 0.16764 0.42457
# Poissons Ratio (y) = 0.20793 0.49353
# Poissons Ratio (z) = 0.46177 0.43276
#
# Static dielectric constant tensor:
#      x y z
#    x 1.717840 0.000000 0.000000 
#    y 0.000000 1.749220 0.000000 
#    z 0.000000 0.000000 1.700940 
# 
# From -- ./inp_files/27897.got.cif
#   From: 2010.05.17/outbox.cif.g08.bks.cpg/sg48_14_cif.got.tgz:27897.got - 2010.06.03 20:39:00.
