data_PCOD9389712
_publ_section_title
;
Structure prediction by ZEFSAII (Michael W. Deem and Ramdas Pophale) SiO2 
 PCOD9389712
Probable space group: P N N N
;
_chemical_formula_sum "Si O2"
_cell_formula_units_Z 52
_cell_length_a 13.238012
_cell_length_b 17.346934
_cell_length_c 10.330656
_cell_angle_alpha 90.000000
_cell_angle_beta 90.000000
_cell_angle_gamma 90.000000
_cell_volume 2372.320691
_symmetry_space_group_name_H-M "P N N N"
_symmetry_group_IT_number 48
_space_group.IT_coordinate_system_code '2'
_symmetry_cell_setting 'orthorhombic'
loop_
_space_group_symop_operation_xyz
x,y,z
1/2-x,1/2-y,z
x,1/2-y,1/2-z
1/2-x,y,1/2-z
-x,-y,-z
1/2+x,1/2+y,-z
-x,1/2+y,1/2+z
1/2+x,-y,1/2+z
loop_
_atom_site_type_symbol
_atom_site_label
_atom_site_fract_x
_atom_site_fract_y
_atom_site_fract_z
Si Si1 0.463058 0.829910 0.697957
Si Si2 0.409149 0.084843 0.618709
Si Si3 0.361734 0.233414 0.481474
Si Si4 0.879057 0.067188 0.960810
Si Si5 0.665376 0.046297 0.978649
Si Si6 0.044513 0.107916 0.466086
Si Si7 0.250000 0.987949 0.750000
O O1 0.411792 0.750000 0.750000
O O2 0.563340 0.800337 0.625762
O O3 0.403866 0.880544 0.590121
O O4 0.502582 0.878113 0.820291
O O5 0.363124 0.167624 0.589458
O O6 0.529248 0.088097 0.634061
O O7 0.345516 0.042810 0.726490
O O8 0.391910 0.023339 0.500267
O O9 0.250000 0.250000 0.432762
O O10 0.409284 0.314272 0.521893
O O11 0.766202 0.073156 0.905340
O O12 0.558579 0.087203 0.959431
O O13 0.711107 0.057363 0.124652
O O14 0.630772 0.957410 0.964208
#
# Coordination Sequence:
#
# PCOD9389712 Si02
#       7
#     8   8   8   8   8   8   4
#     4   9  19  33  52  79 109 136 169 218 270 321
#     4   9  18  31  53  77 105 139 178 219 257 310
#     4  10  19  34  51  76 110 140 172 218 273 323
#     4   9  17  34  54  77 106 140 177 214 262 324
#     4  10  20  34  55  76 105 143 177 220 267 316
#     4  10  20  34  50  76 108 138 177 221 270 323
#     4  10  18  34  55  76 101 136 180 222 254 306
#
# _framework density 21.919464999999999
#
# number of rings (size 3 to 8) (size 9 to 14) (size 15 to 20)
#    0.000    2.462    0.000    3.692    0.000    2.769 
#    0.000   14.231    0.000    2.769    0.000    0.000 
#    0.000   36.923    0.000    0.000    0.000    0.000 
#
# Total GULP energy -289812.895642 kJ/mol
# GULP energy per Si atom -5573.324916 kJ/mol
# Density = 2.186958 g / cm^3
# Si number density = 21.919465 Si / 1000 Ang^3
#
#
#
# Elastic Constant Matrix: (Units=GPa)
#
#
# Indices 1 2 3 4 5 6 
#
# 1 162.8888 50.0829 6.5912 0.0000 0.0000 0.0000
# 2 50.0829 104.2672 2.8795 0.0000 0.0000 0.0000
# 3 6.5912 2.8795 35.7764 0.0000 0.0000 0.0000
# 4 0.0000 0.0000 0.0000 17.6677 0.0000 0.0000
# 5 0.0000 0.0000 0.0000 0.0000 8.4648 0.0000
# 6 0.0000 0.0000 0.0000 0.0000 0.0000 18.9772
#
#
#
# Elastic Compliance Matrix: (Units=1/GPa)
#
#
# Indices 1 2 3 4 5 6 
#
# 1 0.007243 -0.003450 -0.001057 0.000000 0.000000 0.000000
# 2 -0.003450 0.011255 -0.000270 0.000000 0.000000 0.000000
# 3 -0.001057 -0.000270 0.028168 0.000000 0.000000 0.000000
# 4 0.000000 0.000000 0.000000 0.056600 0.000000 0.000000
# 5 0.000000 0.000000 0.000000 0.000000 0.118136 0.000000
# 6 0.000000 0.000000 0.000000 0.000000 0.000000 0.052695
#
#
# Mechanical properties :
#
#
# Convention : Reuss Voigt Hill
#
# Bulk Modulus (GPa) = 26.94529 46.89328 36.91929
# Shear Modulus (GPa) = 16.89072 25.24722 21.06897
#
# Velocity S-wave (km/s) = 2.77895 3.39753 3.10368
# Velocity P-wave (km/s) = 4.75566 6.06884 5.45193
#
# Compressibility (1/GPa) = 0.03711224
#
# Stress axis : x y z
#
# Youngs Moduli (GPa) = 138.07257 88.84793 35.50151
#
# Poissons Ratio (x) = 0.30649 0.03751
# Poissons Ratio (y) = 0.47630 0.00960
# Poissons Ratio (z) = 0.14590 0.02402
#
# Static dielectric constant tensor:
#      x y z
#    x 1.878270 0.000000 0.000000 
#    y 0.000000 1.828410 0.000000 
#    z 0.000000 0.000000 1.903000 
# 
# From -- ./inp_files/21472.got.cif
#   From: 2010.05.17/outbox.cif.g08.bks.cpg/sg48_11_cif.got.tgz:21472.got - 2010.06.03 20:39:00.
