data_PCOD9389718
_publ_section_title
;
Structure prediction by ZEFSAII (Michael W. Deem and Ramdas Pophale) SiO2 
 PCOD9389718
Probable space group: P N N N
;
_chemical_formula_sum "Si O2"
_cell_formula_units_Z 32
_cell_length_a 7.253349
_cell_length_b 12.917659
_cell_length_c 12.839769
_cell_angle_alpha 90.000000
_cell_angle_beta 90.000000
_cell_angle_gamma 90.000000
_cell_volume 1203.038707
_symmetry_space_group_name_H-M "P N N N"
_symmetry_group_IT_number 48
_space_group.IT_coordinate_system_code '2'
_symmetry_cell_setting 'orthorhombic'
loop_
_space_group_symop_operation_xyz
x,y,z
1/2-x,1/2-y,z
x,1/2-y,1/2-z
1/2-x,y,1/2-z
-x,-y,-z
1/2+x,1/2+y,-z
-x,1/2+y,1/2+z
1/2+x,-y,1/2+z
loop_
_atom_site_type_symbol
_atom_site_label
_atom_site_fract_x
_atom_site_fract_y
_atom_site_fract_z
Si Si1 0.041033 0.260199 0.409657
Si Si2 0.532113 0.283008 0.864921
Si Si3 0.464010 0.040340 0.116450
Si Si4 0.524423 0.515222 0.843082
O O1 0.250000 0.250000 0.369734
O O2 0.955100 0.155522 0.367029
O O3 0.957803 0.371967 0.382037
O O4 0.048400 0.232068 0.532401
O O5 0.750000 0.250000 0.866874
O O6 0.468693 0.250000 0.750000
O O7 0.488296 0.403267 0.891653
O O8 0.243685 0.029940 0.134779
O O9 0.529764 0.989212 0.223564
O O10 0.500000 0.000000 0.000000
#
# Coordination Sequence:
#
# PCOD9389718 Si02
#       4
#     8   8   8   8
#     4  10  21  35  55  81 111 144 183 234 286 338
#     4  11  21  36  56  80 108 146 189 231 281 342
#     4  10  18  34  57  83 110 145 189 234 281 343
#     4  10  20  34  55  82 111 147 188 231 286 344
#
# _framework density 26.599312000000001
#
# number of rings (size 3 to 8) (size 9 to 14) (size 15 to 20)
#    0.000    1.750    0.000    7.500    0.000    3.500 
#    0.000    0.000    0.000   19.500    0.000    0.000 
#    0.000    0.000    0.000    0.000    0.000    0.000 
#
# Total GULP energy -178196.636081 kJ/mol
# GULP energy per Si atom -5568.644878 kJ/mol
# Density = 2.653877 g / cm^3
# Si number density = 26.599312 Si / 1000 Ang^3
#
#
#
# Elastic Constant Matrix: (Units=GPa)
#
#
# Indices 1 2 3 4 5 6 
#
# 1 96.3691 -10.8119 14.3287 0.0000 0.0000 0.0000
# 2 -10.8119 162.4517 13.5839 0.0000 0.0000 0.0000
# 3 14.3287 13.5839 192.0886 0.0000 0.0000 0.0000
# 4 0.0000 0.0000 0.0000 26.7528 0.0000 0.0000
# 5 0.0000 0.0000 0.0000 0.0000 17.6859 0.0000
# 6 0.0000 0.0000 0.0000 0.0000 0.0000 -1.6456
#
#
#
# Elastic Compliance Matrix: (Units=1/GPa)
#
#
# Indices 1 2 3 4 5 6 
#
# 1 0.010589 0.000775 -0.000845 0.000000 0.000000 0.000000
# 2 0.000775 0.006249 -0.000500 0.000000 0.000000 0.000000
# 3 -0.000845 -0.000500 0.005304 0.000000 0.000000 0.000000
# 4 0.000000 0.000000 0.000000 0.037379 0.000000 0.000000
# 5 0.000000 0.000000 0.000000 0.000000 0.056542 0.000000
# 6 0.000000 0.000000 0.000000 0.000000 0.000000 -0.607697
#
#
# Mechanical properties :
#
#
# Convention : Reuss Voigt Hill
#
# Bulk Modulus (GPa) = 47.60877 53.90122 50.75499
# Shear Modulus (GPa) = -10.34141 37.47922 13.56891
#
# Velocity S-wave (km/s) = -1.97390 3.75778 2.26104
# Velocity P-wave (km/s) = 3.56964 6.25588 5.09305
#
# Compressibility (1/GPa) = 0.02100453
#
# Stress axis : x y z
#
# Youngs Moduli (GPa) = 94.43440 160.02382 188.52686
#
# Poissons Ratio (x) = -0.12408 0.15926
# Poissons Ratio (y) = -0.07322 0.09422
# Poissons Ratio (z) = 0.07977 0.07997
#
# Static dielectric constant tensor:
#      x y z
#    x 2.138960 0.000000 0.000000 
#    y 0.000000 2.151360 0.000000 
#    z 0.000000 0.000000 2.076150 
# 
# From -- ./inp_files/19432.got.cif
#   From: 2010.05.17/outbox.cif.g08.bks.cpg/sg48_10_cif.got.tgz:19432.got - 2010.06.03 20:39:00.
