data_PCOD9389030
_publ_section_title
;
Structure prediction by ZEFSAII (Michael W. Deem and Ramdas Pophale) SiO2 
 PCOD9389030
Probable space group: P M M M
;
_chemical_formula_sum "Si O2"
_cell_formula_units_Z 32
_cell_length_a 9.337503
_cell_length_b 23.701963
_cell_length_c 7.412709
_cell_angle_alpha 90.000000
_cell_angle_beta 90.000000
_cell_angle_gamma 90.000000
_cell_volume 1640.559634
_symmetry_space_group_name_H-M "P M M M"
_symmetry_group_IT_number 47
_symmetry_cell_setting 'orthorhombic'
loop_
_space_group_symop_operation_xyz
x,y,z
-x,-y,z
x,-y,-z
-x,y,-z
-x,-y,-z
x,y,-z
-x,y,z
x,-y,z
loop_
_atom_site_type_symbol
_atom_site_label
_atom_site_fract_x
_atom_site_fract_y
_atom_site_fract_z
Si Si1 0.335344 0.000000 0.720344
Si Si2 0.674888 0.564477 0.000000
Si Si3 0.325411 0.653734 0.706174
Si Si4 0.835582 0.111229 0.279631
Si Si5 0.665259 0.778379 0.279819
O O1 0.253346 0.056441 0.777651
O O2 0.500000 0.000000 0.777886
O O3 0.335040 0.000000 0.500000
O O4 0.719652 0.601657 0.171548
O O5 0.724392 0.500000 0.000000
O O6 0.500000 0.563077 0.000000
O O7 0.278490 0.647042 0.500000
O O8 0.500000 0.655033 0.706468
O O9 0.283395 0.715994 0.775151
O O10 0.834182 0.111363 0.500000
O O11 0.760924 0.169259 0.221638
O O12 0.000000 0.107762 0.222752
O O13 0.664896 0.777327 0.500000
O O14 0.500000 0.786368 0.223989
#
# Coordination Sequence:
#
# PCOD9389030 Si02
#       5
#     4   4   8   8   8
#     4   9  15  21  29  43  69 108 147 178 216 269
#     4   9  16  24  36  58  87 116 145 178 219 267
#     4   8  14  24  37  54  79 112 147 182 221 266
#     4   9  15  21  30  47  72 101 137 183 228 264
#     4   8  13  22  35  49  69 102 141 177 217 266
#
# _framework density 19.50554
#
# number of rings (size 3 to 8) (size 9 to 14) (size 15 to 20)
#    0.000    3.500    0.000    2.625    0.000    5.000 
#    0.000    2.500    0.000    0.000    0.000    0.875 
#    0.000    3.000    0.000   21.625    0.000   44.750 
#
# Total GULP energy -178457.394975 kJ/mol
# GULP energy per Si atom -5576.793593 kJ/mol
# Density = 1.946114 g / cm^3
# Si number density = 19.505540 Si / 1000 Ang^3
#
#
#
# Elastic Constant Matrix: (Units=GPa)
#
#
# Indices 1 2 3 4 5 6 
#
# 1 86.9432 86.0751 18.1622 0.0000 0.0000 0.0000
# 2 86.0751 246.5022 54.6573 0.0000 0.0000 0.0000
# 3 18.1622 54.6573 76.3747 0.0000 0.0000 0.0000
# 4 0.0000 0.0000 0.0000 115.3657 0.0000 0.0000
# 5 0.0000 0.0000 0.0000 0.0000 -4.6845 0.0000
# 6 0.0000 0.0000 0.0000 0.0000 0.0000 -4.1829
#
#
#
# Elastic Compliance Matrix: (Units=1/GPa)
#
#
# Indices 1 2 3 4 5 6 
#
# 1 0.017583 -0.006196 0.000253 0.000000 0.000000 0.000000
# 2 -0.006196 0.007005 -0.003540 0.000000 0.000000 0.000000
# 3 0.000253 -0.003540 0.015567 0.000000 0.000000 0.000000
# 4 0.000000 0.000000 0.000000 0.008668 0.000000 0.000000
# 5 0.000000 0.000000 0.000000 0.000000 -0.213468 0.000000
# 6 0.000000 0.000000 0.000000 0.000000 0.000000 -0.239069
#
#
# Mechanical properties :
#
#
# Convention : Reuss Voigt Hill
#
# Bulk Modulus (GPa) = 47.19487 80.84550 64.02019
# Shear Modulus (GPa) = -13.23852 38.02802 12.39475
#
# Velocity S-wave (km/s) = -2.60802 4.42022 2.52354
# Velocity P-wave (km/s) = 3.89604 8.22123 6.43303
#
# Compressibility (1/GPa) = 0.02118874
#
# Stress axis : x y z
#
# Youngs Moduli (GPa) = 56.87370 142.75315 64.24043
#
# Poissons Ratio (x) = 0.88446 -0.01623
# Poissons Ratio (y) = 0.35237 0.22740
# Poissons Ratio (z) = -0.01437 0.50532
#
# Static dielectric constant tensor:
#      x y z
#    x 1.633940 0.000000 0.000000 
#    y 0.000000 1.662970 0.000000 
#    z 0.000000 0.000000 1.778420 
# 
# From -- ./inp_files/1295.got.cif
#   From: 2010.05.17/outbox.cif.g08.bks.cpg/sg47_1_cif.got.tgz:1295.got - 2010.06.03 20:15:42.
