data_PCOD9389498
_publ_section_title
;
Structure prediction by ZEFSAII (Michael W. Deem and Ramdas Pophale) SiO2 
 PCOD9389498
Probable space group: P N N N
;
_chemical_formula_sum "Si O2"
_cell_formula_units_Z 48
_cell_length_a 32.789243
_cell_length_b 5.421218
_cell_length_c 15.990195
_cell_angle_alpha 90.000000
_cell_angle_beta 90.000000
_cell_angle_gamma 90.000000
_cell_volume 2842.379236
_symmetry_space_group_name_H-M "P N N N"
_symmetry_group_IT_number 48
_space_group.IT_coordinate_system_code '2'
_symmetry_cell_setting 'orthorhombic'
loop_
_space_group_symop_operation_xyz
x,y,z
1/2-x,1/2-y,z
x,1/2-y,1/2-z
1/2-x,y,1/2-z
-x,-y,-z
1/2+x,1/2+y,-z
-x,1/2+y,1/2+z
1/2+x,-y,1/2+z
loop_
_atom_site_type_symbol
_atom_site_label
_atom_site_fract_x
_atom_site_fract_y
_atom_site_fract_z
Si Si1 0.232666 0.500000 0.654535
Si Si2 0.569508 1.000000 0.447579
Si Si3 0.046925 1.000000 0.466052
Si Si4 0.362207 0.500000 0.804545
Si Si5 0.515852 0.500000 0.205145
Si Si6 0.072700 0.500000 0.226387
O O1 0.250000 0.250000 0.615110
O O2 0.250000 0.500000 0.750000
O O3 0.184117 0.500000 0.661761
O O4 0.250000 0.750000 0.615110
O O5 0.567868 0.251311 0.499590
O O6 0.606085 0.000000 0.380686
O O7 0.567868 0.748689 0.499590
O O8 0.529052 1.000000 0.389865
O O9 0.053502 0.000000 0.366329
O O10 0.000000 0.000000 0.500000
O O11 0.367532 0.750000 0.750000
O O12 0.367532 0.250000 0.750000
O O13 0.531028 0.750000 0.250000
O O14 0.467332 0.500000 0.214060
O O15 0.531028 0.250000 0.250000
O O16 0.095486 0.250000 0.250000
O O17 0.095486 0.750000 0.250000
#
# Coordination Sequence:
#
# PCOD9389498 Si02
#       6
#     8   8   8   8   8   8
#     4  10  16  30  49  73  99 132 181 216 224 284
#     4  12  24  35  48  74  99 127 163 213 280 301
#     4  12  23  37  52  68  95 127 162 214 271 323
#     4  12  21  33  52  74 105 141 175 222 253 292
#     4  10  18  32  46  62  86 113 155 203 243 293
#     4  10  19  33  52  67  80 112 160 205 243 291
#
# _framework density 16.887263000000001
#
# number of rings (size 3 to 8) (size 9 to 14) (size 15 to 20)
#    0.000    1.000    3.333    8.500    0.000    0.000 
#    0.000    0.000    0.000    0.000    0.000    0.000 
#    0.000    0.000    0.000    0.000    0.000   58.333 
#
# Total GULP energy -267995.668597 kJ/mol
# GULP energy per Si atom -5583.243096 kJ/mol
# Density = 1.684883 g / cm^3
# Si number density = 16.887263 Si / 1000 Ang^3
#
#
#
# Elastic Constant Matrix: (Units=GPa)
#
#
# Indices 1 2 3 4 5 6 
#
# 1 72.0555 30.0099 12.2260 0.0000 0.0000 0.0000
# 2 30.0099 209.3904 48.0457 0.0000 0.0000 0.0000
# 3 12.2260 48.0457 63.2805 0.0000 0.0000 0.0000
# 4 0.0000 0.0000 0.0000 30.1850 0.0000 0.0000
# 5 0.0000 0.0000 0.0000 0.0000 2.0462 0.0000
# 6 0.0000 0.0000 0.0000 0.0000 0.0000 5.3598
#
#
#
# Elastic Compliance Matrix: (Units=1/GPa)
#
#
# Indices 1 2 3 4 5 6 
#
# 1 0.014879 -0.001784 -0.001520 0.000000 0.000000 0.000000
# 2 -0.001784 0.005997 -0.004209 0.000000 0.000000 0.000000
# 3 -0.001520 -0.004209 0.019292 0.000000 0.000000 0.000000
# 4 0.000000 0.000000 0.000000 0.033129 0.000000 0.000000
# 5 0.000000 0.000000 0.000000 0.000000 0.488709 0.000000
# 6 0.000000 0.000000 0.000000 0.000000 0.000000 0.186575
#
#
# Mechanical properties :
#
#
# Convention : Reuss Voigt Hill
#
# Bulk Modulus (GPa) = 39.77340 58.36552 49.06946
# Shear Modulus (GPa) = 6.47679 24.48117 15.47898
#
# Velocity S-wave (km/s) = 1.96052 3.81160 3.03084
# Velocity P-wave (km/s) = 5.35988 7.34901 6.43181
#
# Compressibility (1/GPa) = 0.02514243
#
# Stress axis : x y z
#
# Youngs Moduli (GPa) = 67.20871 166.74723 51.83531
#
# Poissons Ratio (x) = 0.29741 0.07882
# Poissons Ratio (y) = 0.11987 0.21816
# Poissons Ratio (z) = 0.10219 0.70179
#
# Static dielectric constant tensor:
#      x y z
#    x 1.547340 0.000000 0.000000 
#    y 0.000000 1.776990 0.000000 
#    z 0.000000 0.000000 1.576780 
# 
# From -- ./inp_files/28875.got.cif
#   From: 2010.05.17/outbox.cif.g08.bks.cpg/sg48_15_cif.got.tgz:28875.got - 2010.06.03 20:39:00.
