data_PCOD9389553
_publ_section_title
;
Structure prediction by ZEFSAII (Michael W. Deem and Ramdas Pophale) SiO2 
 PCOD9389553
Probable space group: P N N N
;
_chemical_formula_sum "Si O2"
_cell_formula_units_Z 48
_cell_length_a 22.806557
_cell_length_b 21.624203
_cell_length_c 5.835989
_cell_angle_alpha 90.000000
_cell_angle_beta 90.000000
_cell_angle_gamma 90.000000
_cell_volume 2878.155811
_symmetry_space_group_name_H-M "P N N N"
_symmetry_group_IT_number 48
_space_group.IT_coordinate_system_code '2'
_symmetry_cell_setting 'orthorhombic'
loop_
_space_group_symop_operation_xyz
x,y,z
1/2-x,1/2-y,z
x,1/2-y,1/2-z
1/2-x,y,1/2-z
-x,-y,-z
1/2+x,1/2+y,-z
-x,1/2+y,1/2+z
1/2+x,-y,1/2+z
loop_
_atom_site_type_symbol
_atom_site_label
_atom_site_fract_x
_atom_site_fract_y
_atom_site_fract_z
Si Si1 0.279712 0.512465 0.997080
Si Si2 0.397533 0.915669 0.983513
Si Si3 0.086366 0.811307 0.889053
Si Si4 0.906360 0.987914 0.119498
Si Si5 0.014634 0.907426 0.136900
Si Si6 0.809970 0.142867 0.848002
O O1 0.250000 0.501609 0.250000
O O2 0.290314 0.586963 0.984627
O O3 0.250000 0.495245 0.750000
O O4 0.344123 0.481659 0.001867
O O5 0.460161 0.911607 0.107961
O O6 0.347423 0.895792 0.160284
O O7 0.396782 0.863667 0.792168
O O8 0.392099 0.982509 0.868073
O O9 0.072844 0.750000 0.750000
O O10 0.033446 0.841252 0.034797
O O11 0.144425 0.808472 0.047078
O O12 0.945766 0.041095 0.996266
O O13 0.947762 0.928346 0.123835
O O14 0.750000 0.169908 0.750000
#
# Coordination Sequence:
#
# PCOD9389553 Si02
#       6
#     8   8   8   8   8   8
#     4  11  21  32  52  75 106 142 170 207 265 323
#     4  10  17  33  47  70  92 136 165 220 264 308
#     4  10  21  35  48  65  95 132 178 231 271 297
#     4  10  17  31  48  74 102 124 173 204 261 326
#     4   9  19  30  49  73  94 131 169 215 264 316
#     4  10  20  31  48  65  94 135 179 215 258 310
#
# _framework density 16.677346
#
# number of rings (size 3 to 8) (size 9 to 14) (size 15 to 20)
#    0.000    2.000    5.000    2.500    0.000    2.667 
#    0.000    2.500    0.000    0.000    0.000    0.000 
#    0.000    0.667    0.333    0.000    0.000    0.000 
#
# Total GULP energy -267271.459724 kJ/mol
# GULP energy per Si atom -5568.155411 kJ/mol
# Density = 1.663939 g / cm^3
# Si number density = 16.677346 Si / 1000 Ang^3
#
#
#
# Elastic Constant Matrix: (Units=GPa)
#
#
# Indices 1 2 3 4 5 6 
#
# 1 108.0034 41.4910 40.6899 0.0000 0.0000 0.0000
# 2 41.4910 51.6246 18.7422 0.0000 0.0000 0.0000
# 3 40.6899 18.7422 76.5561 0.0000 0.0000 0.0000
# 4 0.0000 0.0000 0.0000 12.6581 0.0000 0.0000
# 5 0.0000 0.0000 0.0000 0.0000 15.2346 0.0000
# 6 0.0000 0.0000 0.0000 0.0000 0.0000 8.4073
#
#
#
# Elastic Compliance Matrix: (Units=1/GPa)
#
#
# Indices 1 2 3 4 5 6 
#
# 1 0.015328 -0.010274 -0.005631 0.000000 0.000000 0.000000
# 2 -0.010274 0.028147 -0.001430 0.000000 0.000000 0.000000
# 3 -0.005631 -0.001430 0.016406 0.000000 0.000000 0.000000
# 4 0.000000 0.000000 0.000000 0.079001 0.000000 0.000000
# 5 0.000000 0.000000 0.000000 0.000000 0.065640 0.000000
# 6 0.000000 0.000000 0.000000 0.000000 0.000000 0.118944
#
#
# Mechanical properties :
#
#
# Convention : Reuss Voigt Hill
#
# Bulk Modulus (GPa) = 39.66858 48.67005 44.16931
# Shear Modulus (GPa) = 13.64105 16.27739 14.95922
#
# Velocity S-wave (km/s) = 2.86307 3.12752 2.99821
# Velocity P-wave (km/s) = 5.89636 6.50296 6.20708
#
# Compressibility (1/GPa) = 0.02520887
#
# Stress axis : x y z
#
# Youngs Moduli (GPa) = 65.24163 35.52725 60.95514
#
# Poissons Ratio (x) = 0.36502 0.34326
# Poissons Ratio (y) = 0.67032 0.08717
# Poissons Ratio (z) = 0.36740 0.05080
#
# Static dielectric constant tensor:
#      x y z
#    x 1.604030 0.000000 0.000000 
#    y 0.000000 1.543430 0.000000 
#    z 0.000000 0.000000 1.674130 
# 
# From -- ./inp_files/5207.got.cif
#   From: 2010.05.17/outbox.cif.g08.bks.cpg/sg48_3_cif.got.tgz:5207.got - 2010.06.03 20:39:00.
