data_PCOD9389333
_publ_section_title
;
Structure prediction by ZEFSAII (Michael W. Deem and Ramdas Pophale) SiO2 
 PCOD9389333
Probable space group: P M M M
;
_chemical_formula_sum "Si O2"
_cell_formula_units_Z 56
_cell_length_a 9.000000
_cell_length_b 15.000000
_cell_length_c 21.000000
_cell_angle_alpha 90.000000
_cell_angle_beta 90.000000
_cell_angle_gamma 90.000000
_cell_volume 2835.000000
_symmetry_space_group_name_H-M "P M M M"
_symmetry_group_IT_number 47
_symmetry_cell_setting 'orthorhombic'
loop_
_space_group_symop_operation_xyz
x,y,z
-x,-y,z
x,-y,-z
-x,y,-z
-x,-y,-z
x,y,-z
-x,y,z
x,-y,z
loop_
_atom_site_type_symbol
_atom_site_label
_atom_site_fract_x
_atom_site_fract_y
_atom_site_fract_z
Si Si1 0.678242 0.404561 0.178371
Si Si2 0.327694 0.214390 0.166306
Si Si3 0.173899 0.602361 0.315094
Si Si4 0.178601 0.281462 0.432382
Si Si5 0.171845 0.900179 0.731055
Si Si6 0.676164 0.901544 0.403724
Si Si7 0.838529 0.106175 0.073339
O O1 0.500000 0.408671 0.177080
O O2 0.736811 0.500000 0.154916
O O3 0.720922 0.312968 0.145180
O O4 0.732775 0.392821 0.250781
O O5 0.500000 0.215358 0.185683
O O6 0.227057 0.176287 0.222667
O O7 0.297930 0.147959 0.109263
O O8 0.179176 0.500000 0.337928
O O9 0.231459 0.666754 0.370103
O O10 0.000000 0.622690 0.301211
O O11 0.221176 0.324298 0.500000
O O12 0.238751 0.181675 0.432003
O O13 0.000000 0.280514 0.428984
O O14 0.277562 0.900270 0.670218
O O15 0.000000 0.887118 0.711836
O O16 0.181618 0.000000 0.760805
O O17 0.500000 0.891438 0.411909
O O18 0.718908 0.000000 0.427542
O O19 0.000000 0.133370 0.101664
O O20 0.832812 0.000000 0.076251
O O21 0.837502 0.132455 0.000000
#
# Coordination Sequence:
#
# PCOD9389333 Si02
#       7
#     8   8   8   8   8   8   8
#     4   9  19  35  52  72 101 134 165 200 247 302
#     4  11  21  31  50  79 106 134 170 212 253 291
#     4   9  18  33  53  76 100 126 159 201 249 299
#     4  10  21  35  51  72  97 127 163 201 244 299
#     4  10  20  33  50  73 102 134 164 197 245 305
#     4  10  21  36  52  70  95 127 163 206 253 296
#     4   9  19  36  55  75 104 143 180 210 246 295
#
# _framework density 19.753086
#
# number of rings (size 3 to 8) (size 9 to 14) (size 15 to 20)
#    0.000    2.286    0.000    3.000    0.000    8.857 
#    0.000    3.571    0.000    0.429    0.000    6.000 
#    0.000    0.000    0.000    0.000    0.000    0.000 
#
# Total GULP energy -312052.998539 kJ/mol
# GULP energy per Si atom -5572.374974 kJ/mol
# Density = 1.970813 g / cm^3
# Si number density = 19.753086 Si / 1000 Ang^3
#
#
#
# Elastic Constant Matrix: (Units=GPa)
#
#
# Indices 1 2 3 4 5 6 
#
# 1 -6.8331 1.2383 -8.0453 0.0000 0.0000 0.0000
# 2 1.2383 48.2736 1.2592 0.0000 0.0000 0.0000
# 3 -8.0453 1.2592 22.8176 0.0000 0.0000 0.0000
# 4 0.0000 0.0000 0.0000 -77.3525 0.0000 0.0000
# 5 0.0000 0.0000 0.0000 0.0000 26.6111 0.0000
# 6 0.0000 0.0000 0.0000 0.0000 0.0000 21.8474
#
#
#
# Elastic Compliance Matrix: (Units=1/GPa)
#
#
# Indices 1 2 3 4 5 6 
#
# 1 -0.102790 0.003587 -0.036441 0.000000 0.000000 0.000000
# 2 0.003587 0.020620 0.000127 0.000000 0.000000 0.000000
# 3 -0.036441 0.000127 0.030970 0.000000 0.000000 0.000000
# 4 0.000000 0.000000 0.000000 -0.012928 0.000000 0.000000
# 5 0.000000 0.000000 0.000000 0.000000 0.037578 0.000000
# 6 0.000000 0.000000 0.000000 0.000000 0.000000 0.045772
#
#
# Mechanical properties :
#
#
# Convention : Reuss Voigt Hill
#
# Bulk Modulus (GPa) = -8.57232 5.90694 -1.33269
# Shear Modulus (GPa) = 109.19195 -1.12508 54.03344
#
# Velocity S-wave (km/s) = 7.44301 -0.75552 5.23582
# Velocity P-wave (km/s) = 8.33759 1.49526 5.98963
#
# Compressibility (1/GPa) = -0.11665451
#
# Stress axis : x y z
#
# Youngs Moduli (GPa) = -9.72853 48.49677 32.28948
#
# Poissons Ratio (x) = -0.17397 1.17667
# Poissons Ratio (y) = 0.03490 -0.00410
# Poissons Ratio (z) = -0.35452 -0.00616
#
# Static dielectric constant tensor:
#      x y z
#    x 1.696880 0.000000 0.000000 
#    y 0.000000 1.747170 0.000000 
#    z 0.000000 0.000000 1.718940 
# 
# From -- ./inp_files/7342.got.cif
#   From: 2010.05.17/outbox.ucp.g08.bks.cvg/sg47_4_cif.got.tgz:7342.got - 2010.06.11 16:36:43.
