data_PCOD9389429
_publ_section_title
;
Structure prediction by ZEFSAII (Michael W. Deem and Ramdas Pophale) SiO2 
 PCOD9389429
Probable space group: P M M M
;
_chemical_formula_sum "Si O2"
_cell_formula_units_Z 53
_cell_length_a 15.000000
_cell_length_b 21.000000
_cell_length_c 9.000000
_cell_angle_alpha 90.000000
_cell_angle_beta 90.000000
_cell_angle_gamma 90.000000
_cell_volume 2835.000000
_symmetry_space_group_name_H-M "P M M M"
_symmetry_group_IT_number 47
_symmetry_cell_setting 'orthorhombic'
loop_
_space_group_symop_operation_xyz
x,y,z
-x,-y,z
x,-y,-z
-x,y,-z
-x,-y,-z
x,y,-z
-x,y,z
x,-y,z
loop_
_atom_site_type_symbol
_atom_site_label
_atom_site_fract_x
_atom_site_fract_y
_atom_site_fract_z
Si Si1 0.899084 0.378116 0.822864
Si Si2 0.817140 0.000000 0.161630
Si Si3 0.396172 0.666697 0.826564
Si Si4 0.232182 0.128153 0.675234
Si Si5 0.395972 0.817270 0.172534
Si Si6 0.731607 0.569316 0.674445
Si Si7 0.103760 0.241764 0.323156
Si Si8 0.000000 0.000000 0.000000
O O1 0.825121 0.423548 0.756857
O O2 0.879586 0.307292 0.762102
O O3 0.000000 0.394499 0.776887
O O4 0.894890 0.377832 0.000000
O O5 0.793202 0.062951 0.248582
O O6 0.921428 0.000000 0.125873
O O7 0.770615 0.000000 0.000000
O O8 0.500000 0.652443 0.799336
O O9 0.383482 0.741793 0.802577
O O10 0.332851 0.624672 0.727470
O O11 0.377059 0.653743 0.000000
O O12 0.220722 0.123309 0.500000
O O13 0.332157 0.145598 0.718889
O O14 0.168372 0.185709 0.728252
O O15 0.500000 0.831479 0.192661
O O16 0.372806 0.830262 0.000000
O O17 0.747414 0.574528 0.500000
O O18 0.691611 0.500000 0.707237
O O19 0.116922 0.252370 0.500000
O O20 0.000000 0.224081 0.300595
#
# Coordination Sequence:
#
# PCOD9389429 Si02
#       8
#     8   4   8   8   8   8   8   1
#     4  10  21  37  56  80 106 137 181 234 285 333
#     4  10  23  41  60  82 114 154 197 233 270 322
#     4   9  19  37  61  87 114 144 183 230 280 330
#     4  11  22  36  57  87 119 150 188 233 281 330
#     4   9  19  37  60  86 115 149 187 230 279 333
#     4  11  24  38  53  76 108 147 187 227 277 338
#     4   9  19  34  54  81 113 146 178 219 277 341
#     4   8  24  44  62  84 110 160 210 232 266 328
#
# _framework density 18.694884999999999
#
# number of rings (size 3 to 8) (size 9 to 14) (size 15 to 20)
#    0.226    1.962    0.000    3.396    1.057    7.547 
#    0.000    5.283    0.000    2.264    0.000    0.000 
#    0.000    0.000    0.000    0.000    0.000    0.000 
#
# Total GULP energy -295490.583643 kJ/mol
# GULP energy per Si atom -5575.294031 kJ/mol
# Density = 1.865233 g / cm^3
# Si number density = 18.694885 Si / 1000 Ang^3
#
#
#
# Elastic Constant Matrix: (Units=GPa)
#
#
# Indices 1 2 3 4 5 6 
#
# 1 10.3996 28.3904 45.5943 0.0000 0.0000 0.0000
# 2 28.3904 15.7121 32.6151 0.0000 0.0000 0.0000
# 3 45.5943 32.6151 42.4173 0.0000 0.0000 0.0000
# 4 0.0000 0.0000 0.0000 29.9058 0.0000 0.0000
# 5 0.0000 0.0000 0.0000 0.0000 19.9620 0.0000
# 6 0.0000 0.0000 0.0000 0.0000 0.0000 -27.3596
#
#
#
# Elastic Compliance Matrix: (Units=1/GPa)
#
#
# Indices 1 2 3 4 5 6 
#
# 1 -0.029531 0.021022 0.015578 0.000000 0.000000 0.000000
# 2 0.021022 -0.121735 0.071006 0.000000 0.000000 0.000000
# 3 0.015578 0.071006 -0.047767 0.000000 0.000000 0.000000
# 4 0.000000 0.000000 0.000000 0.033438 0.000000 0.000000
# 5 0.000000 0.000000 0.000000 0.000000 0.050095 0.000000
# 6 0.000000 0.000000 0.000000 0.000000 0.000000 -0.036550
#
#
# Mechanical properties :
#
#
# Convention : Reuss Voigt Hill
#
# Bulk Modulus (GPa) = 61.80089 31.30319 46.55204
# Shear Modulus (GPa) = -13.81718 1.96359 -5.92680
#
# Velocity S-wave (km/s) = -2.72157 1.02597 -1.78246
# Velocity P-wave (km/s) = 4.82219 4.26428 4.55179
#
# Compressibility (1/GPa) = 0.01618100
#
# Stress axis : x y z
#
# Youngs Moduli (GPa) = -33.86318 -8.21459 -20.93503
#
# Poissons Ratio (x) = 0.17269 0.32613
# Poissons Ratio (y) = 0.71189 1.48651
# Poissons Ratio (z) = 0.52752 0.58329
#
# Static dielectric constant tensor:
#      x y z
#    x 1.635470 0.000000 0.000000 
#    y 0.000000 1.634210 0.000000 
#    z 0.000000 0.000000 1.635530 
# 
# From -- ./inp_files/7121.got.cif
#   From: 2010.05.17/outbox.ucp.g08.bks.cvg/sg47_4_cif.got.tgz:7121.got - 2010.06.11 16:36:43.
