data_PCOD9389571
_publ_section_title
;
Structure prediction by ZEFSAII (Michael W. Deem and Ramdas Pophale) SiO2 
 PCOD9389571
Probable space group: P N N N
;
_chemical_formula_sum "Si O2"
_cell_formula_units_Z 52
_cell_length_a 13.761463
_cell_length_b 9.826773
_cell_length_c 20.494578
_cell_angle_alpha 90.000000
_cell_angle_beta 90.000000
_cell_angle_gamma 90.000000
_cell_volume 2771.497626
_symmetry_space_group_name_H-M "P N N N"
_symmetry_group_IT_number 48
_space_group.IT_coordinate_system_code '2'
_symmetry_cell_setting 'orthorhombic'
loop_
_space_group_symop_operation_xyz
x,y,z
1/2-x,1/2-y,z
x,1/2-y,1/2-z
1/2-x,y,1/2-z
-x,-y,-z
1/2+x,1/2+y,-z
-x,1/2+y,1/2+z
1/2+x,-y,1/2+z
loop_
_atom_site_type_symbol
_atom_site_label
_atom_site_fract_x
_atom_site_fract_y
_atom_site_fract_z
Si Si1 0.200540 0.112656 0.853529
Si Si2 0.835463 0.140432 0.917923
Si Si3 0.970385 0.250000 0.250000
Si Si4 0.164721 0.858813 0.636334
Si Si5 0.501694 0.011632 0.341984
Si Si6 0.675759 0.640530 0.990460
Si Si7 0.460335 0.721938 0.958484
O O1 0.250000 0.250000 0.829743
O O2 0.097059 0.073883 0.822074
O O3 0.279192 0.994503 0.847071
O O4 0.184614 0.124489 0.931854
O O5 0.750000 0.250000 0.900767
O O6 0.911533 0.084416 0.862928
O O7 0.802495 0.000107 0.953183
O O8 0.899887 0.203597 0.975920
O O9 0.898673 0.184712 0.302464
O O10 0.024594 0.372123 0.288603
O O11 0.250000 0.750000 0.620840
O O12 0.087383 0.851110 0.577358
O O13 0.542186 0.097798 0.405175
O O14 0.750000 0.750000 0.965052
O O15 0.571690 0.708182 0.977378
#
# Coordination Sequence:
#
# PCOD9389571 Si02
#       7
#     8   8   4   8   8   8   8
#     4  11  20  32  48  81 125 149 178 237 301 347
#     4  11  19  33  56  83 116 156 191 235 293 355
#     4  10  21  34  62  78 109 144 205 248 284 347
#     4  11  19  33  55  81 106 153 202 234 283 356
#     4  10  19  35  53  82 115 155 197 242 290 350
#     4  10  19  33  49  80 121 159 187 233 284 348
#     4  10  17  32  56  79 113 159 197 231 272 359
#
# _framework density 18.762419000000001
#
# number of rings (size 3 to 8) (size 9 to 14) (size 15 to 20)
#    0.000    1.538    6.154    2.538    0.000    0.000 
#    2.769    3.846    0.000    0.000    0.000   43.615 
#    0.000    0.000    0.000    0.000    0.000    0.000 
#
# Total GULP energy -289579.460866 kJ/mol
# GULP energy per Si atom -5568.835786 kJ/mol
# Density = 1.871971 g / cm^3
# Si number density = 18.762419 Si / 1000 Ang^3
#
#
#
# Elastic Constant Matrix: (Units=GPa)
#
#
# Indices 1 2 3 4 5 6 
#
# 1 97.5153 67.7490 33.1643 0.0000 0.0000 0.0000
# 2 67.7490 103.6288 24.4565 0.0000 0.0000 0.0000
# 3 33.1643 24.4565 65.8720 0.0000 0.0000 0.0000
# 4 0.0000 0.0000 0.0000 14.1632 0.0000 0.0000
# 5 0.0000 0.0000 0.0000 0.0000 12.8554 0.0000
# 6 0.0000 0.0000 0.0000 0.0000 0.0000 17.0093
#
#
#
# Elastic Compliance Matrix: (Units=1/GPa)
#
#
# Indices 1 2 3 4 5 6 
#
# 1 0.020698 -0.012135 -0.005915 0.000000 0.000000 0.000000
# 2 -0.012135 0.017692 -0.000459 0.000000 0.000000 0.000000
# 3 -0.005915 -0.000459 0.018329 0.000000 0.000000 0.000000
# 4 0.000000 0.000000 0.000000 0.070605 0.000000 0.000000
# 5 0.000000 0.000000 0.000000 0.000000 0.077789 0.000000
# 6 0.000000 0.000000 0.000000 0.000000 0.000000 0.058791
#
#
# Mechanical properties :
#
#
# Convention : Reuss Voigt Hill
#
# Bulk Modulus (GPa) = 50.76034 57.52838 54.14436
# Shear Modulus (GPa) = 16.26074 18.24866 17.25470
#
# Velocity S-wave (km/s) = 2.94711 3.12207 3.03585
# Velocity P-wave (km/s) = 6.22042 6.61245 6.41943
#
# Compressibility (1/GPa) = 0.01970042
#
# Stress axis : x y z
#
# Youngs Moduli (GPa) = 48.31487 56.52326 54.55763
#
# Poissons Ratio (x) = 0.68593 0.32271
# Poissons Ratio (y) = 0.58632 0.02503
# Poissons Ratio (z) = 0.28578 0.02593
#
# Static dielectric constant tensor:
#      x y z
#    x 1.625950 0.000000 0.000000 
#    y 0.000000 1.700010 0.000000 
#    z 0.000000 0.000000 1.685260 
# 
# From -- ./inp_files/34426.got.cif
#   From: 2010.05.17/outbox.cif.g08.bks.cpg/sg48_18_cif.got.tgz:34426.got - 2010.06.03 20:39:00.
