data_PCOD9389951
_publ_section_title
;
Structure prediction by ZEFSAII (Michael W. Deem and Ramdas Pophale) SiO2 
 PCOD9389951
Probable space group: P N N N
;
_chemical_formula_sum "Si O2"
_cell_formula_units_Z 64
_cell_length_a 24.709409
_cell_length_b 7.444255
_cell_length_c 15.296133
_cell_angle_alpha 90.000000
_cell_angle_beta 90.000000
_cell_angle_gamma 90.000000
_cell_volume 2813.618757
_symmetry_space_group_name_H-M "P N N N"
_symmetry_group_IT_number 48
_space_group.IT_coordinate_system_code '2'
_symmetry_cell_setting 'orthorhombic'
loop_
_space_group_symop_operation_xyz
x,y,z
1/2-x,1/2-y,z
x,1/2-y,1/2-z
1/2-x,y,1/2-z
-x,-y,-z
1/2+x,1/2+y,-z
-x,1/2+y,1/2+z
1/2+x,-y,1/2+z
loop_
_atom_site_type_symbol
_atom_site_label
_atom_site_fract_x
_atom_site_fract_y
_atom_site_fract_z
Si Si1 0.457664 0.546191 0.424566
Si Si2 0.806164 0.634379 0.352219
Si Si3 0.250325 0.969578 0.149138
Si Si4 0.355249 0.491362 0.686477
Si Si5 0.975885 0.530328 0.241580
Si Si6 0.845855 0.999417 0.962294
Si Si7 0.658101 0.425378 0.512381
Si Si8 0.535801 0.025952 0.584235
O O1 0.500000 0.500000 0.500000
O O2 0.482180 0.475967 0.334281
O O3 0.398994 0.489529 0.459151
O O4 0.455148 0.760200 0.407888
O O5 0.750000 0.750000 0.349493
O O6 0.853239 0.780588 0.337596
O O7 0.815537 0.497060 0.271248
O O8 0.819604 0.556934 0.445954
O O9 0.250000 0.750000 0.150648
O O10 0.250000 0.024777 0.250000
O O11 0.195522 0.051717 0.112285
O O12 0.295964 0.008286 0.075153
O O13 0.416018 0.538980 0.715446
O O14 0.335538 0.569961 0.593373
O O15 0.972300 0.750000 0.250000
O O16 0.001374 0.464674 0.332347
O O17 0.906044 0.940573 0.936981
O O18 0.845399 0.215497 0.965898
O O19 0.500000 0.000000 0.500000
#
# Coordination Sequence:
#
# PCOD9389951 Si02
#       8
#     8   8   8   8   8   8   8   8
#     4  10  20  35  57  86 118 155 200 237 291 353
#     4  11  23  38  60  87 115 155 206 244 292 367
#     4   9  19  36  59  81 111 146 190 241 296 351
#     4  11  20  35  61  85 117 157 198 237 292 355
#     4  10  19  34  56  83 117 159 201 241 284 356
#     4  10  22  39  58  89 118 151 197 248 303 348
#     4  10  21  36  59  90 118 153 191 249 303 350
#     4  10  22  36  57  84 119 157 198 244 293 348
#
# _framework density 22.746507999999999
#
# number of rings (size 3 to 8) (size 9 to 14) (size 15 to 20)
#    0.000    1.875    2.500    2.250    3.500    0.500 
#    0.000    0.625    0.000    8.625    0.000    0.000 
#    0.000    0.000    0.000    0.000    0.000    0.000 
#
# Total GULP energy -357071.831507 kJ/mol
# GULP energy per Si atom -5579.247367 kJ/mol
# Density = 2.269474 g / cm^3
# Si number density = 22.746508 Si / 1000 Ang^3
#
#
#
# Elastic Constant Matrix: (Units=GPa)
#
#
# Indices 1 2 3 4 5 6 
#
# 1 199.5078 1.0336 119.7838 0.0000 0.0000 0.0000
# 2 1.0336 44.2561 1.3563 0.0000 0.0000 0.0000
# 3 119.7838 1.3563 247.1017 0.0000 0.0000 0.0000
# 4 0.0000 0.0000 0.0000 18.4518 0.0000 0.0000
# 5 0.0000 0.0000 0.0000 0.0000 41.8435 0.0000
# 6 0.0000 0.0000 0.0000 0.0000 0.0000 6.2566
#
#
#
# Elastic Compliance Matrix: (Units=1/GPa)
#
#
# Indices 1 2 3 4 5 6 
#
# 1 0.007070 -0.000060 -0.003427 0.000000 0.000000 0.000000
# 2 -0.000060 0.022600 -0.000095 0.000000 0.000000 0.000000
# 3 -0.003427 -0.000095 0.005709 0.000000 0.000000 0.000000
# 4 0.000000 0.000000 0.000000 0.054195 0.000000 0.000000
# 5 0.000000 0.000000 0.000000 0.000000 0.023899 0.000000
# 6 0.000000 0.000000 0.000000 0.000000 0.000000 0.159832
#
#
# Mechanical properties :
#
#
# Convention : Reuss Voigt Hill
#
# Bulk Modulus (GPa) = 35.44222 81.69033 58.56627
# Shear Modulus (GPa) = 17.24886 37.88983 27.56935
#
# Velocity S-wave (km/s) = 2.75673 4.08578 3.48519
# Velocity P-wave (km/s) = 5.07424 7.63213 6.48064
#
# Compressibility (1/GPa) = 0.02821494
#
# Stress axis : x y z
#
# Youngs Moduli (GPa) = 141.43875 44.24770 175.17167
#
# Poissons Ratio (x) = 0.00266 0.60031
# Poissons Ratio (y) = 0.00850 0.01663
# Poissons Ratio (z) = 0.48471 0.00420
#
# Static dielectric constant tensor:
#      x y z
#    x 1.928680 0.000000 0.000000 
#    y 0.000000 1.931870 0.000000 
#    z 0.000000 0.000000 1.876430 
# 
# From -- ./inp_files/28661.got.cif
#   From: 2010.05.17/outbox.cif.g08.bks.cpg/sg48_15_cif.got.tgz:28661.got - 2010.06.03 20:39:00.
