data_PCOD9389901
_publ_section_title
;
Structure prediction by ZEFSAII (Michael W. Deem and Ramdas Pophale) SiO2 
 PCOD9389901
Probable space group: P N N N
;
_chemical_formula_sum "Si O2"
_cell_formula_units_Z 48
_cell_length_a 15.538846
_cell_length_b 5.139295
_cell_length_c 27.510088
_cell_angle_alpha 90.000000
_cell_angle_beta 90.000000
_cell_angle_gamma 90.000000
_cell_volume 2196.920237
_symmetry_space_group_name_H-M "P N N N"
_symmetry_group_IT_number 48
_space_group.IT_coordinate_system_code '2'
_symmetry_cell_setting 'orthorhombic'
loop_
_space_group_symop_operation_xyz
x,y,z
1/2-x,1/2-y,z
x,1/2-y,1/2-z
1/2-x,y,1/2-z
-x,-y,-z
1/2+x,1/2+y,-z
-x,1/2+y,1/2+z
1/2+x,-y,1/2+z
loop_
_atom_site_type_symbol
_atom_site_label
_atom_site_fract_x
_atom_site_fract_y
_atom_site_fract_z
Si Si1 0.660455 0.155099 0.142557
Si Si2 0.199241 0.488006 0.472096
Si Si3 0.536198 0.676752 0.663434
Si Si4 0.058437 0.682037 0.397721
Si Si5 0.708423 0.505232 0.696496
Si Si6 0.133400 0.346137 0.576645
O O1 0.750000 0.250000 0.168547
O O2 0.567656 0.144205 0.171023
O O3 0.650412 0.381949 0.103075
O O4 0.666227 0.887284 0.111751
O O5 0.250000 0.750000 0.485835
O O6 0.129412 0.587985 0.434396
O O7 0.165477 0.360367 0.522025
O O8 0.250000 0.250000 0.448189
O O9 0.563789 0.478326 0.620412
O O10 0.606691 0.566518 0.701641
O O11 0.551738 0.974900 0.647140
O O12 0.968471 0.676491 0.425175
O O13 0.750000 0.250000 0.672172
O O14 0.750000 0.499538 0.750000
O O15 0.750000 0.750000 0.670021
#
# Coordination Sequence:
#
# PCOD9389901 Si02
#       6
#     8   8   8   8   8   8
#     4  10  19  33  54  78 103 135 178 229 279 320
#     4  12  23  33  48  70  97 136 186 233 278 328
#     4  10  21  36  55  79 108 139 176 223 274 328
#     4  10  22  36  50  72 103 140 176 226 282 324
#     4  10  21  37  59  85 112 145 178 210 255 320
#     4  10  20  35  51  68  98 139 185 229 273 324
#
# _framework density 21.848766000000001
#
# number of rings (size 3 to 8) (size 9 to 14) (size 15 to 20)
#    0.000    1.667    0.000    5.500    0.000    4.000 
#    0.000    6.667    0.000    0.000    0.000    2.333 
#    0.000    5.333    0.000    0.000    0.000    0.000 
#
# Total GULP energy -267484.484865 kJ/mol
# GULP energy per Si atom -5572.593435 kJ/mol
# Density = 2.179904 g / cm^3
# Si number density = 21.848766 Si / 1000 Ang^3
#
#
#
# Elastic Constant Matrix: (Units=GPa)
#
#
# Indices 1 2 3 4 5 6 
#
# 1 156.9740 20.6686 38.9685 0.0000 0.0000 0.0000
# 2 20.6686 141.2169 -3.2194 0.0000 0.0000 0.0000
# 3 38.9685 -3.2194 34.8097 0.0000 0.0000 0.0000
# 4 0.0000 0.0000 0.0000 0.7379 0.0000 0.0000
# 5 0.0000 0.0000 0.0000 0.0000 90.4902 0.0000
# 6 0.0000 0.0000 0.0000 0.0000 0.0000 45.5999
#
#
#
# Elastic Compliance Matrix: (Units=1/GPa)
#
#
# Indices 1 2 3 4 5 6 
#
# 1 0.009160 -0.001578 -0.010400 0.000000 0.000000 0.000000
# 2 -0.001578 0.007368 0.002448 0.000000 0.000000 0.000000
# 3 -0.010400 0.002448 0.040597 0.000000 0.000000 0.000000
# 4 0.000000 0.000000 0.000000 1.355156 0.000000 0.000000
# 5 0.000000 0.000000 0.000000 0.000000 0.011051 0.000000
# 6 0.000000 0.000000 0.000000 0.000000 0.000000 0.021930
#
#
# Mechanical properties :
#
#
# Convention : Reuss Voigt Hill
#
# Bulk Modulus (GPa) = 26.27145 49.53734 37.90440
# Shear Modulus (GPa) = 3.38521 45.80447 24.59484
#
# Velocity S-wave (km/s) = 1.24609 4.58365 3.35876
# Velocity P-wave (km/s) = 3.75775 7.12286 5.69455
#
# Compressibility (1/GPa) = 0.03806413
#
# Stress axis : x y z
#
# Youngs Moduli (GPa) = 109.16899 135.72148 24.63241
#
# Poissons Ratio (x) = 0.21414 0.25619
# Poissons Ratio (y) = 0.17224 -0.06029
# Poissons Ratio (z) = 1.13540 -0.33221
#
# Static dielectric constant tensor:
#      x y z
#    x 1.939510 0.000000 0.000000 
#    y 0.000000 1.890850 0.000000 
#    z 0.000000 0.000000 1.349430 
# 
# From -- ./inp_files/37876.got.cif
#   From: 2010.05.17/outbox.cif.g08.bks.cpg/sg48_19_cif.got.tgz:37876.got - 2010.06.03 20:39:00.
