data_PCOD9389405
_publ_section_title
;
Structure prediction by ZEFSAII (Michael W. Deem and Ramdas Pophale) SiO2 
 PCOD9389405
Probable space group: P M M M
;
_chemical_formula_sum "Si O2"
_cell_formula_units_Z 58
_cell_length_a 24.000000
_cell_length_b 15.000000
_cell_length_c 9.000000
_cell_angle_alpha 90.000000
_cell_angle_beta 90.000000
_cell_angle_gamma 90.000000
_cell_volume 3240.000000
_symmetry_space_group_name_H-M "P M M M"
_symmetry_group_IT_number 47
_symmetry_cell_setting 'orthorhombic'
loop_
_space_group_symop_operation_xyz
x,y,z
-x,-y,z
x,-y,-z
-x,y,-z
-x,-y,-z
x,y,-z
-x,y,z
x,-y,z
loop_
_atom_site_type_symbol
_atom_site_label
_atom_site_fract_x
_atom_site_fract_y
_atom_site_fract_z
Si Si1 0.936735 0.159443 0.828225
Si Si2 0.564829 0.606023 0.678919
Si Si3 0.671148 0.706469 0.819957
Si Si4 0.172948 0.105261 0.336587
Si Si5 0.000000 0.500000 0.255285
Si Si6 0.778955 0.393344 0.322347
Si Si7 0.713891 0.896630 0.177989
Si Si8 0.099097 0.634986 0.825895
O O1 0.887417 0.118860 0.732626
O O2 0.923599 0.264527 0.825008
O O3 0.000000 0.141941 0.777581
O O4 0.932406 0.129522 0.000000
O O5 0.569752 0.617078 0.500000
O O6 0.500000 0.629349 0.719084
O O7 0.571841 0.500000 0.710405
O O8 0.614538 0.660992 0.757344
O O9 0.726620 0.658366 0.752255
O O10 0.674596 0.812757 0.780798
O O11 0.672693 0.698513 0.000000
O O12 0.176692 0.147455 0.500000
O O13 0.224790 0.132576 0.234845
O O14 0.180358 0.000000 0.350665
O O15 0.050180 0.423919 0.246745
O O16 0.780069 0.375596 0.500000
O O17 0.770752 0.500000 0.301867
O O18 0.840014 0.370931 0.251559
O O19 0.701551 0.000000 0.228626
O O20 0.715177 0.900369 0.000000
O O21 0.104424 0.607773 0.000000
#
# Coordination Sequence:
#
# PCOD9389405 Si02
#       8
#     8   8   8   8   2   8   8   8
#     4  10  21  35  51  73  97 124 163 208 259 322
#     4   9  19  37  60  86 120 162 198 225 262 315
#     4  11  22  35  57  88 115 144 185 232 276 317
#     4  10  21  36  54  76 100 128 166 212 264 321
#     4  12  21  36  61  78  95 132 175 224 277 322
#     4  11  24  38  51  74 110 148 181 220 273 330
#     4   9  19  37  58  79 106 140 177 219 270 326
#     4  11  21  36  57  77  98 131 176 222 270 324
#
# _framework density 17.901235
#
# number of rings (size 3 to 8) (size 9 to 14) (size 15 to 20)
#    0.000    1.793    1.379    3.517    0.000    9.379 
#    0.000    2.759    0.000    0.414    0.000    2.897 
#    0.000    0.000    0.000    0.000    0.000    0.000 
#
# Total GULP energy -322976.530997 kJ/mol
# GULP energy per Si atom -5568.560879 kJ/mol
# Density = 1.786049 g / cm^3
# Si number density = 17.901235 Si / 1000 Ang^3
#
#
#
# Elastic Constant Matrix: (Units=GPa)
#
#
# Indices 1 2 3 4 5 6 
#
# 1 159.1580 56.6786 39.9505 0.0000 0.0000 0.0000
# 2 56.6786 70.0419 26.9852 0.0000 0.0000 0.0000
# 3 39.9505 26.9852 39.2719 0.0000 0.0000 0.0000
# 4 0.0000 0.0000 0.0000 19.1630 0.0000 0.0000
# 5 0.0000 0.0000 0.0000 0.0000 22.7477 0.0000
# 6 0.0000 0.0000 0.0000 0.0000 0.0000 28.9976
#
#
#
# Elastic Compliance Matrix: (Units=1/GPa)
#
#
# Indices 1 2 3 4 5 6 
#
# 1 0.009811 -0.005568 -0.006154 0.000000 0.000000 0.000000
# 2 -0.005568 0.022578 -0.009850 0.000000 0.000000 0.000000
# 3 -0.006154 -0.009850 0.038492 0.000000 0.000000 0.000000
# 4 0.000000 0.000000 0.000000 0.052184 0.000000 0.000000
# 5 0.000000 0.000000 0.000000 0.000000 0.043960 0.000000
# 6 0.000000 0.000000 0.000000 0.000000 0.000000 0.034486
#
#
# Mechanical properties :
#
#
# Convention : Reuss Voigt Hill
#
# Bulk Modulus (GPa) = 36.05346 57.30003 46.67675
# Shear Modulus (GPa) = 19.69278 23.83883 21.76580
#
# Velocity S-wave (km/s) = 3.32034 3.65319 3.49073
# Velocity P-wave (km/s) = 5.90623 7.06207 6.50985
#
# Compressibility (1/GPa) = 0.02773659
#
# Stress axis : x y z
#
# Youngs Moduli (GPa) = 101.93009 44.29175 25.97912
#
# Poissons Ratio (x) = 0.24661 0.15988
# Poissons Ratio (y) = 0.56752 0.25589
# Poissons Ratio (z) = 0.62731 0.43627
#
# Static dielectric constant tensor:
#      x y z
#    x 1.576010 0.000000 0.000000 
#    y 0.000000 1.666020 0.000000 
#    z 0.000000 0.000000 1.644210 
# 
# From -- ./inp_files/12640.got.cif
#   From: 2010.05.17/outbox.ucp.g08.bks.cvg/sg47_7_cif.got.tgz:12640.got - 2010.06.11 16:36:43.
