data_PCOD9389750
_publ_section_title
;
Structure prediction by ZEFSAII (Michael W. Deem and Ramdas Pophale) SiO2 
 PCOD9389750
Probable space group: P N N N
;
_chemical_formula_sum "Si O2"
_cell_formula_units_Z 48
_cell_length_a 9.842180
_cell_length_b 29.625645
_cell_length_c 7.047497
_cell_angle_alpha 90.000000
_cell_angle_beta 90.000000
_cell_angle_gamma 90.000000
_cell_volume 2054.915734
_symmetry_space_group_name_H-M "P N N N"
_symmetry_group_IT_number 48
_space_group.IT_coordinate_system_code '2'
_symmetry_cell_setting 'orthorhombic'
loop_
_space_group_symop_operation_xyz
x,y,z
1/2-x,1/2-y,z
x,1/2-y,1/2-z
1/2-x,y,1/2-z
-x,-y,-z
1/2+x,1/2+y,-z
-x,1/2+y,1/2+z
1/2+x,-y,1/2+z
loop_
_atom_site_type_symbol
_atom_site_label
_atom_site_fract_x
_atom_site_fract_y
_atom_site_fract_z
Si Si1 0.166274 0.500686 0.541619
Si Si2 0.268706 0.404364 0.519711
Si Si3 0.592168 0.253573 0.518633
Si Si4 0.781036 0.398975 0.473950
Si Si5 0.014289 0.649896 0.052069
Si Si6 0.043642 0.337822 0.522389
O O1 0.250000 0.501324 0.750000
O O2 0.220424 0.453651 0.456657
O O3 0.208259 0.549374 0.461860
O O4 0.000000 0.500000 0.500000
O O5 0.250000 0.406330 0.750000
O O6 0.421045 0.389786 0.469814
O O7 0.175768 0.363138 0.449201
O O8 0.750000 0.250000 0.461799
O O9 0.594266 0.250000 0.750000
O O10 0.536852 0.302086 0.454536
O O11 0.500367 0.211554 0.456823
O O12 0.750000 0.398489 0.250000
O O13 0.661712 0.371776 0.576362
O O14 0.920405 0.372269 0.492311
O O15 0.944672 0.663818 0.249294
#
# Coordination Sequence:
#
# PCOD9389750 Si02
#       6
#     8   8   8   8   8   8
#     4  10  20  37  60  86 120 158 203 253 309 375
#     4   9  19  34  57  82 111 145 191 240 298 352
#     4   9  16  28  52  84 111 139 185 241 290 346
#     4  11  22  35  56  80 115 149 194 240 294 349
#     4  10  20  35  56  85 111 145 194 241 288 361
#     4  10  18  35  58  80 110 150 184 237 297 355
#
# _framework density 23.358623000000001
#
# number of rings (size 3 to 8) (size 9 to 14) (size 15 to 20)
#    0.000    2.167    3.333    0.500    0.000    1.333 
#    0.000    5.833    0.000    0.000    0.000    2.333 
#    0.000    0.000    0.000    0.000    0.000    0.000 
#
# Total GULP energy -267621.885613 kJ/mol
# GULP energy per Si atom -5575.455950 kJ/mol
# Density = 2.330546 g / cm^3
# Si number density = 23.358623 Si / 1000 Ang^3
#
#
#
# Elastic Constant Matrix: (Units=GPa)
#
#
# Indices 1 2 3 4 5 6 
#
# 1 99.0548 47.6055 12.0055 0.0000 0.0000 0.0000
# 2 47.6055 224.6424 -2.5749 0.0000 0.0000 0.0000
# 3 12.0055 -2.5749 93.8732 0.0000 0.0000 0.0000
# 4 0.0000 0.0000 0.0000 -36.2861 0.0000 0.0000
# 5 0.0000 0.0000 0.0000 0.0000 8.3593 0.0000
# 6 0.0000 0.0000 0.0000 0.0000 0.0000 80.0585
#
#
#
# Elastic Compliance Matrix: (Units=1/GPa)
#
#
# Indices 1 2 3 4 5 6 
#
# 1 0.011456 -0.002445 -0.001532 0.000000 0.000000 0.000000
# 2 -0.002445 0.004975 0.000449 0.000000 0.000000 0.000000
# 3 -0.001532 0.000449 0.010861 0.000000 0.000000 0.000000
# 4 0.000000 0.000000 0.000000 -0.027559 0.000000 0.000000
# 5 0.000000 0.000000 0.000000 0.000000 0.119628 0.000000
# 6 0.000000 0.000000 0.000000 0.000000 0.000000 0.012491
#
#
# Mechanical properties :
#
#
# Convention : Reuss Voigt Hill
#
# Bulk Modulus (GPa) = 49.41837 59.07140 54.24488
# Shear Modulus (GPa) = 34.32797 34.46195 34.39496
#
# Velocity S-wave (km/s) = 3.83770 3.84518 3.84145
# Velocity P-wave (km/s) = 6.39059 6.71251 6.55352
#
# Compressibility (1/GPa) = 0.02023539
#
# Stress axis : x y z
#
# Youngs Moduli (GPa) = 87.28776 201.00980 92.07298
#
# Poissons Ratio (x) = 0.49154 0.14108
# Poissons Ratio (y) = 0.21345 -0.04136
# Poissons Ratio (z) = 0.13375 -0.09029
#
# Static dielectric constant tensor:
#      x y z
#    x 1.733170 0.000000 0.000000 
#    y 0.000000 1.838740 0.000000 
#    z 0.000000 0.000000 1.865470 
# 
# From -- ./inp_files/9500.got.cif
#   From: 2010.05.17/outbox.cif.g08.bks.cpg/sg48_5_cif.got.tgz:9500.got - 2010.06.03 20:39:00.
