data_PCOD9389337
_publ_section_title
;
Structure prediction by ZEFSAII (Michael W. Deem and Ramdas Pophale) SiO2 
 PCOD9389337
Probable space group: P M M M
;
_chemical_formula_sum "Si O2"
_cell_formula_units_Z 44
_cell_length_a 9.000000
_cell_length_b 9.000000
_cell_length_c 30.000000
_cell_angle_alpha 90.000000
_cell_angle_beta 90.000000
_cell_angle_gamma 90.000000
_cell_volume 2430.000000
_symmetry_space_group_name_H-M "P M M M"
_symmetry_group_IT_number 47
_symmetry_cell_setting 'orthorhombic'
loop_
_space_group_symop_operation_xyz
x,y,z
-x,-y,z
x,-y,-z
-x,y,-z
-x,-y,-z
x,y,-z
-x,y,z
x,-y,z
loop_
_atom_site_type_symbol
_atom_site_label
_atom_site_fract_x
_atom_site_fract_y
_atom_site_fract_z
Si Si1 0.819592 0.671173 0.813468
Si Si2 0.179104 0.825784 0.278221
Si Si3 0.677342 0.674255 0.635913
Si Si4 0.177648 0.176913 0.449380
Si Si5 0.824071 0.500000 0.946754
Si Si6 0.819627 0.824710 0.904517
O O1 0.770453 0.500000 0.821162
O O2 0.772490 0.733463 0.765454
O O3 0.778943 0.782885 0.853492
O O4 0.000000 0.667942 0.813437
O O5 0.251119 0.762222 0.322905
O O6 0.000000 0.812547 0.281765
O O7 0.213913 0.000000 0.272603
O O8 0.500000 0.691226 0.636988
O O9 0.713978 0.500000 0.640165
O O10 0.739626 0.736317 0.589386
O O11 0.220627 0.219829 0.500000
O O12 0.000000 0.199320 0.445181
O O13 0.204629 0.000000 0.444647
O O14 0.771873 0.667081 0.929655
O O15 0.000000 0.500000 0.934917
O O16 0.806491 0.500000 0.000000
O O17 0.000000 0.828350 0.909024
O O18 0.772803 0.000000 0.915188
#
# Coordination Sequence:
#
# PCOD9389337 Si02
#       6
#     8   8   8   8   4   8
#     4   9  15  25  42  63  87 114 147 193 248 297
#     4  10  20  33  51  75  98 123 162 209 253 300
#     4  11  24  38  51  72 104 138 169 202 245 299
#     4   9  19  37  60  83 104 128 163 207 251 295
#     4   9  16  24  32  46  72 108 151 197 246 299
#     4   9  15  23  35  51  74 106 147 196 246 296
#
# _framework density 18.106995999999999
#
# number of rings (size 3 to 8) (size 9 to 14) (size 15 to 20)
#    0.000    2.455    0.909    2.727    0.000    8.364 
#    0.000    4.545    0.000    0.000    0.000    0.000 
#    0.000    0.000    0.000    0.000    0.000    1.818 
#
# Total GULP energy -245073.632737 kJ/mol
# GULP energy per Si atom -5569.855289 kJ/mol
# Density = 1.806578 g / cm^3
# Si number density = 18.106996 Si / 1000 Ang^3
#
#
#
# Elastic Constant Matrix: (Units=GPa)
#
#
# Indices 1 2 3 4 5 6 
#
# 1 3.0858 19.4805 9.5486 0.0000 0.0000 0.0000
# 2 19.4805 145.0237 53.7667 0.0000 0.0000 0.0000
# 3 9.5486 53.7667 83.9526 0.0000 0.0000 0.0000
# 4 0.0000 0.0000 0.0000 39.6269 0.0000 0.0000
# 5 0.0000 0.0000 0.0000 0.0000 -3.3558 0.0000
# 6 0.0000 0.0000 0.0000 0.0000 0.0000 18.5463
#
#
#
# Elastic Compliance Matrix: (Units=1/GPa)
#
#
# Indices 1 2 3 4 5 6 
#
# 1 2.600719 -0.314309 -0.094504 0.000000 0.000000 0.000000
# 2 -0.314309 0.047028 0.005630 0.000000 0.000000 0.000000
# 3 -0.094504 0.005630 0.019054 0.000000 0.000000 0.000000
# 4 0.000000 0.000000 0.000000 0.025235 0.000000 0.000000
# 5 0.000000 0.000000 0.000000 0.000000 -0.297987 0.000000
# 6 0.000000 0.000000 0.000000 0.000000 0.000000 0.053919
#
#
# Mechanical properties :
#
#
# Convention : Reuss Voigt Hill
#
# Bulk Modulus (GPa) = 0.53751 44.18376 22.36064
# Shear Modulus (GPa) = 1.29050 20.91455 11.10252
#
# Velocity S-wave (km/s) = 0.84513 3.40230 2.47890
# Velocity P-wave (km/s) = 1.11796 6.31574 4.53533
#
# Compressibility (1/GPa) = 1.86043592
#
# Stress axis : x y z
#
# Youngs Moduli (GPa) = 0.38451 21.26386 52.48118
#
# Poissons Ratio (x) = 6.68342 4.95969
# Poissons Ratio (y) = 0.12085 -0.29547
# Poissons Ratio (z) = 0.03634 -0.11972
#
# Static dielectric constant tensor:
#      x y z
#    x 1.597640 0.000000 0.000000 
#    y 0.000000 1.642070 0.000000 
#    z 0.000000 0.000000 1.620710 
# 
# From -- ./inp_files/2114.got.cif
#   From: 2010.05.17/outbox.ucp.g08.bks.cvg/sg47_2_cif.got.tgz:2114.got - 2010.06.11 16:36:43.
