data_PCOD9389745
_publ_section_title
;
Structure prediction by ZEFSAII (Michael W. Deem and Ramdas Pophale) SiO2 
 PCOD9389745
Probable space group: P N N N
;
_chemical_formula_sum "Si O2"
_cell_formula_units_Z 64
_cell_length_a 8.949577
_cell_length_b 18.638926
_cell_length_c 20.070512
_cell_angle_alpha 90.000000
_cell_angle_beta 90.000000
_cell_angle_gamma 90.000000
_cell_volume 3347.972211
_symmetry_space_group_name_H-M "P N N N"
_symmetry_group_IT_number 48
_space_group.IT_coordinate_system_code '2'
_symmetry_cell_setting 'orthorhombic'
loop_
_space_group_symop_operation_xyz
x,y,z
1/2-x,1/2-y,z
x,1/2-y,1/2-z
1/2-x,y,1/2-z
-x,-y,-z
1/2+x,1/2+y,-z
-x,1/2+y,1/2+z
1/2+x,-y,1/2+z
loop_
_atom_site_type_symbol
_atom_site_label
_atom_site_fract_x
_atom_site_fract_y
_atom_site_fract_z
Si Si1 0.372625 0.595369 0.457456
Si Si2 0.938014 0.478223 0.099742
Si Si3 0.922251 0.264582 0.031637
Si Si4 0.084393 0.640784 0.726958
Si Si5 0.434428 0.518331 0.073523
Si Si6 0.339568 0.485992 0.811308
Si Si7 0.901044 0.655268 0.852558
Si Si8 0.077457 0.149140 0.097623
O O1 0.493992 0.556707 0.411045
O O2 0.392728 0.555983 0.528951
O O3 0.413102 0.678511 0.470596
O O4 0.207141 0.571660 0.433604
O O5 0.790849 0.480119 0.143555
O O6 0.063179 0.428174 0.132457
O O7 0.750000 0.250000 0.045355
O O8 0.996950 0.305454 0.093227
O O9 0.020620 0.191042 0.031602
O O10 0.250000 0.661132 0.750000
O O11 0.079177 0.553694 0.723596
O O12 0.961906 0.668561 0.778845
O O13 0.049980 0.663560 0.652199
O O14 0.547159 0.545369 0.132529
O O15 0.398432 0.435863 0.092474
O O16 0.500000 0.500000 0.000000
O O17 0.250000 0.447010 0.750000
O O18 0.732594 0.673892 0.870466
#
# Coordination Sequence:
#
# PCOD9389745 Si02
#       8
#     8   8   8   8   8   8   8   8
#     4  10  21  36  57  81 112 156 202 256 310 362
#     4  10  18  35  56  82 112 155 196 251 313 356
#     4  11  24  38  55  77 115 157 205 249 299 365
#     4  10  19  33  55  78 116 162 200 241 291 355
#     4  11  20  33  57  84 114 154 205 248 307 368
#     4  10  19  32  55  87 123 152 191 253 311 362
#     4  11  20  36  54  78 116 158 203 245 297 356
#     4  11  23  36  53  82 115 156 204 256 296 358
#
# _framework density 19.116047999999999
#
# number of rings (size 3 to 8) (size 9 to 14) (size 15 to 20)
#    0.000    1.500    5.000    2.250    3.500    0.500 
#    0.000    3.125    0.000    0.000    0.000    0.000 
#    0.000   11.000    0.000    0.000    0.000    0.000 
#
# Total GULP energy -356402.457667 kJ/mol
# GULP energy per Si atom -5568.788401 kJ/mol
# Density = 1.907254 g / cm^3
# Si number density = 19.116048 Si / 1000 Ang^3
#
#
#
# Elastic Constant Matrix: (Units=GPa)
#
#
# Indices 1 2 3 4 5 6 
#
# 1 88.1795 22.3243 20.5544 0.0000 0.0000 0.0000
# 2 22.3243 46.3183 12.9626 0.0000 0.0000 0.0000
# 3 20.5544 12.9626 60.4800 0.0000 0.0000 0.0000
# 4 0.0000 0.0000 0.0000 24.5476 0.0000 0.0000
# 5 0.0000 0.0000 0.0000 0.0000 22.4140 0.0000
# 6 0.0000 0.0000 0.0000 0.0000 0.0000 25.6895
#
#
#
# Elastic Compliance Matrix: (Units=1/GPa)
#
#
# Indices 1 2 3 4 5 6 
#
# 1 0.013547 -0.005575 -0.003409 0.000000 0.000000 0.000000
# 2 -0.005575 0.025262 -0.003520 0.000000 0.000000 0.000000
# 3 -0.003409 -0.003520 0.018447 0.000000 0.000000 0.000000
# 4 0.000000 0.000000 0.000000 0.040737 0.000000 0.000000
# 5 0.000000 0.000000 0.000000 0.000000 0.044615 0.000000
# 6 0.000000 0.000000 0.000000 0.000000 0.000000 0.038926
#
#
# Mechanical properties :
#
#
# Convention : Reuss Voigt Hill
#
# Bulk Modulus (GPa) = 31.00935 34.07339 32.54137
# Shear Modulus (GPa) = 23.01061 23.80598 23.40830
#
# Velocity S-wave (km/s) = 3.47325 3.53277 3.50313
# Velocity P-wave (km/s) = 5.68696 5.87399 5.78123
#
# Compressibility (1/GPa) = 0.03224834
#
# Stress axis : x y z
#
# Youngs Moduli (GPa) = 73.81940 39.58545 54.20846
#
# Poissons Ratio (x) = 0.22069 0.18480
# Poissons Ratio (y) = 0.41155 0.19079
# Poissons Ratio (z) = 0.25165 0.13932
#
# Static dielectric constant tensor:
#      x y z
#    x 1.699580 0.000000 0.000000 
#    y 0.000000 1.788760 0.000000 
#    z 0.000000 0.000000 1.705780 
# 
# From -- ./inp_files/33698.got.cif
#   From: 2010.05.17/outbox.cif.g08.bks.cpg/sg48_17_cif.got.tgz:33698.got - 2010.06.03 20:39:00.
