data_PCOD9389059
_publ_section_title
;
Structure prediction by ZEFSAII (Michael W. Deem and Ramdas Pophale) SiO2 
 PCOD9389059
Probable space group: P M M M
;
_chemical_formula_sum "Si O2"
_cell_formula_units_Z 52
_cell_length_a 16.382026
_cell_length_b 19.756635
_cell_length_c 7.540339
_cell_angle_alpha 90.000000
_cell_angle_beta 90.000000
_cell_angle_gamma 90.000000
_cell_volume 2440.458679
_symmetry_space_group_name_H-M "P M M M"
_symmetry_group_IT_number 47
_symmetry_cell_setting 'orthorhombic'
loop_
_space_group_symop_operation_xyz
x,y,z
-x,-y,z
x,-y,-z
-x,y,-z
-x,-y,-z
x,y,-z
-x,y,z
x,-y,z
loop_
_atom_site_type_symbol
_atom_site_label
_atom_site_fract_x
_atom_site_fract_y
_atom_site_fract_z
Si Si1 0.828323 0.138239 0.215043
Si Si2 0.590753 0.217215 0.713990
Si Si3 0.658013 0.925743 0.290695
Si Si4 0.238262 0.718657 0.788344
Si Si5 0.587698 0.581155 0.702535
Si Si6 0.230258 0.424575 0.201788
Si Si7 0.000000 0.078007 0.783293
O O1 0.754371 0.089378 0.270556
O O2 0.806034 0.213728 0.278575
O O3 0.916600 0.113539 0.274743
O O4 0.827702 0.139003 0.000000
O O5 0.589711 0.214930 0.500000
O O6 0.500000 0.235858 0.774324
O O7 0.613614 0.141508 0.780437
O O8 0.665296 0.266422 0.761403
O O9 0.639047 0.927800 0.500000
O O10 0.637960 0.000000 0.216446
O O11 0.205057 0.647175 0.714332
O O12 0.225638 0.715430 0.000000
O O13 0.596781 0.607273 0.500000
O O14 0.500000 0.605566 0.773056
O O15 0.580744 0.500000 0.689491
O O16 0.671941 0.587906 0.804008
O O17 0.216947 0.500000 0.281429
O O18 0.199428 0.427937 0.000000
O O19 0.000000 0.000000 0.728846
O O20 0.000000 0.079315 0.000000
#
# Coordination Sequence:
#
# PCOD9389059 Si02
#       7
#     8   8   8   8   8   8   4
#     4   9  17  30  47  66  89 116 143 170 205 251
#     4   9  18  31  45  61  82 112 149 183 215 252
#     4   9  17  29  45  65  89 115 143 177 214 249
#     4   9  18  31  45  61  83 112 143 176 216 257
#     4   8  14  24  36  51  73  99 127 164 211 256
#     4   9  17  28  41  57  76 100 134 173 210 250
#     4   9  16  26  45  73  96 112 136 169 201 241
#
# _framework density 21.307468
#
# number of rings (size 3 to 8) (size 9 to 14) (size 15 to 20)
#    0.000    3.154    0.000    0.923    0.000    3.077 
#    0.000    6.538    0.000    1.385    0.000    4.846 
#    0.000    4.308    0.000    0.000    0.000   20.692 
#
# Total GULP energy -289717.096030 kJ/mol
# GULP energy per Si atom -5571.482616 kJ/mol
# Density = 2.125897 g / cm^3
# Si number density = 21.307468 Si / 1000 Ang^3
#
#
#
# Elastic Constant Matrix: (Units=GPa)
#
#
# Indices 1 2 3 4 5 6 
#
# 1 62.4361 30.7943 -8.1340 0.0000 0.0000 0.0000
# 2 30.7943 196.6930 2.2174 0.0000 0.0000 0.0000
# 3 -8.1340 2.2174 53.5742 0.0000 0.0000 0.0000
# 4 0.0000 0.0000 0.0000 6.5636 0.0000 0.0000
# 5 0.0000 0.0000 0.0000 0.0000 11.2749 0.0000
# 6 0.0000 0.0000 0.0000 0.0000 0.0000 1.6150
#
#
#
# Elastic Compliance Matrix: (Units=1/GPa)
#
#
# Indices 1 2 3 4 5 6 
#
# 1 0.017771 -0.002814 0.002815 0.000000 0.000000 0.000000
# 2 -0.002814 0.005532 -0.000656 0.000000 0.000000 0.000000
# 3 0.002815 -0.000656 0.019120 0.000000 0.000000 0.000000
# 4 0.000000 0.000000 0.000000 0.152355 0.000000 0.000000
# 5 0.000000 0.000000 0.000000 0.000000 0.088693 0.000000
# 6 0.000000 0.000000 0.000000 0.000000 0.000000 0.619187
#
#
# Mechanical properties :
#
#
# Convention : Reuss Voigt Hill
#
# Bulk Modulus (GPa) = 24.32383 40.27320 32.29852
# Shear Modulus (GPa) = 5.44857 23.07907 14.26382
#
# Velocity S-wave (km/s) = 1.60083 3.29469 2.59014
# Velocity P-wave (km/s) = 3.85452 5.78060 4.91287
#
# Compressibility (1/GPa) = 0.04111195
#
# Stress axis : x y z
#
# Youngs Moduli (GPa) = 56.27165 180.76593 52.30078
#
# Poissons Ratio (x) = 0.50867 -0.14720
# Poissons Ratio (y) = 0.15835 0.03432
# Poissons Ratio (z) = -0.15838 0.11862
#
# Static dielectric constant tensor:
#      x y z
#    x 1.738990 0.000000 0.000000 
#    y 0.000000 1.847560 0.000000 
#    z 0.000000 0.000000 1.815370 
# 
# From -- ./inp_files/7026.got.cif
#   From: 2010.05.17/outbox.cif.g08.bks.cpg/sg47_4_cif.got.tgz:7026.got - 2010.06.03 20:15:42.
