data_PCOD9389214
_publ_section_title
;
Structure prediction by ZEFSAII (Michael W. Deem and Ramdas Pophale) SiO2 
 PCOD9389214
Probable space group: P M M M
;
_chemical_formula_sum "Si O2"
_cell_formula_units_Z 40
_cell_length_a 28.863463
_cell_length_b 7.748220
_cell_length_c 9.654408
_cell_angle_alpha 90.000000
_cell_angle_beta 90.000000
_cell_angle_gamma 90.000000
_cell_volume 2159.116259
_symmetry_space_group_name_H-M "P M M M"
_symmetry_group_IT_number 47
_symmetry_cell_setting 'orthorhombic'
loop_
_space_group_symop_operation_xyz
x,y,z
-x,-y,z
x,-y,-z
-x,y,-z
-x,-y,-z
x,y,-z
-x,y,z
x,-y,z
loop_
_atom_site_type_symbol
_atom_site_label
_atom_site_fract_x
_atom_site_fract_y
_atom_site_fract_z
Si Si1 0.184493 0.707020 0.157541
Si Si2 0.000000 0.794703 0.341637
Si Si3 0.623666 0.203562 0.665806
Si Si4 0.712763 0.792654 0.158457
Si Si5 0.899759 0.706499 0.342195
Si Si6 0.552732 0.500000 0.331828
O O1 0.179630 0.500000 0.150803
O O2 0.236226 0.743230 0.210925
O O3 0.142841 0.774431 0.251957
O O4 0.181857 0.774820 0.000000
O O5 0.049257 0.740440 0.279964
O O6 0.000000 0.722845 0.500000
O O7 0.000000 0.000000 0.348186
O O8 0.630447 0.219151 0.500000
O O9 0.670112 0.260457 0.745589
O O10 0.581729 0.329367 0.707194
O O11 0.614760 0.000000 0.695050
O O12 0.711395 0.000000 0.153440
O O13 0.708145 0.727181 0.000000
O O14 0.898790 0.775667 0.500000
O O15 0.894744 0.500000 0.350712
O O16 0.500000 0.500000 0.280459
O O17 0.550849 0.500000 0.500000
#
# Coordination Sequence:
#
# PCOD9389214 Si02
#       6
#     8   4   8   8   8   4
#     4   9  18  31  46  66  92 121 153 189 231 281
#     4   9  17  29  46  67  88 112 146 187 230 276
#     4   9  18  32  50  74 102 131 166 207 247 289
#     4   9  18  32  49  69  95 129 163 195 239 291
#     4   9  17  30  47  66  88 116 150 187 229 277
#     4   9  18  32  51  77 105 133 167 206 249 292
#
# _framework density 18.526098000000001
#
# number of rings (size 3 to 8) (size 9 to 14) (size 15 to 20)
#    0.000    3.000    0.000    0.300    1.400    3.200 
#    0.000    2.500    0.000    4.200    0.000    2.800 
#    0.000    0.000    0.000    0.000    0.000    0.000 
#
# Total GULP energy -222843.085938 kJ/mol
# GULP energy per Si atom -5571.077148 kJ/mol
# Density = 1.848393 g / cm^3
# Si number density = 18.526098 Si / 1000 Ang^3
#
#
#
# Elastic Constant Matrix: (Units=GPa)
#
#
# Indices 1 2 3 4 5 6 
#
# 1 215.7237 43.0106 66.6145 0.0000 0.0000 0.0000
# 2 43.0106 47.7660 20.4543 0.0000 0.0000 0.0000
# 3 66.6145 20.4543 35.3486 0.0000 0.0000 0.0000
# 4 0.0000 0.0000 0.0000 8.2982 0.0000 0.0000
# 5 0.0000 0.0000 0.0000 0.0000 -39.7438 0.0000
# 6 0.0000 0.0000 0.0000 0.0000 0.0000 69.0105
#
#
#
# Elastic Compliance Matrix: (Units=1/GPa)
#
#
# Indices 1 2 3 4 5 6 
#
# 1 0.011156 -0.001386 -0.020222 0.000000 0.000000 0.000000
# 2 -0.001386 0.028004 -0.013592 0.000000 0.000000 0.000000
# 3 -0.020222 -0.013592 0.074264 0.000000 0.000000 0.000000
# 4 0.000000 0.000000 0.000000 0.120508 0.000000 0.000000
# 5 0.000000 0.000000 0.000000 0.000000 -0.025161 0.000000
# 6 0.000000 0.000000 0.000000 0.000000 0.000000 0.014491
#
#
# Mechanical properties :
#
#
# Convention : Reuss Voigt Hill
#
# Bulk Modulus (GPa) = 23.24344 62.11079 42.67712
# Shear Modulus (GPa) = 16.23356 18.76359 17.49857
#
# Velocity S-wave (km/s) = 2.96337 3.18593 3.07667
# Velocity P-wave (km/s) = 4.92771 6.86531 5.97557
#
# Compressibility (1/GPa) = 0.04302288
#
# Stress axis : x y z
#
# Youngs Moduli (GPa) = 89.63395 35.70923 13.46554
#
# Poissons Ratio (x) = 0.04950 0.27230
# Poissons Ratio (y) = 0.12425 0.18303
# Poissons Ratio (z) = 1.81260 0.48536
#
# Static dielectric constant tensor:
#      x y z
#    x 1.639400 0.000000 0.000000 
#    y 0.000000 1.661120 0.000000 
#    z 0.000000 0.000000 1.644740 
# 
# From -- ./inp_files/13012.got.cif
#   From: 2010.05.17/outbox.cif.g08.bks.cpg/sg47_7_cif.got.tgz:13012.got - 2010.06.03 20:15:42.
