data_PCOD9389034
_publ_section_title
;
Structure prediction by ZEFSAII (Michael W. Deem and Ramdas Pophale) SiO2 
 PCOD9389034
Probable space group: P M M M
;
_chemical_formula_sum "Si O2"
_cell_formula_units_Z 52
_cell_length_a 7.403241
_cell_length_b 18.739970
_cell_length_c 18.790635
_cell_angle_alpha 90.000000
_cell_angle_beta 90.000000
_cell_angle_gamma 90.000000
_cell_volume 2606.947200
_symmetry_space_group_name_H-M "P M M M"
_symmetry_group_IT_number 47
_symmetry_cell_setting 'orthorhombic'
loop_
_space_group_symop_operation_xyz
x,y,z
-x,-y,z
x,-y,-z
-x,y,-z
-x,-y,-z
x,y,-z
-x,y,z
x,-y,z
loop_
_atom_site_type_symbol
_atom_site_label
_atom_site_fract_x
_atom_site_fract_y
_atom_site_fract_z
Si Si1 0.792549 0.113948 0.924448
Si Si2 0.217999 0.622425 0.687204
Si Si3 0.783069 0.772063 0.722993
Si Si4 0.221067 0.500000 0.581519
Si Si5 0.288043 0.730152 0.113412
Si Si6 0.221100 0.921467 0.766191
Si Si7 0.285445 0.578922 0.148935
O O1 0.793143 0.200400 0.923118
O O2 0.716688 0.089614 0.848316
O O3 0.000000 0.089452 0.924335
O O4 0.710553 0.091195 0.000000
O O5 0.282474 0.704141 0.678325
O O6 0.280297 0.568781 0.626543
O O7 0.263867 0.593380 0.766238
O O8 0.000000 0.623412 0.685140
O O9 0.737572 0.748326 0.803347
O O10 0.718598 0.853661 0.719501
O O11 0.000000 0.774294 0.715506
O O12 0.279530 0.500000 0.500000
O O13 0.000000 0.500000 0.581435
O O14 0.500000 0.729795 0.095488
O O15 0.215786 0.649242 0.107459
O O16 0.000000 0.919003 0.767906
O O17 0.274547 0.000000 0.741666
O O18 0.500000 0.577606 0.135391
O O19 0.212850 0.500000 0.132267
#
# Coordination Sequence:
#
# PCOD9389034 Si02
#       7
#     8   8   8   4   8   8   8
#     4   9  17  28  40  53  70  94 122 150 180 219
#     4   9  15  24  38  55  75 101 132 158 182 214
#     4   8  14  24  38  55  74  95 121 154 187 221
#     4   9  16  24  35  55  83 111 136 161 184 207
#     4   9  16  25  38  55  72  92 119 151 188 226
#     4   8  13  22  37  57  77  93 113 148 192 229
#     4   9  16  25  38  56  76  94 117 154 193 226
#
# _framework density 19.946702999999999
#
# number of rings (size 3 to 8) (size 9 to 14) (size 15 to 20)
#    0.000    3.308    0.769    1.385    0.000    1.231 
#    0.000    1.538    0.000    8.769    0.000    7.538 
#    0.000    0.615    0.000    8.615    0.000    0.000 
#
# Total GULP energy -289498.418183 kJ/mol
# GULP energy per Si atom -5567.277273 kJ/mol
# Density = 1.990130 g / cm^3
# Si number density = 19.946703 Si / 1000 Ang^3
#
#
#
# Elastic Constant Matrix: (Units=GPa)
#
#
# Indices 1 2 3 4 5 6 
#
# 1 74.2798 3.0208 -0.9660 0.0000 0.0000 0.0000
# 2 3.0208 202.4565 24.4089 0.0000 0.0000 0.0000
# 3 -0.9660 24.4089 37.0563 0.0000 0.0000 0.0000
# 4 0.0000 0.0000 0.0000 -17.9205 0.0000 0.0000
# 5 0.0000 0.0000 0.0000 0.0000 -0.1419 0.0000
# 6 0.0000 0.0000 0.0000 0.0000 0.0000 13.2864
#
#
#
# Elastic Compliance Matrix: (Units=1/GPa)
#
#
# Indices 1 2 3 4 5 6 
#
# 1 0.013480 -0.000265 0.000526 0.000000 0.000000 0.000000
# 2 -0.000265 0.005371 -0.003545 0.000000 0.000000 0.000000
# 3 0.000526 -0.003545 0.029334 0.000000 0.000000 0.000000
# 4 0.000000 0.000000 0.000000 -0.055802 0.000000 0.000000
# 5 0.000000 0.000000 0.000000 0.000000 -7.048029 0.000000
# 6 0.000000 0.000000 0.000000 0.000000 0.000000 0.075265
#
#
# Mechanical properties :
#
#
# Convention : Reuss Voigt Hill
#
# Bulk Modulus (GPa) = 24.02780 40.74667 32.38723
# Shear Modulus (GPa) = -0.71840 18.20006 8.74083
#
# Velocity S-wave (km/s) = -0.60078 3.02393 2.09562
# Velocity P-wave (km/s) = 3.40454 5.71527 4.70400
#
# Compressibility (1/GPa) = 0.04161845
#
# Stress axis : x y z
#
# Youngs Moduli (GPa) = 74.18283 186.19829 34.08965
#
# Poissons Ratio (x) = 0.04925 -0.01792
# Poissons Ratio (y) = 0.01962 0.12083
# Poissons Ratio (z) = -0.03899 0.65998
#
# Static dielectric constant tensor:
#      x y z
#    x 1.739500 0.000000 0.000000 
#    y 0.000000 1.790780 0.000000 
#    z 0.000000 0.000000 1.653710 
# 
# From -- ./inp_files/29913.got.cif
#   From: 2010.05.17/outbox.cif.g08.bks.cpg/sg47_15_cif.got.tgz:29913.got - 2010.06.03 20:15:42.
