data_PCOD9389413
_publ_section_title
;
Structure prediction by ZEFSAII (Michael W. Deem and Ramdas Pophale) SiO2 
 PCOD9389413
Probable space group: P M M M
;
_chemical_formula_sum "Si O2"
_cell_formula_units_Z 64
_cell_length_a 18.000000
_cell_length_b 21.000000
_cell_length_c 9.000000
_cell_angle_alpha 90.000000
_cell_angle_beta 90.000000
_cell_angle_gamma 90.000000
_cell_volume 3402.000000
_symmetry_space_group_name_H-M "P M M M"
_symmetry_group_IT_number 47
_symmetry_cell_setting 'orthorhombic'
loop_
_space_group_symop_operation_xyz
x,y,z
-x,-y,z
x,-y,-z
-x,y,-z
-x,-y,-z
x,y,-z
-x,y,z
x,-y,z
loop_
_atom_site_type_symbol
_atom_site_label
_atom_site_fract_x
_atom_site_fract_y
_atom_site_fract_z
Si Si1 0.581925 0.197073 0.177620
Si Si2 0.290681 0.430674 0.322620
Si Si3 0.083861 0.838224 0.324566
Si Si4 0.300892 0.301898 0.822561
Si Si5 0.794519 0.926033 0.827198
Si Si6 0.876352 0.708481 0.177004
Si Si7 0.873084 0.431216 0.178929
Si Si8 0.365573 0.928510 0.322499
O O1 0.500000 0.224429 0.207968
O O2 0.648101 0.243439 0.228066
O O3 0.588745 0.128501 0.252054
O O4 0.589335 0.189365 0.000000
O O5 0.287183 0.424979 0.500000
O O6 0.324510 0.500000 0.285706
O O7 0.325529 0.367691 0.253028
O O8 0.207229 0.432027 0.256469
O O9 0.099178 0.841106 0.500000
O O10 0.143229 0.879991 0.236628
O O11 0.089443 0.765852 0.268055
O O12 0.000000 0.861518 0.298244
O O13 0.213024 0.291051 0.794681
O O14 0.308689 0.308408 0.000000
O O15 0.718580 0.919997 0.735645
O O16 0.818176 0.000000 0.817353
O O17 0.779529 0.911004 0.000000
O O18 0.906139 0.637800 0.216979
O O19 0.887754 0.718334 0.000000
O O20 0.909314 0.500000 0.213264
O O21 0.862526 0.429214 0.000000
O O22 0.367568 0.924786 0.500000
O O23 0.389699 0.000000 0.278146
#
# Coordination Sequence:
#
# PCOD9389413 Si02
#       8
#     8   8   8   8   8   8   8   8
#     4  10  21  36  54  77 106 140 178 219 259 301
#     4   9  16  25  41  69 100 127 161 206 254 305
#     4  11  24  38  52  74 106 142 176 211 253 303
#     4   9  18  32  50  73 100 131 169 212 258 306
#     4  10  21  38  61  85 106 131 167 211 257 306
#     4   9  17  30  51  76 100 131 172 216 258 304
#     4   8  14  26  45  70  99 128 160 203 256 307
#     4  10  21  37  58  83 109 137 170 209 254 306
#
# _framework density 18.812463000000001
#
# number of rings (size 3 to 8) (size 9 to 14) (size 15 to 20)
#    0.000    2.500    0.000    3.000    0.000    7.500 
#    0.000    2.500    0.000    0.750    0.000    5.250 
#    0.000    0.000    0.000    0.000    0.000    0.000 
#
# Total GULP energy -356877.713698 kJ/mol
# GULP energy per Si atom -5576.214277 kJ/mol
# Density = 1.876965 g / cm^3
# Si number density = 18.812463 Si / 1000 Ang^3
#
#
#
# Elastic Constant Matrix: (Units=GPa)
#
#
# Indices 1 2 3 4 5 6 
#
# 1 41.9593 33.7118 14.4800 0.0000 0.0000 0.0000
# 2 33.7118 85.8303 19.7924 0.0000 0.0000 0.0000
# 3 14.4800 19.7924 7.8193 0.0000 0.0000 0.0000
# 4 0.0000 0.0000 0.0000 26.6195 0.0000 0.0000
# 5 0.0000 0.0000 0.0000 0.0000 15.1217 0.0000
# 6 0.0000 0.0000 0.0000 0.0000 0.0000 -28.2098
#
#
#
# Elastic Compliance Matrix: (Units=1/GPa)
#
#
# Indices 1 2 3 4 5 6 
#
# 1 0.067100 0.005521 -0.138233 0.000000 0.000000 0.000000
# 2 0.005521 0.028441 -0.082215 0.000000 0.000000 0.000000
# 3 -0.138233 -0.082215 0.591975 0.000000 0.000000 0.000000
# 4 0.000000 0.000000 0.000000 0.037566 0.000000 0.000000
# 5 0.000000 0.000000 0.000000 0.000000 0.066130 0.000000
# 6 0.000000 0.000000 0.000000 0.000000 0.000000 -0.035449
#
#
# Mechanical properties :
#
#
# Convention : Reuss Voigt Hill
#
# Bulk Modulus (GPa) = 3.88104 30.17527 17.02816
# Shear Modulus (GPa) = 3.93235 7.21460 5.57347
#
# Velocity S-wave (km/s) = 1.44735 1.96044 1.72310
# Velocity P-wave (km/s) = 2.20468 4.60427 3.60970
#
# Compressibility (1/GPa) = 0.25766265
#
# Stress axis : x y z
#
# Youngs Moduli (GPa) = 14.90313 35.16051 1.68926
#
# Poissons Ratio (x) = -0.19414 0.23351
# Poissons Ratio (y) = -0.08229 0.13888
# Poissons Ratio (z) = 2.06010 2.89072
#
# Static dielectric constant tensor:
#      x y z
#    x 1.639420 0.000000 0.000000 
#    y 0.000000 1.690250 0.000000 
#    z 0.000000 0.000000 1.622500 
# 
# From -- ./inp_files/9965.got.cif
#   From: 2010.05.17/outbox.ucp.g08.bks.cvg/sg47_5_cif.got.tgz:9965.got - 2010.06.11 16:36:43.
