data_PCOD9389938
_publ_section_title
;
Structure prediction by ZEFSAII (Michael W. Deem and Ramdas Pophale) SiO2 
 PCOD9389938
Probable space group: P N N N
;
_chemical_formula_sum "Si O2"
_cell_formula_units_Z 56
_cell_length_a 26.378707
_cell_length_b 16.375136
_cell_length_c 5.642082
_cell_angle_alpha 90.000000
_cell_angle_beta 90.000000
_cell_angle_gamma 90.000000
_cell_volume 2437.125049
_symmetry_space_group_name_H-M "P N N N"
_symmetry_group_IT_number 48
_space_group.IT_coordinate_system_code '2'
_symmetry_cell_setting 'orthorhombic'
loop_
_space_group_symop_operation_xyz
x,y,z
1/2-x,1/2-y,z
x,1/2-y,1/2-z
1/2-x,y,1/2-z
-x,-y,-z
1/2+x,1/2+y,-z
-x,1/2+y,1/2+z
1/2+x,-y,1/2+z
loop_
_atom_site_type_symbol
_atom_site_label
_atom_site_fract_x
_atom_site_fract_y
_atom_site_fract_z
Si Si1 0.280840 0.038711 0.956423
Si Si2 0.342515 0.155457 0.272502
Si Si3 0.942971 0.914185 0.519887
Si Si4 0.056116 0.610719 0.004665
Si Si5 0.727557 0.136153 0.502482
Si Si6 0.872820 0.950734 0.150425
Si Si7 0.890019 0.378110 0.510502
O O1 0.250000 0.082857 0.750000
O O2 0.335438 0.010620 0.848003
O O3 0.299670 0.099676 0.154723
O O4 0.245607 0.960171 0.007111
O O5 0.333307 0.250000 0.250000
O O6 0.397113 0.129755 0.158389
O O7 0.345668 0.126170 0.540250
O O8 0.925119 0.916442 0.247685
O O9 0.996916 0.871450 0.542409
O O10 0.945109 0.012469 0.558062
O O11 0.080305 0.647225 0.248124
O O12 0.084404 0.631317 0.753169
O O13 0.750000 0.166677 0.750000
O O14 0.667668 0.152810 0.505915
O O15 0.750000 0.163696 0.250000
O O16 0.882349 0.023678 0.971571
#
# Coordination Sequence:
#
# PCOD9389938 Si02
#       7
#     8   8   8   8   8   8   8
#     4  10  21  34  51  68  94 134 181 234 279 319
#     4  11  23  38  55  72  99 139 190 245 282 323
#     4   9  21  33  52  75 100 127 165 225 284 337
#     4  10  21  33  53  80 102 129 166 229 281 333
#     4  11  20  30  52  74  99 140 177 218 259 320
#     4  10  19  34  53  70  97 130 173 226 274 323
#     4  11  19  32  53  78 103 130 176 220 269 322
#
# _framework density 22.977895
#
# number of rings (size 3 to 8) (size 9 to 14) (size 15 to 20)
#    0.000    1.714    4.286    1.714    4.000    4.000 
#    0.000    2.143    0.000    0.000    0.000    0.000 
#    0.000    0.000    0.000    0.000    0.000   10.714 
#
# Total GULP energy -312014.132341 kJ/mol
# GULP energy per Si atom -5571.680935 kJ/mol
# Density = 2.292560 g / cm^3
# Si number density = 22.977895 Si / 1000 Ang^3
#
#
#
# Elastic Constant Matrix: (Units=GPa)
#
#
# Indices 1 2 3 4 5 6 
#
# 1 192.6471 5.2982 66.7645 0.0000 0.0000 0.0000
# 2 5.2982 59.6088 -4.7784 0.0000 0.0000 0.0000
# 3 66.7645 -4.7784 104.3354 0.0000 0.0000 0.0000
# 4 0.0000 0.0000 0.0000 31.0320 0.0000 0.0000
# 5 0.0000 0.0000 0.0000 0.0000 23.2237 0.0000
# 6 0.0000 0.0000 0.0000 0.0000 0.0000 -2.1138
#
#
#
# Elastic Compliance Matrix: (Units=1/GPa)
#
#
# Indices 1 2 3 4 5 6 
#
# 1 0.006723 -0.000946 -0.004345 0.000000 0.000000 0.000000
# 2 -0.000946 0.016971 0.001383 0.000000 0.000000 0.000000
# 3 -0.004345 0.001383 0.012428 0.000000 0.000000 0.000000
# 4 0.000000 0.000000 0.000000 0.032225 0.000000 0.000000
# 5 0.000000 0.000000 0.000000 0.000000 0.043060 0.000000
# 6 0.000000 0.000000 0.000000 0.000000 0.000000 -0.473081
#
#
# Mechanical properties :
#
#
# Convention : Reuss Voigt Hill
#
# Bulk Modulus (GPa) = 35.32963 54.57333 44.95148
# Shear Modulus (GPa) = -14.51706 29.71550 7.59922
#
# Velocity S-wave (km/s) = -2.51626 3.60004 1.82054
# Velocity P-wave (km/s) = 2.63947 6.40955 4.90148
#
# Compressibility (1/GPa) = 0.02830486
#
# Stress axis : x y z
#
# Youngs Moduli (GPa) = 148.74867 58.92419 80.46146
#
# Poissons Ratio (x) = 0.05573 0.34962
# Poissons Ratio (y) = 0.14070 -0.11124
# Poissons Ratio (z) = 0.64635 -0.08146
#
# Static dielectric constant tensor:
#      x y z
#    x 1.904480 0.000000 0.000000 
#    y 0.000000 1.835430 0.000000 
#    z 0.000000 0.000000 2.012140 
# 
# From -- ./inp_files/5958.got.cif
#   From: 2010.05.17/outbox.cif.g08.bks.cpg/sg48_3_cif.got.tgz:5958.got - 2010.06.03 20:39:00.
