data_PCOD9389074
_publ_section_title
;
Structure prediction by ZEFSAII (Michael W. Deem and Ramdas Pophale) SiO2 
 PCOD9389074
Probable space group: P M M M
;
_chemical_formula_sum "Si O2"
_cell_formula_units_Z 64
_cell_length_a 7.446130
_cell_length_b 15.478739
_cell_length_c 28.995319
_cell_angle_alpha 90.000000
_cell_angle_beta 90.000000
_cell_angle_gamma 90.000000
_cell_volume 3341.904865
_symmetry_space_group_name_H-M "P M M M"
_symmetry_group_IT_number 47
_symmetry_cell_setting 'orthorhombic'
loop_
_space_group_symop_operation_xyz
x,y,z
-x,-y,z
x,-y,-z
-x,y,-z
-x,-y,-z
x,y,-z
-x,y,z
x,-y,z
loop_
_atom_site_type_symbol
_atom_site_label
_atom_site_fract_x
_atom_site_fract_y
_atom_site_fract_z
Si Si1 0.291328 0.905317 0.076814
Si Si2 0.284017 0.899415 0.549557
Si Si3 0.716949 0.401783 0.132680
Si Si4 0.779341 0.779801 0.266430
Si Si5 0.783351 0.096970 0.184206
Si Si6 0.210036 0.596586 0.239285
Si Si7 0.280174 0.720021 0.050322
Si Si8 0.211582 0.098622 0.348575
O O1 0.500000 0.909074 0.062921
O O2 0.284266 0.892650 0.132180
O O3 0.215878 0.818623 0.055006
O O4 0.211991 0.000000 0.066712
O O5 0.223283 0.862118 0.500000
O O6 0.500000 0.898746 0.549023
O O7 0.229952 0.865171 0.599463
O O8 0.225360 0.000000 0.549927
O O9 0.500000 0.398943 0.133455
O O10 0.771021 0.500000 0.121526
O O11 0.778317 0.383412 0.184618
O O12 0.780688 0.336052 0.093736
O O13 0.724196 0.830768 0.220136
O O14 0.716309 0.680763 0.265020
O O15 0.718126 0.836330 0.309986
O O16 0.000000 0.778106 0.266424
O O17 0.000000 0.099861 0.181982
O O18 0.733204 0.000000 0.200198
O O19 0.287579 0.500000 0.246339
O O20 0.000000 0.591097 0.251239
O O21 0.500000 0.721253 0.052277
O O22 0.230544 0.685038 0.000000
O O23 0.000000 0.090661 0.339308
O O24 0.285946 0.000000 0.346764
#
# Coordination Sequence:
#
# PCOD9389074 Si02
#       8
#     8   8   8   8   8   8   8   8
#     4   9  17  28  41  57  76  97 124 158 189 217
#     4   8  14  25  39  54  77 111 145 173 201 233
#     4   9  17  29  45  63  80  97 120 154 193 229
#     4   9  16  26  40  58  81 106 131 161 195 230
#     4   9  16  26  41  58  76 102 132 156 184 227
#     4   9  17  29  45  62  79 103 133 159 187 230
#     4   9  17  28  42  60  79  98 122 152 187 229
#     4   9  16  25  38  57  81 108 138 170 200 230
#
# _framework density 19.150755
#
# number of rings (size 3 to 8) (size 9 to 14) (size 15 to 20)
#    0.000    3.125    0.000    1.500    0.000    2.250 
#    0.000    5.000    0.000    4.500    0.000    3.500 
#    0.000    0.500    0.000    6.250    0.000    1.250 
#
# Total GULP energy -356789.717211 kJ/mol
# GULP energy per Si atom -5574.839331 kJ/mol
# Density = 1.910717 g / cm^3
# Si number density = 19.150755 Si / 1000 Ang^3
#
#
#
# Elastic Constant Matrix: (Units=GPa)
#
#
# Indices 1 2 3 4 5 6 
#
# 1 57.3702 6.6993 -3.1336 0.0000 0.0000 0.0000
# 2 6.6993 107.1232 59.6576 0.0000 0.0000 0.0000
# 3 -3.1336 59.6576 74.5851 0.0000 0.0000 0.0000
# 4 0.0000 0.0000 0.0000 13.8128 0.0000 0.0000
# 5 0.0000 0.0000 0.0000 0.0000 9.2020 0.0000
# 6 0.0000 0.0000 0.0000 0.0000 0.0000 -0.0794
#
#
#
# Elastic Compliance Matrix: (Units=1/GPa)
#
#
# Indices 1 2 3 4 5 6 
#
# 1 0.017917 -0.002777 0.002974 0.000000 0.000000 0.000000
# 2 -0.002777 0.017264 -0.013925 0.000000 0.000000 0.000000
# 3 0.002974 -0.013925 0.024671 0.000000 0.000000 0.000000
# 4 0.000000 0.000000 0.000000 0.072397 0.000000 0.000000
# 5 0.000000 0.000000 0.000000 0.000000 0.108672 0.000000
# 6 0.000000 0.000000 0.000000 0.000000 0.000000-12.601138
#
#
# Mechanical properties :
#
#
# Convention : Reuss Voigt Hill
#
# Bulk Modulus (GPa) = 30.86859 40.61390 35.74125
# Shear Modulus (GPa) = -0.40578 16.31078 7.95250
#
# Velocity S-wave (km/s) = -0.46081 2.92156 2.04000
# Velocity P-wave (km/s) = 3.98379 5.71264 4.92467
#
# Compressibility (1/GPa) = 0.03239538
#
# Stress axis : x y z
#
# Youngs Moduli (GPa) = 55.81201 57.92501 40.53409
#
# Poissons Ratio (x) = 0.16083 -0.12053
# Poissons Ratio (y) = 0.15496 0.56444
# Poissons Ratio (z) = -0.16596 0.80662
#
# Static dielectric constant tensor:
#      x y z
#    x 1.733550 0.000000 0.000000 
#    y 0.000000 1.682060 0.000000 
#    z 0.000000 0.000000 1.665030 
# 
# From -- ./inp_files/8253.got.cif
#   From: 2010.05.17/outbox.cif.g08.bks.cpg/sg47_5_cif.got.tgz:8253.got - 2010.06.03 20:15:42.
