data_PCOD9389834
_publ_section_title
;
Structure prediction by ZEFSAII (Michael W. Deem and Ramdas Pophale) SiO2 
 PCOD9389834
Probable space group: P N N N
;
_chemical_formula_sum "Si O2"
_cell_formula_units_Z 48
_cell_length_a 13.656934
_cell_length_b 4.934592
_cell_length_c 25.922858
_cell_angle_alpha 90.000000
_cell_angle_beta 90.000000
_cell_angle_gamma 90.000000
_cell_volume 1746.977622
_symmetry_space_group_name_H-M "P N N N"
_symmetry_group_IT_number 48
_space_group.IT_coordinate_system_code '2'
_symmetry_cell_setting 'orthorhombic'
loop_
_space_group_symop_operation_xyz
x,y,z
1/2-x,1/2-y,z
x,1/2-y,1/2-z
1/2-x,y,1/2-z
-x,-y,-z
1/2+x,1/2+y,-z
-x,1/2+y,1/2+z
1/2+x,-y,1/2+z
loop_
_atom_site_type_symbol
_atom_site_label
_atom_site_fract_x
_atom_site_fract_y
_atom_site_fract_z
Si Si1 0.876592 0.662917 0.952715
Si Si2 0.889115 0.279583 0.045767
Si Si3 0.925959 0.518153 0.714487
Si Si4 0.876629 0.167377 0.891298
Si Si5 0.889604 0.773729 0.107843
Si Si6 0.356321 0.647810 0.808306
O O1 0.842096 0.960465 0.936130
O O2 0.993180 0.718030 0.962389
O O3 0.852713 0.475750 0.903604
O O4 0.847993 0.466852 0.000049
O O5 0.853037 0.983200 0.063178
O O6 0.872401 0.463587 0.095991
O O7 0.880964 0.750000 0.750000
O O8 0.022505 0.668965 0.688764
O O9 0.859627 0.426237 0.666603
O O10 0.951013 0.250000 0.750000
O O11 0.994630 0.181690 0.896001
O O12 0.855211 0.851139 0.164581
O O13 0.250000 0.750000 0.827788
O O14 0.350024 0.750000 0.750000
#
# Coordination Sequence:
#
# PCOD9389834 Si02
#       6
#     8   8   8   8   8   8
#     4   9  15  24  39  58  77  95 117 145 184 240
#     4   9  16  26  40  57  76  95 113 143 194 248
#     4  10  19  31  44  58  79 106 135 170 212 247
#     4   9  16  25  39  58  77  98 124 153 188 235
#     4   9  17  28  40  55  74  94 119 155 202 248
#     4   9  19  34  46  58  73  98 136 179 218 254
#
# _framework density 27.476025
#
# number of rings (size 3 to 8) (size 9 to 14) (size 15 to 20)
#    0.000    2.833    0.000    2.000    0.000   12.000 
#    0.000   12.500    0.000    0.000    0.000    0.000 
#    0.000    0.000    0.000    0.000    0.000    0.000 
#
# Total GULP energy -267244.176328 kJ/mol
# GULP energy per Si atom -5567.587007 kJ/mol
# Density = 2.741349 g / cm^3
# Si number density = 27.476025 Si / 1000 Ang^3
#
#
#
# Elastic Constant Matrix: (Units=GPa)
#
#
# Indices 1 2 3 4 5 6 
#
# 1 108.7597 14.8777 34.8769 0.0000 0.0000 0.0000
# 2 14.8777 122.6754 11.1036 0.0000 0.0000 0.0000
# 3 34.8769 11.1036 77.3246 0.0000 0.0000 0.0000
# 4 0.0000 0.0000 0.0000 31.0884 0.0000 0.0000
# 5 0.0000 0.0000 0.0000 0.0000 2.6669 0.0000
# 6 0.0000 0.0000 0.0000 0.0000 0.0000 -13.3432
#
#
#
# Elastic Compliance Matrix: (Units=1/GPa)
#
#
# Indices 1 2 3 4 5 6 
#
# 1 0.010843 -0.000884 -0.004764 0.000000 0.000000 0.000000
# 2 -0.000884 0.008331 -0.000798 0.000000 0.000000 0.000000
# 3 -0.004764 -0.000798 0.015196 0.000000 0.000000 0.000000
# 4 0.000000 0.000000 0.000000 0.032166 0.000000 0.000000
# 5 0.000000 0.000000 0.000000 0.000000 0.374973 0.000000
# 6 0.000000 0.000000 0.000000 0.000000 0.000000 -0.074944
#
#
# Mechanical properties :
#
#
# Convention : Reuss Voigt Hill
#
# Bulk Modulus (GPa) = 46.55665 47.83068 47.19367
# Shear Modulus (GPa) = 12.93274 20.60917 16.77096
#
# Velocity S-wave (km/s) = 2.17190 2.74173 2.47328
# Velocity P-wave (km/s) = 4.82398 5.24106 5.03684
#
# Compressibility (1/GPa) = 0.02147921
#
# Stress axis : x y z
#
# Youngs Moduli (GPa) = 92.22417 120.03385 65.80796
#
# Poissons Ratio (x) = 0.10609 0.31350
# Poissons Ratio (y) = 0.08151 0.05249
# Poissons Ratio (z) = 0.43934 0.09575
#
# Static dielectric constant tensor:
#      x y z
#    x 2.251300 0.000000 0.000000 
#    y 0.000000 1.776890 0.000000 
#    z 0.000000 0.000000 1.863710 
# 
# From -- ./inp_files/36653.got.cif
#   From: 2010.05.17/outbox.cif.g08.bks.cpg/sg48_19_cif.got.tgz:36653.got - 2010.06.03 20:39:00.
