data_PCOD9389414
_publ_section_title
;
Structure prediction by ZEFSAII (Michael W. Deem and Ramdas Pophale) SiO2 
 PCOD9389414
Probable space group: P M M M
;
_chemical_formula_sum "Si O2"
_cell_formula_units_Z 56
_cell_length_a 21.000000
_cell_length_b 9.000000
_cell_length_c 15.000000
_cell_angle_alpha 90.000000
_cell_angle_beta 90.000000
_cell_angle_gamma 90.000000
_cell_volume 2835.000000
_symmetry_space_group_name_H-M "P M M M"
_symmetry_group_IT_number 47
_symmetry_cell_setting 'orthorhombic'
loop_
_space_group_symop_operation_xyz
x,y,z
-x,-y,z
x,-y,-z
-x,y,-z
-x,-y,-z
x,y,-z
-x,y,z
x,-y,z
loop_
_atom_site_type_symbol
_atom_site_label
_atom_site_fract_x
_atom_site_fract_y
_atom_site_fract_z
Si Si1 0.319025 0.678907 0.396963
Si Si2 0.383656 0.177063 0.102103
Si Si3 0.188079 0.822395 0.605371
Si Si4 0.431166 0.324047 0.729767
Si Si5 0.252327 0.667195 0.107759
Si Si6 0.879765 0.821228 0.898942
Si Si7 0.067432 0.180780 0.284652
O O1 0.327976 0.724936 0.500000
O O2 0.317219 0.500000 0.395260
O O3 0.252299 0.743335 0.364806
O O4 0.375936 0.730852 0.334644
O O5 0.429177 0.244153 0.175648
O O6 0.314406 0.238904 0.129557
O O7 0.384020 0.000000 0.103913
O O8 0.396974 0.224455 0.000000
O O9 0.179226 0.794778 0.500000
O O10 0.127733 0.767121 0.660240
O O11 0.194538 0.000000 0.617454
O O12 0.500000 0.303801 0.686736
O O13 0.421811 0.500000 0.745244
O O14 0.255177 0.500000 0.144482
O O15 0.187665 0.751885 0.128738
O O16 0.252416 0.656658 0.000000
O O17 0.926708 0.780640 0.819499
O O18 0.874060 0.000000 0.900536
O O19 0.896248 0.773751 0.000000
O O20 0.000000 0.232450 0.321285
O O21 0.068457 0.000000 0.289377
#
# Coordination Sequence:
#
# PCOD9389414 Si02
#       7
#     8   8   8   8   8   8   8
#     4   9  19  37  60  84 109 139 176 220 271 326
#     4  10  21  36  54  77 108 146 186 226 268 316
#     4   9  18  33  54  79 104 133 172 219 269 318
#     4  10  22  38  56  82 113 145 182 222 268 321
#     4   9  17  30  49  73 100 132 174 223 271 314
#     4   9  17  29  46  70 101 136 175 218 265 316
#     4   9  18  31  48  74 105 137 176 220 266 315
#
# _framework density 19.753086
#
# number of rings (size 3 to 8) (size 9 to 14) (size 15 to 20)
#    0.000    2.714    0.000    0.857    2.000    4.571 
#    0.000    5.714    0.000    1.714    0.000    7.000 
#    0.000    0.000    0.000    0.000    0.000    0.000 
#
# Total GULP energy -312192.086153 kJ/mol
# GULP energy per Si atom -5574.858681 kJ/mol
# Density = 1.970813 g / cm^3
# Si number density = 19.753086 Si / 1000 Ang^3
#
#
#
# Elastic Constant Matrix: (Units=GPa)
#
#
# Indices 1 2 3 4 5 6 
#
# 1 133.1250 29.4049 72.1917 0.0000 0.0000 0.0000
# 2 29.4049 2.2411 23.7128 0.0000 0.0000 0.0000
# 3 72.1917 23.7128 66.3560 0.0000 0.0000 0.0000
# 4 0.0000 0.0000 0.0000 15.0454 0.0000 0.0000
# 5 0.0000 0.0000 0.0000 0.0000 87.1276 0.0000
# 6 0.0000 0.0000 0.0000 0.0000 0.0000 16.1417
#
#
#
# Elastic Compliance Matrix: (Units=1/GPa)
#
#
# Indices 1 2 3 4 5 6 
#
# 1 0.017646 0.010211 -0.022846 0.000000 0.000000 0.000000
# 2 0.010211 -0.154533 0.044115 0.000000 0.000000 0.000000
# 3 -0.022846 0.044115 0.024161 0.000000 0.000000 0.000000
# 4 0.000000 0.000000 0.000000 0.066466 0.000000 0.000000
# 5 0.000000 0.000000 0.000000 0.000000 0.011477 0.000000
# 6 0.000000 0.000000 0.000000 0.000000 0.000000 0.061952
#
#
# Mechanical properties :
#
#
# Convention : Reuss Voigt Hill
#
# Bulk Modulus (GPa) = -20.09319 50.26008 15.08345
# Shear Modulus (GPa) = -95.45696 28.75711 -33.34992
#
# Velocity S-wave (km/s) = -6.95917 3.81967 -4.11340
# Velocity P-wave (km/s) = 8.64683 6.70467 3.86102
#
# Compressibility (1/GPa) = -0.04976811
#
# Stress axis : x y z
#
# Youngs Moduli (GPa) = 56.67152 -6.47111 41.38884
#
# Poissons Ratio (x) = 0.06608 0.94558
# Poissons Ratio (y) = -0.57866 -1.82585
# Poissons Ratio (z) = 1.29473 0.28547
#
# Static dielectric constant tensor:
#      x y z
#    x 1.717970 0.000000 0.000000 
#    y 0.000000 1.667280 0.000000 
#    z 0.000000 0.000000 1.704040 
# 
# From -- ./inp_files/7303.got.cif
#   From: 2010.05.17/outbox.ucp.g08.bks.cvg/sg47_4_cif.got.tgz:7303.got - 2010.06.11 16:36:43.
