data_PCOD9389210
_publ_section_title
;
Structure prediction by ZEFSAII (Michael W. Deem and Ramdas Pophale) SiO2 
 PCOD9389210
Probable space group: P M M M
;
_chemical_formula_sum "Si O2"
_cell_formula_units_Z 48
_cell_length_a 7.598010
_cell_length_b 10.737435
_cell_length_c 28.098213
_cell_angle_alpha 90.000000
_cell_angle_beta 90.000000
_cell_angle_gamma 90.000000
_cell_volume 2292.340403
_symmetry_space_group_name_H-M "P M M M"
_symmetry_group_IT_number 47
_symmetry_cell_setting 'orthorhombic'
loop_
_space_group_symop_operation_xyz
x,y,z
-x,-y,z
x,-y,-z
-x,y,-z
-x,-y,-z
x,y,-z
-x,y,z
x,-y,z
loop_
_atom_site_type_symbol
_atom_site_label
_atom_site_fract_x
_atom_site_fract_y
_atom_site_fract_z
Si Si1 0.710192 0.357607 0.000000
Si Si2 0.284047 0.635292 0.652034
Si Si3 0.788723 0.860549 0.172723
Si Si4 0.199860 0.000000 0.557536
Si Si5 0.704242 0.724074 0.446624
Si Si6 0.711597 0.862182 0.715945
Si Si7 0.208433 0.357033 0.104906
O O1 0.767990 0.306975 0.949001
O O2 0.778512 0.500000 0.000000
O O3 0.500000 0.359237 0.000000
O O4 0.500000 0.640291 0.650955
O O5 0.234662 0.500000 0.671227
O O6 0.220670 0.649447 0.597650
O O7 0.221478 0.750107 0.683632
O O8 0.752383 0.841882 0.228573
O O9 0.719341 0.745286 0.141575
O O10 0.000000 0.863233 0.166455
O O11 0.722522 0.000000 0.160041
O O12 0.288242 0.130785 0.569348
O O13 0.197374 0.000000 0.500000
O O14 0.000000 0.000000 0.574976
O O15 0.781770 0.712146 0.500000
O O16 0.500000 0.688792 0.450762
O O17 0.500000 0.864266 0.711174
O O18 0.777522 0.000000 0.702232
O O19 0.280099 0.500000 0.107939
O O20 0.000000 0.367185 0.113629
#
# Coordination Sequence:
#
# PCOD9389210 Si02
#       7
#     4   8   8   4   8   8   8
#     4   9  17  29  46  71 102 132 164 201 236 272
#     4   9  18  31  48  72 100 127 157 197 243 290
#     4   9  18  33  51  71  96 124 157 200 246 288
#     4   9  17  29  45  67  95 123 153 191 233 276
#     4   9  17  29  48  72  96 124 160 199 238 283
#     4   9  18  32  50  69  91 124 161 195 238 292
#     4   9  17  30  49  71  95 127 164 198 236 282
#
# _framework density 20.939298999999998
#
# number of rings (size 3 to 8) (size 9 to 14) (size 15 to 20)
#    0.000    3.000    0.000    0.500    1.167    3.667 
#    0.000    2.917    0.000    4.000    0.000    2.333 
#    0.000    0.000    0.000    0.000    0.000    0.000 
#
# Total GULP energy -267549.019750 kJ/mol
# GULP energy per Si atom -5573.937911 kJ/mol
# Density = 2.089164 g / cm^3
# Si number density = 20.939299 Si / 1000 Ang^3
#
#
#
# Elastic Constant Matrix: (Units=GPa)
#
#
# Indices 1 2 3 4 5 6 
#
# 1 47.0909 5.2075 -0.8850 0.0000 0.0000 0.0000
# 2 5.2075 161.4015 105.8201 0.0000 0.0000 0.0000
# 3 -0.8850 105.8201 108.0562 0.0000 0.0000 0.0000
# 4 0.0000 0.0000 0.0000 30.0152 0.0000 0.0000
# 5 0.0000 0.0000 0.0000 0.0000 15.8986 0.0000
# 6 0.0000 0.0000 0.0000 0.0000 0.0000 -3.9318
#
#
#
# Elastic Compliance Matrix: (Units=1/GPa)
#
#
# Indices 1 2 3 4 5 6 
#
# 1 0.021531 -0.002264 0.002393 0.000000 0.000000 0.000000
# 2 -0.002264 0.017548 -0.017203 0.000000 0.000000 0.000000
# 3 0.002393 -0.017203 0.026121 0.000000 0.000000 0.000000
# 4 0.000000 0.000000 0.000000 0.033316 0.000000 0.000000
# 5 0.000000 0.000000 0.000000 0.000000 0.062899 0.000000
# 6 0.000000 0.000000 0.000000 0.000000 0.000000 -0.254337
#
#
# Mechanical properties :
#
#
# Convention : Reuss Voigt Hill
#
# Bulk Modulus (GPa) = 32.20357 59.64819 45.92588
# Shear Modulus (GPa) = -103.25422 22.15680 -40.54871
#
# Velocity S-wave (km/s) = -7.02981 3.25644 -4.40533
# Velocity P-wave (km/s) = 7.10480 6.53355 1.97368
#
# Compressibility (1/GPa) = 0.03105246
#
# Stress axis : x y z
#
# Youngs Moduli (GPa) = 46.44504 56.98768 38.28323
#
# Poissons Ratio (x) = 0.12901 -0.09162
# Poissons Ratio (y) = 0.10514 0.65859
# Poissons Ratio (z) = -0.11116 0.98036
#
# Static dielectric constant tensor:
#      x y z
#    x 1.777890 0.000000 0.000000 
#    y 0.000000 1.781830 0.000000 
#    z 0.000000 0.000000 1.742260 
# 
# From -- ./inp_files/34033.got.cif
#   From: 2010.05.17/outbox.cif.g08.bks.cpg/sg47_18_cif.got.tgz:34033.got - 2010.06.03 20:15:42.
