data_PCOD9389943
_publ_section_title
;
Structure prediction by ZEFSAII (Michael W. Deem and Ramdas Pophale) SiO2 
 PCOD9389943
Probable space group: P N N N
;
_chemical_formula_sum "Si O2"
_cell_formula_units_Z 42
_cell_length_a 23.054785
_cell_length_b 7.133482
_cell_length_c 10.627314
_cell_angle_alpha 90.000000
_cell_angle_beta 90.000000
_cell_angle_gamma 90.000000
_cell_volume 1747.777559
_symmetry_space_group_name_H-M "P N N N"
_symmetry_group_IT_number 48
_space_group.IT_coordinate_system_code '2'
_symmetry_cell_setting 'orthorhombic'
loop_
_space_group_symop_operation_xyz
x,y,z
1/2-x,1/2-y,z
x,1/2-y,1/2-z
1/2-x,y,1/2-z
-x,-y,-z
1/2+x,1/2+y,-z
-x,1/2+y,1/2+z
1/2+x,-y,1/2+z
loop_
_atom_site_type_symbol
_atom_site_label
_atom_site_fract_x
_atom_site_fract_y
_atom_site_fract_z
Si Si1 0.250000 0.750000 0.750000
Si Si2 0.411088 0.037723 0.744431
Si Si3 0.045147 0.022951 0.239799
Si Si4 0.759253 0.972162 0.475489
Si Si5 0.630415 0.985425 0.519223
Si Si6 0.616204 0.965413 0.977283
O O1 0.272258 0.596022 0.648065
O O2 0.387856 0.250000 0.750000
O O3 0.381822 0.945919 0.622987
O O4 0.479650 0.040046 0.718799
O O5 0.401073 0.963540 0.884526
O O6 0.044109 0.250000 0.250000
O O7 0.071545 0.965852 0.373674
O O8 0.087255 0.953201 0.128894
O O9 0.750000 0.750000 0.444329
O O10 0.698286 0.024002 0.539689
O O11 0.816896 0.004045 0.556707
O O12 0.616856 0.761832 0.516910
#
# Coordination Sequence:
#
# PCOD9389943 Si02
#       6
#     2   8   8   8   8   8
#     4  12  22  36  60  96 120 152 206 234 284 372
#     4  10  19  34  53  81 113 155 193 241 298 349
#     4  10  20  36  56  85 112 153 203 238 282 365
#     4  10  21  40  61  88 124 156 187 254 304 341
#     4   9  19  36  60  82 115 154 195 238 299 355
#     4   9  19  36  60  82 115 154 195 238 299 355
#
# _framework density 24.030519000000002
#
# number of rings (size 3 to 8) (size 9 to 14) (size 15 to 20)
#    0.000    2.286    0.000    2.571    0.000    3.810 
#   10.286    3.810    0.000    1.143    0.000    0.000 
#    0.000    0.000    0.000    0.000    0.000    0.000 
#
# Total GULP energy -234391.286658 kJ/mol
# GULP energy per Si atom -5580.744920 kJ/mol
# Density = 2.397582 g / cm^3
# Si number density = 24.030519 Si / 1000 Ang^3
#
#
#
# Elastic Constant Matrix: (Units=GPa)
#
#
# Indices 1 2 3 4 5 6 
#
# 1 89.9159 -42.8705 11.0404 0.0000 0.0000 0.0000
# 2 -42.8705 110.2113 -20.4364 0.0000 0.0000 0.0000
# 3 11.0404 -20.4364 70.0683 0.0000 0.0000 0.0000
# 4 0.0000 0.0000 0.0000 -12.3428 0.0000 0.0000
# 5 0.0000 0.0000 0.0000 0.0000 8.7043 0.0000
# 6 0.0000 0.0000 0.0000 0.0000 0.0000 15.0504
#
#
#
# Elastic Compliance Matrix: (Units=1/GPa)
#
#
# Indices 1 2 3 4 5 6 
#
# 1 0.013681 0.005203 -0.000638 0.000000 0.000000 0.000000
# 2 0.005203 0.011571 0.002555 0.000000 0.000000 0.000000
# 3 -0.000638 0.002555 0.015118 0.000000 0.000000 0.000000
# 4 0.000000 0.000000 0.000000 -0.081019 0.000000 0.000000
# 5 0.000000 0.000000 0.000000 0.000000 0.114886 0.000000
# 6 0.000000 0.000000 0.000000 0.000000 0.000000 0.066444
#
#
# Mechanical properties :
#
#
# Convention : Reuss Voigt Hill
#
# Bulk Modulus (GPa) = 18.31165 18.40696 18.35930
# Shear Modulus (GPa) = 34.56788 23.77983 29.17385
#
# Velocity S-wave (km/s) = 3.79687 3.14915 3.48808
# Velocity P-wave (km/s) = 5.18250 4.57158 4.88660
#
# Compressibility (1/GPa) = 0.05461006
#
# Stress axis : x y z
#
# Youngs Moduli (GPa) = 73.09576 86.42112 66.14832
#
# Poissons Ratio (x) = -0.44967 0.04220
# Poissons Ratio (y) = -0.38034 -0.16901
# Poissons Ratio (z) = 0.04664 -0.22081
#
# Static dielectric constant tensor:
#      x y z
#    x 1.892100 0.000000 0.000000 
#    y 0.000000 1.970440 0.000000 
#    z 0.000000 0.000000 1.870040 
# 
# From -- ./inp_files/23233.got.cif
#   From: 2010.05.17/outbox.cif.g08.bks.cpg/sg48_12_cif.got.tgz:23233.got - 2010.06.03 20:39:00.
