data_PCOD9389800
_publ_section_title
;
Structure prediction by ZEFSAII (Michael W. Deem and Ramdas Pophale) SiO2 
 PCOD9389800
Probable space group: P N N N
;
_chemical_formula_sum "Si O2"
_cell_formula_units_Z 38
_cell_length_a 20.538201
_cell_length_b 8.927159
_cell_length_c 9.850042
_cell_angle_alpha 90.000000
_cell_angle_beta 90.000000
_cell_angle_gamma 90.000000
_cell_volume 1805.983392
_symmetry_space_group_name_H-M "P N N N"
_symmetry_group_IT_number 48
_space_group.IT_coordinate_system_code '2'
_symmetry_cell_setting 'orthorhombic'
loop_
_space_group_symop_operation_xyz
x,y,z
1/2-x,1/2-y,z
x,1/2-y,1/2-z
1/2-x,y,1/2-z
-x,-y,-z
1/2+x,1/2+y,-z
-x,1/2+y,1/2+z
1/2+x,-y,1/2+z
loop_
_atom_site_type_symbol
_atom_site_label
_atom_site_fract_x
_atom_site_fract_y
_atom_site_fract_z
Si Si1 0.559412 0.912103 0.815219
Si Si2 0.750000 0.750000 0.250000
Si Si3 0.662722 0.002286 0.341626
Si Si4 0.750000 0.250000 0.250000
Si Si5 0.123690 0.625935 0.402306
Si Si6 0.750000 0.250000 0.750000
Si Si7 0.586941 0.070712 0.067032
O O1 0.571484 0.750000 0.750000
O O2 0.484410 0.921301 0.864608
O O3 0.579869 0.049104 0.715118
O O4 0.596065 0.939914 0.957132
O O5 0.795659 0.645530 0.337965
O O6 0.710254 0.144013 0.349379
O O7 0.619753 0.008428 0.474065
O O8 0.631154 0.035716 0.196195
O O9 0.196564 0.655101 0.339373
O O10 0.100109 0.778516 0.478618
#
# Coordination Sequence:
#
# PCOD9389800 Si02
#       7
#     8   2   8   2   8   2   8
#     4  11  26  45  69 105 142 175 228 296 357 407
#     4  10  28  38  58 108 144 170 228 294 368 382
#     4  11  23  42  68 100 133 187 232 294 340 422
#     4  10  18  38  68  96 130 174 236 282 326 422
#     4  12  24  47  73  99 136 191 236 287 347 430
#     4  12  26  44  74 100 134 188 244 278 346 436
#     4  11  24  47  72 101 138 185 241 280 351 430
#
# _framework density 21.041167999999999
#
# number of rings (size 3 to 8) (size 9 to 14) (size 15 to 20)
#    0.000    0.842    4.211    1.895    5.895    3.368 
#    3.789    0.000    0.000    0.000    0.000    0.000 
#    0.000    0.000    0.000    0.000    0.000    0.000 
#
# Total GULP energy -211748.601532 kJ/mol
# GULP energy per Si atom -5572.331619 kJ/mol
# Density = 2.099328 g / cm^3
# Si number density = 21.041168 Si / 1000 Ang^3
#
#
#
# Elastic Constant Matrix: (Units=GPa)
#
#
# Indices 1 2 3 4 5 6 
#
# 1 85.2661 49.9339 63.3796 0.0000 0.0000 0.0000
# 2 49.9339 112.5764 71.9024 0.0000 0.0000 0.0000
# 3 63.3796 71.9024 186.3107 0.0000 0.0000 0.0000
# 4 0.0000 0.0000 0.0000 11.3337 0.0000 0.0000
# 5 0.0000 0.0000 0.0000 0.0000 43.6127 0.0000
# 6 0.0000 0.0000 0.0000 0.0000 0.0000 14.0062
#
#
#
# Elastic Compliance Matrix: (Units=1/GPa)
#
#
# Indices 1 2 3 4 5 6 
#
# 1 0.017839 -0.005357 -0.004001 0.000000 0.000000 0.000000
# 2 -0.005357 0.013397 -0.003348 0.000000 0.000000 0.000000
# 3 -0.004001 -0.003348 0.008021 0.000000 0.000000 0.000000
# 4 0.000000 0.000000 0.000000 0.088232 0.000000 0.000000
# 5 0.000000 0.000000 0.000000 0.000000 0.022929 0.000000
# 6 0.000000 0.000000 0.000000 0.000000 0.000000 0.071397
#
#
# Mechanical properties :
#
#
# Convention : Reuss Voigt Hill
#
# Bulk Modulus (GPa) = 72.22998 83.84279 78.03638
# Shear Modulus (GPa) = 19.85359 27.05300 23.45329
#
# Velocity S-wave (km/s) = 3.07507 3.58958 3.34224
# Velocity P-wave (km/s) = 6.85642 7.55736 7.21541
#
# Compressibility (1/GPa) = 0.01384467
#
# Stress axis : x y z
#
# Youngs Moduli (GPa) = 56.05552 74.64095 124.67917
#
# Poissons Ratio (x) = 0.39987 0.49886
# Poissons Ratio (y) = 0.30030 0.41743
# Poissons Ratio (z) = 0.22429 0.24990
#
# Static dielectric constant tensor:
#      x y z
#    x 1.844590 0.000000 0.000000 
#    y 0.000000 1.747590 0.000000 
#    z 0.000000 0.000000 1.770180 
# 
# From -- ./inp_files/15764.got.cif
#   From: 2010.05.17/outbox.cif.g08.bks.cpg/sg48_8_cif.got.tgz:15764.got - 2010.06.03 20:39:00.
