data_PCOD9389208
_publ_section_title
;
Structure prediction by ZEFSAII (Michael W. Deem and Ramdas Pophale) SiO2 
 PCOD9389208
Probable space group: P M M M
;
_chemical_formula_sum "Si O2"
_cell_formula_units_Z 44
_cell_length_a 7.529710
_cell_length_b 13.474063
_cell_length_c 23.915217
_cell_angle_alpha 90.000000
_cell_angle_beta 90.000000
_cell_angle_gamma 90.000000
_cell_volume 2426.337160
_symmetry_space_group_name_H-M "P M M M"
_symmetry_group_IT_number 47
_symmetry_cell_setting 'orthorhombic'
loop_
_space_group_symop_operation_xyz
x,y,z
-x,-y,z
x,-y,-z
-x,y,-z
-x,-y,-z
x,y,-z
-x,y,z
x,-y,z
loop_
_atom_site_type_symbol
_atom_site_label
_atom_site_fract_x
_atom_site_fract_y
_atom_site_fract_z
Si Si1 0.205894 0.681581 0.728568
Si Si2 0.707998 0.179266 0.560549
Si Si3 0.500000 0.620960 0.935999
Si Si4 0.204735 0.619607 0.150975
Si Si5 0.284329 0.109971 0.680552
Si Si6 0.784354 0.389627 0.608134
O O1 0.279724 0.653759 0.788894
O O2 0.218091 0.798821 0.717344
O O3 0.278476 0.631183 0.671979
O O4 0.000000 0.649826 0.731098
O O5 0.785594 0.153762 0.500000
O O6 0.500000 0.152781 0.558877
O O7 0.779866 0.129404 0.616866
O O8 0.722217 0.297555 0.571039
O O9 0.500000 0.500000 0.937198
O O10 0.671833 0.651757 0.900203
O O11 0.500000 0.655162 0.000000
O O12 0.203912 0.500000 0.151910
O O13 0.000000 0.653187 0.144887
O O14 0.500000 0.115469 0.680248
O O15 0.232402 0.000000 0.698743
O O16 0.730834 0.500000 0.590350
O O17 0.000000 0.385714 0.608173
#
# Coordination Sequence:
#
# PCOD9389208 Si02
#       6
#     8   8   4   8   8   8
#     4   9  17  29  46  66  88 115 147 185 228 275
#     4   9  18  31  44  59  81 109 143 182 222 270
#     4   9  18  30  44  68 101 137 174 201 223 257
#     4   9  17  29  46  69  98 132 166 198 231 268
#     4   9  18  31  46  64  85 110 141 182 233 283
#     4   9  17  29  44  61  83 111 142 179 223 269
#
# _framework density 18.134331
#
# number of rings (size 3 to 8) (size 9 to 14) (size 15 to 20)
#    0.000    3.000    0.000    0.545    1.273    4.364 
#    0.000    5.455    0.000    0.000    0.000    5.091 
#    0.000    1.455    0.000    4.000    0.000    0.182 
#
# Total GULP energy -245282.069493 kJ/mol
# GULP energy per Si atom -5574.592488 kJ/mol
# Density = 1.809306 g / cm^3
# Si number density = 18.134331 Si / 1000 Ang^3
#
#
#
# Elastic Constant Matrix: (Units=GPa)
#
#
# Indices 1 2 3 4 5 6 
#
# 1 59.2350 -9.9569 22.8874 0.0000 0.0000 0.0000
# 2 -9.9569 27.2429 -17.8023 0.0000 0.0000 0.0000
# 3 22.8874 -17.8023 94.4476 0.0000 0.0000 0.0000
# 4 0.0000 0.0000 0.0000 1.8421 0.0000 0.0000
# 5 0.0000 0.0000 0.0000 0.0000 -104.1449 0.0000
# 6 0.0000 0.0000 0.0000 0.0000 0.0000 14.8943
#
#
#
# Elastic Compliance Matrix: (Units=1/GPa)
#
#
# Indices 1 2 3 4 5 6 
#
# 1 0.019100 0.004512 -0.003778 0.000000 0.000000 0.000000
# 2 0.004512 0.042929 0.006998 0.000000 0.000000 0.000000
# 3 -0.003778 0.006998 0.012822 0.000000 0.000000 0.000000
# 4 0.000000 0.000000 0.000000 0.542848 0.000000 0.000000
# 5 0.000000 0.000000 0.000000 0.000000 -0.009602 0.000000
# 6 0.000000 0.000000 0.000000 0.000000 0.000000 0.067140
#
#
# Mechanical properties :
#
#
# Convention : Reuss Voigt Hill
#
# Bulk Modulus (GPa) = 11.07224 19.02022 15.04623
# Shear Modulus (GPa) = 7.24765 -5.09522 1.07622
#
# Velocity S-wave (km/s) = 2.00133 -1.67804 0.77120
# Velocity P-wave (km/s) = 3.38517 2.59940 3.01797
#
# Compressibility (1/GPa) = 0.09031595
#
# Stress axis : x y z
#
# Youngs Moduli (GPa) = 52.35572 23.29428 77.98795
#
# Poissons Ratio (x) = -0.10510 0.29464
# Poissons Ratio (y) = -0.23623 -0.54578
# Poissons Ratio (z) = 0.19780 -0.16302
#
# Static dielectric constant tensor:
#      x y z
#    x 1.699560 0.000000 0.000000 
#    y 0.000000 1.607390 0.000000 
#    z 0.000000 0.000000 1.622750 
# 
# From -- ./inp_files/29444.got.cif
#   From: 2010.05.17/outbox.cif.g08.bks.cpg/sg47_15_cif.got.tgz:29444.got - 2010.06.03 20:15:42.
