data_PCOD9389095
_publ_section_title
;
Structure prediction by ZEFSAII (Michael W. Deem and Ramdas Pophale) SiO2 
 PCOD9389095
Probable space group: P M M M
;
_chemical_formula_sum "Si O2"
_cell_formula_units_Z 52
_cell_length_a 34.330444
_cell_length_b 10.255003
_cell_length_c 7.477985
_cell_angle_alpha 90.000000
_cell_angle_beta 90.000000
_cell_angle_gamma 90.000000
_cell_volume 2632.690472
_symmetry_space_group_name_H-M "P M M M"
_symmetry_group_IT_number 47
_symmetry_cell_setting 'orthorhombic'
loop_
_space_group_symop_operation_xyz
x,y,z
-x,-y,z
x,-y,-z
-x,y,-z
-x,-y,-z
x,y,-z
-x,y,z
x,-y,z
loop_
_atom_site_type_symbol
_atom_site_label
_atom_site_fract_x
_atom_site_fract_y
_atom_site_fract_z
Si Si1 0.850327 0.850927 0.718405
Si Si2 0.302677 0.648076 0.714213
Si Si3 0.455713 0.850939 0.781741
Si Si4 0.000000 0.648426 0.212627
Si Si5 0.391366 0.351884 0.214193
Si Si6 0.238445 0.148789 0.718218
Si Si7 0.085491 0.648857 0.288365
O O1 0.851084 0.850510 0.500000
O O2 0.805919 0.819192 0.771333
O O3 0.881747 0.746207 0.782963
O O4 0.858863 0.000000 0.773286
O O5 0.298231 0.642322 0.500000
O O6 0.298091 0.500000 0.783283
O O7 0.347017 0.690257 0.750054
O O8 0.270404 0.748486 0.781849
O O9 0.500000 0.817802 0.728324
O O10 0.423587 0.748750 0.718196
O O11 0.447546 0.000000 0.726835
O O12 0.455163 0.850180 0.000000
O O13 0.958240 0.704531 0.265967
O O14 0.000000 0.500000 0.286693
O O15 0.000000 0.642452 0.000000
O O16 0.395962 0.500000 0.283255
O O17 0.395839 0.357678 0.000000
O O18 0.238991 0.149642 0.500000
O O19 0.246911 0.000000 0.773241
O O20 0.092281 0.638298 0.500000
O O21 0.086643 0.500000 0.215180
#
# Coordination Sequence:
#
# PCOD9389095 Si02
#       7
#     8   8   8   4   8   8   8
#     4   8  14  25  41  62  87 110 132 165 209 248
#     4   9  17  28  42  61  85 111 138 169 203 239
#     4   8  14  25  41  61  83 105 132 169 209 244
#     4   9  17  29  44  61  84 114 142 167 200 244
#     4   9  17  28  42  61  84 108 134 166 204 244
#     4   8  14  25  41  61  84 109 137 168 202 241
#     4   9  16  26  43  66  86 104 133 173 208 237
#
# _framework density 19.751656000000001
#
# number of rings (size 3 to 8) (size 9 to 14) (size 15 to 20)
#    0.000    3.462    0.000    1.615    0.000    2.462 
#    0.000    5.000    0.000    4.154    0.000    9.692 
#    0.000    0.000    0.000    0.000    0.000    0.000 
#
# Total GULP energy -289821.535999 kJ/mol
# GULP energy per Si atom -5573.491077 kJ/mol
# Density = 1.970670 g / cm^3
# Si number density = 19.751656 Si / 1000 Ang^3
#
#
#
# Elastic Constant Matrix: (Units=GPa)
#
#
# Indices 1 2 3 4 5 6 
#
# 1 205.5494 140.5402 1.0082 0.0000 0.0000 0.0000
# 2 140.5402 121.1872 5.4391 0.0000 0.0000 0.0000
# 3 1.0082 5.4391 56.1741 0.0000 0.0000 0.0000
# 4 0.0000 0.0000 0.0000 -1.8467 0.0000 0.0000
# 5 0.0000 0.0000 0.0000 0.0000 15.0496 0.0000
# 6 0.0000 0.0000 0.0000 0.0000 0.0000 32.2353
#
#
#
# Elastic Compliance Matrix: (Units=1/GPa)
#
#
# Indices 1 2 3 4 5 6 
#
# 1 0.023774 -0.027671 0.002253 0.000000 0.000000 0.000000
# 2 -0.027671 0.040495 -0.003424 0.000000 0.000000 0.000000
# 3 0.002253 -0.003424 0.018093 0.000000 0.000000 0.000000
# 4 0.000000 0.000000 0.000000 -0.541513 0.000000 0.000000
# 5 0.000000 0.000000 0.000000 0.000000 0.066447 0.000000
# 6 0.000000 0.000000 0.000000 0.000000 0.000000 0.031022
#
#
# Mechanical properties :
#
#
# Convention : Reuss Voigt Hill
#
# Bulk Modulus (GPa) = 40.52503 75.20952 57.86728
# Shear Modulus (GPa) = -16.90493 24.81587 3.95547
#
# Velocity S-wave (km/s) = -2.92871 3.54841 1.41667
# Velocity P-wave (km/s) = 3.02083 7.41273 5.66012
#
# Compressibility (1/GPa) = 0.02467611
#
# Stress axis : x y z
#
# Youngs Moduli (GPa) = 42.06356 24.69413 55.27026
#
# Poissons Ratio (x) = 0.68331 -0.12450
# Poissons Ratio (y) = 1.16395 0.18926
# Poissons Ratio (z) = -0.09475 0.08456
#
# Static dielectric constant tensor:
#      x y z
#    x 1.674800 0.000000 0.000000 
#    y 0.000000 1.684510 0.000000 
#    z 0.000000 0.000000 1.774860 
# 
# From -- ./inp_files/13257.got.cif
#   From: 2010.05.17/outbox.cif.g08.bks.cpg/sg47_7_cif.got.tgz:13257.got - 2010.06.03 20:15:42.
