data_PCOD9389851
_publ_section_title
;
Structure prediction by ZEFSAII (Michael W. Deem and Ramdas Pophale) SiO2 
 PCOD9389851
Probable space group: P N N N
;
_chemical_formula_sum "Si O2"
_cell_formula_units_Z 40
_cell_length_a 17.535494
_cell_length_b 8.686848
_cell_length_c 11.334236
_cell_angle_alpha 90.000000
_cell_angle_beta 90.000000
_cell_angle_gamma 90.000000
_cell_volume 1726.523439
_symmetry_space_group_name_H-M "P N N N"
_symmetry_group_IT_number 48
_space_group.IT_coordinate_system_code '2'
_symmetry_cell_setting 'orthorhombic'
loop_
_space_group_symop_operation_xyz
x,y,z
1/2-x,1/2-y,z
x,1/2-y,1/2-z
1/2-x,y,1/2-z
-x,-y,-z
1/2+x,1/2+y,-z
-x,1/2+y,1/2+z
1/2+x,-y,1/2+z
loop_
_atom_site_type_symbol
_atom_site_label
_atom_site_fract_x
_atom_site_fract_y
_atom_site_fract_z
Si Si1 0.133538 0.839438 0.875342
Si Si2 0.328916 0.195321 0.614974
Si Si3 0.873626 0.313701 0.629327
Si Si4 0.977110 0.615137 0.101576
Si Si5 0.471526 0.405836 0.189597
O O1 0.148270 0.750000 0.750000
O O2 0.041278 0.852073 0.892866
O O3 0.165365 0.012170 0.877218
O O4 0.161908 0.773420 0.001547
O O5 0.250000 0.250000 0.557232
O O6 0.327951 0.250000 0.750000
O O7 0.402836 0.286433 0.568645
O O8 0.835918 0.250000 0.750000
O O9 0.901618 0.491814 0.642104
O O10 0.953864 0.226736 0.626702
O O11 0.977748 0.508046 0.218174
O O12 0.000000 0.500000 0.000000
O O13 0.442217 0.250000 0.250000
#
# Coordination Sequence:
#
# PCOD9389851 Si02
#       5
#     8   8   8   8   8
#     4  11  21  37  63  95 132 169 221 273 329 403
#     4  11  23  41  60  92 141 176 216 278 349 414
#     4  10  21  36  57  93 134 165 209 274 339 391
#     4  11  20  35  59  91 130 170 217 277 338 399
#     4  10  19  31  53  91 126 165 210 271 331 391
#
# _framework density 23.167943000000001
#
# number of rings (size 3 to 8) (size 9 to 14) (size 15 to 20)
#    0.000    1.400    4.000    3.600    2.800    0.000 
#    0.000    3.000    0.000    0.000    0.000   18.200 
#    0.000    0.000    0.000    0.000    0.000    0.000 
#
# Total GULP energy -223123.071979 kJ/mol
# GULP energy per Si atom -5578.076799 kJ/mol
# Density = 2.311521 g / cm^3
# Si number density = 23.167943 Si / 1000 Ang^3
#
#
#
# Elastic Constant Matrix: (Units=GPa)
#
#
# Indices 1 2 3 4 5 6 
#
# 1 102.9913 38.9513 18.0702 0.0000 0.0000 0.0000
# 2 38.9513 142.4424 43.1022 0.0000 0.0000 0.0000
# 3 18.0702 43.1022 173.6524 0.0000 0.0000 0.0000
# 4 0.0000 0.0000 0.0000 35.5268 0.0000 0.0000
# 5 0.0000 0.0000 0.0000 0.0000 -11.5486 0.0000
# 6 0.0000 0.0000 0.0000 0.0000 0.0000 -20.5470
#
#
#
# Elastic Compliance Matrix: (Units=1/GPa)
#
#
# Indices 1 2 3 4 5 6 
#
# 1 0.010858 -0.002841 -0.000425 0.000000 0.000000 0.000000
# 2 -0.002841 0.008334 -0.001773 0.000000 0.000000 0.000000
# 3 -0.000425 -0.001773 0.006243 0.000000 0.000000 0.000000
# 4 0.000000 0.000000 0.000000 0.028148 0.000000 0.000000
# 5 0.000000 0.000000 0.000000 0.000000 -0.086590 0.000000
# 6 0.000000 0.000000 0.000000 0.000000 0.000000 -0.048669
#
#
# Mechanical properties :
#
#
# Convention : Reuss Voigt Hill
#
# Bulk Modulus (GPa) = 65.11220 68.81484 66.96352
# Shear Modulus (GPa) = -75.21017 21.95040 -26.62988
#
# Velocity S-wave (km/s) = -5.70382 3.08140 -3.39400
# Velocity P-wave (km/s) = 3.90033 6.51361 3.68881
#
# Compressibility (1/GPa) = 0.01535811
#
# Stress axis : x y z
#
# Youngs Moduli (GPa) = 92.09407 119.99538 160.18231
#
# Poissons Ratio (x) = 0.34087 0.06805
# Poissons Ratio (y) = 0.26161 0.28399
# Poissons Ratio (z) = 0.03912 0.21274
#
# Static dielectric constant tensor:
#      x y z
#    x 1.931180 0.000000 0.000000 
#    y 0.000000 1.327480 0.000000 
#    z 0.000000 0.000000 2.014660 
# 
# From -- ./inp_files/10689.got.cif
#   From: 2010.05.17/outbox.cif.g08.bks.cpg/sg48_6_cif.got.tgz:10689.got - 2010.06.03 20:39:00.
