data_PCOD9389182
_publ_section_title
;
Structure prediction by ZEFSAII (Michael W. Deem and Ramdas Pophale) SiO2 
 PCOD9389182
Probable space group: P M M M
;
_chemical_formula_sum "Si O2"
_cell_formula_units_Z 52
_cell_length_a 18.139287
_cell_length_b 18.629920
_cell_length_c 9.360950
_cell_angle_alpha 90.000000
_cell_angle_beta 90.000000
_cell_angle_gamma 90.000000
_cell_volume 3163.378275
_symmetry_space_group_name_H-M "P M M M"
_symmetry_group_IT_number 47
_symmetry_cell_setting 'orthorhombic'
loop_
_space_group_symop_operation_xyz
x,y,z
-x,-y,z
x,-y,-z
-x,y,-z
-x,-y,-z
x,y,-z
-x,y,z
x,-y,z
loop_
_atom_site_type_symbol
_atom_site_label
_atom_site_fract_x
_atom_site_fract_y
_atom_site_fract_z
Si Si1 0.917070 0.764068 0.328411
Si Si2 0.868505 0.077048 0.328986
Si Si3 0.500000 0.582361 0.674076
Si Si4 0.775252 0.281045 0.163422
Si Si5 0.634206 0.682800 0.669629
Si Si6 0.415278 0.151597 0.331207
Si Si7 0.724005 0.114216 0.162985
O O1 0.906672 0.758446 0.500000
O O2 0.909326 0.849036 0.290362
O O3 0.852386 0.722351 0.247410
O O4 0.000000 0.740452 0.293621
O O5 0.859099 0.079520 0.500000
O O6 0.789146 0.079434 0.253960
O O7 0.904341 0.000000 0.293753
O O8 0.500000 0.500000 0.720982
O O9 0.500000 0.583358 0.500000
O O10 0.572877 0.625900 0.717669
O O11 0.710692 0.322552 0.246031
O O12 0.746182 0.198619 0.161048
O O13 0.784251 0.304695 0.000000
O O14 0.647571 0.674170 0.500000
O O15 0.600693 0.763075 0.688042
O O16 0.405269 0.136713 0.500000
O O17 0.500000 0.136733 0.292886
O O18 0.354777 0.109775 0.239518
O O19 0.722188 0.088845 0.000000
#
# Coordination Sequence:
#
# PCOD9389182 Si02
#       7
#     8   8   4   8   8   8   8
#     4   9  17  29  45  66  90 113 139 176 222 267
#     4   9  17  29  44  60  79 107 140 170 205 256
#     4   9  16  26  43  69  99 129 160 191 218 245
#     4   9  17  28  42  61  85 115 148 182 220 260
#     4   9  15  26  43  63  88 119 154 185 214 251
#     4   9  15  24  40  60  80 103 135 175 217 258
#     4   9  17  27  39  57  79 103 134 174 217 257
#
# _framework density 16.438123000000001
#
# number of rings (size 3 to 8) (size 9 to 14) (size 15 to 20)
#    0.000    3.000    0.769    0.923    0.000    4.923 
#    0.000    1.923    0.000    1.385    0.000    7.538 
#    0.000    0.615    0.000    7.077    0.000    2.000 
#
# Total GULP energy -289614.244686 kJ/mol
# GULP energy per Si atom -5569.504705 kJ/mol
# Density = 1.640071 g / cm^3
# Si number density = 16.438123 Si / 1000 Ang^3
#
#
#
# Elastic Constant Matrix: (Units=GPa)
#
#
# Indices 1 2 3 4 5 6 
#
# 1 145.0457 21.3803 51.3385 0.0000 0.0000 0.0000
# 2 21.3803 35.5756 12.1861 0.0000 0.0000 0.0000
# 3 51.3385 12.1861 33.2173 0.0000 0.0000 0.0000
# 4 0.0000 0.0000 0.0000 5.8310 0.0000 0.0000
# 5 0.0000 0.0000 0.0000 0.0000 3.7635 0.0000
# 6 0.0000 0.0000 0.0000 0.0000 0.0000 4.2190
#
#
#
# Elastic Compliance Matrix: (Units=1/GPa)
#
#
# Indices 1 2 3 4 5 6 
#
# 1 0.015269 -0.001250 -0.023140 0.000000 0.000000 0.000000
# 2 -0.001250 0.032251 -0.009900 0.000000 0.000000 0.000000
# 3 -0.023140 -0.009900 0.069501 0.000000 0.000000 0.000000
# 4 0.000000 0.000000 0.000000 0.171497 0.000000 0.000000
# 5 0.000000 0.000000 0.000000 0.000000 0.265709 0.000000
# 6 0.000000 0.000000 0.000000 0.000000 0.000000 0.237021
#
#
# Mechanical properties :
#
#
# Convention : Reuss Voigt Hill
#
# Bulk Modulus (GPa) = 20.64366 42.62760 31.63563
# Shear Modulus (GPa) = 5.70792 11.35830 8.53311
#
# Velocity S-wave (km/s) = 1.86545 2.63149 2.28086
# Velocity P-wave (km/s) = 4.15037 5.93476 5.12089
#
# Compressibility (1/GPa) = 0.04844102
#
# Stress axis : x y z
#
# Youngs Moduli (GPa) = 65.49185 31.00632 14.38833
#
# Poissons Ratio (x) = 0.03876 0.33295
# Poissons Ratio (y) = 0.08186 0.14244
# Poissons Ratio (z) = 1.51550 0.30696
#
# Static dielectric constant tensor:
#      x y z
#    x 1.543320 0.000000 0.000000 
#    y 0.000000 1.552520 0.000000 
#    z 0.000000 0.000000 1.548720 
# 
# From -- ./inp_files/9517.got.cif
#   From: 2010.05.17/outbox.cif.g08.bks.cpg/sg47_5_cif.got.tgz:9517.got - 2010.06.03 20:15:42.
