data_PCOD9389751
_publ_section_title
;
Structure prediction by ZEFSAII (Michael W. Deem and Ramdas Pophale) SiO2 
 PCOD9389751
Probable space group: P N N N
;
_chemical_formula_sum "Si O2"
_cell_formula_units_Z 48
_cell_length_a 16.925244
_cell_length_b 9.131921
_cell_length_c 17.261303
_cell_angle_alpha 90.000000
_cell_angle_beta 90.000000
_cell_angle_gamma 90.000000
_cell_volume 2667.906838
_symmetry_space_group_name_H-M "P N N N"
_symmetry_group_IT_number 48
_space_group.IT_coordinate_system_code '2'
_symmetry_cell_setting 'orthorhombic'
loop_
_space_group_symop_operation_xyz
x,y,z
1/2-x,1/2-y,z
x,1/2-y,1/2-z
1/2-x,y,1/2-z
-x,-y,-z
1/2+x,1/2+y,-z
-x,1/2+y,1/2+z
1/2+x,-y,1/2+z
loop_
_atom_site_type_symbol
_atom_site_label
_atom_site_fract_x
_atom_site_fract_y
_atom_site_fract_z
Si Si1 0.166302 0.659097 0.122568
Si Si2 0.421157 0.947001 0.399067
Si Si3 0.156345 0.413536 0.252194
Si Si4 0.595235 0.436424 0.077710
Si Si5 0.327405 0.646287 0.556065
Si Si6 0.254281 0.422948 0.841723
O O1 0.250000 0.750000 0.138954
O O2 0.095928 0.777481 0.119260
O O3 0.144214 0.533678 0.184130
O O4 0.171470 0.600894 0.034199
O O5 0.392253 0.973668 0.486808
O O6 0.370530 0.026766 0.334583
O O7 0.510934 0.001393 0.396933
O O8 0.120916 0.250000 0.250000
O O9 0.250000 0.398975 0.250000
O O10 0.603028 0.259106 0.079219
O O11 0.663749 0.511317 0.126906
O O12 0.250000 0.750000 0.563236
O O13 0.314015 0.510913 0.612736
O O14 0.250000 0.250000 0.856606
O O15 0.250000 0.448246 0.750000
#
# Coordination Sequence:
#
# PCOD9389751 Si02
#       6
#     8   8   8   8   8   8
#     4  10  18  35  58  83 113 154 197 228 284 356
#     4  10  20  38  60  85 117 152 192 238 293 355
#     4  11  23  35  52  87 122 152 193 239 284 345
#     4   9  20  39  61  85 113 149 193 242 297 347
#     4   8  17  34  59  83 106 147 194 237 286 346
#     4  10  21  38  57  86 113 149 201 244 288 341
#
# _framework density 17.991633
#
# number of rings (size 3 to 8) (size 9 to 14) (size 15 to 20)
#    0.000    2.333    1.667    1.500    0.000    4.333 
#    9.000    0.000    0.000    6.000    0.000    0.000 
#    0.000    0.000    0.000    0.000    0.000    0.000 
#
# Total GULP energy -267295.858243 kJ/mol
# GULP energy per Si atom -5568.663713 kJ/mol
# Density = 1.795068 g / cm^3
# Si number density = 17.991633 Si / 1000 Ang^3
#
#
#
# Elastic Constant Matrix: (Units=GPa)
#
#
# Indices 1 2 3 4 5 6 
#
# 1 71.5415 47.4684 53.9918 0.0000 0.0000 0.0000
# 2 47.4684 109.0939 89.8213 0.0000 0.0000 0.0000
# 3 53.9918 89.8213 114.1889 0.0000 0.0000 0.0000
# 4 0.0000 0.0000 0.0000 10.0190 0.0000 0.0000
# 5 0.0000 0.0000 0.0000 0.0000 21.2791 0.0000
# 6 0.0000 0.0000 0.0000 0.0000 0.0000 28.2012
#
#
#
# Elastic Compliance Matrix: (Units=1/GPa)
#
#
# Indices 1 2 3 4 5 6 
#
# 1 0.022045 -0.002866 -0.008169 0.000000 0.000000 0.000000
# 2 -0.002866 0.026387 -0.019401 0.000000 0.000000 0.000000
# 3 -0.008169 -0.019401 0.027880 0.000000 0.000000 0.000000
# 4 0.000000 0.000000 0.000000 0.099810 0.000000 0.000000
# 5 0.000000 0.000000 0.000000 0.000000 0.046995 0.000000
# 6 0.000000 0.000000 0.000000 0.000000 0.000000 0.035459
#
#
# Mechanical properties :
#
#
# Convention : Reuss Voigt Hill
#
# Bulk Modulus (GPa) = 64.76471 75.26524 70.01497
# Shear Modulus (GPa) = 15.40383 18.80271 17.10327
#
# Velocity S-wave (km/s) = 2.92921 3.23628 3.08656
# Velocity P-wave (km/s) = 6.89316 7.47589 7.19043
#
# Compressibility (1/GPa) = 0.01544051
#
# Stress axis : x y z
#
# Youngs Moduli (GPa) = 45.36270 37.89728 35.86741
#
# Poissons Ratio (x) = 0.10863 0.29298
# Poissons Ratio (y) = 0.13003 0.69586
# Poissons Ratio (z) = 0.37055 0.73524
#
# Static dielectric constant tensor:
#      x y z
#    x 1.623930 0.000000 0.000000 
#    y 0.000000 1.659660 0.000000 
#    z 0.000000 0.000000 1.617780 
# 
# From -- ./inp_files/31936.got.cif
#   From: 2010.05.17/outbox.cif.g08.bks.cpg/sg48_16_cif.got.tgz:31936.got - 2010.06.03 20:39:00.
