data_PCOD9389855
_publ_section_title
;
Structure prediction by ZEFSAII (Michael W. Deem and Ramdas Pophale) SiO2 
 PCOD9389855
Probable space group: P N N N
;
_chemical_formula_sum "Si O2"
_cell_formula_units_Z 54
_cell_length_a 12.034655
_cell_length_b 19.489036
_cell_length_c 11.783158
_cell_angle_alpha 90.000000
_cell_angle_beta 90.000000
_cell_angle_gamma 90.000000
_cell_volume 2763.666943
_symmetry_space_group_name_H-M "P N N N"
_symmetry_group_IT_number 48
_space_group.IT_coordinate_system_code '2'
_symmetry_cell_setting 'orthorhombic'
loop_
_space_group_symop_operation_xyz
x,y,z
1/2-x,1/2-y,z
x,1/2-y,1/2-z
1/2-x,y,1/2-z
-x,-y,-z
1/2+x,1/2+y,-z
-x,1/2+y,1/2+z
1/2+x,-y,1/2+z
loop_
_atom_site_type_symbol
_atom_site_label
_atom_site_fract_x
_atom_site_fract_y
_atom_site_fract_z
Si Si1 0.750000 0.750000 0.250000
Si Si2 0.740215 0.830937 0.877221
Si Si3 0.250000 0.472323 0.750000
Si Si4 0.521301 0.884296 0.989391
Si Si5 0.516400 0.506980 0.317871
Si Si6 0.810554 0.324095 0.902921
Si Si7 0.105641 0.891438 0.176809
Si Si8 0.862607 0.638048 0.406680
O O1 0.823930 0.703602 0.333393
O O2 0.750000 0.750000 0.866753
O O3 0.750000 0.860716 0.750000
O O4 0.625964 0.842334 0.946011
O O5 0.835291 0.856721 0.961595
O O6 0.362896 0.513044 0.728811
O O7 0.210451 0.423279 0.647159
O O8 0.516545 0.945993 0.899269
O O9 0.538770 0.923703 0.108612
O O10 0.408083 0.840872 0.007265
O O11 0.422105 0.533987 0.231255
O O12 0.750000 0.250000 0.913495
O O13 0.713175 0.382085 0.902436
O O14 0.867915 0.337837 0.779717
O O15 0.992174 0.872428 0.115275
#
# Coordination Sequence:
#
# PCOD9389855 Si02
#       8
#     2   8   4   8   8   8   8   8
#     4  10  20  24  54  90 116 156 174 258 320 364
#     4  11  24  41  59  84 121 170 215 257 288 368
#     4   9  16  33  58  94 119 140 195 270 320 360
#     4  10  21  40  59  87 118 175 206 241 314 368
#     4   9  18  36  62  87 126 153 200 259 311 391
#     4  10  21  34  56  93 132 162 196 250 319 402
#     4   9  19  33  55  93 126 154 190 258 326 370
#     4  10  19  31  56  91 122 148 197 251 320 359
#
# _framework density 19.539258
#
# number of rings (size 3 to 8) (size 9 to 14) (size 15 to 20)
#    0.000    2.222    2.222    0.889    6.222    0.000 
#    8.000    1.481    0.000    3.556    0.000    0.000 
#    0.000    0.000    0.000    0.000    0.000    0.000 
#
# Total GULP energy -300792.722864 kJ/mol
# GULP energy per Si atom -5570.235609 kJ/mol
# Density = 1.949479 g / cm^3
# Si number density = 19.539258 Si / 1000 Ang^3
#
#
#
# Elastic Constant Matrix: (Units=GPa)
#
#
# Indices 1 2 3 4 5 6 
#
# 1 131.4867 31.5501 28.2177 0.0000 0.0000 0.0000
# 2 31.5501 29.4553 7.9759 0.0000 0.0000 0.0000
# 3 28.2177 7.9759 76.7141 0.0000 0.0000 0.0000
# 4 0.0000 0.0000 0.0000 3.1238 0.0000 0.0000
# 5 0.0000 0.0000 0.0000 0.0000 24.8802 0.0000
# 6 0.0000 0.0000 0.0000 0.0000 0.0000 -67.8447
#
#
#
# Elastic Compliance Matrix: (Units=1/GPa)
#
#
# Indices 1 2 3 4 5 6 
#
# 1 0.010811 -0.010807 -0.002853 0.000000 0.000000 0.000000
# 2 -0.010807 0.045737 -0.000780 0.000000 0.000000 0.000000
# 3 -0.002853 -0.000780 0.014166 0.000000 0.000000 0.000000
# 4 0.000000 0.000000 0.000000 0.320126 0.000000 0.000000
# 5 0.000000 0.000000 0.000000 0.000000 0.040193 0.000000
# 6 0.000000 0.000000 0.000000 0.000000 0.000000 -0.014740
#
#
# Mechanical properties :
#
#
# Convention : Reuss Voigt Hill
#
# Bulk Modulus (GPa) = 23.90449 41.46040 32.68245
# Shear Modulus (GPa) = 10.89047 3.35936 7.12491
#
# Velocity S-wave (km/s) = 2.36342 1.31264 1.91164
# Velocity P-wave (km/s) = 4.43940 4.85412 4.65138
#
# Compressibility (1/GPa) = 0.04183314
#
# Stress axis : x y z
#
# Youngs Moduli (GPa) = 92.50085 21.86437 70.59207
#
# Poissons Ratio (x) = 0.23629 0.20139
# Poissons Ratio (y) = 0.99966 0.05507
# Poissons Ratio (z) = 0.26390 0.01706
#
# Static dielectric constant tensor:
#      x y z
#    x 1.718710 0.000000 0.000000 
#    y 0.000000 1.718100 0.000000 
#    z 0.000000 0.000000 1.728620 
# 
# From -- ./inp_files/20298.got.cif
#   From: 2010.05.17/outbox.cif.g08.bks.cpg/sg48_11_cif.got.tgz:20298.got - 2010.06.03 20:39:00.
