data_PCOD9389205
_publ_section_title
;
Structure prediction by ZEFSAII (Michael W. Deem and Ramdas Pophale) SiO2 
 PCOD9389205
Probable space group: P M M M
;
_chemical_formula_sum "Si O2"
_cell_formula_units_Z 24
_cell_length_a 7.404358
_cell_length_b 12.970840
_cell_length_c 10.322168
_cell_angle_alpha 90.000000
_cell_angle_beta 90.000000
_cell_angle_gamma 90.000000
_cell_volume 991.348683
_symmetry_space_group_name_H-M "P M M M"
_symmetry_group_IT_number 47
_symmetry_cell_setting 'orthorhombic'
loop_
_space_group_symop_operation_xyz
x,y,z
-x,-y,z
x,-y,-z
-x,y,-z
-x,-y,-z
x,y,-z
-x,y,z
x,-y,z
loop_
_atom_site_type_symbol
_atom_site_label
_atom_site_fract_x
_atom_site_fract_y
_atom_site_fract_z
Si Si1 0.220866 0.834455 0.858893
Si Si2 0.793471 0.615666 0.788401
Si Si3 0.220531 0.000000 0.350526
Si Si4 0.701620 0.376261 0.500000
O O1 0.287489 0.716629 0.852364
O O2 0.000000 0.831971 0.853799
O O3 0.277618 0.901877 0.735971
O O4 0.269140 0.877951 0.000000
O O5 0.714242 0.500000 0.803414
O O6 0.794543 0.645226 0.635791
O O7 0.000000 0.607930 0.833070
O O8 0.280458 0.000000 0.500000
O O9 0.000000 0.000000 0.353482
O O10 0.688094 0.500000 0.500000
O O11 0.500000 0.332007 0.500000
#
# Coordination Sequence:
#
# PCOD9389205 Si02
#       4
#     8   8   4   4
#     4   9  17  28  43  65  96 130 160 194 237 284
#     4   9  17  28  45  70  98 126 157 194 238 285
#     4   9  17  27  41  63  93 128 163 198 236 280
#     4   9  17  29  45  66  95 130 164 197 234 277
#
# _framework density 24.209443
#
# number of rings (size 3 to 8) (size 9 to 14) (size 15 to 20)
#    0.000    3.000    0.000    1.000    2.333    4.667 
#    0.000    3.333    0.000    1.000    0.000    7.000 
#    0.000    2.667    0.000    0.000    0.000    0.000 
#
# Total GULP energy -133850.021107 kJ/mol
# GULP energy per Si atom -5577.084213 kJ/mol
# Density = 2.415434 g / cm^3
# Si number density = 24.209443 Si / 1000 Ang^3
#
#
#
# Elastic Constant Matrix: (Units=GPa)
#
#
# Indices 1 2 3 4 5 6 
#
# 1 85.2548 5.4094 2.2320 0.0000 0.0000 0.0000
# 2 5.4094 178.5983 93.4022 0.0000 0.0000 0.0000
# 3 2.2320 93.4022 200.3768 0.0000 0.0000 0.0000
# 4 0.0000 0.0000 0.0000 36.7379 0.0000 0.0000
# 5 0.0000 0.0000 0.0000 0.0000 -55.6699 0.0000
# 6 0.0000 0.0000 0.0000 0.0000 0.0000 -18.0130
#
#
#
# Elastic Compliance Matrix: (Units=1/GPa)
#
#
# Indices 1 2 3 4 5 6 
#
# 1 0.011752 -0.000380 0.000046 0.000000 0.000000 0.000000
# 2 -0.000380 0.007416 -0.003453 0.000000 0.000000 0.000000
# 3 0.000046 -0.003453 0.006600 0.000000 0.000000 0.000000
# 4 0.000000 0.000000 0.000000 0.027220 0.000000 0.000000
# 5 0.000000 0.000000 0.000000 0.000000 -0.017963 0.000000
# 6 0.000000 0.000000 0.000000 0.000000 0.000000 -0.055515
#
#
# Mechanical properties :
#
#
# Convention : Reuss Voigt Hill
#
# Bulk Modulus (GPa) = 54.95999 74.03525 64.49762
# Shear Modulus (GPa) = -729.72220 16.82342 -356.44939
#
# Velocity S-wave (km/s) = -17.38030 2.63898 -12.14724
# Velocity P-wave (km/s) = 19.49398 6.31927 13.03998
#
# Compressibility (1/GPa) = 0.01819505
#
# Stress axis : x y z
#
# Youngs Moduli (GPa) = 85.08865 134.83654 151.52576
#
# Poissons Ratio (x) = 0.05126 -0.00702
# Poissons Ratio (y) = 0.03235 0.52319
# Poissons Ratio (z) = -0.00394 0.46556
#
# Static dielectric constant tensor:
#      x y z
#    x 1.930570 0.000000 0.000000 
#    y 0.000000 1.934960 0.000000 
#    z 0.000000 0.000000 1.914260 
# 
# From -- ./inp_files/14492.got.cif
#   From: 2010.05.17/outbox.cif.g08.bks.cpg/sg47_8_cif.got.tgz:14492.got - 2010.06.03 20:15:42.
