data_PCOD9389165
_publ_section_title
;
Structure prediction by ZEFSAII (Michael W. Deem and Ramdas Pophale) SiO2 
 PCOD9389165
Probable space group: P M M M
;
_chemical_formula_sum "Si O2"
_cell_formula_units_Z 32
_cell_length_a 9.288872
_cell_length_b 7.317272
_cell_length_c 23.467097
_cell_angle_alpha 90.000000
_cell_angle_beta 90.000000
_cell_angle_gamma 90.000000
_cell_volume 1595.039880
_symmetry_space_group_name_H-M "P M M M"
_symmetry_group_IT_number 47
_symmetry_cell_setting 'orthorhombic'
loop_
_space_group_symop_operation_xyz
x,y,z
-x,-y,z
x,-y,-z
-x,y,-z
-x,-y,-z
x,y,-z
-x,y,z
x,-y,z
loop_
_atom_site_type_symbol
_atom_site_label
_atom_site_fract_x
_atom_site_fract_y
_atom_site_fract_z
Si Si1 0.329390 0.783402 0.840767
Si Si2 0.674772 0.500000 0.935438
Si Si3 0.334111 0.776998 0.386639
Si Si4 0.165916 0.222911 0.500000
Si Si5 0.834351 0.222667 0.726380
O O1 0.500000 0.750989 0.830981
O O2 0.284871 0.674218 0.897101
O O3 0.242294 0.723046 0.785034
O O4 0.309429 0.000000 0.848421
O O5 0.500000 0.500000 0.938781
O O6 0.729808 0.500000 0.000000
O O7 0.500000 0.719422 0.387757
O O8 0.248880 0.719463 0.443061
O O9 0.253789 0.718431 0.329182
O O10 0.333845 0.000000 0.386576
O O11 0.000000 0.280779 0.500000
O O12 0.165915 0.000000 0.500000
O O13 0.000000 0.280617 0.723883
O O14 0.833116 0.000000 0.725880
#
# Coordination Sequence:
#
# PCOD9389165 Si02
#       5
#     8   4   8   4   8
#     4   9  17  30  49  72  98 129 164 202 245 292
#     4   9  18  32  51  77 105 130 161 202 243 287
#     4   9  15  22  33  51  78 114 157 203 250 299
#     4   9  15  21  29  45  75 116 159 202 250 301
#     4   9  16  26  41  61  86 118 157 201 248 296
#
# _framework density 20.062194999999999
#
# number of rings (size 3 to 8) (size 9 to 14) (size 15 to 20)
#    0.000    3.000    0.000    1.875    0.000    8.000 
#    0.000    3.125    0.000    1.500    0.000    3.500 
#    0.000    1.000    0.000   10.875    0.000   32.500 
#
# Total GULP energy -178703.814914 kJ/mol
# GULP energy per Si atom -5584.494216 kJ/mol
# Density = 2.001653 g / cm^3
# Si number density = 20.062195 Si / 1000 Ang^3
#
#
#
# Elastic Constant Matrix: (Units=GPa)
#
#
# Indices 1 2 3 4 5 6 
#
# 1 150.4377 31.7021 122.0462 0.0000 0.0000 0.0000
# 2 31.7021 80.0076 43.0690 0.0000 0.0000 0.0000
# 3 122.0462 43.0690 250.0389 0.0000 0.0000 0.0000
# 4 0.0000 0.0000 0.0000 135.1355 0.0000 0.0000
# 5 0.0000 0.0000 0.0000 0.0000 -5.2889 0.0000
# 6 0.0000 0.0000 0.0000 0.0000 0.0000 -6.2598
#
#
#
# Elastic Compliance Matrix: (Units=1/GPa)
#
#
# Indices 1 2 3 4 5 6 
#
# 1 0.011199 -0.001648 -0.005182 0.000000 0.000000 0.000000
# 2 -0.001648 0.014019 -0.001610 0.000000 0.000000 0.000000
# 3 -0.005182 -0.001610 0.006806 0.000000 0.000000 0.000000
# 4 0.000000 0.000000 0.000000 0.007400 0.000000 0.000000
# 5 0.000000 0.000000 0.000000 0.000000 -0.189075 0.000000
# 6 0.000000 0.000000 0.000000 0.000000 0.000000 -0.159748
#
#
# Mechanical properties :
#
#
# Convention : Reuss Voigt Hill
#
# Bulk Modulus (GPa) = 66.03834 97.12430 81.58132
# Shear Modulus (GPa) = -17.39306 43.62848 13.11771
#
# Velocity S-wave (km/s) = -2.94761 4.66839 2.55983
# Velocity P-wave (km/s) = 4.62642 8.80767 7.03487
#
# Compressibility (1/GPa) = 0.01514272
#
# Stress axis : x y z
#
# Youngs Moduli (GPa) = 89.29461 71.33380 146.92080
#
# Poissons Ratio (x) = 0.11753 0.76141
# Poissons Ratio (y) = 0.14713 0.23661
# Poissons Ratio (z) = 0.46277 0.11488
#
# Static dielectric constant tensor:
#      x y z
#    x 1.665500 0.000000 0.000000 
#    y 0.000000 1.788470 0.000000 
#    z 0.000000 0.000000 1.657350 
# 
# From -- ./inp_files/31628.got.cif
#   From: 2010.05.17/outbox.cif.g08.bks.cpg/sg47_16_cif.got.tgz:31628.got - 2010.06.03 20:15:42.
