data_PCOD9389272
_publ_section_title
;
Structure prediction by ZEFSAII (Michael W. Deem and Ramdas Pophale) SiO2 
 PCOD9389272
Probable space group: P M M M
;
_chemical_formula_sum "Si O2"
_cell_formula_units_Z 52
_cell_length_a 9.000000
_cell_length_b 27.000000
_cell_length_c 12.000000
_cell_angle_alpha 90.000000
_cell_angle_beta 90.000000
_cell_angle_gamma 90.000000
_cell_volume 2916.000000
_symmetry_space_group_name_H-M "P M M M"
_symmetry_group_IT_number 47
_symmetry_cell_setting 'orthorhombic'
loop_
_space_group_symop_operation_xyz
x,y,z
-x,-y,z
x,-y,-z
-x,y,-z
-x,-y,-z
x,y,-z
-x,y,z
x,-y,z
loop_
_atom_site_type_symbol
_atom_site_label
_atom_site_fract_x
_atom_site_fract_y
_atom_site_fract_z
Si Si1 0.330305 0.357796 0.633658
Si Si2 0.825665 0.098520 0.130423
Si Si3 0.827285 0.744178 0.633515
Si Si4 0.323805 0.799492 0.181342
Si Si5 0.820850 0.442313 0.230829
Si Si6 0.673963 0.284374 0.000000
Si Si7 0.821955 0.390912 0.000000
Si Si8 0.500000 0.059193 0.870873
O O1 0.332497 0.359690 0.500000
O O2 0.500000 0.350918 0.673374
O O3 0.231146 0.310446 0.665447
O O4 0.259726 0.407547 0.680788
O O5 0.782945 0.156335 0.142090
O O6 0.666511 0.074742 0.175088
O O7 0.000000 0.089888 0.171802
O O8 0.831100 0.084207 0.000000
O O9 0.816550 0.748551 0.500000
O O10 0.723774 0.783664 0.695122
O O11 0.000000 0.750172 0.665497
O O12 0.500000 0.812613 0.171930
O O13 0.297786 0.751247 0.105219
O O14 0.782615 0.500000 0.240930
O O15 0.777210 0.420731 0.110254
O O16 0.000000 0.437936 0.242188
O O17 0.500000 0.297129 0.000000
O O18 0.762407 0.335191 0.000000
O O19 0.000000 0.388911 0.000000
O O20 0.500000 0.000000 0.870706
O O21 0.500000 0.077842 0.000000
#
# Coordination Sequence:
#
# PCOD9389272 Si02
#       8
#     8   8   8   8   8   4   4   4
#     4  10  21  37  55  75 100 128 161 204 256 312
#     4  10  19  31  50  75 108 147 189 234 278 325
#     4  10  21  36  53  75 104 137 175 218 263 316
#     4  11  20  33  52  75 109 145 181 221 266 320
#     4  10  21  37  56  75  96 125 160 202 253 306
#     4  10  22  33  49  75 104 137 169 210 257 308
#     4  10  21  36  52  72 100 128 163 205 246 303
#     4   9  18  32  50  72 107 151 193 237 280 324
#
# _framework density 17.832647000000001
#
# number of rings (size 3 to 8) (size 9 to 14) (size 15 to 20)
#    0.000    1.923    1.538    2.538    0.000    8.000 
#    0.000    3.077    0.000    1.385    0.000    0.000 
#    0.000    1.231    0.000    3.231    0.000    0.154 
#
# Total GULP energy -289804.518861 kJ/mol
# GULP energy per Si atom -5573.163824 kJ/mol
# Density = 1.779206 g / cm^3
# Si number density = 17.832647 Si / 1000 Ang^3
#
#
#
# Elastic Constant Matrix: (Units=GPa)
#
#
# Indices 1 2 3 4 5 6 
#
# 1 89.8010 15.3630 17.6328 0.0000 0.0000 0.0000
# 2 15.3630 35.2989 8.7652 0.0000 0.0000 0.0000
# 3 17.6328 8.7652 23.4790 0.0000 0.0000 0.0000
# 4 0.0000 0.0000 0.0000 -48.1506 0.0000 0.0000
# 5 0.0000 0.0000 0.0000 0.0000 22.2350 0.0000
# 6 0.0000 0.0000 0.0000 0.0000 0.0000 30.7181
#
#
#
# Elastic Compliance Matrix: (Units=1/GPa)
#
#
# Indices 1 2 3 4 5 6 
#
# 1 0.013486 -0.003697 -0.008748 0.000000 0.000000 0.000000
# 2 -0.003697 0.032238 -0.009258 0.000000 0.000000 0.000000
# 3 -0.008748 -0.009258 0.052617 0.000000 0.000000 0.000000
# 4 0.000000 0.000000 0.000000 -0.020768 0.000000 0.000000
# 5 0.000000 0.000000 0.000000 0.000000 0.044974 0.000000
# 6 0.000000 0.000000 0.000000 0.000000 0.000000 0.032554
#
#
# Mechanical properties :
#
#
# Convention : Reuss Voigt Hill
#
# Bulk Modulus (GPa) = 18.20364 25.78900 21.99632
# Shear Modulus (GPa) = 23.06078 8.08169 15.57123
#
# Velocity S-wave (km/s) = 3.59998 2.13115 2.95818
# Velocity P-wave (km/s) = 5.24500 4.53308 4.90198
#
# Compressibility (1/GPa) = 0.05493407
#
# Stress axis : x y z
#
# Youngs Moduli (GPa) = 74.15151 31.01970 19.00526
#
# Poissons Ratio (x) = 0.11469 0.16625
# Poissons Ratio (y) = 0.27416 0.17596
# Poissons Ratio (z) = 0.64865 0.28719
#
# Static dielectric constant tensor:
#      x y z
#    x 1.632930 0.000000 0.000000 
#    y 0.000000 1.593060 0.000000 
#    z 0.000000 0.000000 1.641330 
# 
# From -- ./inp_files/15521.got.cif
#   From: 2010.05.17/outbox.ucp.g08.bks.cvg/sg47_8_cif.got.tgz:15521.got - 2010.06.11 16:36:43.
