data_PCOD9389762
_publ_section_title
;
Structure prediction by ZEFSAII (Michael W. Deem and Ramdas Pophale) SiO2 
 PCOD9389762
Probable space group: P N N N
;
_chemical_formula_sum "Si O2"
_cell_formula_units_Z 44
_cell_length_a 8.908321
_cell_length_b 15.667241
_cell_length_c 14.854488
_cell_angle_alpha 90.000000
_cell_angle_beta 90.000000
_cell_angle_gamma 90.000000
_cell_volume 2073.223243
_symmetry_space_group_name_H-M "P N N N"
_symmetry_group_IT_number 48
_space_group.IT_coordinate_system_code '2'
_symmetry_cell_setting 'orthorhombic'
loop_
_space_group_symop_operation_xyz
x,y,z
1/2-x,1/2-y,z
x,1/2-y,1/2-z
1/2-x,y,1/2-z
-x,-y,-z
1/2+x,1/2+y,-z
-x,1/2+y,1/2+z
1/2+x,-y,1/2+z
loop_
_atom_site_type_symbol
_atom_site_label
_atom_site_fract_x
_atom_site_fract_y
_atom_site_fract_z
Si Si1 0.250000 0.750000 0.750000
Si Si2 0.739074 0.647770 0.650861
Si Si3 0.922495 0.176608 0.585321
Si Si4 0.117678 0.323928 0.519646
Si Si5 0.750000 0.250000 0.750000
Si Si6 0.291904 0.432749 0.648369
Si Si7 0.395927 0.621330 0.608268
O O1 0.347423 0.691726 0.681997
O O2 0.750000 0.750000 0.661892
O O3 0.750000 0.608528 0.750000
O O4 0.871804 0.634177 0.579098
O O5 0.578464 0.622155 0.609289
O O6 0.839239 0.191163 0.679269
O O7 0.847941 0.138346 0.495128
O O8 0.975751 0.269708 0.549593
O O9 0.063491 0.117780 0.611516
O O10 0.250000 0.250000 0.522608
O O11 0.156241 0.397912 0.588503
O O12 0.250000 0.410751 0.750000
O O13 0.328072 0.531867 0.638554
#
# Coordination Sequence:
#
# PCOD9389762 Si02
#       7
#     2   8   8   8   2   8   8
#     4  12  26  40  62  98 142 172 214 266 348 406
#     4  10  18  35  63  96 123 165 227 267 312 384
#     4  11  23  43  68  94 133 176 219 270 327 399
#     4   9  18  37  66  97 119 170 221 269 313 378
#     4  12  26  44  66  94 132 174 210 270 344 402
#     4  11  22  41  66  99 132 171 225 271 327 387
#     4  12  23  42  66  96 135 175 216 277 331 395
#
# _framework density 21.222991
#
# number of rings (size 3 to 8) (size 9 to 14) (size 15 to 20)
#    0.000    1.273    6.364    3.273    0.000    2.545 
#    1.636    0.000    0.000    4.364    0.000    0.000 
#    0.000    0.000    0.000    0.000    0.000    0.000 
#
# Total GULP energy -245424.930765 kJ/mol
# GULP energy per Si atom -5577.839336 kJ/mol
# Density = 2.117469 g / cm^3
# Si number density = 21.222991 Si / 1000 Ang^3
#
#
#
# Elastic Constant Matrix: (Units=GPa)
#
#
# Indices 1 2 3 4 5 6 
#
# 1 17.4378 6.8064 20.1722 0.0000 0.0000 0.0000
# 2 6.8064 68.7358 28.8031 0.0000 0.0000 0.0000
# 3 20.1722 28.8031 212.2987 0.0000 0.0000 0.0000
# 4 0.0000 0.0000 0.0000 -100.5564 0.0000 0.0000
# 5 0.0000 0.0000 0.0000 0.0000 39.2637 0.0000
# 6 0.0000 0.0000 0.0000 0.0000 0.0000 10.0743
#
#
#
# Elastic Compliance Matrix: (Units=1/GPa)
#
#
# Indices 1 2 3 4 5 6 
#
# 1 0.065507 -0.004112 -0.005666 0.000000 0.000000 0.000000
# 2 -0.004112 0.015684 -0.001737 0.000000 0.000000 0.000000
# 3 -0.005666 -0.001737 0.005484 0.000000 0.000000 0.000000
# 4 0.000000 0.000000 0.000000 -0.009945 0.000000 0.000000
# 5 0.000000 0.000000 0.000000 0.000000 0.025469 0.000000
# 6 0.000000 0.000000 0.000000 0.000000 0.000000 0.099263
#
#
# Mechanical properties :
#
#
# Convention : Reuss Voigt Hill
#
# Bulk Modulus (GPa) = 15.71253 45.55949 30.63601
# Shear Modulus (GPa) = 20.34937 5.93570 13.14254
#
# Velocity S-wave (km/s) = 3.09987 1.67419 2.49119
# Velocity P-wave (km/s) = 4.49798 5.02502 4.76879
#
# Compressibility (1/GPa) = 0.06364348
#
# Stress axis : x y z
#
# Youngs Moduli (GPa) = 15.26558 63.76095 182.33437
#
# Poissons Ratio (x) = 0.26220 1.03318
# Poissons Ratio (y) = 0.06277 0.31673
# Poissons Ratio (z) = 0.08650 0.11076
#
# Static dielectric constant tensor:
#      x y z
#    x 1.820960 0.000000 0.000000 
#    y 0.000000 1.731400 0.000000 
#    z 0.000000 0.000000 1.905020 
# 
# From -- ./inp_files/26416.got.cif
#   From: 2010.05.17/outbox.cif.g08.bks.cpg/sg48_14_cif.got.tgz:26416.got - 2010.06.03 20:39:00.
