data_PCOD9389989
_publ_section_title
;
Structure prediction by ZEFSAII (Michael W. Deem and Ramdas Pophale) SiO2 
 PCOD9389989
Probable space group: P N N N
;
_chemical_formula_sum "Si O2"
_cell_formula_units_Z 38
_cell_length_a 21.594956
_cell_length_b 5.633886
_cell_length_c 13.060357
_cell_angle_alpha 90.000000
_cell_angle_beta 90.000000
_cell_angle_gamma 90.000000
_cell_volume 1588.969009
_symmetry_space_group_name_H-M "P N N N"
_symmetry_group_IT_number 48
_space_group.IT_coordinate_system_code '2'
_symmetry_cell_setting 'orthorhombic'
loop_
_space_group_symop_operation_xyz
x,y,z
1/2-x,1/2-y,z
x,1/2-y,1/2-z
1/2-x,y,1/2-z
-x,-y,-z
1/2+x,1/2+y,-z
-x,1/2+y,1/2+z
1/2+x,-y,1/2+z
loop_
_atom_site_type_symbol
_atom_site_label
_atom_site_fract_x
_atom_site_fract_y
_atom_site_fract_z
Si Si1 0.750000 0.250000 0.250000
Si Si2 0.559402 0.750000 0.250000
Si Si3 0.838421 0.700996 0.903950
Si Si4 0.149686 0.698310 0.395260
Si Si5 0.966841 0.019596 0.609657
Si Si6 0.161310 0.039269 0.897767
O O1 0.790469 0.426668 0.319837
O O2 0.518445 0.547817 0.304632
O O3 0.602520 0.627920 0.165125
O O4 0.815451 0.442733 0.872728
O O5 0.913152 0.678952 0.890883
O O6 0.824628 0.952195 0.851995
O O7 0.821605 0.747338 0.023343
O O8 0.148916 0.663347 0.517869
O O9 0.922218 0.249371 0.627610
O O10 0.000000 0.000000 0.500000
#
# Coordination Sequence:
#
# PCOD9389989 Si02
#       6
#     2   4   8   8   8   8
#     4  12  28  38  56  92 118 162 242 264 326 378
#     4  12  22  37  60  92 126 169 226 256 330 384
#     4   8  18  38  59  75 112 164 200 253 304 375
#     4   8  18  39  58  76 111 165 198 250 304 380
#     4  10  19  35  57  86 114 168 208 258 305 402
#     4  10  24  40  55  82 121 168 206 276 296 382
#
# _framework density 23.914877000000001
#
# number of rings (size 3 to 8) (size 9 to 14) (size 15 to 20)
#    2.526    0.000    2.105    0.000    5.895    3.789 
#    0.000    0.000    0.000    0.000    0.000    0.000 
#    0.000    0.842    0.000   10.105    0.000    3.158 
#
# Total GULP energy -211537.135040 kJ/mol
# GULP energy per Si atom -5566.766712 kJ/mol
# Density = 2.386045 g / cm^3
# Si number density = 23.914877 Si / 1000 Ang^3
#
#
#
# Elastic Constant Matrix: (Units=GPa)
#
#
# Indices 1 2 3 4 5 6 
#
# 1 106.7677 26.9672 36.8525 0.0000 0.0000 0.0000
# 2 26.9672 197.5879 22.2651 0.0000 0.0000 0.0000
# 3 36.8525 22.2651 135.1483 0.0000 0.0000 0.0000
# 4 0.0000 0.0000 0.0000 -17.2726 0.0000 0.0000
# 5 0.0000 0.0000 0.0000 0.0000 -4.7540 0.0000
# 6 0.0000 0.0000 0.0000 0.0000 0.0000 -491.5265
#
#
#
# Elastic Compliance Matrix: (Units=1/GPa)
#
#
# Indices 1 2 3 4 5 6 
#
# 1 0.010586 -0.001141 -0.002699 0.000000 0.000000 0.000000
# 2 -0.001141 0.005280 -0.000559 0.000000 0.000000 0.000000
# 3 -0.002699 -0.000559 0.008227 0.000000 0.000000 0.000000
# 4 0.000000 0.000000 0.000000 -0.057895 0.000000 0.000000
# 5 0.000000 0.000000 0.000000 0.000000 -0.210350 0.000000
# 6 0.000000 0.000000 0.000000 0.000000 0.000000 -0.002034
#
#
# Mechanical properties :
#
#
# Convention : Reuss Voigt Hill
#
# Bulk Modulus (GPa) = 65.37446 67.96374 66.66910
# Shear Modulus (GPa) = -21.52465 -79.14936 -50.33700
#
# Velocity S-wave (km/s) = -3.00334 -5.75918 -4.59283
# Velocity P-wave (km/s) = 3.92032 3.96780 0.43276
#
# Compressibility (1/GPa) = 0.01529649
#
# Stress axis : x y z
#
# Youngs Moduli (GPa) = 94.46702 189.40533 121.54807
#
# Poissons Ratio (x) = 0.21605 0.32801
# Poissons Ratio (y) = 0.10776 0.06792
# Poissons Ratio (z) = 0.25493 0.10583
#
# Static dielectric constant tensor:
#      x y z
#    x 2.394020 0.000000 0.000000 
#    y 0.000000 1.968110 0.000000 
#    z 0.000000 0.000000 1.898670 
# 
# From -- ./inp_files/23525.got.cif
#   From: 2010.05.17/outbox.cif.g08.bks.cpg/sg48_12_cif.got.tgz:23525.got - 2010.06.03 20:39:00.
