data_PCOD9389533
_publ_section_title
;
Structure prediction by ZEFSAII (Michael W. Deem and Ramdas Pophale) SiO2 
 PCOD9389533
Probable space group: P N N N
;
_chemical_formula_sum "Si O2"
_cell_formula_units_Z 52
_cell_length_a 18.167540
_cell_length_b 12.396408
_cell_length_c 9.710151
_cell_angle_alpha 90.000000
_cell_angle_beta 90.000000
_cell_angle_gamma 90.000000
_cell_volume 2186.844840
_symmetry_space_group_name_H-M "P N N N"
_symmetry_group_IT_number 48
_space_group.IT_coordinate_system_code '2'
_symmetry_cell_setting 'orthorhombic'
loop_
_space_group_symop_operation_xyz
x,y,z
1/2-x,1/2-y,z
x,1/2-y,1/2-z
1/2-x,y,1/2-z
-x,-y,-z
1/2+x,1/2+y,-z
-x,1/2+y,1/2+z
1/2+x,-y,1/2+z
loop_
_atom_site_type_symbol
_atom_site_label
_atom_site_fract_x
_atom_site_fract_y
_atom_site_fract_z
Si Si1 0.334269 0.717067 0.530156
Si Si2 0.462317 0.390013 0.826383
Si Si3 0.338149 0.447237 0.126771
Si Si4 0.914600 0.250000 0.750000
Si Si5 0.336777 0.252549 0.945361
Si Si6 0.165559 0.022520 0.441112
Si Si7 0.568636 0.101127 0.424213
O O1 0.250000 0.750000 0.554993
O O2 0.360577 0.755924 0.378147
O O3 0.346214 0.588826 0.523200
O O4 0.386444 0.794970 0.617872
O O5 0.524790 0.343736 0.726695
O O6 0.500585 0.369872 0.977079
O O7 0.385786 0.326130 0.842478
O O8 0.453338 0.517129 0.807054
O O9 0.344274 0.321388 0.087161
O O10 0.361682 0.472463 0.282601
O O11 0.253288 0.472092 0.090203
O O12 0.382670 0.523332 0.022994
O O13 0.250000 0.250000 0.908591
O O14 0.358865 0.128945 0.975118
#
# Coordination Sequence:
#
# PCOD9389533 Si02
#       7
#     8   8   8   4   8   8   8
#     4  11  19  28  48  81 110 128 161 201 268 327
#     4   9  18  33  50  66  98 134 177 206 249 305
#     4   9  16  26  43  68 102 135 159 197 255 313
#     4  10  21  32  49  74 100 138 170 220 251 300
#     4   9  18  31  45  65  95 136 175 209 252 297
#     4  10  17  25  43  72 105 128 160 201 248 320
#     4   9  17  31  47  70 102 139 159 197 258 317
#
# _framework density 23.778549999999999
#
# number of rings (size 3 to 8) (size 9 to 14) (size 15 to 20)
#    0.000    2.462    1.538    2.538    2.154    1.846 
#    0.000    3.462    0.000    0.000    0.000    3.231 
#    0.000    1.231    0.000    0.000    0.000    5.846 
#
# Total GULP energy -290038.337438 kJ/mol
# GULP energy per Si atom -5577.660335 kJ/mol
# Density = 2.372443 g / cm^3
# Si number density = 23.778550 Si / 1000 Ang^3
#
#
#
# Elastic Constant Matrix: (Units=GPa)
#
#
# Indices 1 2 3 4 5 6 
#
# 1 88.0674 25.8641 2.8859 0.0000 0.0000 0.0000
# 2 25.8641 202.6349 23.8641 0.0000 0.0000 0.0000
# 3 2.8859 23.8641 44.0930 0.0000 0.0000 0.0000
# 4 0.0000 0.0000 0.0000 25.0857 0.0000 0.0000
# 5 0.0000 0.0000 0.0000 0.0000 -11.5632 0.0000
# 6 0.0000 0.0000 0.0000 0.0000 0.0000 39.4240
#
#
#
# Elastic Compliance Matrix: (Units=1/GPa)
#
#
# Indices 1 2 3 4 5 6 
#
# 1 0.011797 -0.001511 0.000046 0.000000 0.000000 0.000000
# 2 -0.001511 0.005465 -0.002859 0.000000 0.000000 0.000000
# 3 0.000046 -0.002859 0.024223 0.000000 0.000000 0.000000
# 4 0.000000 0.000000 0.000000 0.039863 0.000000 0.000000
# 5 0.000000 0.000000 0.000000 0.000000 -0.086482 0.000000
# 6 0.000000 0.000000 0.000000 0.000000 0.000000 0.025365
#
#
# Mechanical properties :
#
#
# Convention : Reuss Voigt Hill
#
# Bulk Modulus (GPa) = 30.45330 48.89151 39.67240
# Shear Modulus (GPa) = 125.54563 29.40139 77.47351
#
# Velocity S-wave (km/s) = 7.27410 3.52016 5.71419
# Velocity P-wave (km/s) = 9.13153 6.09326 7.76249
#
# Compressibility (1/GPa) = 0.03283716
#
# Stress axis : x y z
#
# Youngs Moduli (GPa) = 84.76552 182.99851 41.28225
#
# Poissons Ratio (x) = 0.27654 -0.00189
# Poissons Ratio (y) = 0.12810 0.11801
# Poissons Ratio (z) = -0.00388 0.52312
#
# Static dielectric constant tensor:
#      x y z
#    x 1.913030 0.000000 0.000000 
#    y 0.000000 1.993350 0.000000 
#    z 0.000000 0.000000 1.959250 
# 
# From -- ./inp_files/27996.got.cif
#   From: 2010.05.17/outbox.cif.g08.bks.cpg/sg48_14_cif.got.tgz:27996.got - 2010.06.03 20:39:00.
