data_PCOD9389285
_publ_section_title
;
Structure prediction by ZEFSAII (Michael W. Deem and Ramdas Pophale) SiO2 
 PCOD9389285
Probable space group: P M M M
;
_chemical_formula_sum "Si O2"
_cell_formula_units_Z 52
_cell_length_a 27.000000
_cell_length_b 9.000000
_cell_length_c 12.000000
_cell_angle_alpha 90.000000
_cell_angle_beta 90.000000
_cell_angle_gamma 90.000000
_cell_volume 2916.000000
_symmetry_space_group_name_H-M "P M M M"
_symmetry_group_IT_number 47
_symmetry_cell_setting 'orthorhombic'
loop_
_space_group_symop_operation_xyz
x,y,z
-x,-y,z
x,-y,-z
-x,y,-z
-x,-y,-z
x,y,-z
-x,y,z
x,-y,z
loop_
_atom_site_type_symbol
_atom_site_label
_atom_site_fract_x
_atom_site_fract_y
_atom_site_fract_z
Si Si1 0.592782 0.327143 0.368567
Si Si2 0.747726 0.320596 0.000000
Si Si3 0.783903 0.324553 0.241730
Si Si4 0.110934 0.677203 0.365444
Si Si5 0.367963 0.678597 0.000000
Si Si6 0.555294 0.824014 0.835214
Si Si7 0.695394 0.169127 0.632633
Si Si8 0.942683 0.000000 0.634346
O O1 0.583820 0.308519 0.500000
O O2 0.585523 0.500000 0.340008
O O3 0.559522 0.222394 0.293112
O O4 0.649233 0.276961 0.345737
O O5 0.776738 0.278663 0.112616
O O6 0.745638 0.500000 0.000000
O O7 0.689770 0.271095 0.000000
O O8 0.770948 0.500000 0.249978
O O9 0.838085 0.309214 0.295911
O O10 0.744195 0.229725 0.309533
O O11 0.118889 0.682722 0.500000
O O12 0.093017 0.500000 0.345163
O O13 0.081006 0.833783 0.337127
O O14 0.400149 0.740183 0.897056
O O15 0.368233 0.500000 0.000000
O O16 0.500000 0.782415 0.874598
O O17 0.561059 0.000000 0.850836
O O18 0.703167 0.167816 0.500000
O O19 0.683615 0.000000 0.668135
O O20 0.941922 0.000000 0.500000
O O21 0.000000 0.000000 0.672423
#
# Coordination Sequence:
#
# PCOD9389285 Si02
#       8
#     8   4   8   8   4   8   8   4
#     4  10  21  37  56  78 105 135 170 214 262 319
#     4   9  20  36  54  77 104 137 174 214 265 321
#     4  10  19  33  52  75 106 142 181 224 271 324
#     4   9  18  31  51  80 112 149 190 233 280 329
#     4  11  22  38  61  84 106 134 173 220 264 316
#     4  11  24  40  58  79 104 135 170 214 268 322
#     4  10  20  32  50  76 105 139 174 212 262 323
#     4   9  18  32  52  79 115 155 189 232 283 328
#
# _framework density 17.832647000000001
#
# number of rings (size 3 to 8) (size 9 to 14) (size 15 to 20)
#    0.000    2.077    0.000    3.231    1.077    6.462 
#    0.000    4.231    0.000    0.000    0.000    1.077 
#    0.000    3.077    0.000    0.000    0.000    0.000 
#
# Total GULP energy -289728.252460 kJ/mol
# GULP energy per Si atom -5571.697163 kJ/mol
# Density = 1.779206 g / cm^3
# Si number density = 17.832647 Si / 1000 Ang^3
#
#
#
# Elastic Constant Matrix: (Units=GPa)
#
#
# Indices 1 2 3 4 5 6 
#
# 1 77.6800 32.7408 45.5779 0.0000 0.0000 0.0000
# 2 32.7408 77.8361 34.6017 0.0000 0.0000 0.0000
# 3 45.5779 34.6017 47.9846 0.0000 0.0000 0.0000
# 4 0.0000 0.0000 0.0000 19.2495 0.0000 0.0000
# 5 0.0000 0.0000 0.0000 0.0000 16.8443 0.0000
# 6 0.0000 0.0000 0.0000 0.0000 0.0000 31.8888
#
#
#
# Elastic Compliance Matrix: (Units=1/GPa)
#
#
# Indices 1 2 3 4 5 6 
#
# 1 0.029080 0.000069 -0.027671 0.000000 0.000000 0.000000
# 2 0.000069 0.018909 -0.013701 0.000000 0.000000 0.000000
# 3 -0.027671 -0.013701 0.057003 0.000000 0.000000 0.000000
# 4 0.000000 0.000000 0.000000 0.051949 0.000000 0.000000
# 5 0.000000 0.000000 0.000000 0.000000 0.059367 0.000000
# 6 0.000000 0.000000 0.000000 0.000000 0.000000 0.031359
#
#
# Mechanical properties :
#
#
# Convention : Reuss Voigt Hill
#
# Bulk Modulus (GPa) = 44.67085 47.70461 46.18773
# Shear Modulus (GPa) = 14.80442 19.63520 17.21981
#
# Velocity S-wave (km/s) = 2.88442 3.32185 3.11084
# Velocity P-wave (km/s) = 6.01644 6.44378 6.23378
#
# Compressibility (1/GPa) = 0.02238596
#
# Stress axis : x y z
#
# Youngs Moduli (GPa) = 34.38767 52.88437 17.54285
#
# Poissons Ratio (x) = -0.00365 0.48544
# Poissons Ratio (y) = -0.00237 0.24035
# Poissons Ratio (z) = 0.95156 0.72456
#
# Static dielectric constant tensor:
#      x y z
#    x 1.597600 0.000000 0.000000 
#    y 0.000000 1.620900 0.000000 
#    z 0.000000 0.000000 1.645440 
# 
# From -- ./inp_files/19857.got.cif
#   From: 2010.05.17/outbox.ucp.g08.bks.cvg/sg47_10_cif.got.tgz:19857.got - 2010.06.11 16:36:43.
