data_PCOD9389687
_publ_section_title
;
Structure prediction by ZEFSAII (Michael W. Deem and Ramdas Pophale) SiO2 
 PCOD9389687
Probable space group: P N N N
;
_chemical_formula_sum "Si O2"
_cell_formula_units_Z 58
_cell_length_a 16.012906
_cell_length_b 8.807427
_cell_length_c 22.204239
_cell_angle_alpha 90.000000
_cell_angle_beta 90.000000
_cell_angle_gamma 90.000000
_cell_volume 3131.519351
_symmetry_space_group_name_H-M "P N N N"
_symmetry_group_IT_number 48
_space_group.IT_coordinate_system_code '2'
_symmetry_cell_setting 'orthorhombic'
loop_
_space_group_symop_operation_xyz
x,y,z
1/2-x,1/2-y,z
x,1/2-y,1/2-z
1/2-x,y,1/2-z
-x,-y,-z
1/2+x,1/2+y,-z
-x,1/2+y,1/2+z
1/2+x,-y,1/2+z
loop_
_atom_site_type_symbol
_atom_site_label
_atom_site_fract_x
_atom_site_fract_y
_atom_site_fract_z
Si Si1 0.381555 0.736164 0.152850
Si Si2 0.750000 0.250000 0.750000
Si Si3 0.844871 0.736485 0.139472
Si Si4 0.837858 0.820995 0.503399
Si Si5 0.028613 0.997938 0.838847
Si Si6 0.663961 0.319885 0.519473
Si Si7 0.493828 0.656269 0.960564
Si Si8 0.481935 0.089746 0.786501
O O1 0.315198 0.678490 0.202396
O O2 0.450530 0.606728 0.144893
O O3 0.342113 0.773182 0.089299
O O4 0.432359 0.885907 0.176565
O O5 0.750000 0.750000 0.161485
O O6 0.844681 0.707468 0.068295
O O7 0.890265 0.896791 0.151386
O O8 0.901234 0.606203 0.171111
O O9 0.750000 0.750000 0.524287
O O10 0.918304 0.742023 0.532537
O O11 0.836159 0.999718 0.514384
O O12 0.021157 0.967263 0.767056
O O13 0.025942 0.872518 0.890263
O O14 0.750000 0.250000 0.494202
O O15 0.582142 0.252200 0.487942
O O16 0.500000 0.500000 0.000000
O O17 0.479633 0.250000 0.750000
#
# Coordination Sequence:
#
# PCOD9389687 Si02
#       8
#     8   2   8   8   8   8   8   8
#     4  10  18  32  55  87 116 150 199 247 287 342
#     4  12  16  28  56  88 112 148 188 266 278 336
#     4   9  17  31  57  82 117 151 199 250 287 338
#     4  11  24  40  59  88 121 157 203 252 298 363
#     4  10  19  33  56  85 120 151 192 247 297 348
#     4  12  25  37  60  90 121 161 203 242 303 365
#     4  12  21  38  62  86 123 162 196 243 310 356
#     4   8  16  31  49  84 117 142 195 244 284 332
#
# _framework density 18.521359
#
# number of rings (size 3 to 8) (size 9 to 14) (size 15 to 20)
#    0.000    1.931    5.517    2.069    1.931    2.483 
#    0.000    0.000    0.000    3.310    0.000    0.966 
#    0.000    0.000    0.000    0.000    0.000    0.000 
#
# Total GULP energy -323093.774342 kJ/mol
# GULP energy per Si atom -5570.582316 kJ/mol
# Density = 1.847920 g / cm^3
# Si number density = 18.521359 Si / 1000 Ang^3
#
#
#
# Elastic Constant Matrix: (Units=GPa)
#
#
# Indices 1 2 3 4 5 6 
#
# 1 168.0745 50.7353 36.9037 0.0000 0.0000 0.0000
# 2 50.7353 71.3086 7.5200 0.0000 0.0000 0.0000
# 3 36.9037 7.5200 79.9463 0.0000 0.0000 0.0000
# 4 0.0000 0.0000 0.0000 -469.8062 0.0000 0.0000
# 5 0.0000 0.0000 0.0000 0.0000 25.8868 0.0000
# 6 0.0000 0.0000 0.0000 0.0000 0.0000 19.8412
#
#
#
# Elastic Compliance Matrix: (Units=1/GPa)
#
#
# Indices 1 2 3 4 5 6 
#
# 1 0.008375 -0.005607 -0.003339 0.000000 0.000000 0.000000
# 2 -0.005607 0.017918 0.000903 0.000000 0.000000 0.000000
# 3 -0.003339 0.000903 0.013965 0.000000 0.000000 0.000000
# 4 0.000000 0.000000 0.000000 -0.002129 0.000000 0.000000
# 5 0.000000 0.000000 0.000000 0.000000 0.038630 0.000000
# 6 0.000000 0.000000 0.000000 0.000000 0.000000 0.050400
#
#
# Mechanical properties :
#
#
# Convention : Reuss Voigt Hill
#
# Bulk Modulus (GPa) = 41.37023 56.62748 48.99885
# Shear Modulus (GPa) = 33.04652 -69.87096 -18.41222
#
# Velocity S-wave (km/s) = 4.22861 -6.14869 -3.15637
# Velocity P-wave (km/s) = 6.79901 4.44613 3.63720
#
# Compressibility (1/GPa) = 0.02417197
#
# Stress axis : x y z
#
# Youngs Moduli (GPa) = 119.39860 55.81115 71.60940
#
# Poissons Ratio (x) = 0.31292 0.23908
# Poissons Ratio (y) = 0.66945 -0.06465
# Poissons Ratio (z) = 0.39864 -0.05038
#
# Static dielectric constant tensor:
#      x y z
#    x 1.670440 0.000000 0.000000 
#    y 0.000000 1.638400 0.000000 
#    z 0.000000 0.000000 1.690290 
# 
# From -- ./inp_files/36546.got.cif
#   From: 2010.05.17/outbox.cif.g08.bks.cpg/sg48_19_cif.got.tgz:36546.got - 2010.06.03 20:39:00.
