data_PCOD9389144
_publ_section_title
;
Structure prediction by ZEFSAII (Michael W. Deem and Ramdas Pophale) SiO2 
 PCOD9389144
Probable space group: P M M M
;
_chemical_formula_sum "Si O2"
_cell_formula_units_Z 44
_cell_length_a 10.185215
_cell_length_b 30.976760
_cell_length_c 7.952484
_cell_angle_alpha 90.000000
_cell_angle_beta 90.000000
_cell_angle_gamma 90.000000
_cell_volume 2509.048151
_symmetry_space_group_name_H-M "P M M M"
_symmetry_group_IT_number 47
_symmetry_cell_setting 'orthorhombic'
loop_
_space_group_symop_operation_xyz
x,y,z
-x,-y,z
x,-y,-z
-x,y,-z
-x,-y,-z
x,y,-z
-x,y,z
x,-y,z
loop_
_atom_site_type_symbol
_atom_site_label
_atom_site_fract_x
_atom_site_fract_y
_atom_site_fract_z
Si Si1 0.648698 0.877724 0.797713
Si Si2 0.840237 0.610095 0.306238
Si Si3 0.839774 0.450241 0.000000
Si Si4 0.148561 0.706627 0.701769
Si Si5 0.850937 0.048389 0.702345
Si Si6 0.649437 0.219335 0.797396
O O1 0.500000 0.886984 0.738060
O O2 0.750290 0.914554 0.750311
O O3 0.684944 0.829260 0.739170
O O4 0.644452 0.876215 0.000000
O O5 0.796611 0.602696 0.500000
O O6 0.797895 0.575223 0.168358
O O7 0.805160 0.658639 0.247377
O O8 0.000000 0.609694 0.310660
O O9 0.797925 0.500000 0.000000
O O10 0.000000 0.449823 0.000000
O O11 0.140198 0.704539 0.500000
O O12 0.247637 0.744465 0.746633
O O13 0.000000 0.714160 0.766879
O O14 0.854893 0.047038 0.500000
O O15 0.000000 0.057198 0.761630
O O16 0.813530 0.000000 0.761039
O O17 0.500000 0.228466 0.739664
O O18 0.646665 0.218436 0.000000
#
# Coordination Sequence:
#
# PCOD9389144 Si02
#       6
#     8   8   4   8   8   8
#     4   9  19  35  51  69  96 126 156 193 237 285
#     4   8  15  27  40  59  91 124 157 203 248 289
#     4   9  16  24  38  62  89 125 169 201 240 299
#     4   9  18  31  47  69  95 125 162 199 239 289
#     4   9  19  35  52  71  96 124 155 194 238 282
#     4   9  19  34  49  68  96 127 158 195 239 286
#
# _framework density 17.536529999999999
#
# number of rings (size 3 to 8) (size 9 to 14) (size 15 to 20)
#    0.000    3.182    0.000    2.727    1.273    4.000 
#    0.000   10.000    0.000    0.000    0.000    0.000 
#    0.000    1.455    0.000    4.000    0.000    4.000 
#
# Total GULP energy -245044.382549 kJ/mol
# GULP energy per Si atom -5569.190512 kJ/mol
# Density = 1.749662 g / cm^3
# Si number density = 17.536530 Si / 1000 Ang^3
#
#
#
# Elastic Constant Matrix: (Units=GPa)
#
#
# Indices 1 2 3 4 5 6 
#
# 1 67.6122 95.5883 24.5936 0.0000 0.0000 0.0000
# 2 95.5883 195.2818 50.5917 0.0000 0.0000 0.0000
# 3 24.5936 50.5917 41.3260 0.0000 0.0000 0.0000
# 4 0.0000 0.0000 0.0000 35.3646 0.0000 0.0000
# 5 0.0000 0.0000 0.0000 0.0000 21.9693 0.0000
# 6 0.0000 0.0000 0.0000 0.0000 0.0000 -15.3835
#
#
#
# Elastic Compliance Matrix: (Units=1/GPa)
#
#
# Indices 1 2 3 4 5 6 
#
# 1 0.048027 -0.023584 0.000290 0.000000 0.000000 0.000000
# 2 -0.023584 0.019080 -0.009323 0.000000 0.000000 0.000000
# 3 0.000290 -0.009323 0.035439 0.000000 0.000000 0.000000
# 4 0.000000 0.000000 0.000000 0.028277 0.000000 0.000000
# 5 0.000000 0.000000 0.000000 0.000000 0.045518 0.000000
# 6 0.000000 0.000000 0.000000 0.000000 0.000000 -0.065005
#
#
# Mechanical properties :
#
#
# Convention : Reuss Voigt Hill
#
# Bulk Modulus (GPa) = 26.80100 71.75193 49.27647
# Shear Modulus (GPa) = 26.45417 17.28651 21.87034
#
# Velocity S-wave (km/s) = 3.88818 3.14306 3.53530
# Velocity P-wave (km/s) = 5.95595 7.36045 6.69513
#
# Compressibility (1/GPa) = 0.03731203
#
# Stress axis : x y z
#
# Youngs Moduli (GPa) = 20.82177 52.41066 28.21779
#
# Poissons Ratio (x) = 1.23604 -0.00819
# Poissons Ratio (y) = 0.49105 0.26308
# Poissons Ratio (z) = -0.00604 0.48863
#
# Static dielectric constant tensor:
#      x y z
#    x 1.580490 0.000000 0.000000 
#    y 0.000000 1.603740 0.000000 
#    z 0.000000 0.000000 1.630990 
# 
# From -- ./inp_files/1975.got.cif
#   From: 2010.05.17/outbox.cif.g08.bks.cpg/sg47_1_cif.got.tgz:1975.got - 2010.06.03 20:15:42.
