data_PCOD9389502
_publ_section_title
;
Structure prediction by ZEFSAII (Michael W. Deem and Ramdas Pophale) SiO2 
 PCOD9389502
Probable space group: P N N N
;
_chemical_formula_sum "Si O2"
_cell_formula_units_Z 44
_cell_length_a 11.948610
_cell_length_b 9.310274
_cell_length_c 22.378758
_cell_angle_alpha 90.000000
_cell_angle_beta 90.000000
_cell_angle_gamma 90.000000
_cell_volume 2489.521197
_symmetry_space_group_name_H-M "P N N N"
_symmetry_group_IT_number 48
_space_group.IT_coordinate_system_code '2'
_symmetry_cell_setting 'orthorhombic'
loop_
_space_group_symop_operation_xyz
x,y,z
1/2-x,1/2-y,z
x,1/2-y,1/2-z
1/2-x,y,1/2-z
-x,-y,-z
1/2+x,1/2+y,-z
-x,1/2+y,1/2+z
1/2+x,-y,1/2+z
loop_
_atom_site_type_symbol
_atom_site_label
_atom_site_fract_x
_atom_site_fract_y
_atom_site_fract_z
Si Si1 0.944909 0.537336 0.357799
Si Si2 0.379581 0.419306 0.735868
Si Si3 0.436079 0.040149 0.903699
Si Si4 0.120011 0.768338 0.078521
Si Si5 0.750000 0.750000 0.404055
Si Si6 0.119116 0.726153 0.560086
O O1 0.948130 0.501905 0.287798
O O2 0.838286 0.645954 0.369392
O O3 0.926202 0.398368 0.397860
O O4 0.054152 0.621095 0.379660
O O5 0.398177 0.250000 0.750000
O O6 0.250000 0.451444 0.750000
O O7 0.408957 0.454952 0.667622
O O8 0.552051 0.120193 0.914963
O O9 0.335884 0.136424 0.933720
O O10 0.436592 0.879722 0.927635
O O11 0.250000 0.750000 0.092697
O O12 0.108952 0.815152 0.009375
O O13 0.250000 0.750000 0.573463
#
# Coordination Sequence:
#
# PCOD9389502 Si02
#       6
#     8   8   8   8   4   8
#     4  11  20  35  57  85 114 145 181 226 284 331
#     4  11  16  31  57  87 112 139 178 231 282 344
#     4  11  20  35  57  85 114 145 181 226 284 331
#     4  10  23  39  56  75 114 155 199 218 257 329
#     4  10  16  31  54  80 106 144 176 211 276 330
#     4  11  21  36  56  87 118 140 178 237 286 330
#
# _framework density 17.674081000000001
#
# number of rings (size 3 to 8) (size 9 to 14) (size 15 to 20)
#    0.000    1.273    7.273    1.091    0.000    0.727 
#    0.000    4.545    0.000    0.000    0.000    2.545 
#    0.000    0.000    0.000    0.000    0.000    0.000 
#
# Total GULP energy -245341.718857 kJ/mol
# GULP energy per Si atom -5575.948156 kJ/mol
# Density = 1.763385 g / cm^3
# Si number density = 17.674081 Si / 1000 Ang^3
#
#
#
# Elastic Constant Matrix: (Units=GPa)
#
#
# Indices 1 2 3 4 5 6 
#
# 1 107.8362 27.1335 38.1711 0.0000 0.0000 0.0000
# 2 27.1335 65.5766 12.8856 0.0000 0.0000 0.0000
# 3 38.1711 12.8856 65.5029 0.0000 0.0000 0.0000
# 4 0.0000 0.0000 0.0000 26.3300 0.0000 0.0000
# 5 0.0000 0.0000 0.0000 0.0000 79.0218 0.0000
# 6 0.0000 0.0000 0.0000 0.0000 0.0000 6.2243
#
#
#
# Elastic Compliance Matrix: (Units=1/GPa)
#
#
# Indices 1 2 3 4 5 6 
#
# 1 0.012581 -0.003916 -0.006561 0.000000 0.000000 0.000000
# 2 -0.003916 0.017082 -0.001078 0.000000 0.000000 0.000000
# 3 -0.006561 -0.001078 0.019302 0.000000 0.000000 0.000000
# 4 0.000000 0.000000 0.000000 0.037979 0.000000 0.000000
# 5 0.000000 0.000000 0.000000 0.000000 0.012655 0.000000
# 6 0.000000 0.000000 0.000000 0.000000 0.000000 0.160662
#
#
# Mechanical properties :
#
#
# Convention : Reuss Voigt Hill
#
# Bulk Modulus (GPa) = 38.67915 43.92177 41.30046
# Shear Modulus (GPa) = 17.12387 33.03025 25.07706
#
# Velocity S-wave (km/s) = 3.11604 4.32771 3.77086
# Velocity P-wave (km/s) = 5.90580 7.06237 6.50982
#
# Compressibility (1/GPa) = 0.02585372
#
# Stress axis : x y z
#
# Youngs Moduli (GPa) = 79.48334 58.54226 51.80811
#
# Poissons Ratio (x) = 0.22928 0.33992
# Poissons Ratio (y) = 0.31130 0.05585
# Poissons Ratio (z) = 0.52150 0.06311
#
# Static dielectric constant tensor:
#      x y z
#    x 1.592930 0.000000 0.000000 
#    y 0.000000 1.626420 0.000000 
#    z 0.000000 0.000000 1.639940 
# 
# From -- ./inp_files/36207.got.cif
#   From: 2010.05.17/outbox.cif.g08.bks.cpg/sg48_19_cif.got.tgz:36207.got - 2010.06.03 20:39:00.
