data_PCOD9389926
_publ_section_title
;
Structure prediction by ZEFSAII (Michael W. Deem and Ramdas Pophale) SiO2 
 PCOD9389926
Probable space group: P N N N
;
_chemical_formula_sum "Si O2"
_cell_formula_units_Z 46
_cell_length_a 12.677134
_cell_length_b 18.249552
_cell_length_c 10.490425
_cell_angle_alpha 90.000000
_cell_angle_beta 90.000000
_cell_angle_gamma 90.000000
_cell_volume 2426.980974
_symmetry_space_group_name_H-M "P N N N"
_symmetry_group_IT_number 48
_space_group.IT_coordinate_system_code '2'
_symmetry_cell_setting 'orthorhombic'
loop_
_space_group_symop_operation_xyz
x,y,z
1/2-x,1/2-y,z
x,1/2-y,1/2-z
1/2-x,y,1/2-z
-x,-y,-z
1/2+x,1/2+y,-z
-x,1/2+y,1/2+z
1/2+x,-y,1/2+z
loop_
_atom_site_type_symbol
_atom_site_label
_atom_site_fract_x
_atom_site_fract_y
_atom_site_fract_z
Si Si1 0.750000 0.103630 0.250000
Si Si2 0.064897 0.390008 0.439521
Si Si3 0.912304 0.250000 0.750000
Si Si4 0.476471 0.831260 0.809147
Si Si5 0.750000 0.379161 0.750000
Si Si6 0.250000 0.250000 0.750000
Si Si7 0.158814 0.956089 0.008317
Si Si8 0.915559 0.766746 0.455035
O O1 0.647890 0.147885 0.195132
O O2 0.790877 0.058138 0.129425
O O3 0.137912 0.458495 0.469940
O O4 0.113570 0.311522 0.480144
O O5 0.035948 0.383758 0.290247
O O6 0.952866 0.411582 0.505929
O O7 0.845696 0.323041 0.767809
O O8 0.983481 0.255841 0.626665
O O9 0.480616 0.750000 0.750000
O O10 0.541355 0.824020 0.940736
O O11 0.771454 0.425547 0.623732
O O12 0.171539 0.209380 0.649924
#
# Coordination Sequence:
#
# PCOD9389926 Si02
#       8
#     4   8   4   8   4   2   8   8
#     4  10  19  33  58  94 119 153 188 242 318 383
#     4   9  19  37  57  76 114 159 186 244 296 351
#     4  10  20  32  60  84 122 146 186 248 318 362
#     4   9  18  33  59  88 119 148 194 256 310 358
#     4  11  20  34  56  94 117 154 186 242 317 386
#     4  10  24  36  58  78 114 162 216 250 296 338
#     4  10  20  35  56  83 120 151 192 229 300 375
#     4  10  19  39  56  83 114 155 203 255 293 350
#
# _framework density 18.953588
#
# number of rings (size 3 to 8) (size 9 to 14) (size 15 to 20)
#    0.000    2.261    1.739    1.304    0.000    0.696 
#    3.130    3.043    0.000    4.174    0.000    0.000 
#    0.000    0.000    0.000    0.000    0.000    0.000 
#
# Total GULP energy -256114.337178 kJ/mol
# GULP energy per Si atom -5567.702982 kJ/mol
# Density = 1.891045 g / cm^3
# Si number density = 18.953588 Si / 1000 Ang^3
#
#
#
# Elastic Constant Matrix: (Units=GPa)
#
#
# Indices 1 2 3 4 5 6 
#
# 1 79.2732 27.4117 60.4958 0.0000 0.0000 0.0000
# 2 27.4117 68.4541 51.8003 0.0000 0.0000 0.0000
# 3 60.4958 51.8003 134.6914 0.0000 0.0000 0.0000
# 4 0.0000 0.0000 0.0000 -19.4319 0.0000 0.0000
# 5 0.0000 0.0000 0.0000 0.0000 33.7604 0.0000
# 6 0.0000 0.0000 0.0000 0.0000 0.0000 -17.3800
#
#
#
# Elastic Compliance Matrix: (Units=1/GPa)
#
#
# Indices 1 2 3 4 5 6 
#
# 1 0.019325 -0.001651 -0.008045 0.000000 0.000000 0.000000
# 2 -0.001651 0.020746 -0.007237 0.000000 0.000000 0.000000
# 3 -0.008045 -0.007237 0.013821 0.000000 0.000000 0.000000
# 4 0.000000 0.000000 0.000000 -0.051462 0.000000 0.000000
# 5 0.000000 0.000000 0.000000 0.000000 0.029620 0.000000
# 6 0.000000 0.000000 0.000000 0.000000 0.000000 -0.057537
#
#
# Mechanical properties :
#
#
# Convention : Reuss Voigt Hill
#
# Bulk Modulus (GPa) = 49.93468 62.42604 56.18036
# Shear Modulus (GPa) = 332.16337 8.90376 170.53357
#
# Velocity S-wave (km/s) = 13.25260 2.16976 9.49577
# Velocity P-wave (km/s) = 16.14243 6.26777 12.24465
#
# Compressibility (1/GPa) = 0.02002616
#
# Stress axis : x y z
#
# Youngs Moduli (GPa) = 51.74772 48.20257 72.35450
#
# Poissons Ratio (x) = 0.07957 0.58206
# Poissons Ratio (y) = 0.08542 0.52364
# Poissons Ratio (z) = 0.41629 0.34885
#
# Static dielectric constant tensor:
#      x y z
#    x 1.701340 0.000000 0.000000 
#    y 0.000000 1.634910 0.000000 
#    z 0.000000 0.000000 1.671610 
# 
# From -- ./inp_files/20143.got.cif
#   From: 2010.05.17/outbox.cif.g08.bks.cpg/sg48_11_cif.got.tgz:20143.got - 2010.06.03 20:39:00.
