data_PCOD9389343
_publ_section_title
;
Structure prediction by ZEFSAII (Michael W. Deem and Ramdas Pophale) SiO2 
 PCOD9389343
Probable space group: P M M M
;
_chemical_formula_sum "Si O2"
_cell_formula_units_Z 52
_cell_length_a 12.000000
_cell_length_b 9.000000
_cell_length_c 27.000000
_cell_angle_alpha 90.000000
_cell_angle_beta 90.000000
_cell_angle_gamma 90.000000
_cell_volume 2916.000000
_symmetry_space_group_name_H-M "P M M M"
_symmetry_group_IT_number 47
_symmetry_cell_setting 'orthorhombic'
loop_
_space_group_symop_operation_xyz
x,y,z
-x,-y,z
x,-y,-z
-x,y,-z
-x,-y,-z
x,y,-z
-x,y,z
x,-y,z
loop_
_atom_site_type_symbol
_atom_site_label
_atom_site_fract_x
_atom_site_fract_y
_atom_site_fract_z
Si Si1 0.500000 0.327201 0.281444
Si Si2 0.500000 0.175250 0.175536
Si Si3 0.119463 0.319234 0.943215
Si Si4 0.283723 0.827097 0.310791
Si Si5 0.720617 0.675484 0.863028
Si Si6 0.126968 0.177496 0.401094
Si Si7 0.864308 0.669552 0.500000
Si Si8 0.869986 0.828673 0.786059
O O1 0.500000 0.500000 0.269155
O O2 0.500000 0.231807 0.231528
O O3 0.611181 0.279156 0.309104
O O4 0.610293 0.239078 0.150938
O O5 0.500000 0.000000 0.174574
O O6 0.119079 0.500000 0.941299
O O7 0.227704 0.271079 0.914444
O O8 0.000000 0.269427 0.921668
O O9 0.122779 0.275065 0.000000
O O10 0.204063 0.786485 0.355552
O O11 0.208112 0.817289 0.261875
O O12 0.319577 0.000000 0.315302
O O13 0.698630 0.500000 0.863286
O O14 0.818586 0.714062 0.824579
O O15 0.172129 0.248417 0.450865
O O16 0.000000 0.228548 0.392470
O O17 0.123700 0.000000 0.406576
O O18 0.830258 0.500000 0.500000
O O19 0.000000 0.676484 0.500000
O O20 0.000000 0.802783 0.775006
O O21 0.859791 0.000000 0.804385
#
# Coordination Sequence:
#
# PCOD9389343 Si02
#       8
#     4   4   8   8   8   8   4   8
#     4  12  24  38  56  78 104 138 182 227 266 314
#     4  12  24  40  57  73 101 144 184 222 269 324
#     4   8  15  30  53  81 112 142 171 210 264 321
#     4  10  20  35  55  77 106 143 180 218 263 317
#     4  11  21  34  55  82 107 136 179 228 269 311
#     4   9  17  31  53  80 108 140 180 220 258 310
#     4   9  17  29  47  74 109 146 179 215 267 319
#     4  10  20  33  51  77 110 145 175 208 261 325
#
# _framework density 17.832647000000001
#
# number of rings (size 3 to 8) (size 9 to 14) (size 15 to 20)
#    0.000    2.077    1.538    3.462    0.000    4.308 
#    0.000    0.385    0.000    7.385    0.000    8.615 
#    0.000    0.000    0.000    0.000    0.000    0.000 
#
# Total GULP energy -289828.697511 kJ/mol
# GULP energy per Si atom -5573.628798 kJ/mol
# Density = 1.779206 g / cm^3
# Si number density = 17.832647 Si / 1000 Ang^3
#
#
#
# Elastic Constant Matrix: (Units=GPa)
#
#
# Indices 1 2 3 4 5 6 
#
# 1 52.2348 52.0366 19.2567 0.0000 0.0000 0.0000
# 2 52.0366 40.9049 30.4257 0.0000 0.0000 0.0000
# 3 19.2567 30.4257 58.8529 0.0000 0.0000 0.0000
# 4 0.0000 0.0000 0.0000 11.5621 0.0000 0.0000
# 5 0.0000 0.0000 0.0000 0.0000 122.7871 0.0000
# 6 0.0000 0.0000 0.0000 0.0000 0.0000 58.7562
#
#
#
# Elastic Compliance Matrix: (Units=1/GPa)
#
#
# Indices 1 2 3 4 5 6 
#
# 1 -0.040974 0.068489 -0.022001 0.000000 0.000000 0.000000
# 2 0.068489 -0.074760 0.016239 0.000000 0.000000 0.000000
# 3 -0.022001 0.016239 0.015795 0.000000 0.000000 0.000000
# 4 0.000000 0.000000 0.000000 0.086489 0.000000 0.000000
# 5 0.000000 0.000000 0.000000 0.000000 0.008144 0.000000
# 6 0.000000 0.000000 0.000000 0.000000 0.000000 0.017019
#
#
# Mechanical properties :
#
#
# Convention : Reuss Voigt Hill
#
# Bulk Modulus (GPa) = 39.18997 39.49230 39.34113
# Shear Modulus (GPa) = -47.51219 41.97266 -2.76976
#
# Velocity S-wave (km/s) = -5.16732 4.85676 -1.24763
# Velocity P-wave (km/s) = 3.68475 7.32427 4.47591
#
# Compressibility (1/GPa) = 0.02551673
#
# Stress axis : x y z
#
# Youngs Moduli (GPa) = -24.40560 -13.37621 63.31232
#
# Poissons Ratio (x) = 0.91612 1.39291
# Poissons Ratio (y) = 1.67152 -1.02815
# Poissons Ratio (z) = -0.53694 0.21722
#
# Static dielectric constant tensor:
#      x y z
#    x 1.551960 0.000000 0.000000 
#    y 0.000000 1.621310 0.000000 
#    z 0.000000 0.000000 1.622170 
# 
# From -- ./inp_files/33646.got.cif
#   From: 2010.05.17/outbox.ucp.g08.bks.cvg/sg47_17_cif.got.tgz:33646.got - 2010.06.11 16:36:43.
