data_PCOD9389662
_publ_section_title
;
Structure prediction by ZEFSAII (Michael W. Deem and Ramdas Pophale) SiO2 
 PCOD9389662
Probable space group: P N N N
;
_chemical_formula_sum "Si O2"
_cell_formula_units_Z 48
_cell_length_a 26.692853
_cell_length_b 14.358431
_cell_length_c 5.625692
_cell_angle_alpha 90.000000
_cell_angle_beta 90.000000
_cell_angle_gamma 90.000000
_cell_volume 2156.144841
_symmetry_space_group_name_H-M "P N N N"
_symmetry_group_IT_number 48
_space_group.IT_coordinate_system_code '2'
_symmetry_cell_setting 'orthorhombic'
loop_
_space_group_symop_operation_xyz
x,y,z
1/2-x,1/2-y,z
x,1/2-y,1/2-z
1/2-x,y,1/2-z
-x,-y,-z
1/2+x,1/2+y,-z
-x,1/2+y,1/2+z
1/2+x,-y,1/2+z
loop_
_atom_site_type_symbol
_atom_site_label
_atom_site_fract_x
_atom_site_fract_y
_atom_site_fract_z
Si Si1 0.204644 0.089928 0.605601
Si Si2 0.527821 0.099087 0.464765
Si Si3 0.885837 0.650406 0.858040
Si Si4 0.263570 0.600122 0.009132
Si Si5 0.489503 0.110694 0.966546
Si Si6 0.367631 0.509032 0.974827
O O1 0.250000 0.135544 0.750000
O O2 0.172392 0.154166 0.436342
O O3 0.160137 0.050534 0.771892
O O4 0.231673 0.998272 0.495653
O O5 0.517039 0.143075 0.725008
O O6 0.500000 0.000000 0.500000
O O7 0.585175 0.072526 0.414670
O O8 0.506938 0.146706 0.226263
O O9 0.898222 0.750000 0.750000
O O10 0.885789 0.563485 0.675413
O O11 0.930037 0.629642 0.047221
O O12 0.250000 0.650806 0.250000
O O13 0.250000 0.640311 0.750000
O O14 0.321728 0.576089 0.039824
O O15 0.500000 0.000000 0.000000
#
# Coordination Sequence:
#
# PCOD9389662 Si02
#       6
#     8   8   8   8   8   8
#     4   9  20  35  49  65  98 135 175 222 266 309
#     4  10  18  31  55  72  94 122 166 219 259 326
#     4  12  23  34  52  74 100 134 184 234 268 316
#     4   9  17  29  47  65  93 128 166 210 254 292
#     4  10  20  35  53  75  97 126 168 224 274 319
#     4  10  19  32  51  72  94 130 177 218 261 310
#
# _framework density 22.261952999999998
#
# number of rings (size 3 to 8) (size 9 to 14) (size 15 to 20)
#    0.000    2.333    5.000    2.000    0.000    0.667 
#    0.000   10.000    0.000    0.000    0.000    0.000 
#    0.000    0.000    0.000    0.000    0.000  122.500 
#
# Total GULP energy -267367.159742 kJ/mol
# GULP energy per Si atom -5570.149161 kJ/mol
# Density = 2.221128 g / cm^3
# Si number density = 22.261953 Si / 1000 Ang^3
#
#
#
# Elastic Constant Matrix: (Units=GPa)
#
#
# Indices 1 2 3 4 5 6 
#
# 1 179.3628 25.7852 33.9306 0.0000 0.0000 0.0000
# 2 25.7852 67.9352 10.3072 0.0000 0.0000 0.0000
# 3 33.9306 10.3072 147.1472 0.0000 0.0000 0.0000
# 4 0.0000 0.0000 0.0000 -21.4759 0.0000 0.0000
# 5 0.0000 0.0000 0.0000 0.0000 43.2877 0.0000
# 6 0.0000 0.0000 0.0000 0.0000 0.0000 13.9691
#
#
#
# Elastic Compliance Matrix: (Units=1/GPa)
#
#
# Indices 1 2 3 4 5 6 
#
# 1 0.006120 -0.002132 -0.001262 0.000000 0.000000 0.000000
# 2 -0.002132 0.015620 -0.000603 0.000000 0.000000 0.000000
# 3 -0.001262 -0.000603 0.007129 0.000000 0.000000 0.000000
# 4 0.000000 0.000000 0.000000 -0.046564 0.000000 0.000000
# 5 0.000000 0.000000 0.000000 0.000000 0.023101 0.000000
# 6 0.000000 0.000000 0.000000 0.000000 0.000000 0.071587
#
#
# Mechanical properties :
#
#
# Convention : Reuss Voigt Hill
#
# Bulk Modulus (GPa) = 47.89839 59.38791 53.64315
# Shear Modulus (GPa) = 54.37984 28.78433 41.58208
#
# Velocity S-wave (km/s) = 4.94776 3.59971 4.32656
# Velocity P-wave (km/s) = 7.36226 6.63415 7.00767
#
# Compressibility (1/GPa) = 0.02087753
#
# Stress axis : x y z
#
# Youngs Moduli (GPa) = 163.38625 64.01888 140.26951
#
# Poissons Ratio (x) = 0.13646 0.17702
# Poissons Ratio (y) = 0.34827 0.08453
# Poissons Ratio (z) = 0.20619 0.03858
#
# Static dielectric constant tensor:
#      x y z
#    x 1.872470 0.000000 0.000000 
#    y 0.000000 2.081670 0.000000 
#    z 0.000000 0.000000 1.898330 
# 
# From -- ./inp_files/5887.got.cif
#   From: 2010.05.17/outbox.cif.g08.bks.cpg/sg48_3_cif.got.tgz:5887.got - 2010.06.03 20:39:00.
