data_PCOD9389940
_publ_section_title
;
Structure prediction by ZEFSAII (Michael W. Deem and Ramdas Pophale) SiO2 
 PCOD9389940
Probable space group: P N N N
;
_chemical_formula_sum "Si O2"
_cell_formula_units_Z 48
_cell_length_a 24.050208
_cell_length_b 5.118297
_cell_length_c 24.029604
_cell_angle_alpha 90.000000
_cell_angle_beta 90.000000
_cell_angle_gamma 90.000000
_cell_volume 2957.950716
_symmetry_space_group_name_H-M "P N N N"
_symmetry_group_IT_number 48
_space_group.IT_coordinate_system_code '2'
_symmetry_cell_setting 'orthorhombic'
loop_
_space_group_symop_operation_xyz
x,y,z
1/2-x,1/2-y,z
x,1/2-y,1/2-z
1/2-x,y,1/2-z
-x,-y,-z
1/2+x,1/2+y,-z
-x,1/2+y,1/2+z
1/2+x,-y,1/2+z
loop_
_atom_site_type_symbol
_atom_site_label
_atom_site_fract_x
_atom_site_fract_y
_atom_site_fract_z
Si Si1 0.565320 0.609731 0.126329
Si Si2 0.091061 0.411532 0.980362
Si Si3 0.592206 0.381873 0.304937
Si Si4 0.287256 0.497622 0.678326
Si Si5 0.505611 0.688230 0.947179
Si Si6 0.287657 0.000661 0.954108
O O1 0.593537 0.688272 0.067586
O O2 0.597353 0.368515 0.154406
O O3 0.506312 0.482739 0.107445
O O4 0.563677 0.867010 0.165430
O O5 0.044688 0.605782 0.954267
O O6 0.153119 0.516015 0.984453
O O7 0.064149 0.324798 0.039099
O O8 0.565811 0.250000 0.250000
O O9 0.653962 0.483730 0.291361
O O10 0.250000 0.250000 0.691270
O O11 0.300447 0.483991 0.612162
O O12 0.250000 0.750000 0.687754
O O13 0.500000 0.500000 0.000000
O O14 0.250000 0.250000 0.968761
O O15 0.250000 0.750000 0.963674
#
# Coordination Sequence:
#
# PCOD9389940 Si02
#       6
#     8   8   8   8   8   8
#     4  11  20  36  52  69  96 119 159 219 257 313
#     4  10  19  34  53  78  96 123 168 210 263 307
#     4  12  24  36  51  67  92 129 169 217 272 309
#     4  10  20  33  49  60  83 120 167 212 260 298
#     4   9  19  31  57  76  95 122 155 223 261 298
#     4  10  21  30  48  69  95 131 158 202 258 305
#
# _framework density 16.227450000000001
#
# number of rings (size 3 to 8) (size 9 to 14) (size 15 to 20)
#    0.000    1.667    3.333    1.500    9.333    0.333 
#    0.000    0.833    0.000    0.000    0.000    0.000 
#    0.000    0.000    0.000    0.000    0.000    0.833 
#
# Total GULP energy -267616.291357 kJ/mol
# GULP energy per Si atom -5575.339403 kJ/mol
# Density = 1.619052 g / cm^3
# Si number density = 16.227450 Si / 1000 Ang^3
#
#
#
# Elastic Constant Matrix: (Units=GPa)
#
#
# Indices 1 2 3 4 5 6 
#
# 1 92.0552 33.3627 35.3412 0.0000 0.0000 0.0000
# 2 33.3627 116.3951 31.2705 0.0000 0.0000 0.0000
# 3 35.3412 31.2705 45.3792 0.0000 0.0000 0.0000
# 4 0.0000 0.0000 0.0000 30.6934 0.0000 0.0000
# 5 0.0000 0.0000 0.0000 0.0000 16.7668 0.0000
# 6 0.0000 0.0000 0.0000 0.0000 0.0000 -7.5193
#
#
#
# Elastic Compliance Matrix: (Units=1/GPa)
#
#
# Indices 1 2 3 4 5 6 
#
# 1 0.015705 -0.001492 -0.011203 0.000000 0.000000 0.000000
# 2 -0.001492 0.010685 -0.006201 0.000000 0.000000 0.000000
# 3 -0.011203 -0.006201 0.035034 0.000000 0.000000 0.000000
# 4 0.000000 0.000000 0.000000 0.032580 0.000000 0.000000
# 5 0.000000 0.000000 0.000000 0.000000 0.059642 0.000000
# 6 0.000000 0.000000 0.000000 0.000000 0.000000 -0.132991
#
#
# Mechanical properties :
#
#
# Convention : Reuss Voigt Hill
#
# Bulk Modulus (GPa) = 42.31438 50.41983 46.36710
# Shear Modulus (GPa) = 75.38743 18.24518 46.81630
#
# Velocity S-wave (km/s) = 6.82331 3.35676 5.37705
# Velocity P-wave (km/s) = 9.39197 6.79426 8.19668
#
# Compressibility (1/GPa) = 0.02363263
#
# Stress axis : x y z
#
# Youngs Moduli (GPa) = 63.67571 93.58905 28.54332
#
# Poissons Ratio (x) = 0.13961 0.31976
# Poissons Ratio (y) = 0.09499 0.17700
# Poissons Ratio (z) = 0.71334 0.58037
#
# Static dielectric constant tensor:
#      x y z
#    x 1.575600 0.000000 0.000000 
#    y 0.000000 1.640740 0.000000 
#    z 0.000000 0.000000 1.604130 
# 
# From -- ./inp_files/36806.got.cif
#   From: 2010.05.17/outbox.cif.g08.bks.cpg/sg48_19_cif.got.tgz:36806.got - 2010.06.03 20:39:00.
