data_PCOD9389619
_publ_section_title
;
Structure prediction by ZEFSAII (Michael W. Deem and Ramdas Pophale) SiO2 
 PCOD9389619
Probable space group: P N N N
;
_chemical_formula_sum "Si O2"
_cell_formula_units_Z 60
_cell_length_a 21.365066
_cell_length_b 16.211176
_cell_length_c 9.635046
_cell_angle_alpha 90.000000
_cell_angle_beta 90.000000
_cell_angle_gamma 90.000000
_cell_volume 3337.125596
_symmetry_space_group_name_H-M "P N N N"
_symmetry_group_IT_number 48
_space_group.IT_coordinate_system_code '2'
_symmetry_cell_setting 'orthorhombic'
loop_
_space_group_symop_operation_xyz
x,y,z
1/2-x,1/2-y,z
x,1/2-y,1/2-z
1/2-x,y,1/2-z
-x,-y,-z
1/2+x,1/2+y,-z
-x,1/2+y,1/2+z
1/2+x,-y,1/2+z
loop_
_atom_site_type_symbol
_atom_site_label
_atom_site_fract_x
_atom_site_fract_y
_atom_site_fract_z
Si Si1 0.027806 0.750000 0.250000
Si Si2 0.549710 0.168582 0.331771
Si Si3 0.060138 0.248272 0.018214
Si Si4 0.925929 0.094881 0.873855
Si Si5 0.087385 0.064850 0.458888
Si Si6 0.812721 0.797028 0.894435
Si Si7 0.023776 0.494850 0.786538
Si Si8 0.817736 0.976980 0.767335
O O1 0.982589 0.751959 0.382294
O O2 0.069724 0.831313 0.237921
O O3 0.573941 0.250000 0.250000
O O4 0.478954 0.192400 0.376026
O O5 0.580229 0.139733 0.477428
O O6 0.548802 0.086016 0.242295
O O7 0.068473 0.341342 0.070147
O O8 0.129465 0.213050 0.002119
O O9 0.869477 0.032486 0.844679
O O10 0.993614 0.049039 0.848961
O O11 0.152563 0.046314 0.382979
O O12 0.037801 0.005489 0.382299
O O13 0.075938 0.052064 0.623054
O O14 0.750000 0.750000 0.942255
O O15 0.829493 0.750000 0.750000
O O16 0.805854 0.892216 0.852183
O O17 0.750000 0.017959 0.750000
#
# Coordination Sequence:
#
# PCOD9389619 Si02
#       8
#     4   8   8   8   8   8   8   8
#     4  10  22  36  52  82 118 150 190 236 296 352
#     4  11  21  33  55  81 115 151 190 232 298 355
#     4  11  18  33  52  80 113 153 182 228 285 344
#     4  10  22  35  56  82 118 147 192 248 294 347
#     4  10  18  29  53  77 114 144 183 227 283 343
#     4  11  19  32  56  86 115 149 193 233 273 345
#     4  10  19  32  49  84 112 147 181 231 293 351
#     4  11  21  37  58  86 115 153 201 247 290 342
#
# _framework density 17.979545999999999
#
# number of rings (size 3 to 8) (size 9 to 14) (size 15 to 20)
#    0.000    1.467    5.333    2.400    0.000    1.067 
#    0.000    0.667    0.000    0.800    0.000    2.800 
#    0.000    0.000    0.000    0.000    0.000    0.000 
#
# Total GULP energy -334245.671217 kJ/mol
# GULP energy per Si atom -5570.761187 kJ/mol
# Density = 1.793862 g / cm^3
# Si number density = 17.979546 Si / 1000 Ang^3
#
#
#
# Elastic Constant Matrix: (Units=GPa)
#
#
# Indices 1 2 3 4 5 6 
#
# 1 88.0256 32.0983 26.9413 0.0000 0.0000 0.0000
# 2 32.0983 105.3548 23.4377 0.0000 0.0000 0.0000
# 3 26.9413 23.4377 62.4184 0.0000 0.0000 0.0000
# 4 0.0000 0.0000 0.0000 28.5083 0.0000 0.0000
# 5 0.0000 0.0000 0.0000 0.0000 16.3315 0.0000
# 6 0.0000 0.0000 0.0000 0.0000 0.0000 20.0847
#
#
#
# Elastic Compliance Matrix: (Units=1/GPa)
#
#
# Indices 1 2 3 4 5 6 
#
# 1 0.014007 -0.003189 -0.004848 0.000000 0.000000 0.000000
# 2 -0.003189 0.011083 -0.002785 0.000000 0.000000 0.000000
# 3 -0.004848 -0.002785 0.019159 0.000000 0.000000 0.000000
# 4 0.000000 0.000000 0.000000 0.035078 0.000000 0.000000
# 5 0.000000 0.000000 0.000000 0.000000 0.061232 0.000000
# 6 0.000000 0.000000 0.000000 0.000000 0.000000 0.049789
#
#
# Mechanical properties :
#
#
# Convention : Reuss Voigt Hill
#
# Bulk Modulus (GPa) = 44.23900 46.75038 45.49469
# Shear Modulus (GPa) = 22.77623 24.53967 23.65795
#
# Velocity S-wave (km/s) = 3.56305 3.69842 3.63137
# Velocity P-wave (km/s) = 6.44870 6.65553 6.55293
#
# Compressibility (1/GPa) = 0.02260449
#
# Stress axis : x y z
#
# Youngs Moduli (GPa) = 71.39251 90.22918 52.19376
#
# Poissons Ratio (x) = 0.28773 0.25305
# Poissons Ratio (y) = 0.22767 0.14537
# Poissons Ratio (z) = 0.34614 0.25130
#
# Static dielectric constant tensor:
#      x y z
#    x 1.621620 0.000000 0.000000 
#    y 0.000000 1.654250 0.000000 
#    z 0.000000 0.000000 1.687810 
# 
# From -- ./inp_files/23007.got.cif
#   From: 2010.05.17/outbox.cif.g08.bks.cpg/sg48_12_cif.got.tgz:23007.got - 2010.06.03 20:39:00.
