data_PCOD9389241
_publ_section_title
;
Structure prediction by ZEFSAII (Michael W. Deem and Ramdas Pophale) SiO2 
 PCOD9389241
Probable space group: P M M M
;
_chemical_formula_sum "Si O2"
_cell_formula_units_Z 64
_cell_length_a 9.000000
_cell_length_b 24.000000
_cell_length_c 15.000000
_cell_angle_alpha 90.000000
_cell_angle_beta 90.000000
_cell_angle_gamma 90.000000
_cell_volume 3240.000000
_symmetry_space_group_name_H-M "P M M M"
_symmetry_group_IT_number 47
_symmetry_cell_setting 'orthorhombic'
loop_
_space_group_symop_operation_xyz
x,y,z
-x,-y,z
x,-y,-z
-x,y,-z
-x,-y,-z
x,y,-z
-x,y,z
x,-y,z
loop_
_atom_site_type_symbol
_atom_site_label
_atom_site_fract_x
_atom_site_fract_y
_atom_site_fract_z
Si Si1 0.170262 0.134194 0.729832
Si Si2 0.168461 0.364363 0.400541
Si Si3 0.677839 0.161683 0.906149
Si Si4 0.827581 0.256785 0.687599
Si Si5 0.823988 0.402437 0.905526
Si Si6 0.331671 0.561071 0.266420
Si Si7 0.324683 0.286693 0.864708
Si Si8 0.337155 0.066269 0.399869
O O1 0.263104 0.132239 0.819436
O O2 0.205441 0.191969 0.678347
O O3 0.210257 0.085186 0.664872
O O4 0.000000 0.135382 0.754824
O O5 0.187154 0.384430 0.500000
O O6 0.183326 0.297702 0.395221
O O7 0.281184 0.393451 0.335791
O O8 0.000000 0.377454 0.370269
O O9 0.500000 0.161703 0.903553
O O10 0.724005 0.226698 0.901998
O O11 0.728563 0.137292 0.000000
O O12 0.717812 0.281071 0.761390
O O13 0.000000 0.261013 0.719887
O O14 0.766368 0.434782 0.820935
O O15 0.758780 0.340161 0.900545
O O16 0.000000 0.398964 0.901747
O O17 0.778513 0.427770 0.000000
O O18 0.500000 0.570619 0.238188
O O19 0.318354 0.500000 0.307536
O O20 0.500000 0.292836 0.879133
O O21 0.314386 0.087190 0.500000
O O22 0.500000 0.086322 0.368313
O O23 0.342319 0.000000 0.403460
#
# Coordination Sequence:
#
# PCOD9389241 Si02
#       8
#     8   8   8   8   8   8   8   8
#     4  10  20  32  52  84 118 150 185 229 278 328
#     4  10  21  38  61  85 110 144 183 221 266 326
#     4   9  18  32  50  75 111 154 194 229 267 317
#     4   9  18  33  52  78 115 151 181 215 264 324
#     4  11  23  37  56  82 110 141 177 218 268 330
#     4  11  25  43  61  81 106 137 177 230 282 327
#     4  10  18  30  52  80 110 143 181 223 267 315
#     4   9  19  37  59  81 108 146 192 238 281 329
#
# _framework density 19.753086
#
# number of rings (size 3 to 8) (size 9 to 14) (size 15 to 20)
#    0.000    2.125    1.250    2.250    0.000    5.500 
#    0.000    4.375    0.000    0.375    0.000    2.625 
#    0.000    0.000    0.000    0.000    0.000    0.000 
#
# Total GULP energy -356431.307602 kJ/mol
# GULP energy per Si atom -5569.239181 kJ/mol
# Density = 1.970813 g / cm^3
# Si number density = 19.753086 Si / 1000 Ang^3
#
#
#
# Elastic Constant Matrix: (Units=GPa)
#
#
# Indices 1 2 3 4 5 6 
#
# 1 25.1344 17.8223 33.7298 0.0000 0.0000 0.0000
# 2 17.8223 26.2268 26.9642 0.0000 0.0000 0.0000
# 3 33.7298 26.9642 35.0760 0.0000 0.0000 0.0000
# 4 0.0000 0.0000 0.0000 32.1239 0.0000 0.0000
# 5 0.0000 0.0000 0.0000 0.0000 14.1182 0.0000
# 6 0.0000 0.0000 0.0000 0.0000 0.0000 26.3442
#
#
#
# Elastic Compliance Matrix: (Units=1/GPa)
#
#
# Indices 1 2 3 4 5 6 
#
# 1 -0.051936 -0.076577 0.108810 0.000000 0.000000 0.000000
# 2 -0.076577 0.068963 0.020624 0.000000 0.000000 0.000000
# 3 0.108810 0.020624 -0.091979 0.000000 0.000000 0.000000
# 4 0.000000 0.000000 0.000000 0.031129 0.000000 0.000000
# 5 0.000000 0.000000 0.000000 0.000000 0.070830 0.000000
# 6 0.000000 0.000000 0.000000 0.000000 0.000000 0.037959
#
#
# Mechanical properties :
#
#
# Convention : Reuss Voigt Hill
#
# Bulk Modulus (GPa) = 32.50758 27.05222 29.77990
# Shear Modulus (GPa) = -163.97120 15.04532 -74.46294
#
# Velocity S-wave (km/s) = -9.12089 2.76283 -6.14644
# Velocity P-wave (km/s) = 9.71741 4.88902 5.93825
#
# Compressibility (1/GPa) = 0.03076205
#
# Stress axis : x y z
#
# Youngs Moduli (GPa) = -19.25453 14.50052 -10.87202
#
# Poissons Ratio (x) = 1.11041 1.18299
# Poissons Ratio (y) = -1.47445 0.22422
# Poissons Ratio (z) = 2.09509 -0.29905
#
# Static dielectric constant tensor:
#      x y z
#    x 1.695000 0.000000 0.000000 
#    y 0.000000 1.699110 0.000000 
#    z 0.000000 0.000000 1.708670 
# 
# From -- ./inp_files/7831.got.cif
#   From: 2010.05.17/outbox.ucp.g08.bks.cvg/sg47_4_cif.got.tgz:7831.got - 2010.06.11 16:36:43.
