data_PCOD9389766
_publ_section_title
;
Structure prediction by ZEFSAII (Michael W. Deem and Ramdas Pophale) SiO2 
 PCOD9389766
Probable space group: P N N N
;
_chemical_formula_sum "Si O2"
_cell_formula_units_Z 48
_cell_length_a 11.473508
_cell_length_b 13.750407
_cell_length_c 15.624660
_cell_angle_alpha 90.000000
_cell_angle_beta 90.000000
_cell_angle_gamma 90.000000
_cell_volume 2465.030808
_symmetry_space_group_name_H-M "P N N N"
_symmetry_group_IT_number 48
_space_group.IT_coordinate_system_code '2'
_symmetry_cell_setting 'orthorhombic'
loop_
_space_group_symop_operation_xyz
x,y,z
1/2-x,1/2-y,z
x,1/2-y,1/2-z
1/2-x,y,1/2-z
-x,-y,-z
1/2+x,1/2+y,-z
-x,1/2+y,1/2+z
1/2+x,-y,1/2+z
loop_
_atom_site_type_symbol
_atom_site_label
_atom_site_fract_x
_atom_site_fract_y
_atom_site_fract_z
Si Si1 0.536012 0.403119 0.054697
Si Si2 0.700005 0.980286 0.343833
Si Si3 0.635637 0.979880 0.985149
Si Si4 0.477076 0.192722 0.662830
Si Si5 0.205026 0.642943 0.410433
Si Si6 0.381467 0.234222 0.003404
O O1 0.597985 0.441438 0.138615
O O2 0.500000 0.500000 0.000000
O O3 0.639842 0.352540 0.001782
O O4 0.431605 0.326056 0.056333
O O5 0.750000 0.995710 0.250000
O O6 0.791299 0.981414 0.424051
O O7 0.633044 0.877808 0.343575
O O8 0.628460 0.869367 0.951079
O O9 0.700643 0.057571 0.923233
O O10 0.500000 0.000000 0.000000
O O11 0.478528 0.250000 0.750000
O O12 0.595010 0.129184 0.652720
O O13 0.461833 0.265513 0.581929
O O14 0.250000 0.750000 0.388540
O O15 0.250000 0.250000 0.974986
#
# Coordination Sequence:
#
# PCOD9389766 Si02
#       6
#     8   8   8   8   8   8
#     4  10  18  36  57  84 122 165 207 253 306 378
#     4  11  22  37  59  91 129 165 206 268 324 373
#     4  11  22  37  61  91 124 162 221 262 306 389
#     4  11  22  34  55  88 133 165 196 252 331 391
#     4  10  21  38  57  82 125 165 207 249 314 384
#     4  11  19  32  59  90 118 157 213 256 308 368
#
# _framework density 19.472373000000001
#
# number of rings (size 3 to 8) (size 9 to 14) (size 15 to 20)
#    0.000    1.333    5.000    4.000    0.000    0.333 
#    0.000    0.000    0.000   18.000    0.000    1.167 
#    0.000    0.000    0.000    0.000    0.000    0.000 
#
# Total GULP energy -267256.196114 kJ/mol
# GULP energy per Si atom -5567.837419 kJ/mol
# Density = 1.942805 g / cm^3
# Si number density = 19.472373 Si / 1000 Ang^3
#
#
#
# Elastic Constant Matrix: (Units=GPa)
#
#
# Indices 1 2 3 4 5 6 
#
# 1 137.6691 65.4991 36.7146 0.0000 0.0000 0.0000
# 2 65.4991 126.6637 37.1631 0.0000 0.0000 0.0000
# 3 36.7146 37.1631 61.3041 0.0000 0.0000 0.0000
# 4 0.0000 0.0000 0.0000 23.4787 0.0000 0.0000
# 5 0.0000 0.0000 0.0000 0.0000 27.3929 0.0000
# 6 0.0000 0.0000 0.0000 0.0000 0.0000 47.1477
#
#
#
# Elastic Compliance Matrix: (Units=1/GPa)
#
#
# Indices 1 2 3 4 5 6 
#
# 1 0.010233 -0.004249 -0.003552 0.000000 0.000000 0.000000
# 2 -0.004249 0.011367 -0.004346 0.000000 0.000000 0.000000
# 3 -0.003552 -0.004346 0.021074 0.000000 0.000000 0.000000
# 4 0.000000 0.000000 0.000000 0.042592 0.000000 0.000000
# 5 0.000000 0.000000 0.000000 0.000000 0.036506 0.000000
# 6 0.000000 0.000000 0.000000 0.000000 0.000000 0.021210
#
#
# Mechanical properties :
#
#
# Convention : Reuss Voigt Hill
#
# Bulk Modulus (GPa) = 54.41034 67.15449 60.78242
# Shear Modulus (GPa) = 28.83437 32.02120 30.42779
#
# Velocity S-wave (km/s) = 3.85227 4.05957 3.95728
# Velocity P-wave (km/s) = 6.91300 7.51900 7.22236
#
# Compressibility (1/GPa) = 0.01837886
#
# Stress axis : x y z
#
# Youngs Moduli (GPa) = 97.72447 87.97076 47.45100
#
# Poissons Ratio (x) = 0.37381 0.16857
# Poissons Ratio (y) = 0.41525 0.20623
# Poissons Ratio (z) = 0.34716 0.38234
#
# Static dielectric constant tensor:
#      x y z
#    x 1.761030 0.000000 0.000000 
#    y 0.000000 1.824090 0.000000 
#    z 0.000000 0.000000 1.721960 
# 
# From -- ./inp_files/31012.got.cif
#   From: 2010.05.17/outbox.cif.g08.bks.cpg/sg48_16_cif.got.tgz:31012.got - 2010.06.03 20:39:00.
