data_PCOD9389778
_publ_section_title
;
Structure prediction by ZEFSAII (Michael W. Deem and Ramdas Pophale) SiO2 
 PCOD9389778
Probable space group: P N N N
;
_chemical_formula_sum "Si O2"
_cell_formula_units_Z 46
_cell_length_a 16.685517
_cell_length_b 10.045905
_cell_length_c 9.829553
_cell_angle_alpha 90.000000
_cell_angle_beta 90.000000
_cell_angle_gamma 90.000000
_cell_volume 1647.640670
_symmetry_space_group_name_H-M "P N N N"
_symmetry_group_IT_number 48
_space_group.IT_coordinate_system_code '2'
_symmetry_cell_setting 'orthorhombic'
loop_
_space_group_symop_operation_xyz
x,y,z
1/2-x,1/2-y,z
x,1/2-y,1/2-z
1/2-x,y,1/2-z
-x,-y,-z
1/2+x,1/2+y,-z
-x,1/2+y,1/2+z
1/2+x,-y,1/2+z
loop_
_atom_site_type_symbol
_atom_site_label
_atom_site_fract_x
_atom_site_fract_y
_atom_site_fract_z
Si Si1 0.250000 0.750000 0.250000
Si Si2 0.643260 0.531249 0.226935
Si Si3 0.131479 0.750000 0.750000
Si Si4 0.961729 0.303984 0.992665
Si Si5 0.196199 0.488278 0.411466
Si Si6 0.530871 0.458591 0.852428
Si Si7 0.865974 0.915760 0.514851
O O1 0.214338 0.640360 0.359398
O O2 0.673743 0.387269 0.274711
O O3 0.669499 0.539358 0.069877
O O4 0.545807 0.525594 0.242383
O O5 0.663117 0.619650 0.358335
O O6 0.077987 0.769502 0.880965
O O7 0.908070 0.436584 0.968470
O O8 0.054570 0.327520 0.030998
O O9 0.955300 0.197981 0.873320
O O10 0.113222 0.462352 0.329325
O O11 0.282481 0.415608 0.402030
O O12 0.500000 0.500000 0.000000
#
# Coordination Sequence:
#
# PCOD9389778 Si02
#       7
#     2   8   4   8   8   8   8
#     4  12  28  36  62  96 138 176 206 274 352 410
#     4  10  22  40  66  93 128 169 224 278 338 401
#     4  10  18  36  65  93 120 172 216 272 320 415
#     4  10  20  38  61  96 131 171 222 267 343 409
#     4  11  23  42  59  97 136 167 221 277 346 401
#     4  10  20  40  65  91 129 174 221 271 333 411
#     4  10  23  40  65  99 132 170 220 288 336 407
#
# _framework density 27.918707000000001
#
# number of rings (size 3 to 8) (size 9 to 14) (size 15 to 20)
#    0.000    1.739    3.478    1.565    2.435    6.261 
#    0.000    3.478    0.000    5.217    0.000    0.000 
#    0.000    0.000    0.000    0.000    0.000    0.000 
#
# Total GULP energy -256420.404143 kJ/mol
# GULP energy per Si atom -5574.356612 kJ/mol
# Density = 2.785516 g / cm^3
# Si number density = 27.918707 Si / 1000 Ang^3
#
#
#
# Elastic Constant Matrix: (Units=GPa)
#
#
# Indices 1 2 3 4 5 6 
#
# 1 273.6641 9.6563 46.6747 0.0000 0.0000 0.0000
# 2 9.6563 56.3517 10.7746 0.0000 0.0000 0.0000
# 3 46.6747 10.7746 107.6919 0.0000 0.0000 0.0000
# 4 0.0000 0.0000 0.0000 18.1124 0.0000 0.0000
# 5 0.0000 0.0000 0.0000 0.0000 -56.6130 0.0000
# 6 0.0000 0.0000 0.0000 0.0000 0.0000 1.6729
#
#
#
# Elastic Compliance Matrix: (Units=1/GPa)
#
#
# Indices 1 2 3 4 5 6 
#
# 1 0.003953 -0.000357 -0.001678 0.000000 0.000000 0.000000
# 2 -0.000357 0.018124 -0.001659 0.000000 0.000000 0.000000
# 3 -0.001678 -0.001659 0.010179 0.000000 0.000000 0.000000
# 4 0.000000 0.000000 0.000000 0.055211 0.000000 0.000000
# 5 0.000000 0.000000 0.000000 0.000000 -0.017664 0.000000
# 6 0.000000 0.000000 0.000000 0.000000 0.000000 0.597751
#
#
# Mechanical properties :
#
#
# Convention : Reuss Voigt Hill
#
# Bulk Modulus (GPa) = 40.20944 63.54656 51.87800
# Shear Modulus (GPa) = 7.31819 17.34127 12.32973
#
# Velocity S-wave (km/s) = 1.62078 2.49496 2.10378
# Velocity P-wave (km/s) = 4.23511 5.57768 4.95210
#
# Compressibility (1/GPa) = 0.02486978
#
# Stress axis : x y z
#
# Youngs Moduli (GPa) = 252.98492 55.17560 98.24383
#
# Poissons Ratio (x) = 0.01968 0.16480
# Poissons Ratio (y) = 0.09021 0.16296
# Poissons Ratio (z) = 0.42438 0.09152
#
# Static dielectric constant tensor:
#      x y z
#    x 2.216550 0.000000 0.000000 
#    y 0.000000 2.234850 0.000000 
#    z 0.000000 0.000000 2.222400 
# 
# From -- ./inp_files/22173.got.cif
#   From: 2010.05.17/outbox.cif.g08.bks.cpg/sg48_12_cif.got.tgz:22173.got - 2010.06.03 20:39:00.
