data_PCOD9389566
_publ_section_title
;
Structure prediction by ZEFSAII (Michael W. Deem and Ramdas Pophale) SiO2 
 PCOD9389566
Probable space group: P N N N
;
_chemical_formula_sum "Si O2"
_cell_formula_units_Z 42
_cell_length_a 5.180175
_cell_length_b 18.065667
_cell_length_c 24.177575
_cell_angle_alpha 90.000000
_cell_angle_beta 90.000000
_cell_angle_gamma 90.000000
_cell_volume 2262.617655
_symmetry_space_group_name_H-M "P N N N"
_symmetry_group_IT_number 48
_space_group.IT_coordinate_system_code '2'
_symmetry_cell_setting 'orthorhombic'
loop_
_space_group_symop_operation_xyz
x,y,z
1/2-x,1/2-y,z
x,1/2-y,1/2-z
1/2-x,y,1/2-z
-x,-y,-z
1/2+x,1/2+y,-z
-x,1/2+y,1/2+z
1/2+x,-y,1/2+z
loop_
_atom_site_type_symbol
_atom_site_label
_atom_site_fract_x
_atom_site_fract_y
_atom_site_fract_z
Si Si1 0.429662 0.820177 0.344903
Si Si2 0.728257 0.482450 0.683995
Si Si3 0.783731 0.027443 0.121449
Si Si4 0.602388 0.617430 0.048580
Si Si5 0.750000 0.750000 0.250000
Si Si6 0.921027 0.085300 0.484692
O O1 0.250000 0.750000 0.352537
O O2 0.282961 0.897918 0.335819
O O3 0.600187 0.827686 0.399765
O O4 0.587278 0.802752 0.289733
O O5 0.750000 0.485748 0.750000
O O6 0.446807 0.504767 0.662297
O O7 0.950279 0.533506 0.655539
O O8 0.845693 0.960535 0.079203
O O9 0.670171 0.088188 0.079017
O O10 0.321983 0.610715 0.021105
O O11 0.824672 0.629534 0.003460
O O12 0.000000 0.000000 0.500000
#
# Coordination Sequence:
#
# PCOD9389566 Si02
#       6
#     8   8   8   8   2   8
#     4  11  25  36  48  66  91 132 178 221 255 281
#     4  11  22  33  49  69  98 130 168 204 247 289
#     4  10  19  32  50  70  93 119 154 203 256 303
#     4  10  20  31  52  67  90 114 160 210 260 292
#     4  12  26  36  52  58  96 136 186 220 252 268
#     4  10  17  32  50  72  88 111 148 207 261 305
#
# _framework density 18.562571999999999
#
# number of rings (size 3 to 8) (size 9 to 14) (size 15 to 20)
#    0.000    1.524    0.000   10.000   13.333    0.000 
#    0.000    0.000    0.000    0.000    0.000    0.000 
#    0.000    0.000    0.000    0.000    0.000   26.667 
#
# Total GULP energy -234318.627582 kJ/mol
# GULP energy per Si atom -5579.014942 kJ/mol
# Density = 1.852032 g / cm^3
# Si number density = 18.562572 Si / 1000 Ang^3
#
#
#
# Elastic Constant Matrix: (Units=GPa)
#
#
# Indices 1 2 3 4 5 6 
#
# 1 77.8724 5.7601 -8.6749 0.0000 0.0000 0.0000
# 2 5.7601 14.4879 15.8908 0.0000 0.0000 0.0000
# 3 -8.6749 15.8908 56.6855 0.0000 0.0000 0.0000
# 4 0.0000 0.0000 0.0000 -11.2003 0.0000 0.0000
# 5 0.0000 0.0000 0.0000 0.0000 48.0263 0.0000
# 6 0.0000 0.0000 0.0000 0.0000 0.0000 -20.6994
#
#
#
# Elastic Compliance Matrix: (Units=1/GPa)
#
#
# Indices 1 2 3 4 5 6 
#
# 1 0.014315 -0.011688 0.005467 0.000000 0.000000 0.000000
# 2 -0.011688 0.109213 -0.032405 0.000000 0.000000 0.000000
# 3 0.005467 -0.032405 0.027562 0.000000 0.000000 0.000000
# 4 0.000000 0.000000 0.000000 -0.089283 0.000000 0.000000
# 5 0.000000 0.000000 0.000000 0.000000 0.020822 0.000000
# 6 0.000000 0.000000 0.000000 0.000000 0.000000 -0.048311
#
#
# Mechanical properties :
#
#
# Convention : Reuss Voigt Hill
#
# Bulk Modulus (GPa) = 13.54303 19.44421 16.49362
# Shear Modulus (GPa) = 36.71551 12.29662 24.50607
#
# Velocity S-wave (km/s) = 4.45222 2.57659 3.63738
# Velocity P-wave (km/s) = 5.80874 4.39880 5.15222
#
# Compressibility (1/GPa) = 0.07383871
#
# Stress axis : x y z
#
# Youngs Moduli (GPa) = 69.85611 9.15644 36.28180
#
# Poissons Ratio (x) = 0.10702 -0.19836
# Poissons Ratio (y) = 0.81649 1.17570
# Poissons Ratio (z) = -0.38193 0.29671
#
# Static dielectric constant tensor:
#      x y z
#    x 1.694590 0.000000 0.000000 
#    y 0.000000 1.649270 0.000000 
#    z 0.000000 0.000000 1.661330 
# 
# From -- ./inp_files/5859.got.cif
#   From: 2010.05.17/outbox.cif.g08.bks.cpg/sg48_3_cif.got.tgz:5859.got - 2010.06.03 20:39:00.
