data_PCOD9389552
_publ_section_title
;
Structure prediction by ZEFSAII (Michael W. Deem and Ramdas Pophale) SiO2 
 PCOD9389552
Probable space group: P N N N
;
_chemical_formula_sum "Si O2"
_cell_formula_units_Z 58
_cell_length_a 11.634905
_cell_length_b 27.755690
_cell_length_c 7.100203
_cell_angle_alpha 90.000000
_cell_angle_beta 90.000000
_cell_angle_gamma 90.000000
_cell_volume 2292.902752
_symmetry_space_group_name_H-M "P N N N"
_symmetry_group_IT_number 48
_space_group.IT_coordinate_system_code '2'
_symmetry_cell_setting 'orthorhombic'
loop_
_space_group_symop_operation_xyz
x,y,z
1/2-x,1/2-y,z
x,1/2-y,1/2-z
1/2-x,y,1/2-z
-x,-y,-z
1/2+x,1/2+y,-z
-x,1/2+y,1/2+z
1/2+x,-y,1/2+z
loop_
_atom_site_type_symbol
_atom_site_label
_atom_site_fract_x
_atom_site_fract_y
_atom_site_fract_z
Si Si1 0.116396 0.746138 0.518456
Si Si2 0.726666 0.098486 0.461963
Si Si3 0.250000 0.250000 0.250000
Si Si4 0.231375 0.489912 0.475777
Si Si5 0.944393 0.152373 0.528859
Si Si6 0.034526 0.425095 0.460419
Si Si7 0.953318 0.945608 0.516143
Si Si8 0.939365 0.674886 0.616657
O O1 0.250000 0.750000 0.469528
O O2 0.113283 0.750000 0.750000
O O3 0.054868 0.791429 0.418764
O O4 0.042787 0.697898 0.495613
O O5 0.750000 0.115584 0.250000
O O6 0.811514 0.135742 0.559989
O O7 0.595142 0.089008 0.518263
O O8 0.768627 0.043109 0.464173
O O9 0.161728 0.286051 0.357460
O O10 0.250000 0.490935 0.250000
O O11 0.105984 0.470852 0.535541
O O12 0.321570 0.450774 0.540737
O O13 0.002275 0.101922 0.590430
O O14 0.001996 0.160110 0.317902
O O15 0.027806 0.436178 0.237473
O O16 0.103405 0.374898 0.472813
O O17 0.000000 0.000000 0.500000
#
# Coordination Sequence:
#
# PCOD9389552 Si02
#       8
#     8   8   2   8   8   8   8   8
#     4   9  16  26  41  63  95 124 154 209 250 298
#     4  12  19  33  53  73  97 139 179 214 249 308
#     4  12  20  28  42  64 108 144 158 194 268 332
#     4  10  22  34  47  71 105 139 169 214 264 307
#     4  10  18  28  46  68  94 130 174 201 253 292
#     4  10  21  31  49  68  99 137 172 210 266 305
#     4  10  17  31  45  67  93 135 177 204 242 312
#     4  10  19  29  42  68  96 139 164 201 255 320
#
# _framework density 25.295449000000001
#
# number of rings (size 3 to 8) (size 9 to 14) (size 15 to 20)
#    0.000    1.793    6.207    1.241    6.759    0.000 
#    0.000    0.000    0.000    0.000    0.000    0.000 
#    0.000    4.966    0.828    0.828    0.276    0.000 
#
# Total GULP energy -323055.187470 kJ/mol
# GULP energy per Si atom -5569.917025 kJ/mol
# Density = 2.523788 g / cm^3
# Si number density = 25.295449 Si / 1000 Ang^3
#
#
#
# Elastic Constant Matrix: (Units=GPa)
#
#
# Indices 1 2 3 4 5 6 
#
# 1 106.4891 22.5699 -0.1312 0.0000 0.0000 0.0000
# 2 22.5699 156.3991 -11.2830 0.0000 0.0000 0.0000
# 3 -0.1312 -11.2830 77.7888 0.0000 0.0000 0.0000
# 4 0.0000 0.0000 0.0000 7.1758 0.0000 0.0000
# 5 0.0000 0.0000 0.0000 0.0000 2.9394 0.0000
# 6 0.0000 0.0000 0.0000 0.0000 0.0000 56.9986
#
#
#
# Elastic Compliance Matrix: (Units=1/GPa)
#
#
# Indices 1 2 3 4 5 6 
#
# 1 0.009690 -0.001412 -0.000188 0.000000 0.000000 0.000000
# 2 -0.001412 0.006667 0.000965 0.000000 0.000000 0.000000
# 3 -0.000188 0.000965 0.012995 0.000000 0.000000 0.000000
# 4 0.000000 0.000000 0.000000 0.139357 0.000000 0.000000
# 5 0.000000 0.000000 0.000000 0.000000 0.340200 0.000000
# 6 0.000000 0.000000 0.000000 0.000000 0.000000 0.017544
#
#
# Mechanical properties :
#
#
# Convention : Reuss Voigt Hill
#
# Bulk Modulus (GPa) = 35.61197 40.33207 37.97202
# Shear Modulus (GPa) = 9.30952 35.39086 22.35019
#
# Velocity S-wave (km/s) = 1.92050 3.74451 2.97571
# Velocity P-wave (km/s) = 4.36196 5.88848 5.18174
#
# Compressibility (1/GPa) = 0.02808045
#
# Stress axis : x y z
#
# Youngs Moduli (GPa) = 103.20295 149.98705 76.95315
#
# Poissons Ratio (x) = 0.21177 0.01450
# Poissons Ratio (y) = 0.14571 -0.07423
# Poissons Ratio (z) = 0.01945 -0.14469
#
# Static dielectric constant tensor:
#      x y z
#    x 2.087670 0.000000 0.000000 
#    y 0.000000 1.980650 0.000000 
#    z 0.000000 0.000000 1.768660 
# 
# From -- ./inp_files/11476.got.cif
#   From: 2010.05.17/outbox.cif.g08.bks.cpg/sg48_6_cif.got.tgz:11476.got - 2010.06.03 20:39:00.
