data_PCOD9389995
_publ_section_title
;
Structure prediction by ZEFSAII (Michael W. Deem and Ramdas Pophale) SiO2 
 PCOD9389995
Probable space group: P N N N
;
_chemical_formula_sum "Si O2"
_cell_formula_units_Z 58
_cell_length_a 8.386852
_cell_length_b 11.695649
_cell_length_c 27.815638
_cell_angle_alpha 90.000000
_cell_angle_beta 90.000000
_cell_angle_gamma 90.000000
_cell_volume 2728.426953
_symmetry_space_group_name_H-M "P N N N"
_symmetry_group_IT_number 48
_space_group.IT_coordinate_system_code '2'
_symmetry_cell_setting 'orthorhombic'
loop_
_space_group_symop_operation_xyz
x,y,z
1/2-x,1/2-y,z
x,1/2-y,1/2-z
1/2-x,y,1/2-z
-x,-y,-z
1/2+x,1/2+y,-z
-x,1/2+y,1/2+z
1/2+x,-y,1/2+z
loop_
_atom_site_type_symbol
_atom_site_label
_atom_site_fract_x
_atom_site_fract_y
_atom_site_fract_z
Si Si1 0.609698 0.916375 0.832950
Si Si2 0.921112 0.689332 0.035860
Si Si3 0.500735 0.325000 0.430091
Si Si4 0.828498 0.376372 0.890906
Si Si5 0.854652 0.087125 0.097114
Si Si6 0.049978 0.924952 0.044610
Si Si7 0.750000 0.750000 0.750000
Si Si8 0.243639 0.887504 0.696545
O O1 0.612749 0.855180 0.885150
O O2 0.667316 0.837682 0.788362
O O3 0.422945 0.929148 0.823445
O O4 0.676232 0.042975 0.843897
O O5 0.750000 0.750000 0.042291
O O6 0.997127 0.628727 0.082884
O O7 0.043829 0.794190 0.030613
O O8 0.932005 0.637549 0.982060
O O9 0.676281 0.382133 0.421247
O O10 0.535645 0.188968 0.423991
O O11 0.750000 0.250000 0.882446
O O12 0.717874 0.439221 0.930278
O O13 0.868865 0.088378 0.154809
O O14 0.913759 0.963482 0.081599
O O15 0.000000 0.000000 0.000000
O O16 0.250000 0.750000 0.699499
O O17 0.250000 0.934001 0.750000
#
# Coordination Sequence:
#
# PCOD9389995 Si02
#       8
#     8   8   8   8   8   8   2   8
#     4  11  25  41  66  97 141 170 218 279 347 411
#     4  11  25  39  60  91 130 176 236 275 322 403
#     4  10  21  36  58  93 136 168 215 274 336 396
#     4  10  26  47  63  91 134 189 233 278 328 407
#     4  10  19  35  59  88 123 173 211 260 335 404
#     4  11  22  36  62  86 125 179 226 270 332 387
#     4  12  28  40  68 108 132 164 212 284 360 428
#     4  10  19  36  61  92 127 162 202 263 341 413
#
# _framework density 21.257670000000001
#
# number of rings (size 3 to 8) (size 9 to 14) (size 15 to 20)
#    0.000    1.517    4.138    1.655   12.552    0.552 
#    0.000    0.345    0.000    0.000    0.000    1.931 
#    0.000    0.000    0.000    0.000    0.000    0.000 
#
# Total GULP energy -323038.067725 kJ/mol
# GULP energy per Si atom -5569.621857 kJ/mol
# Density = 2.120929 g / cm^3
# Si number density = 21.257670 Si / 1000 Ang^3
#
#
#
# Elastic Constant Matrix: (Units=GPa)
#
#
# Indices 1 2 3 4 5 6 
#
# 1 58.2809 16.1700 16.2610 0.0000 0.0000 0.0000
# 2 16.1700 82.1246 36.6499 0.0000 0.0000 0.0000
# 3 16.2610 36.6499 122.9399 0.0000 0.0000 0.0000
# 4 0.0000 0.0000 0.0000 33.2424 0.0000 0.0000
# 5 0.0000 0.0000 0.0000 0.0000 49.2923 0.0000
# 6 0.0000 0.0000 0.0000 0.0000 0.0000 32.2598
#
#
#
# Elastic Compliance Matrix: (Units=1/GPa)
#
#
# Indices 1 2 3 4 5 6 
#
# 1 0.018406 -0.002927 -0.001562 0.000000 0.000000 0.000000
# 2 -0.002927 0.014511 -0.003939 0.000000 0.000000 0.000000
# 3 -0.001562 -0.003939 0.009515 0.000000 0.000000 0.000000
# 4 0.000000 0.000000 0.000000 0.030082 0.000000 0.000000
# 5 0.000000 0.000000 0.000000 0.000000 0.020287 0.000000
# 6 0.000000 0.000000 0.000000 0.000000 0.000000 0.030998
#
#
# Mechanical properties :
#
#
# Convention : Reuss Voigt Hill
#
# Bulk Modulus (GPa) = 39.09862 44.61191 41.85526
# Shear Modulus (GPa) = 33.51656 35.90987 34.71321
#
# Velocity S-wave (km/s) = 3.97505 4.11453 4.04539
# Velocity P-wave (km/s) = 6.28496 6.60335 6.44612
#
# Compressibility (1/GPa) = 0.02557635
#
# Stress axis : x y z
#
# Youngs Moduli (GPa) = 54.32951 68.91494 105.09934
#
# Poissons Ratio (x) = 0.20172 0.16416
# Poissons Ratio (y) = 0.15902 0.41395
# Poissons Ratio (z) = 0.08486 0.27143
#
# Static dielectric constant tensor:
#      x y z
#    x 1.845630 0.000000 0.000000 
#    y 0.000000 5.370230 0.000000 
#    z 0.000000 0.000000 1.959440 
# 
# From -- ./inp_files/37538.got.cif
#   From: 2010.05.17/outbox.cif.g08.bks.cpg/sg48_19_cif.got.tgz:37538.got - 2010.06.03 20:39:00.
