data_PCOD9389860
_publ_section_title
;
Structure prediction by ZEFSAII (Michael W. Deem and Ramdas Pophale) SiO2 
 PCOD9389860
Probable space group: P N N N
;
_chemical_formula_sum "Si O2"
_cell_formula_units_Z 34
_cell_length_a 14.484326
_cell_length_b 17.756318
_cell_length_c 5.245448
_cell_angle_alpha 90.000000
_cell_angle_beta 90.000000
_cell_angle_gamma 90.000000
_cell_volume 1349.067846
_symmetry_space_group_name_H-M "P N N N"
_symmetry_group_IT_number 48
_space_group.IT_coordinate_system_code '2'
_symmetry_cell_setting 'orthorhombic'
loop_
_space_group_symop_operation_xyz
x,y,z
1/2-x,1/2-y,z
x,1/2-y,1/2-z
1/2-x,y,1/2-z
-x,-y,-z
1/2+x,1/2+y,-z
-x,1/2+y,1/2+z
1/2+x,-y,1/2+z
loop_
_atom_site_type_symbol
_atom_site_label
_atom_site_fract_x
_atom_site_fract_y
_atom_site_fract_z
Si Si1 0.904889 0.199949 0.505783
Si Si2 0.391334 0.970073 0.975442
Si Si3 0.897213 0.825101 0.593994
Si Si4 0.750000 0.750000 0.250000
Si Si5 0.896271 0.533433 0.532001
O O1 0.872419 0.250000 0.750000
O O2 0.870499 0.117034 0.420039
O O3 0.010295 0.172883 0.575864
O O4 0.898249 0.250000 0.250000
O O5 0.351747 0.980507 0.256510
O O6 0.500000 0.000000 0.000000
O O7 0.356165 0.024114 0.749523
O O8 0.910371 0.750000 0.750000
O O9 0.809770 0.806234 0.423662
O O10 0.894237 0.888714 0.812026
O O11 0.000000 0.500000 0.500000
#
# Coordination Sequence:
#
# PCOD9389860 Si02
#       5
#     8   8   8   2   8
#     4  11  21  32  53  76 109 144 189 241 294 374
#     4  10  19  32  49  79 101 138 185 244 297 349
#     4  11  24  36  53  74 108 153 209 252 302 366
#     4  12  26  40  52  74 112 164 216 260 314 372
#     4  10  20  33  55  75 102 137 195 255 301 349
#
# _framework density 25.202587000000001
#
# number of rings (size 3 to 8) (size 9 to 14) (size 15 to 20)
#    0.000    1.412    5.882    1.765   13.176    0.000 
#    0.000    0.000    0.000    0.000    0.000    0.000 
#    0.000    0.000    0.000    1.059    9.412    7.765 
#
# Total GULP energy -189346.200593 kJ/mol
# GULP energy per Si atom -5569.005900 kJ/mol
# Density = 2.514522 g / cm^3
# Si number density = 25.202587 Si / 1000 Ang^3
#
#
#
# Elastic Constant Matrix: (Units=GPa)
#
#
# Indices 1 2 3 4 5 6 
#
# 1 59.1356 -0.6199 8.7971 0.0000 0.0000 0.0000
# 2 -0.6199 209.0119 47.6619 0.0000 0.0000 0.0000
# 3 8.7971 47.6619 191.4105 0.0000 0.0000 0.0000
# 4 0.0000 0.0000 0.0000 46.3391 0.0000 0.0000
# 5 0.0000 0.0000 0.0000 0.0000 11.6266 0.0000
# 6 0.0000 0.0000 0.0000 0.0000 0.0000 29.6936
#
#
#
# Elastic Compliance Matrix: (Units=1/GPa)
#
#
# Indices 1 2 3 4 5 6 
#
# 1 0.017038 0.000243 -0.000844 0.000000 0.000000 0.000000
# 2 0.000243 0.005076 -0.001275 0.000000 0.000000 0.000000
# 3 -0.000844 -0.001275 0.005581 0.000000 0.000000 0.000000
# 4 0.000000 0.000000 0.000000 0.021580 0.000000 0.000000
# 5 0.000000 0.000000 0.000000 0.000000 0.086010 0.000000
# 6 0.000000 0.000000 0.000000 0.000000 0.000000 0.033677
#
#
# Mechanical properties :
#
#
# Convention : Reuss Voigt Hill
#
# Bulk Modulus (GPa) = 41.76518 63.47070 52.61794
# Shear Modulus (GPa) = 27.67103 44.44646 36.05875
#
# Velocity S-wave (km/s) = 3.31712 4.20404 3.78664
# Velocity P-wave (km/s) = 5.59274 6.98600 6.32783
#
# Compressibility (1/GPa) = 0.02394339
#
# Stress axis : x y z
#
# Youngs Moduli (GPa) = 58.69119 197.00944 179.19083
#
# Poissons Ratio (x) = -0.04785 0.15116
# Poissons Ratio (y) = -0.01426 0.22848
# Poissons Ratio (z) = 0.04951 0.25120
#
# Static dielectric constant tensor:
#      x y z
#    x 2.224980 0.000000 0.000000 
#    y 0.000000 1.925010 0.000000 
#    z 0.000000 0.000000 1.970930 
# 
# From -- ./inp_files/4960.got.cif
#   From: 2010.05.17/outbox.cif.g08.bks.cpg/sg48_3_cif.got.tgz:4960.got - 2010.06.03 20:39:00.
