data_PCOD9389923
_publ_section_title
;
Structure prediction by ZEFSAII (Michael W. Deem and Ramdas Pophale) SiO2 
 PCOD9389923
Probable space group: P N N N
;
_chemical_formula_sum "Si O2"
_cell_formula_units_Z 56
_cell_length_a 14.620595
_cell_length_b 13.662044
_cell_length_c 14.451765
_cell_angle_alpha 90.000000
_cell_angle_beta 90.000000
_cell_angle_gamma 90.000000
_cell_volume 2886.699770
_symmetry_space_group_name_H-M "P N N N"
_symmetry_group_IT_number 48
_space_group.IT_coordinate_system_code '2'
_symmetry_cell_setting 'orthorhombic'
loop_
_space_group_symop_operation_xyz
x,y,z
1/2-x,1/2-y,z
x,1/2-y,1/2-z
1/2-x,y,1/2-z
-x,-y,-z
1/2+x,1/2+y,-z
-x,1/2+y,1/2+z
1/2+x,-y,1/2+z
loop_
_atom_site_type_symbol
_atom_site_label
_atom_site_fract_x
_atom_site_fract_y
_atom_site_fract_z
Si Si1 0.612177 0.880746 0.354517
Si Si2 0.733611 0.136791 0.540043
Si Si3 0.065741 0.161129 0.638969
Si Si4 0.222036 0.135206 0.144462
Si Si5 0.868369 0.354983 0.798644
Si Si6 0.076007 0.979567 0.124194
Si Si7 0.791170 0.956250 0.457415
O O1 0.596326 0.770012 0.389912
O O2 0.599799 0.864199 0.243843
O O3 0.531457 0.955147 0.386447
O O4 0.710322 0.915270 0.391216
O O5 0.750000 0.250000 0.521694
O O6 0.782373 0.120009 0.639372
O O7 0.633111 0.090057 0.553445
O O8 0.782450 0.072028 0.463181
O O9 0.112725 0.081809 0.576025
O O10 0.956991 0.158732 0.637386
O O11 0.250000 0.250000 0.135478
O O12 0.250000 0.109289 0.250000
O O13 0.119481 0.089234 0.125131
O O14 0.275494 0.082600 0.061402
O O15 0.856076 0.250000 0.750000
O O16 0.897226 0.434677 0.723976
#
# Coordination Sequence:
#
# PCOD9389923 Si02
#       7
#     8   8   8   8   8   8   8
#     4  10  19  36  59  89 115 146 201 252 301 352
#     4  11  21  33  52  81 115 151 190 241 310 355
#     4  10  19  36  59  90 116 147 193 254 312 353
#     4  10  21  37  53  78 117 161 199 229 287 371
#     4  11  18  34  59  89 114 144 191 260 311 354
#     4  10  19  33  57  86 111 147 189 248 296 351
#     4  11  23  35  57  85 117 158 193 248 298 362
#
# _framework density 19.399315999999999
#
# number of rings (size 3 to 8) (size 9 to 14) (size 15 to 20)
#    0.000    1.571    4.286    3.857    0.000    4.000 
#    0.000    1.429    0.000    6.857    0.000    0.000 
#    0.000    0.000    0.000    0.000    0.000    0.000 
#
# Total GULP energy -312217.891410 kJ/mol
# GULP energy per Si atom -5575.319489 kJ/mol
# Density = 1.935516 g / cm^3
# Si number density = 19.399316 Si / 1000 Ang^3
#
#
#
# Elastic Constant Matrix: (Units=GPa)
#
#
# Indices 1 2 3 4 5 6 
#
# 1 76.9404 20.3396 10.3460 0.0000 0.0000 0.0000
# 2 20.3396 106.1778 9.4338 0.0000 0.0000 0.0000
# 3 10.3460 9.4338 32.4060 0.0000 0.0000 0.0000
# 4 0.0000 0.0000 0.0000 23.0202 0.0000 0.0000
# 5 0.0000 0.0000 0.0000 0.0000 26.5543 0.0000
# 6 0.0000 0.0000 0.0000 0.0000 0.0000 24.4917
#
#
#
# Elastic Compliance Matrix: (Units=1/GPa)
#
#
# Indices 1 2 3 4 5 6 
#
# 1 0.014137 -0.002368 -0.003824 0.000000 0.000000 0.000000
# 2 -0.002368 0.010065 -0.002174 0.000000 0.000000 0.000000
# 3 -0.003824 -0.002174 0.032712 0.000000 0.000000 0.000000
# 4 0.000000 0.000000 0.000000 0.043440 0.000000 0.000000
# 5 0.000000 0.000000 0.000000 0.000000 0.037659 0.000000
# 6 0.000000 0.000000 0.000000 0.000000 0.000000 0.040830
#
#
# Mechanical properties :
#
#
# Convention : Reuss Voigt Hill
#
# Bulk Modulus (GPa) = 24.88688 32.86257 28.87473
# Shear Modulus (GPa) = 23.92684 26.50688 25.21686
#
# Velocity S-wave (km/s) = 3.51577 3.70047 3.60930
# Velocity P-wave (km/s) = 5.41640 5.93589 5.68209
#
# Compressibility (1/GPa) = 0.04018182
#
# Stress axis : x y z
#
# Youngs Moduli (GPa) = 70.73442 99.35405 30.56964
#
# Poissons Ratio (x) = 0.23531 0.11690
# Poissons Ratio (y) = 0.16753 0.06646
# Poissons Ratio (z) = 0.27049 0.21599
#
# Static dielectric constant tensor:
#      x y z
#    x 1.694020 0.000000 0.000000 
#    y 0.000000 1.722460 0.000000 
#    z 0.000000 0.000000 1.711540 
# 
# From -- ./inp_files/27403.got.cif
#   From: 2010.05.17/outbox.cif.g08.bks.cpg/sg48_14_cif.got.tgz:27403.got - 2010.06.03 20:39:00.
