data_PCOD9389077
_publ_section_title
;
Structure prediction by ZEFSAII (Michael W. Deem and Ramdas Pophale) SiO2 
 PCOD9389077
Probable space group: P M M M
;
_chemical_formula_sum "Si O2"
_cell_formula_units_Z 52
_cell_length_a 7.713130
_cell_length_b 9.794838
_cell_length_c 37.254998
_cell_angle_alpha 90.000000
_cell_angle_beta 90.000000
_cell_angle_gamma 90.000000
_cell_volume 2814.572584
_symmetry_space_group_name_H-M "P M M M"
_symmetry_group_IT_number 47
_symmetry_cell_setting 'orthorhombic'
loop_
_space_group_symop_operation_xyz
x,y,z
-x,-y,z
x,-y,-z
-x,y,-z
-x,-y,-z
x,y,-z
-x,y,z
x,-y,z
loop_
_atom_site_type_symbol
_atom_site_label
_atom_site_fract_x
_atom_site_fract_y
_atom_site_fract_z
Si Si1 0.198682 0.333668 0.905594
Si Si2 0.706197 0.844119 0.682814
Si Si3 0.207196 0.155681 0.395024
Si Si4 0.211971 0.343234 0.174545
Si Si5 0.207060 0.155718 0.760710
Si Si6 0.500000 0.333310 0.958804
Si Si7 0.211837 0.342462 0.459779
O O1 0.196629 0.500000 0.905154
O O2 0.259026 0.294291 0.865488
O O3 0.330744 0.290267 0.936387
O O4 0.000000 0.289021 0.911353
O O5 0.500000 0.850746 0.682874
O O6 0.759855 0.783520 0.644589
O O7 0.760403 0.783865 0.721034
O O8 0.778678 0.000000 0.682763
O O9 0.274347 0.246462 0.427743
O O10 0.000000 0.147411 0.399143
O O11 0.276558 0.000000 0.395886
O O12 0.268849 0.500000 0.179297
O O13 0.273550 0.247757 0.206768
O O14 0.000000 0.344897 0.174811
O O15 0.000000 0.147462 0.764979
O O16 0.276536 0.000000 0.761634
O O17 0.500000 0.500000 0.959133
O O18 0.500000 0.287842 0.000000
O O19 0.264426 0.299194 0.500000
O O20 0.263943 0.500000 0.454597
O O21 0.000000 0.340763 0.459291
#
# Coordination Sequence:
#
# PCOD9389077 Si02
#       7
#     8   8   8   8   8   4   8
#     4   8  14  25  39  55  80 114 146 178 222 272
#     4   9  17  29  43  59  83 113 139 166 207 254
#     4   9  16  26  43  65  83 102 134 171 202 237
#     4   8  14  26  43  61  84 114 142 169 211 264
#     4   9  16  27  45  66  85 107 140 181 216 248
#     4   9  16  24  36  58  85 113 149 187 223 269
#     4   8  14  25  41  62  87 110 131 161 205 251
#
# _framework density 18.475275
#
# number of rings (size 3 to 8) (size 9 to 14) (size 15 to 20)
#    0.000    3.462    0.000    1.846    0.000    2.462 
#    1.385    3.846    0.000    5.538    0.000    3.231 
#    0.000    1.231    0.000    6.000    0.000    6.154 
#
# Total GULP energy -289512.285127 kJ/mol
# GULP energy per Si atom -5567.543945 kJ/mol
# Density = 1.843322 g / cm^3
# Si number density = 18.475275 Si / 1000 Ang^3
#
#
#
# Elastic Constant Matrix: (Units=GPa)
#
#
# Indices 1 2 3 4 5 6 
#
# 1 45.7573 12.4537 37.6750 0.0000 0.0000 0.0000
# 2 12.4537 34.9511 64.3220 0.0000 0.0000 0.0000
# 3 37.6750 64.3220 222.0607 0.0000 0.0000 0.0000
# 4 0.0000 0.0000 0.0000 35.7612 0.0000 0.0000
# 5 0.0000 0.0000 0.0000 0.0000 231.3147 0.0000
# 6 0.0000 0.0000 0.0000 0.0000 0.0000 2.5097
#
#
#
# Elastic Compliance Matrix: (Units=1/GPa)
#
#
# Indices 1 2 3 4 5 6 
#
# 1 0.025497 -0.002407 -0.003629 0.000000 0.000000 0.000000
# 2 -0.002407 0.061503 -0.017407 0.000000 0.000000 0.000000
# 3 -0.003629 -0.017407 0.010161 0.000000 0.000000 0.000000
# 4 0.000000 0.000000 0.000000 0.027963 0.000000 0.000000
# 5 0.000000 0.000000 0.000000 0.000000 0.004323 0.000000
# 6 0.000000 0.000000 0.000000 0.000000 0.000000 0.398449
#
#
# Mechanical properties :
#
#
# Convention : Reuss Voigt Hill
#
# Bulk Modulus (GPa) = 19.89004 59.07451 39.48227
# Shear Modulus (GPa) = 8.45252 66.47169 37.46210
#
# Velocity S-wave (km/s) = 2.14126 6.00473 4.50787
# Velocity P-wave (km/s) = 4.11126 8.95098 6.96500
#
# Compressibility (1/GPa) = 0.05027642
#
# Stress axis : x y z
#
# Youngs Moduli (GPa) = 39.21981 16.25935 98.41680
#
# Poissons Ratio (x) = 0.03914 0.35712
# Poissons Ratio (y) = 0.09441 1.71309
# Poissons Ratio (z) = 0.14231 0.28302
#
# Static dielectric constant tensor:
#      x y z
#    x 1.675600 0.000000 0.000000 
#    y 0.000000 1.630170 0.000000 
#    z 0.000000 0.000000 1.656180 
# 
# From -- ./inp_files/33240.got.cif
#   From: 2010.05.17/outbox.cif.g08.bks.cpg/sg47_17_cif.got.tgz:33240.got - 2010.06.03 20:15:42.
