data_PCOD9389793
_publ_section_title
;
Structure prediction by ZEFSAII (Michael W. Deem and Ramdas Pophale) SiO2 
 PCOD9389793
Probable space group: P N N N
;
_chemical_formula_sum "Si O2"
_cell_formula_units_Z 64
_cell_length_a 17.304407
_cell_length_b 19.412728
_cell_length_c 10.153704
_cell_angle_alpha 90.000000
_cell_angle_beta 90.000000
_cell_angle_gamma 90.000000
_cell_volume 3410.890594
_symmetry_space_group_name_H-M "P N N N"
_symmetry_group_IT_number 48
_space_group.IT_coordinate_system_code '2'
_symmetry_cell_setting 'orthorhombic'
loop_
_space_group_symop_operation_xyz
x,y,z
1/2-x,1/2-y,z
x,1/2-y,1/2-z
1/2-x,y,1/2-z
-x,-y,-z
1/2+x,1/2+y,-z
-x,1/2+y,1/2+z
1/2+x,-y,1/2+z
loop_
_atom_site_type_symbol
_atom_site_label
_atom_site_fract_x
_atom_site_fract_y
_atom_site_fract_z
Si Si1 0.471526 0.455703 0.197804
Si Si2 0.404781 0.451990 0.906166
Si Si3 0.172749 0.972078 0.337996
Si Si4 0.748134 0.030621 0.398398
Si Si5 0.629755 0.331437 0.776998
Si Si6 0.199780 0.680454 0.556932
Si Si7 0.542875 0.688684 0.145832
Si Si8 0.477587 0.691865 0.852689
O O1 0.543900 0.507330 0.200222
O O2 0.399244 0.485300 0.278510
O O3 0.499545 0.378576 0.221810
O O4 0.450073 0.448262 0.043569
O O5 0.332328 0.498223 0.944638
O O6 0.395391 0.373351 0.858806
O O7 0.250000 0.985186 0.250000
O O8 0.189747 0.988203 0.490708
O O9 0.154311 0.890247 0.324216
O O10 0.750000 0.003001 0.250000
O O11 0.742815 0.113231 0.390410
O O12 0.638336 0.250000 0.750000
O O13 0.539257 0.342472 0.805560
O O14 0.680464 0.340413 0.906934
O O15 0.250000 0.750000 0.566638
O O16 0.114645 0.690246 0.618936
O O17 0.560695 0.750000 0.250000
O O18 0.521183 0.706227 0.992919
O O19 0.496722 0.750000 0.750000
#
# Coordination Sequence:
#
# PCOD9389793 Si02
#       8
#     8   8   8   8   8   8   8   8
#     4  10  19  37  66  88 113 158 215 257 295 360
#     4  10  18  38  63  85 119 160 203 252 307 367
#     4  12  21  37  62  90 116 158 214 258 304 361
#     4  12  26  39  53  89 129 159 198 252 319 381
#     4  10  19  33  54  88 120 154 205 256 290 351
#     4  11  22  34  53  82 128 174 194 228 301 381
#     4   9  19  37  61  86 114 154 207 253 302 362
#     4  10  22  38  58  87 121 158 203 250 301 370
#
# _framework density 18.763428000000001
#
# number of rings (size 3 to 8) (size 9 to 14) (size 15 to 20)
#    0.000    1.500    5.000    0.750    1.750    0.000 
#    2.250    0.625    0.000    0.750    0.000    0.000 
#    0.000    0.000    0.000    0.000    0.000    0.000 
#
# Total GULP energy -356595.735028 kJ/mol
# GULP energy per Si atom -5571.808360 kJ/mol
# Density = 1.872072 g / cm^3
# Si number density = 18.763428 Si / 1000 Ang^3
#
#
#
# Elastic Constant Matrix: (Units=GPa)
#
#
# Indices 1 2 3 4 5 6 
#
# 1 50.3933 42.4837 12.0151 0.0000 0.0000 0.0000
# 2 42.4837 116.1043 34.9691 0.0000 0.0000 0.0000
# 3 12.0151 34.9691 83.9232 0.0000 0.0000 0.0000
# 4 0.0000 0.0000 0.0000 20.7987 0.0000 0.0000
# 5 0.0000 0.0000 0.0000 0.0000 16.9829 0.0000
# 6 0.0000 0.0000 0.0000 0.0000 0.0000 -1.7224
#
#
#
# Elastic Compliance Matrix: (Units=1/GPa)
#
#
# Indices 1 2 3 4 5 6 
#
# 1 0.028703 -0.010595 0.000305 0.000000 0.000000 0.000000
# 2 -0.010595 0.013760 -0.004217 0.000000 0.000000 0.000000
# 3 0.000305 -0.004217 0.013629 0.000000 0.000000 0.000000
# 4 0.000000 0.000000 0.000000 0.048080 0.000000 0.000000
# 5 0.000000 0.000000 0.000000 0.000000 0.058883 0.000000
# 6 0.000000 0.000000 0.000000 0.000000 0.000000 -0.580590
#
#
# Mechanical properties :
#
#
# Convention : Reuss Voigt Hill
#
# Bulk Modulus (GPa) = 36.92827 47.70628 42.31728
# Shear Modulus (GPa) = -13.17532 17.94202 2.38335
#
# Velocity S-wave (km/s) = -2.65274 3.09564 1.12826
# Velocity P-wave (km/s) = 3.21574 6.18528 4.92943
#
# Compressibility (1/GPa) = 0.02707952
#
# Stress axis : x y z
#
# Youngs Moduli (GPa) = 34.83981 72.67666 73.37345
#
# Poissons Ratio (x) = 0.76998 -0.02240
# Poissons Ratio (y) = 0.36911 0.30938
# Poissons Ratio (z) = -0.01063 0.30644
#
# Static dielectric constant tensor:
#      x y z
#    x 1.727730 0.000000 0.000000 
#    y 0.000000 1.693520 0.000000 
#    z 0.000000 0.000000 1.745900 
# 
# From -- ./inp_files/21568.got.cif
#   From: 2010.05.17/outbox.cif.g08.bks.cpg/sg48_11_cif.got.tgz:21568.got - 2010.06.03 20:39:00.
