data_PCOD9389270
_publ_section_title
;
Structure prediction by ZEFSAII (Michael W. Deem and Ramdas Pophale) SiO2 
 PCOD9389270
Probable space group: P M M M
;
_chemical_formula_sum "Si O2"
_cell_formula_units_Z 60
_cell_length_a 9.000000
_cell_length_b 18.000000
_cell_length_c 21.000000
_cell_angle_alpha 90.000000
_cell_angle_beta 90.000000
_cell_angle_gamma 90.000000
_cell_volume 3402.000000
_symmetry_space_group_name_H-M "P M M M"
_symmetry_group_IT_number 47
_symmetry_cell_setting 'orthorhombic'
loop_
_space_group_symop_operation_xyz
x,y,z
-x,-y,z
x,-y,-z
-x,y,-z
-x,-y,-z
x,y,-z
-x,y,z
x,-y,z
loop_
_atom_site_type_symbol
_atom_site_label
_atom_site_fract_x
_atom_site_fract_y
_atom_site_fract_z
Si Si1 0.333954 0.587314 0.500000
Si Si2 0.181212 0.915275 0.308837
Si Si3 0.180404 0.815726 0.426000
Si Si4 0.820355 0.205724 0.205016
Si Si5 0.177128 0.651252 0.378364
Si Si6 0.323565 0.359390 0.249233
Si Si7 0.821342 0.736754 0.929667
Si Si8 0.322079 0.582304 0.888622
O O1 0.349286 0.500000 0.500000
O O2 0.500000 0.621287 0.500000
O O3 0.241937 0.610260 0.438798
O O4 0.228971 0.879129 0.376257
O O5 0.224643 0.863989 0.248599
O O6 0.000000 0.915209 0.309586
O O7 0.231266 0.000000 0.302586
O O8 0.232304 0.819440 0.500000
O O9 0.217595 0.737656 0.391964
O O10 0.000000 0.818520 0.429122
O O11 0.746165 0.279200 0.233586
O O12 0.780291 0.210302 0.129923
O O13 0.000000 0.212164 0.209871
O O14 0.248455 0.618173 0.314883
O O15 0.000000 0.646962 0.374617
O O16 0.500000 0.353963 0.257227
O O17 0.295149 0.409760 0.187344
O O18 0.754485 0.654397 0.918883
O O19 0.000000 0.730111 0.928197
O O20 0.776829 0.763538 0.000000
O O21 0.500000 0.587872 0.898830
O O22 0.273909 0.500000 0.910361
#
# Coordination Sequence:
#
# PCOD9389270 Si02
#       8
#     4   8   8   8   8   8   8   8
#     4  11  25  41  53  71 100 131 168 216 266 310
#     4   9  16  26  45  74 103 131 166 207 250 294
#     4   9  16  27  45  71 100 129 161 203 247 291
#     4   9  16  30  50  70  97 131 167 207 245 292
#     4  11  20  34  55  75  97 129 171 215 257 305
#     4  10  19  31  50  74  97 126 166 208 252 301
#     4   9  18  31  48  71  97 128 166 207 250 294
#     4   9  19  34  49  68  97 130 162 200 249 302
#
# _framework density 17.636683999999999
#
# number of rings (size 3 to 8) (size 9 to 14) (size 15 to 20)
#    0.000    2.467    2.000    1.000    0.000    2.667 
#    0.000    4.000    0.000    0.800    0.000    2.800 
#    0.000    1.600    0.000    6.667    0.000    6.933 
#
# Total GULP energy -334310.581426 kJ/mol
# GULP energy per Si atom -5571.843024 kJ/mol
# Density = 1.759654 g / cm^3
# Si number density = 17.636684 Si / 1000 Ang^3
#
#
#
# Elastic Constant Matrix: (Units=GPa)
#
#
# Indices 1 2 3 4 5 6 
#
# 1 7.9210 5.6396 16.6043 0.0000 0.0000 0.0000
# 2 5.6396 59.7169 6.5396 0.0000 0.0000 0.0000
# 3 16.6043 6.5396 108.0182 0.0000 0.0000 0.0000
# 4 0.0000 0.0000 0.0000 24.6500 0.0000 0.0000
# 5 0.0000 0.0000 0.0000 0.0000 20.7598 0.0000
# 6 0.0000 0.0000 0.0000 0.0000 0.0000 -48.2965
#
#
#
# Elastic Compliance Matrix: (Units=1/GPa)
#
#
# Indices 1 2 3 4 5 6 
#
# 1 0.199737 -0.015604 -0.029758 0.000000 0.000000 0.000000
# 2 -0.015604 0.018076 0.001304 0.000000 0.000000 0.000000
# 3 -0.029758 0.001304 0.013753 0.000000 0.000000 0.000000
# 4 0.000000 0.000000 0.000000 0.040568 0.000000 0.000000
# 5 0.000000 0.000000 0.000000 0.000000 0.048170 0.000000
# 6 0.000000 0.000000 0.000000 0.000000 0.000000 -0.020705
#
#
# Mechanical properties :
#
#
# Convention : Reuss Voigt Hill
#
# Bulk Modulus (GPa) = 6.97107 25.91367 16.44237
# Shear Modulus (GPa) = 11.48021 9.21416 10.34719
#
# Velocity S-wave (km/s) = 2.55410 2.28818 2.42479
# Velocity P-wave (km/s) = 3.55796 4.65897 4.14518
#
# Compressibility (1/GPa) = 0.14345000
#
# Stress axis : x y z
#
# Youngs Moduli (GPa) = 5.00659 55.32049 72.71070
#
# Poissons Ratio (x) = 0.86323 2.16375
# Poissons Ratio (y) = 0.07812 -0.09483
# Poissons Ratio (z) = 0.14899 -0.07215
#
# Static dielectric constant tensor:
#      x y z
#    x 1.590290 0.000000 0.000000 
#    y 0.000000 1.587250 0.000000 
#    z 0.000000 0.000000 1.589580 
# 
# From -- ./inp_files/29954.got.cif
#   From: 2010.05.17/outbox.ucp.g08.bks.cvg/sg47_15_cif.got.tgz:29954.got - 2010.06.11 16:36:43.
