data_PCOD9389939
_publ_section_title
;
Structure prediction by ZEFSAII (Michael W. Deem and Ramdas Pophale) SiO2 
 PCOD9389939
Probable space group: P N N N
;
_chemical_formula_sum "Si O2"
_cell_formula_units_Z 40
_cell_length_a 5.151624
_cell_length_b 13.013064
_cell_length_c 32.876981
_cell_angle_alpha 90.000000
_cell_angle_beta 90.000000
_cell_angle_gamma 90.000000
_cell_volume 2204.020624
_symmetry_space_group_name_H-M "P N N N"
_symmetry_group_IT_number 48
_space_group.IT_coordinate_system_code '2'
_symmetry_cell_setting 'orthorhombic'
loop_
_space_group_symop_operation_xyz
x,y,z
1/2-x,1/2-y,z
x,1/2-y,1/2-z
1/2-x,y,1/2-z
-x,-y,-z
1/2+x,1/2+y,-z
-x,1/2+y,1/2+z
1/2+x,-y,1/2+z
loop_
_atom_site_type_symbol
_atom_site_label
_atom_site_fract_x
_atom_site_fract_y
_atom_site_fract_z
Si Si1 0.495140 0.679178 0.026302
Si Si2 0.001295 0.821034 0.933069
Si Si3 0.000965 0.134712 0.731324
Si Si4 0.129329 0.361991 0.862591
Si Si5 0.896146 0.460953 0.601788
O O1 0.750000 0.750000 0.027994
O O2 0.496517 0.591634 0.060028
O O3 0.250000 0.750000 0.036140
O O4 0.456842 0.642174 0.979890
O O5 0.250000 0.750000 0.921834
O O6 0.750000 0.750000 0.934013
O O7 0.924393 0.917964 0.905600
O O8 0.000288 0.250000 0.750000
O O9 0.250000 0.081074 0.750000
O O10 0.021344 0.145638 0.683180
O O11 0.750000 0.082773 0.750000
O O12 0.250000 0.250000 0.874930
O O13 0.387763 0.430611 0.865003
O O14 0.888327 0.412539 0.887737
#
# Coordination Sequence:
#
# PCOD9389939 Si02
#       5
#     8   8   8   8   8
#     4  10  20  36  54  79 110 150 186 227 288 350
#     4  10  22  40  59  74 105 153 202 243 283 330
#     4  10  19  34  53  73 110 161 183 191 251 341
#     4  12  23  35  54  85 121 153 177 222 279 340
#     4  12  23  35  55  85 115 143 194 241 288 325
#
# _framework density 18.148648999999999
#
# number of rings (size 3 to 8) (size 9 to 14) (size 15 to 20)
#    0.000    1.200    2.000    6.600    2.800    0.000 
#    0.000    8.000    0.000    0.000    0.000    0.000 
#    0.000   56.000    0.000    0.000    0.000    0.000 
#
# Total GULP energy -222944.024443 kJ/mol
# GULP energy per Si atom -5573.600611 kJ/mol
# Density = 1.810734 g / cm^3
# Si number density = 18.148649 Si / 1000 Ang^3
#
#
#
# Elastic Constant Matrix: (Units=GPa)
#
#
# Indices 1 2 3 4 5 6 
#
# 1 156.7334 35.2298 16.9390 0.0000 0.0000 0.0000
# 2 35.2298 75.9036 41.7399 0.0000 0.0000 0.0000
# 3 16.9390 41.7399 60.7888 0.0000 0.0000 0.0000
# 4 0.0000 0.0000 0.0000 0.7729 0.0000 0.0000
# 5 0.0000 0.0000 0.0000 0.0000 1.1221 0.0000
# 6 0.0000 0.0000 0.0000 0.0000 0.0000 17.1328
#
#
#
# Elastic Compliance Matrix: (Units=1/GPa)
#
#
# Indices 1 2 3 4 5 6 
#
# 1 0.007131 -0.003562 0.000459 0.000000 0.000000 0.000000
# 2 -0.003562 0.022946 -0.014763 0.000000 0.000000 0.000000
# 3 0.000459 -0.014763 0.026460 0.000000 0.000000 0.000000
# 4 0.000000 0.000000 0.000000 1.293823 0.000000 0.000000
# 5 0.000000 0.000000 0.000000 0.000000 0.891157 0.000000
# 6 0.000000 0.000000 0.000000 0.000000 0.000000 0.058368
#
#
# Mechanical properties :
#
#
# Convention : Reuss Voigt Hill
#
# Bulk Modulus (GPa) = 48.06779 53.47147 50.76963
# Shear Modulus (GPa) = 2.13442 17.10669 9.62056
#
# Velocity S-wave (km/s) = 1.08565 3.07349 2.30488
# Velocity P-wave (km/s) = 5.30232 6.49016 5.92608
#
# Compressibility (1/GPa) = 0.02080395
#
# Stress axis : x y z
#
# Youngs Moduli (GPa) = 140.22533 43.57981 37.79347
#
# Poissons Ratio (x) = 0.15524 -0.01734
# Poissons Ratio (y) = 0.49952 0.55795
# Poissons Ratio (z) = -0.06433 0.64338
#
# Static dielectric constant tensor:
#      x y z
#    x 1.634990 0.000000 0.000000 
#    y 0.000000 1.640430 0.000000 
#    z 0.000000 0.000000 1.662350 
# 
# From -- ./inp_files/2570.got.cif
#   From: 2010.05.17/outbox.cif.g08.bks.cpg/sg48_2_cif.got.tgz:2570.got - 2010.06.03 20:39:00.
