data_PCOD9389794
_publ_section_title
;
Structure prediction by ZEFSAII (Michael W. Deem and Ramdas Pophale) SiO2 
 PCOD9389794
Probable space group: P N N N
;
_chemical_formula_sum "Si O2"
_cell_formula_units_Z 64
_cell_length_a 14.818226
_cell_length_b 7.901101
_cell_length_c 24.471449
_cell_angle_alpha 90.000000
_cell_angle_beta 90.000000
_cell_angle_gamma 90.000000
_cell_volume 2865.124597
_symmetry_space_group_name_H-M "P N N N"
_symmetry_group_IT_number 48
_space_group.IT_coordinate_system_code '2'
_symmetry_cell_setting 'orthorhombic'
loop_
_space_group_symop_operation_xyz
x,y,z
1/2-x,1/2-y,z
x,1/2-y,1/2-z
1/2-x,y,1/2-z
-x,-y,-z
1/2+x,1/2+y,-z
-x,1/2+y,1/2+z
1/2+x,-y,1/2+z
loop_
_atom_site_type_symbol
_atom_site_label
_atom_site_fract_x
_atom_site_fract_y
_atom_site_fract_z
Si Si1 0.507936 0.537751 0.680698
Si Si2 0.342510 0.342437 0.399229
Si Si3 0.820999 0.502756 0.017567
Si Si4 0.340140 0.140382 0.875217
Si Si5 0.773684 0.443256 0.308414
Si Si6 0.121617 0.641281 0.520770
Si Si7 0.454126 0.492243 0.083051
Si Si8 0.019468 0.944649 0.806763
O O1 0.600655 0.551257 0.645731
O O2 0.436082 0.402350 0.654481
O O3 0.511470 0.506402 0.745996
O O4 0.480113 0.739906 0.682703
O O5 0.250000 0.250000 0.379292
O O6 0.325491 0.447542 0.454297
O O7 0.403741 0.186648 0.419326
O O8 0.848821 0.650936 0.059666
O O9 0.881801 0.340576 0.031802
O O10 0.719397 0.439671 0.027051
O O11 0.250000 0.250000 0.856827
O O12 0.289942 0.968114 0.860151
O O13 0.750000 0.250000 0.299182
O O14 0.750000 0.529449 0.250000
O O15 0.876863 0.490714 0.316873
O O16 0.093882 0.619172 0.457533
O O17 0.053057 0.541088 0.558969
O O18 0.460502 0.532903 0.146716
#
# Coordination Sequence:
#
# PCOD9389794 Si02
#       8
#     8   8   8   8   8   8   8   8
#     4  10  21  39  62  92 126 169 215 264 328 391
#     4  11  22  41  64  89 130 165 213 280 332 372
#     4  11  23  41  60  89 126 165 209 265 326 391
#     4  12  25  37  58  94 133 172 212 256 327 402
#     4  11  19  36  64  86 119 171 215 251 316 390
#     4  10  22  39  65  90 119 165 213 260 327 392
#     4  10  21  38  64  93 121 159 215 269 321 390
#     4  10  18  38  64  91 122 164 218 268 314 382
#
# _framework density 22.337596999999999
#
# number of rings (size 3 to 8) (size 9 to 14) (size 15 to 20)
#    0.000    1.375    3.750    3.375    1.750    2.250 
#    4.500    5.000    0.000    0.000    0.000    1.750 
#    0.000    0.000    0.000    0.000    0.000    0.000 
#
# Total GULP energy -356454.864283 kJ/mol
# GULP energy per Si atom -5569.607254 kJ/mol
# Density = 2.228676 g / cm^3
# Si number density = 22.337597 Si / 1000 Ang^3
#
#
#
# Elastic Constant Matrix: (Units=GPa)
#
#
# Indices 1 2 3 4 5 6 
#
# 1 75.7169 14.1932 43.1781 0.0000 0.0000 0.0000
# 2 14.1932 43.0363 7.7486 0.0000 0.0000 0.0000
# 3 43.1781 7.7486 129.2798 0.0000 0.0000 0.0000
# 4 0.0000 0.0000 0.0000 28.4721 0.0000 0.0000
# 5 0.0000 0.0000 0.0000 0.0000 26.6589 0.0000
# 6 0.0000 0.0000 0.0000 0.0000 0.0000 32.1979
#
#
#
# Elastic Compliance Matrix: (Units=1/GPa)
#
#
# Indices 1 2 3 4 5 6 
#
# 1 0.017202 -0.004689 -0.005464 0.000000 0.000000 0.000000
# 2 -0.004689 0.024768 0.000082 0.000000 0.000000 0.000000
# 3 -0.005464 0.000082 0.009555 0.000000 0.000000 0.000000
# 4 0.000000 0.000000 0.000000 0.035122 0.000000 0.000000
# 5 0.000000 0.000000 0.000000 0.000000 0.037511 0.000000
# 6 0.000000 0.000000 0.000000 0.000000 0.000000 0.031058
#
#
# Mechanical properties :
#
#
# Convention : Reuss Voigt Hill
#
# Bulk Modulus (GPa) = 31.86588 42.03030 36.94809
# Shear Modulus (GPa) = 26.90764 29.65999 28.28382
#
# Velocity S-wave (km/s) = 3.47449 3.64786 3.56223
# Velocity P-wave (km/s) = 5.51295 6.04974 5.78757
#
# Compressibility (1/GPa) = 0.03138153
#
# Stress axis : x y z
#
# Youngs Moduli (GPa) = 58.13228 40.37465 104.65425
#
# Poissons Ratio (x) = 0.18933 0.57186
# Poissons Ratio (y) = 0.27260 -0.00855
# Poissons Ratio (z) = 0.31765 -0.00330
#
# Static dielectric constant tensor:
#      x y z
#    x 1.783570 0.000000 0.000000 
#    y 0.000000 1.974360 0.000000 
#    z 0.000000 0.000000 1.908840 
# 
# From -- ./inp_files/36573.got.cif
#   From: 2010.05.17/outbox.cif.g08.bks.cpg/sg48_19_cif.got.tgz:36573.got - 2010.06.03 20:39:00.
