data_PCOD9389452
_publ_section_title
;
Structure prediction by ZEFSAII (Michael W. Deem and Ramdas Pophale) SiO2 
 PCOD9389452
Probable space group: P M M M
;
_chemical_formula_sum "Si O2"
_cell_formula_units_Z 56
_cell_length_a 9.000000
_cell_length_b 15.000000
_cell_length_c 21.000000
_cell_angle_alpha 90.000000
_cell_angle_beta 90.000000
_cell_angle_gamma 90.000000
_cell_volume 2835.000000
_symmetry_space_group_name_H-M "P M M M"
_symmetry_group_IT_number 47
_symmetry_cell_setting 'orthorhombic'
loop_
_space_group_symop_operation_xyz
x,y,z
-x,-y,z
x,-y,-z
-x,y,-z
-x,-y,-z
x,y,-z
-x,y,z
x,-y,z
loop_
_atom_site_type_symbol
_atom_site_label
_atom_site_fract_x
_atom_site_fract_y
_atom_site_fract_z
Si Si1 0.822883 0.902340 0.667179
Si Si2 0.176420 0.902299 0.182101
Si Si3 0.170459 0.597796 0.259477
Si Si4 0.324211 0.272695 0.176573
Si Si5 0.680810 0.601377 0.932123
Si Si6 0.674990 0.221819 0.431987
Si Si7 0.169299 0.599394 0.588444
O O1 0.791610 0.898046 0.742241
O O2 0.750706 0.826159 0.626528
O O3 0.000000 0.897226 0.660898
O O4 0.772560 0.000000 0.644428
O O5 0.267503 0.822061 0.154533
O O6 0.000000 0.890297 0.174405
O O7 0.216954 0.000000 0.158473
O O8 0.231491 0.500000 0.238242
O O9 0.258518 0.685721 0.240313
O O10 0.168291 0.596260 0.335279
O O11 0.000000 0.604617 0.237221
O O12 0.500000 0.272994 0.180090
O O13 0.264452 0.343287 0.126069
O O14 0.500000 0.600776 0.929711
O O15 0.729901 0.500000 0.928982
O O16 0.724209 0.640280 0.000000
O O17 0.726103 0.183065 0.500000
O O18 0.500000 0.211696 0.427222
O O19 0.719574 0.324719 0.431597
O O20 0.206045 0.500000 0.567152
O O21 0.000000 0.621134 0.569294
#
# Coordination Sequence:
#
# PCOD9389452 Si02
#       7
#     8   8   8   8   8   8   8
#     4   9  19  37  59  78  95 122 163 204 240 287
#     4   9  19  36  55  74  99 131 163 197 244 301
#     4   9  18  32  49  71 101 133 161 194 243 300
#     4  11  20  28  47  79 106 128 163 210 252 291
#     4   8  15  29  47  68 100 141 177 206 239 281
#     4  11  24  37  49  71 102 131 158 194 246 302
#     4   9  19  36  55  72  92 125 169 208 240 283
#
# _framework density 19.753086
#
# number of rings (size 3 to 8) (size 9 to 14) (size 15 to 20)
#    0.000    2.571    0.000    4.286    0.000    8.000 
#    0.000    5.714    0.000    2.143    0.000    8.000 
#    0.000    0.000    0.000    0.000    0.000    0.000 
#
# Total GULP energy -311821.635763 kJ/mol
# GULP energy per Si atom -5568.243496 kJ/mol
# Density = 1.970813 g / cm^3
# Si number density = 19.753086 Si / 1000 Ang^3
#
#
#
# Elastic Constant Matrix: (Units=GPa)
#
#
# Indices 1 2 3 4 5 6 
#
# 1 -35.5618 14.8080 12.0535 0.0000 0.0000 0.0000
# 2 14.8080 58.5752 15.1817 0.0000 0.0000 0.0000
# 3 12.0535 15.1817 39.4004 0.0000 0.0000 0.0000
# 4 0.0000 0.0000 0.0000 -68.9936 0.0000 0.0000
# 5 0.0000 0.0000 0.0000 0.0000 7.7008 0.0000
# 6 0.0000 0.0000 0.0000 0.0000 0.0000 96.2826
#
#
#
# Elastic Compliance Matrix: (Units=1/GPa)
#
#
# Indices 1 2 3 4 5 6 
#
# 1 -0.024267 0.004678 0.005621 0.000000 0.000000 0.000000
# 2 0.004678 0.018064 -0.008392 0.000000 0.000000 0.000000
# 3 0.005621 -0.008392 0.026894 0.000000 0.000000 0.000000
# 4 0.000000 0.000000 0.000000 -0.014494 0.000000 0.000000
# 5 0.000000 0.000000 0.000000 0.000000 0.129857 0.000000
# 6 0.000000 0.000000 0.000000 0.000000 0.000000 0.010386
#
#
# Mechanical properties :
#
#
# Convention : Reuss Voigt Hill
#
# Bulk Modulus (GPa) = 40.80495 16.27778 28.54137
# Shear Modulus (GPa) = 33.15777 8.35600 20.75688
#
# Velocity S-wave (km/s) = 4.10153 2.05898 3.24515
# Velocity P-wave (km/s) = 6.56753 3.72975 5.34058
#
# Compressibility (1/GPa) = 0.02450683
#
# Stress axis : x y z
#
# Youngs Moduli (GPa) = -41.20839 55.35731 37.18275
#
# Poissons Ratio (x) = -0.25895 -0.20902
# Poissons Ratio (y) = 0.19276 0.31202
# Poissons Ratio (z) = 0.23165 0.46454
#
# Static dielectric constant tensor:
#      x y z
#    x 1.660470 0.000000 0.000000 
#    y 0.000000 1.736710 0.000000 
#    z 0.000000 0.000000 1.680680 
# 
# From -- ./inp_files/7251.got.cif
#   From: 2010.05.17/outbox.ucp.g08.bks.cvg/sg47_4_cif.got.tgz:7251.got - 2010.06.11 16:36:43.
