data_PCOD9389346
_publ_section_title
;
Structure prediction by ZEFSAII (Michael W. Deem and Ramdas Pophale) SiO2 
 PCOD9389346
Probable space group: P M M M
;
_chemical_formula_sum "Si O2"
_cell_formula_units_Z 64
_cell_length_a 24.000000
_cell_length_b 15.000000
_cell_length_c 9.000000
_cell_angle_alpha 90.000000
_cell_angle_beta 90.000000
_cell_angle_gamma 90.000000
_cell_volume 3240.000000
_symmetry_space_group_name_H-M "P M M M"
_symmetry_group_IT_number 47
_symmetry_cell_setting 'orthorhombic'
loop_
_space_group_symop_operation_xyz
x,y,z
-x,-y,z
x,-y,-z
-x,y,-z
-x,-y,-z
x,y,-z
-x,y,z
x,-y,z
loop_
_atom_site_type_symbol
_atom_site_label
_atom_site_fract_x
_atom_site_fract_y
_atom_site_fract_z
Si Si1 0.565373 0.105830 0.331117
Si Si2 0.253158 0.740932 0.321301
Si Si3 0.060218 0.149066 0.320575
Si Si4 0.167045 0.598624 0.668585
Si Si5 0.818612 0.094663 0.319125
Si Si6 0.939388 0.343553 0.824567
Si Si7 0.566769 0.601329 0.667624
Si Si8 0.369553 0.748667 0.829874
O O1 0.581736 0.130767 0.500000
O O2 0.500000 0.127232 0.314932
O O3 0.601060 0.159931 0.215784
O O4 0.571488 0.000000 0.316726
O O5 0.253551 0.740508 0.500000
O O6 0.214454 0.660962 0.269211
O O7 0.221000 0.827989 0.266813
O O8 0.314740 0.736137 0.265381
O O9 0.060880 0.149711 0.500000
O O10 0.117317 0.104044 0.270899
O O11 0.062616 0.249184 0.259553
O O12 0.000000 0.110720 0.274732
O O13 0.152436 0.628728 0.500000
O O14 0.189404 0.500000 0.660134
O O15 0.111812 0.601709 0.764242
O O16 0.819613 0.098492 0.500000
O O17 0.795782 0.000000 0.273201
O O18 0.000000 0.384509 0.794605
O O19 0.934765 0.328561 0.000000
O O20 0.584214 0.627907 0.500000
O O21 0.500000 0.601499 0.669163
O O22 0.585697 0.500000 0.693227
O O23 0.589223 0.669442 0.786276
O O24 0.354888 0.747186 0.000000
#
# Coordination Sequence:
#
# PCOD9389346 Si02
#       8
#     8   8   8   8   8   8   8   8
#     4   9  19  38  64  91 118 152 196 241 282 329
#     4  10  21  39  57  76 106 146 193 238 276 323
#     4   9  16  29  52  80 109 138 172 218 272 330
#     4  10  21  38  60  82 103 134 181 234 282 326
#     4   9  17  31  54  82 107 134 175 227 279 327
#     4  10  20  33  52  79 111 144 176 214 268 335
#     4   9  19  38  64  91 118 151 192 234 275 327
#     4  12  25  37  55  86 122 157 191 233 286 343
#
# _framework density 19.753086
#
# number of rings (size 3 to 8) (size 9 to 14) (size 15 to 20)
#    0.000    2.250    1.250    2.625    0.000    5.500 
#    0.000    6.250    0.000    1.125    0.000    1.750 
#    0.000    0.000    0.000    0.000    0.000    0.000 
#
# Total GULP energy -356698.901870 kJ/mol
# GULP energy per Si atom -5573.420342 kJ/mol
# Density = 1.970813 g / cm^3
# Si number density = 19.753086 Si / 1000 Ang^3
#
#
#
# Elastic Constant Matrix: (Units=GPa)
#
#
# Indices 1 2 3 4 5 6 
#
# 1 51.3734 40.8452 16.0750 0.0000 0.0000 0.0000
# 2 40.8452 63.5452 10.1033 0.0000 0.0000 0.0000
# 3 16.0750 10.1033 -0.3777 0.0000 0.0000 0.0000
# 4 0.0000 0.0000 0.0000 -1.4212 0.0000 0.0000
# 5 0.0000 0.0000 0.0000 0.0000 -1.4077 0.0000
# 6 0.0000 0.0000 0.0000 0.0000 0.0000 89.7224
#
#
#
# Elastic Compliance Matrix: (Units=1/GPa)
#
#
# Indices 1 2 3 4 5 6 
#
# 1 0.014008 -0.019760 0.067647 0.000000 0.000000 0.000000
# 2 -0.019760 0.030868 -0.015283 0.000000 0.000000 0.000000
# 3 0.067647 -0.015283 -0.177358 0.000000 0.000000 0.000000
# 4 0.000000 0.000000 0.000000 -0.703632 0.000000 0.000000
# 5 0.000000 0.000000 0.000000 0.000000 -0.710376 0.000000
# 6 0.000000 0.000000 0.000000 0.000000 0.000000 0.011145
#
#
# Mechanical properties :
#
#
# Convention : Reuss Voigt Hill
#
# Bulk Modulus (GPa) = -14.86488 27.62088 6.37800
# Shear Modulus (GPa) = -3.08076 20.54653 8.73288
#
# Velocity S-wave (km/s) = -1.25021 3.22866 2.10490
# Velocity P-wave (km/s) = 3.10253 5.28322 3.02380
#
# Compressibility (1/GPa) = -0.06727267
#
# Stress axis : x y z
#
# Youngs Moduli (GPa) = 71.38531 32.39620 -5.63832
#
# Poissons Ratio (x) = 0.64014 0.38142
# Poissons Ratio (y) = 1.41056 -0.08617
# Poissons Ratio (z) = -4.82902 0.49511
#
# Static dielectric constant tensor:
#      x y z
#    x 1.671810 0.000000 0.000000 
#    y 0.000000 1.735710 0.000000 
#    z 0.000000 0.000000 1.693350 
# 
# From -- ./inp_files/12735.got.cif
#   From: 2010.05.17/outbox.ucp.g08.bks.cvg/sg47_7_cif.got.tgz:12735.got - 2010.06.11 16:36:43.
