data_PCOD9389195
_publ_section_title
;
Structure prediction by ZEFSAII (Michael W. Deem and Ramdas Pophale) SiO2 
 PCOD9389195
Probable space group: P M M M
;
_chemical_formula_sum "Si O2"
_cell_formula_units_Z 32
_cell_length_a 23.450310
_cell_length_b 7.451257
_cell_length_c 8.218320
_cell_angle_alpha 90.000000
_cell_angle_beta 90.000000
_cell_angle_gamma 90.000000
_cell_volume 1436.022282
_symmetry_space_group_name_H-M "P M M M"
_symmetry_group_IT_number 47
_symmetry_cell_setting 'orthorhombic'
loop_
_space_group_symop_operation_xyz
x,y,z
-x,-y,z
x,-y,-z
-x,y,-z
-x,-y,-z
x,y,-z
-x,y,z
x,-y,z
loop_
_atom_site_type_symbol
_atom_site_label
_atom_site_fract_x
_atom_site_fract_y
_atom_site_fract_z
Si Si1 0.635479 0.280629 0.319366
Si Si2 0.000000 0.206801 0.692655
Si Si3 0.565731 0.280952 0.000000
Si Si4 0.755353 0.713269 0.186488
Si Si5 0.120493 0.215563 0.186353
O O1 0.616980 0.223275 0.500000
O O2 0.634253 0.500000 0.319787
O O3 0.597854 0.223484 0.164858
O O4 0.700654 0.222164 0.285129
O O5 0.060705 0.286080 0.745138
O O6 0.000000 0.200981 0.500000
O O7 0.000000 0.000000 0.756040
O O8 0.567201 0.500000 0.000000
O O9 0.500000 0.225664 0.000000
O O10 0.748323 0.500000 0.173614
O O11 0.817994 0.741852 0.261667
O O12 0.754382 0.785538 0.000000
O O13 0.117250 0.000000 0.190146
O O14 0.123861 0.277462 0.000000
#
# Coordination Sequence:
#
# PCOD9389195 Si02
#       5
#     8   4   4   8   8
#     4   9  16  26  41  61  87 120 154 187 227 273
#     4   9  17  29  44  61  84 114 144 179 228 278
#     4   9  16  26  40  60  89 122 155 190 224 265
#     4   9  16  28  45  63  87 119 150 182 225 274
#     4   9  17  29  46  66  86 111 147 188 226 268
#
# _framework density 22.283777000000001
#
# number of rings (size 3 to 8) (size 9 to 14) (size 15 to 20)
#    0.000    3.000    1.250    0.375    0.000    3.000 
#    0.000    3.125    0.000    3.750    0.000    0.000 
#    0.000    2.000    0.000    2.250    0.000    2.500 
#
# Total GULP energy -178428.714581 kJ/mol
# GULP energy per Si atom -5575.897331 kJ/mol
# Density = 2.223306 g / cm^3
# Si number density = 22.283777 Si / 1000 Ang^3
#
#
#
# Elastic Constant Matrix: (Units=GPa)
#
#
# Indices 1 2 3 4 5 6 
#
# 1 213.9866 2.5045 100.4302 0.0000 0.0000 0.0000
# 2 2.5045 63.5982 4.7926 0.0000 0.0000 0.0000
# 3 100.4302 4.7926 130.4085 0.0000 0.0000 0.0000
# 4 0.0000 0.0000 0.0000 -5.2027 0.0000 0.0000
# 5 0.0000 0.0000 0.0000 0.0000 -8.4925 0.0000
# 6 0.0000 0.0000 0.0000 0.0000 0.0000 18.6314
#
#
#
# Elastic Compliance Matrix: (Units=1/GPa)
#
#
# Indices 1 2 3 4 5 6 
#
# 1 0.007320 0.000137 -0.005642 0.000000 0.000000 0.000000
# 2 0.000137 0.015770 -0.000685 0.000000 0.000000 0.000000
# 3 -0.005642 -0.000685 0.012038 0.000000 0.000000 0.000000
# 4 0.000000 0.000000 0.000000 -0.192208 0.000000 0.000000
# 5 0.000000 0.000000 0.000000 0.000000 -0.117751 0.000000
# 6 0.000000 0.000000 0.000000 0.000000 0.000000 0.053673
#
#
# Mechanical properties :
#
#
# Convention : Reuss Voigt Hill
#
# Bulk Modulus (GPa) = 43.96034 69.27197 56.61615
# Shear Modulus (GPa) = -24.85145 21.00496 -1.92324
#
# Velocity S-wave (km/s) = -3.34312 3.07353 -0.93002
# Velocity P-wave (km/s) = 2.20644 6.61432 4.93039
#
# Compressibility (1/GPa) = 0.02274778
#
# Stress axis : x y z
#
# Youngs Moduli (GPa) = 136.62113 63.41181 83.06784
#
# Poissons Ratio (x) = -0.00868 0.46866
# Poissons Ratio (y) = -0.01871 0.05690
# Poissons Ratio (z) = 0.77081 0.04344
#
# Static dielectric constant tensor:
#      x y z
#    x 1.839620 0.000000 0.000000 
#    y 0.000000 1.875910 0.000000 
#    z 0.000000 0.000000 1.798860 
# 
# From -- ./inp_files/1284.got.cif
#   From: 2010.05.17/outbox.cif.g08.bks.cpg/sg47_1_cif.got.tgz:1284.got - 2010.06.03 20:15:42.
