data_PCOD9389703
_publ_section_title
;
Structure prediction by ZEFSAII (Michael W. Deem and Ramdas Pophale) SiO2 
 PCOD9389703
Probable space group: P N N N
;
_chemical_formula_sum "Si O2"
_cell_formula_units_Z 48
_cell_length_a 13.711792
_cell_length_b 20.483882
_cell_length_c 9.995585
_cell_angle_alpha 90.000000
_cell_angle_beta 90.000000
_cell_angle_gamma 90.000000
_cell_volume 2807.467249
_symmetry_space_group_name_H-M "P N N N"
_symmetry_group_IT_number 48
_space_group.IT_coordinate_system_code '2'
_symmetry_cell_setting 'orthorhombic'
loop_
_space_group_symop_operation_xyz
x,y,z
1/2-x,1/2-y,z
x,1/2-y,1/2-z
1/2-x,y,1/2-z
-x,-y,-z
1/2+x,1/2+y,-z
-x,1/2+y,1/2+z
1/2+x,-y,1/2+z
loop_
_atom_site_type_symbol
_atom_site_label
_atom_site_fract_x
_atom_site_fract_y
_atom_site_fract_z
Si Si1 0.586331 0.527031 0.400701
Si Si2 0.346822 0.453657 0.322648
Si Si3 0.132848 0.684438 0.024941
Si Si4 0.638922 0.163202 0.483066
Si Si5 0.443548 0.895623 0.786398
Si Si6 0.074023 0.594535 0.256022
O O1 0.500000 0.500000 0.500000
O O2 0.659418 0.551717 0.515004
O O3 0.614940 0.462891 0.317763
O O4 0.534474 0.576933 0.298950
O O5 0.250000 0.430422 0.250000
O O6 0.443678 0.416545 0.271431
O O7 0.364771 0.529675 0.282412
O O8 0.112051 0.655180 0.169731
O O9 0.243487 0.663799 0.988775
O O10 0.115871 0.761376 0.015890
O O11 0.065299 0.648285 0.917959
O O12 0.600448 0.142040 0.338622
O O13 0.591270 0.114595 0.591586
#
# Coordination Sequence:
#
# PCOD9389703 Si02
#       6
#     8   8   8   8   8   8
#     4   8  16  32  54  70  99 140 168 212 275 306
#     4  10  18  33  59  76  96 139 181 217 262 316
#     4  11  19  36  48  74 111 147 173 199 262 327
#     4  11  23  28  52  80 107 142 175 212 250 324
#     4  10  19  35  49  73 110 135 174 218 268 305
#     4  10  18  34  53  77 108 137 173 214 259 319
#
# _framework density 17.097262000000001
#
# number of rings (size 3 to 8) (size 9 to 14) (size 15 to 20)
#    0.000    2.333    5.000    3.000    0.000    5.333 
#    0.000    0.000    0.000    2.000    0.000    0.000 
#    5.000    0.000    0.000    0.000    0.000    0.000 
#
# Total GULP energy -267347.792540 kJ/mol
# GULP energy per Si atom -5569.745678 kJ/mol
# Density = 1.705835 g / cm^3
# Si number density = 17.097262 Si / 1000 Ang^3
#
#
#
# Elastic Constant Matrix: (Units=GPa)
#
#
# Indices 1 2 3 4 5 6 
#
# 1 41.9876 16.2018 10.4589 0.0000 0.0000 0.0000
# 2 16.2018 55.1736 -6.1493 0.0000 0.0000 0.0000
# 3 10.4589 -6.1493 41.5488 0.0000 0.0000 0.0000
# 4 0.0000 0.0000 0.0000 28.0892 0.0000 0.0000
# 5 0.0000 0.0000 0.0000 0.0000 22.7825 0.0000
# 6 0.0000 0.0000 0.0000 0.0000 0.0000 17.8716
#
#
#
# Elastic Compliance Matrix: (Units=1/GPa)
#
#
# Indices 1 2 3 4 5 6 
#
# 1 0.029807 -0.009750 -0.008946 0.000000 0.000000 0.000000
# 2 -0.009750 0.021618 0.005654 0.000000 0.000000 0.000000
# 3 -0.008946 0.005654 0.027157 0.000000 0.000000 0.000000
# 4 0.000000 0.000000 0.000000 0.035601 0.000000 0.000000
# 5 0.000000 0.000000 0.000000 0.000000 0.043893 0.000000
# 6 0.000000 0.000000 0.000000 0.000000 0.000000 0.055955
#
#
# Mechanical properties :
#
#
# Convention : Reuss Voigt Hill
#
# Bulk Modulus (GPa) = 19.04872 19.97032 19.50952
# Shear Modulus (GPa) = 19.40882 21.62858 20.51870
#
# Velocity S-wave (km/s) = 3.37293 3.56059 3.46803
# Velocity P-wave (km/s) = 5.13171 5.34878 5.24137
#
# Compressibility (1/GPa) = 0.05249698
#
# Stress axis : x y z
#
# Youngs Moduli (GPa) = 33.54885 46.25810 36.82311
#
# Poissons Ratio (x) = 0.45102 0.32943
# Poissons Ratio (y) = 0.32710 -0.20819
# Poissons Ratio (z) = 0.30014 -0.26154
#
# Static dielectric constant tensor:
#      x y z
#    x 1.613430 0.000000 0.000000 
#    y 0.000000 1.603360 0.000000 
#    z 0.000000 0.000000 1.594910 
# 
# From -- ./inp_files/12959.got.cif
#   From: 2010.05.17/outbox.cif.g08.bks.cpg/sg48_7_cif.got.tgz:12959.got - 2010.06.03 20:39:00.
