data_PCOD9389809
_publ_section_title
;
Structure prediction by ZEFSAII (Michael W. Deem and Ramdas Pophale) SiO2 
 PCOD9389809
Probable space group: P N N N
;
_chemical_formula_sum "Si O2"
_cell_formula_units_Z 34
_cell_length_a 9.627935
_cell_length_b 8.600535
_cell_length_c 16.780190
_cell_angle_alpha 90.000000
_cell_angle_beta 90.000000
_cell_angle_gamma 90.000000
_cell_volume 1389.490210
_symmetry_space_group_name_H-M "P N N N"
_symmetry_group_IT_number 48
_space_group.IT_coordinate_system_code '2'
_symmetry_cell_setting 'orthorhombic'
loop_
_space_group_symop_operation_xyz
x,y,z
1/2-x,1/2-y,z
x,1/2-y,1/2-z
1/2-x,y,1/2-z
-x,-y,-z
1/2+x,1/2+y,-z
-x,1/2+y,1/2+z
1/2+x,-y,1/2+z
loop_
_atom_site_type_symbol
_atom_site_label
_atom_site_fract_x
_atom_site_fract_y
_atom_site_fract_z
Si Si1 0.593045 0.202367 0.122215
Si Si2 0.750000 0.750000 0.250000
Si Si3 0.965447 0.000031 0.231923
Si Si4 0.148826 0.898055 0.107602
Si Si5 0.115640 0.181106 0.997315
O O1 0.750000 0.250000 0.094690
O O2 0.561523 0.346121 0.180856
O O3 0.479591 0.209573 0.053237
O O4 0.565533 0.050239 0.176699
O O5 0.855411 0.869244 0.210016
O O6 0.112850 0.939708 0.199318
O O7 0.250000 0.750000 0.100999
O O8 0.186393 0.050979 0.055833
O O9 0.999168 0.871987 0.065276
O O10 0.250000 0.250000 0.955931
#
# Coordination Sequence:
#
# PCOD9389809 Si02
#       5
#     8   2   8   8   8
#     4  10  18  41  66  92 126 177 229 272 323 415
#     4  12  20  34  54 100 128 170 198 270 344 394
#     4  10  21  36  64  89 131 172 221 266 340 403
#     4  10  23  44  62  98 138 173 222 290 348 397
#     4  10  23  41  68  97 129 180 233 275 340 419
#
# _framework density 24.469404000000001
#
# number of rings (size 3 to 8) (size 9 to 14) (size 15 to 20)
#    0.000    1.882    2.353    1.412    1.647    2.824 
#    0.000   15.882    0.000    0.000    0.000    0.000 
#    0.000    0.000    0.000    0.000    0.000    0.000 
#
# Total GULP energy -189530.669602 kJ/mol
# GULP energy per Si atom -5574.431459 kJ/mol
# Density = 2.441371 g / cm^3
# Si number density = 24.469404 Si / 1000 Ang^3
#
#
#
# Elastic Constant Matrix: (Units=GPa)
#
#
# Indices 1 2 3 4 5 6 
#
# 1 118.3325 44.1597 38.7775 0.0000 0.0000 0.0000
# 2 44.1597 74.3507 33.8812 0.0000 0.0000 0.0000
# 3 38.7775 33.8812 73.4346 0.0000 0.0000 0.0000
# 4 0.0000 0.0000 0.0000 14.3284 0.0000 0.0000
# 5 0.0000 0.0000 0.0000 0.0000 53.3378 0.0000
# 6 0.0000 0.0000 0.0000 0.0000 0.0000 53.9199
#
#
#
# Elastic Compliance Matrix: (Units=1/GPa)
#
#
# Indices 1 2 3 4 5 6 
#
# 1 0.011614 -0.005196 -0.003736 0.000000 0.000000 0.000000
# 2 -0.005196 0.019355 -0.006186 0.000000 0.000000 0.000000
# 3 -0.003736 -0.006186 0.018444 0.000000 0.000000 0.000000
# 4 0.000000 0.000000 0.000000 0.069791 0.000000 0.000000
# 5 0.000000 0.000000 0.000000 0.000000 0.018748 0.000000
# 6 0.000000 0.000000 0.000000 0.000000 0.000000 0.018546
#
#
# Mechanical properties :
#
#
# Convention : Reuss Voigt Hill
#
# Bulk Modulus (GPa) = 52.14325 55.52828 53.83577
# Shear Modulus (GPa) = 25.88980 34.27053 30.08017
#
# Velocity S-wave (km/s) = 3.25629 3.74645 3.50994
# Velocity P-wave (km/s) = 5.95766 6.43869 6.20284
#
# Compressibility (1/GPa) = 0.01917794
#
# Stress axis : x y z
#
# Youngs Moduli (GPa) = 86.10422 51.66703 54.21703
#
# Poissons Ratio (x) = 0.26844 0.20253
# Poissons Ratio (y) = 0.44736 0.33540
# Poissons Ratio (z) = 0.32165 0.31963
#
# Static dielectric constant tensor:
#      x y z
#    x 2.075000 0.000000 0.000000 
#    y 0.000000 2.029450 0.000000 
#    z 0.000000 0.000000 2.036780 
# 
# From -- ./inp_files/14826.got.cif
#   From: 2010.05.17/outbox.cif.g08.bks.cpg/sg48_8_cif.got.tgz:14826.got - 2010.06.03 20:39:00.
