data_PCOD9389036
_publ_section_title
;
Structure prediction by ZEFSAII (Michael W. Deem and Ramdas Pophale) SiO2 
 PCOD9389036
Probable space group: P M M M
;
_chemical_formula_sum "Si O2"
_cell_formula_units_Z 44
_cell_length_a 13.292776
_cell_length_b 23.540593
_cell_length_c 7.496041
_cell_angle_alpha 90.000000
_cell_angle_beta 90.000000
_cell_angle_gamma 90.000000
_cell_volume 2345.659873
_symmetry_space_group_name_H-M "P M M M"
_symmetry_group_IT_number 47
_symmetry_cell_setting 'orthorhombic'
loop_
_space_group_symop_operation_xyz
x,y,z
-x,-y,z
x,-y,-z
-x,y,-z
-x,-y,-z
x,y,-z
-x,y,z
x,-y,z
loop_
_atom_site_type_symbol
_atom_site_label
_atom_site_fract_x
_atom_site_fract_y
_atom_site_fract_z
Si Si1 0.822249 0.817423 0.704925
Si Si2 0.120443 0.938877 0.711317
Si Si3 0.112091 0.306752 0.714537
Si Si4 0.500000 0.434853 0.781197
Si Si5 0.327227 0.649580 0.787687
Si Si6 0.611075 0.775027 0.216493
O O1 0.859742 0.818999 0.500000
O O2 0.847914 0.878080 0.788352
O O3 0.863890 0.757653 0.781434
O O4 0.702519 0.810900 0.709292
O O5 0.147560 0.938362 0.500000
O O6 0.000000 0.939746 0.722215
O O7 0.157053 0.000000 0.783756
O O8 0.110256 0.303633 0.500000
O O9 0.207151 0.347152 0.756226
O O10 0.000000 0.323880 0.774994
O O11 0.500000 0.500000 0.722830
O O12 0.600521 0.400805 0.722380
O O13 0.500000 0.435325 0.000000
O O14 0.370193 0.710093 0.723413
O O15 0.339766 0.649511 0.000000
O O16 0.500000 0.793525 0.268633
O O17 0.617246 0.775813 0.000000
#
# Coordination Sequence:
#
# PCOD9389036 Si02
#       6
#     8   8   8   4   8   8
#     4   9  16  25  40  63  85 106 137 176 212 248
#     4   8  13  22  38  59  81 105 133 167 208 252
#     4   9  17  28  42  63  92 121 144 172 215 260
#     4   9  16  28  49  73  93 113 140 179 222 256
#     4   9  16  28  46  67  89 113 143 177 213 255
#     4   9  16  27  42  59  83 112 137 165 207 256
#
# _framework density 18.758047999999999
#
# number of rings (size 3 to 8) (size 9 to 14) (size 15 to 20)
#    0.000    3.182    0.909    1.091    0.000    2.909 
#    0.000    0.455    0.000    4.364    0.000    8.909 
#    0.000    0.000    0.000    0.000    0.000    0.000 
#
# Total GULP energy -244943.642564 kJ/mol
# GULP energy per Si atom -5566.900967 kJ/mol
# Density = 1.871535 g / cm^3
# Si number density = 18.758048 Si / 1000 Ang^3
#
#
#
# Elastic Constant Matrix: (Units=GPa)
#
#
# Indices 1 2 3 4 5 6 
#
# 1 120.3103 61.4338 -1.7070 0.0000 0.0000 0.0000
# 2 61.4338 130.9975 7.9204 0.0000 0.0000 0.0000
# 3 -1.7070 7.9204 49.0151 0.0000 0.0000 0.0000
# 4 0.0000 0.0000 0.0000 6.7095 0.0000 0.0000
# 5 0.0000 0.0000 0.0000 0.0000 17.1482 0.0000
# 6 0.0000 0.0000 0.0000 0.0000 0.0000 29.7853
#
#
#
# Elastic Compliance Matrix: (Units=1/GPa)
#
#
# Indices 1 2 3 4 5 6 
#
# 1 0.011002 -0.005234 0.001229 0.000000 0.000000 0.000000
# 2 -0.005234 0.010199 -0.001830 0.000000 0.000000 0.000000
# 3 0.001229 -0.001830 0.020740 0.000000 0.000000 0.000000
# 4 0.000000 0.000000 0.000000 0.149042 0.000000 0.000000
# 5 0.000000 0.000000 0.000000 0.000000 0.058315 0.000000
# 6 0.000000 0.000000 0.000000 0.000000 0.000000 0.033574
#
#
# Mechanical properties :
#
#
# Convention : Reuss Voigt Hill
#
# Bulk Modulus (GPa) = 33.03532 48.40193 40.71862
# Shear Modulus (GPa) = 16.41324 26.24034 21.32679
#
# Velocity S-wave (km/s) = 2.96124 3.74422 3.37551
# Velocity P-wave (km/s) = 5.41678 6.67470 6.07837
#
# Compressibility (1/GPa) = 0.03027064
#
# Stress axis : x y z
#
# Youngs Moduli (GPa) = 90.89420 98.04985 48.21501
#
# Poissons Ratio (x) = 0.51317 -0.05925
# Poissons Ratio (y) = 0.47572 0.08825
# Poissons Ratio (z) = -0.11170 0.17946
#
# Static dielectric constant tensor:
#      x y z
#    x 1.654740 0.000000 0.000000 
#    y 0.000000 1.670020 0.000000 
#    z 0.000000 0.000000 1.742510 
# 
# From -- ./inp_files/4294.got.cif
#   From: 2010.05.17/outbox.cif.g08.bks.cpg/sg47_3_cif.got.tgz:4294.got - 2010.06.03 20:15:42.
