data_PCOD9389142
_publ_section_title
;
Structure prediction by ZEFSAII (Michael W. Deem and Ramdas Pophale) SiO2 
 PCOD9389142
Probable space group: P M M M
;
_chemical_formula_sum "Si O2"
_cell_formula_units_Z 44
_cell_length_a 13.865891
_cell_length_b 9.208806
_cell_length_c 16.675393
_cell_angle_alpha 90.000000
_cell_angle_beta 90.000000
_cell_angle_gamma 90.000000
_cell_volume 2129.252588
_symmetry_space_group_name_H-M "P M M M"
_symmetry_group_IT_number 47
_symmetry_cell_setting 'orthorhombic'
loop_
_space_group_symop_operation_xyz
x,y,z
-x,-y,z
x,-y,-z
-x,y,-z
-x,-y,-z
x,y,-z
-x,y,z
x,-y,z
loop_
_atom_site_type_symbol
_atom_site_label
_atom_site_fract_x
_atom_site_fract_y
_atom_site_fract_z
Si Si1 0.116088 0.332726 0.254048
Si Si2 0.609960 0.326553 0.174311
Si Si3 0.201156 0.675695 0.087506
Si Si4 0.618267 0.667600 0.500000
Si Si5 0.382585 0.832945 0.338579
Si Si6 0.882707 0.830075 0.587172
O O1 0.149581 0.500000 0.259482
O O2 0.147527 0.272152 0.167576
O O3 0.151070 0.247986 0.332416
O O4 0.000000 0.333243 0.255546
O O5 0.500000 0.284026 0.155593
O O6 0.611213 0.500000 0.188066
O O7 0.686274 0.295434 0.104785
O O8 0.641743 0.249106 0.256360
O O9 0.187863 0.500000 0.086041
O O10 0.171116 0.730947 0.000000
O O11 0.649325 0.500000 0.500000
O O12 0.500000 0.666935 0.500000
O O13 0.648362 0.751158 0.580653
O O14 0.500000 0.833206 0.340749
O O15 0.351011 0.000000 0.337761
O O16 0.852760 0.769539 0.500000
O O17 0.000000 0.821735 0.588292
O O18 0.858267 0.000000 0.589556
#
# Coordination Sequence:
#
# PCOD9389142 Si02
#       6
#     8   8   8   4   8   8
#     4   9  17  29  48  75 104 133 164 198 239 290
#     4   9  17  30  49  70  91 120 162 209 254 297
#     4   9  18  32  50  73 100 128 162 207 254 299
#     4   9  15  23  39  65  95 125 160 199 238 287
#     4   9  16  26  42  65  93 124 157 196 244 294
#     4   8  14  26  46  72 101 133 166 198 237 286
#
# _framework density 20.664529999999999
#
# number of rings (size 3 to 8) (size 9 to 14) (size 15 to 20)
#    0.000    3.182    0.000    1.364    0.000    4.364 
#    0.000    6.364    2.000    2.182    0.000    5.091 
#    0.000    0.000    0.000    0.000    0.000    0.000 
#
# Total GULP energy -245526.018087 kJ/mol
# GULP energy per Si atom -5580.136775 kJ/mol
# Density = 2.061750 g / cm^3
# Si number density = 20.664530 Si / 1000 Ang^3
#
#
#
# Elastic Constant Matrix: (Units=GPa)
#
#
# Indices 1 2 3 4 5 6 
#
# 1 47.3793 -2.9076 22.2895 0.0000 0.0000 0.0000
# 2 -2.9076 48.6085 51.4306 0.0000 0.0000 0.0000
# 3 22.2895 51.4306 198.6540 0.0000 0.0000 0.0000
# 4 0.0000 0.0000 0.0000 -48.7849 0.0000 0.0000
# 5 0.0000 0.0000 0.0000 0.0000 25.8086 0.0000
# 6 0.0000 0.0000 0.0000 0.0000 0.0000 3.2105
#
#
#
# Elastic Compliance Matrix: (Units=1/GPa)
#
#
# Indices 1 2 3 4 5 6 
#
# 1 0.023395 0.005753 -0.004114 0.000000 0.000000 0.000000
# 2 0.005753 0.029748 -0.008347 0.000000 0.000000 0.000000
# 3 -0.004114 -0.008347 0.007657 0.000000 0.000000 0.000000
# 4 0.000000 0.000000 0.000000 -0.020498 0.000000 0.000000
# 5 0.000000 0.000000 0.000000 0.000000 0.038747 0.000000
# 6 0.000000 0.000000 0.000000 0.000000 0.000000 0.311476
#
#
# Mechanical properties :
#
#
# Convention : Reuss Voigt Hill
#
# Bulk Modulus (GPa) = 21.10503 48.47409 34.78956
# Shear Modulus (GPa) = 11.91224 10.96880 11.44052
#
# Velocity S-wave (km/s) = 2.40356 2.30642 2.35549
# Velocity P-wave (km/s) = 4.23534 5.53184 4.92643
#
# Compressibility (1/GPa) = 0.04738208
#
# Stress axis : x y z
#
# Youngs Moduli (GPa) = 42.74443 33.61519 130.60697
#
# Poissons Ratio (x) = -0.19337 0.53735
# Poissons Ratio (y) = -0.24589 1.09020
# Poissons Ratio (z) = 0.17586 0.28059
#
# Static dielectric constant tensor:
#      x y z
#    x 1.811190 0.000000 0.000000 
#    y 0.000000 1.702960 0.000000 
#    z 0.000000 0.000000 1.721320 
# 
# From -- ./inp_files/9007.got.cif
#   From: 2010.05.17/outbox.cif.g08.bks.cpg/sg47_5_cif.got.tgz:9007.got - 2010.06.03 20:15:42.
