data_PCOD9389443
_publ_section_title
;
Structure prediction by ZEFSAII (Michael W. Deem and Ramdas Pophale) SiO2 
 PCOD9389443
Probable space group: P M M M
;
_chemical_formula_sum "Si O2"
_cell_formula_units_Z 64
_cell_length_a 9.000000
_cell_length_b 15.000000
_cell_length_c 24.000000
_cell_angle_alpha 90.000000
_cell_angle_beta 90.000000
_cell_angle_gamma 90.000000
_cell_volume 3240.000000
_symmetry_space_group_name_H-M "P M M M"
_symmetry_group_IT_number 47
_symmetry_cell_setting 'orthorhombic'
loop_
_space_group_symop_operation_xyz
x,y,z
-x,-y,z
x,-y,-z
-x,y,-z
-x,-y,-z
x,y,-z
-x,y,z
x,-y,z
loop_
_atom_site_type_symbol
_atom_site_label
_atom_site_fract_x
_atom_site_fract_y
_atom_site_fract_z
Si Si1 0.318712 0.790359 0.439458
Si Si2 0.827206 0.776682 0.242171
Si Si3 0.671992 0.600709 0.274618
Si Si4 0.672308 0.766857 0.868466
Si Si5 0.320670 0.101034 0.666769
Si Si6 0.835256 0.100166 0.933698
Si Si7 0.319174 0.399150 0.062980
Si Si8 0.324499 0.596319 0.590947
O O1 0.278095 0.824376 0.500000
O O2 0.500000 0.786142 0.436271
O O3 0.269059 0.854511 0.390657
O O4 0.263527 0.688828 0.432020
O O5 0.779644 0.674284 0.250846
O O6 0.772066 0.801054 0.181348
O O7 0.736537 0.835693 0.285209
O O8 0.000000 0.789069 0.250386
O O9 0.500000 0.621882 0.260475
O O10 0.702570 0.500000 0.255873
O O11 0.682351 0.601909 0.341902
O O12 0.500000 0.761346 0.852641
O O13 0.701826 0.836596 0.916982
O O14 0.726148 0.671715 0.891254
O O15 0.500000 0.101003 0.667007
O O16 0.269127 0.000000 0.672967
O O17 0.000000 0.133374 0.916078
O O18 0.816387 0.000000 0.911460
O O19 0.839099 0.095169 0.000000
O O20 0.500000 0.398115 0.062521
O O21 0.271870 0.500000 0.074615
O O22 0.271344 0.375183 0.000000
O O23 0.500000 0.594235 0.576158
O O24 0.260782 0.500000 0.573766
#
# Coordination Sequence:
#
# PCOD9389443 Si02
#       8
#     8   8   8   8   8   8   8   8
#     4   9  16  27  49  83 118 144 173 223 283 340
#     4  12  25  39  56  79 111 149 189 236 288 344
#     4   9  17  33  58  82 107 143 185 227 270 321
#     4  11  22  35  56  85 114 145 188 237 283 333
#     4  10  21  39  61  81 106 142 187 238 290 347
#     4   9  19  37  59  82 112 149 183 220 276 342
#     4   8  15  30  53  82 115 148 182 221 266 316
#     4   8  13  23  44  75 110 144 174 210 260 317
#
# _framework density 19.753086
#
# number of rings (size 3 to 8) (size 9 to 14) (size 15 to 20)
#    0.000    2.500    1.250    3.375    0.000    3.000 
#    0.000    4.375    0.000    1.500    0.000    5.250 
#    0.000    2.000    0.000    0.000    0.000    0.000 
#
# Total GULP energy -356644.455648 kJ/mol
# GULP energy per Si atom -5572.569619 kJ/mol
# Density = 1.970813 g / cm^3
# Si number density = 19.753086 Si / 1000 Ang^3
#
#
#
# Elastic Constant Matrix: (Units=GPa)
#
#
# Indices 1 2 3 4 5 6 
#
# 1 -2.3141 19.1578 8.3037 0.0000 0.0000 0.0000
# 2 19.1578 51.9822 23.3080 0.0000 0.0000 0.0000
# 3 8.3037 23.3080 50.6685 0.0000 0.0000 0.0000
# 4 0.0000 0.0000 0.0000 6.1289 0.0000 0.0000
# 5 0.0000 0.0000 0.0000 0.0000 41.2382 0.0000
# 6 0.0000 0.0000 0.0000 0.0000 0.0000 -17.0983
#
#
#
# Elastic Compliance Matrix: (Units=1/GPa)
#
#
# Indices 1 2 3 4 5 6 
#
# 1 -0.106647 0.039645 -0.000759 0.000000 0.000000 0.000000
# 2 0.039645 0.009499 -0.010867 0.000000 0.000000 0.000000
# 3 -0.000759 -0.010867 0.024859 0.000000 0.000000 0.000000
# 4 0.000000 0.000000 0.000000 0.163163 0.000000 0.000000
# 5 0.000000 0.000000 0.000000 0.000000 0.024249 0.000000
# 6 0.000000 0.000000 0.000000 0.000000 0.000000 -0.058485
#
#
# Mechanical properties :
#
#
# Convention : Reuss Voigt Hill
#
# Bulk Modulus (GPa) = -61.53366 22.43064 -19.55151
# Shear Modulus (GPa) = -1038.02300 9.35821 -514.33240
#
# Velocity S-wave (km/s) = -22.94864 2.17896 -16.15382
# Velocity P-wave (km/s) = 27.08146 4.20840 18.91686
#
# Compressibility (1/GPa) = -0.01625127
#
# Stress axis : x y z
#
# Youngs Moduli (GPa) = -9.37672 105.27541 40.22633
#
# Poissons Ratio (x) = -4.17362 0.03054
# Poissons Ratio (y) = 0.37174 0.43713
# Poissons Ratio (z) = -0.00712 1.14400
#
# Static dielectric constant tensor:
#      x y z
#    x 1.680800 0.000000 0.000000 
#    y 0.000000 1.741410 0.000000 
#    z 0.000000 0.000000 1.757260 
# 
# From -- ./inp_files/32129.got.cif
#   From: 2010.05.17/outbox.ucp.g08.bks.cvg/sg47_17_cif.got.tgz:32129.got - 2010.06.11 16:36:43.
