data_PCOD9389316
_publ_section_title
;
Structure prediction by ZEFSAII (Michael W. Deem and Ramdas Pophale) SiO2 
 PCOD9389316
Probable space group: P M M M
;
_chemical_formula_sum "Si O2"
_cell_formula_units_Z 40
_cell_length_a 9.000000
_cell_length_b 27.000000
_cell_length_c 9.000000
_cell_angle_alpha 90.000000
_cell_angle_beta 90.000000
_cell_angle_gamma 90.000000
_cell_volume 2187.000000
_symmetry_space_group_name_H-M "P M M M"
_symmetry_group_IT_number 47
_symmetry_cell_setting 'orthorhombic'
loop_
_space_group_symop_operation_xyz
x,y,z
-x,-y,z
x,-y,-z
-x,y,-z
-x,-y,-z
x,y,-z
-x,y,z
x,-y,z
loop_
_atom_site_type_symbol
_atom_site_label
_atom_site_fract_x
_atom_site_fract_y
_atom_site_fract_z
Si Si1 0.500000 0.059457 0.323952
Si Si2 0.173060 0.204511 0.672166
Si Si3 0.820733 0.902229 0.178839
Si Si4 0.323188 0.296776 0.174153
Si Si5 0.171318 0.601143 0.181132
Si Si6 0.328548 0.500000 0.181459
O O1 0.500000 0.074683 0.500000
O O2 0.336464 0.075451 0.250410
O O3 0.500000 0.000000 0.317229
O O4 0.210047 0.193430 0.500000
O O5 0.187910 0.154900 0.769502
O O6 0.268509 0.249495 0.735094
O O7 0.000000 0.219485 0.678294
O O8 0.000000 0.917401 0.217563
O O9 0.810716 0.908002 0.000000
O O10 0.500000 0.301294 0.181859
O O11 0.250894 0.348187 0.227688
O O12 0.281479 0.289815 0.000000
O O13 0.249558 0.550527 0.231120
O O14 0.000000 0.601499 0.225924
O O15 0.176956 0.600739 0.000000
O O16 0.500000 0.500000 0.225484
O O17 0.323484 0.500000 0.000000
#
# Coordination Sequence:
#
# PCOD9389316 Si02
#       6
#     4   8   8   8   8   4
#     4  11  25  43  65  95 131 171 211 252 301 358
#     4  10  21  37  57  81 110 146 187 232 286 348
#     4  10  22  41  66  94 125 163 208 258 309 360
#     4  10  20  32  48  73 105 140 178 223 277 336
#     4   9  16  26  41  62  91 129 172 218 270 330
#     4   9  15  23  37  59  90 125 164 215 274 333
#
# _framework density 18.289895000000001
#
# number of rings (size 3 to 8) (size 9 to 14) (size 15 to 20)
#    0.000    2.200    0.000    3.000    1.400    8.400 
#    0.000    2.000    0.000    0.000    0.000    0.700 
#    0.000    5.600    0.000    0.000    0.000    0.000 
#
# Total GULP energy -222754.958914 kJ/mol
# GULP energy per Si atom -5568.873973 kJ/mol
# Density = 1.824827 g / cm^3
# Si number density = 18.289895 Si / 1000 Ang^3
#
#
#
# Elastic Constant Matrix: (Units=GPa)
#
#
# Indices 1 2 3 4 5 6 
#
# 1 133.0785 59.6750 40.2317 0.0000 0.0000 0.0000
# 2 59.6750 90.9776 20.3445 0.0000 0.0000 0.0000
# 3 40.2317 20.3445 57.6271 0.0000 0.0000 0.0000
# 4 0.0000 0.0000 0.0000 4.5709 0.0000 0.0000
# 5 0.0000 0.0000 0.0000 0.0000 28.3850 0.0000
# 6 0.0000 0.0000 0.0000 0.0000 0.0000 46.2609
#
#
#
# Elastic Compliance Matrix: (Units=1/GPa)
#
#
# Indices 1 2 3 4 5 6 
#
# 1 0.012451 -0.006756 -0.006307 0.000000 0.000000 0.000000
# 2 -0.006756 0.015600 -0.000791 0.000000 0.000000 0.000000
# 3 -0.006307 -0.000791 0.022035 0.000000 0.000000 0.000000
# 4 0.000000 0.000000 0.000000 0.218775 0.000000 0.000000
# 5 0.000000 0.000000 0.000000 0.000000 0.035230 0.000000
# 6 0.000000 0.000000 0.000000 0.000000 0.000000 0.021617
#
#
# Mechanical properties :
#
#
# Convention : Reuss Voigt Hill
#
# Bulk Modulus (GPa) = 44.68645 58.02061 51.35353
# Shear Modulus (GPa) = 13.85521 26.60550 20.23036
#
# Velocity S-wave (km/s) = 2.75532 3.81813 3.32941
# Velocity P-wave (km/s) = 5.88283 7.15745 6.55122
#
# Compressibility (1/GPa) = 0.02237815
#
# Stress axis : x y z
#
# Youngs Moduli (GPa) = 80.31581 64.10142 45.38182
#
# Poissons Ratio (x) = 0.43310 0.28623
# Poissons Ratio (y) = 0.54265 0.03587
# Poissons Ratio (z) = 0.50656 0.05067
#
# Static dielectric constant tensor:
#      x y z
#    x 1.653990 0.000000 0.000000 
#    y 0.000000 1.607820 0.000000 
#    z 0.000000 0.000000 1.632600 
# 
# From -- ./inp_files/1872.got.cif
#   From: 2010.05.17/outbox.ucp.g08.bks.cvg/sg47_1_cif.got.tgz:1872.got - 2010.06.11 16:36:43.
