data_PCOD9389312
_publ_section_title
;
Structure prediction by ZEFSAII (Michael W. Deem and Ramdas Pophale) SiO2 
 PCOD9389312
Probable space group: P M M M
;
_chemical_formula_sum "Si O2"
_cell_formula_units_Z 40
_cell_length_a 9.000000
_cell_length_b 9.000000
_cell_length_c 27.000000
_cell_angle_alpha 90.000000
_cell_angle_beta 90.000000
_cell_angle_gamma 90.000000
_cell_volume 2187.000000
_symmetry_space_group_name_H-M "P M M M"
_symmetry_group_IT_number 47
_symmetry_cell_setting 'orthorhombic'
loop_
_space_group_symop_operation_xyz
x,y,z
-x,-y,z
x,-y,-z
-x,y,-z
-x,-y,-z
x,y,-z
-x,y,z
x,-y,z
loop_
_atom_site_type_symbol
_atom_site_label
_atom_site_fract_x
_atom_site_fract_y
_atom_site_fract_z
Si Si1 0.170381 0.680181 0.798487
Si Si2 0.325874 0.678859 0.697396
Si Si3 0.819203 0.329017 0.500000
Si Si4 0.326378 0.319724 0.898586
Si Si5 0.176585 0.176895 0.397654
Si Si6 0.000000 0.328187 0.940825
O O1 0.166279 0.500000 0.798164
O O2 0.230566 0.728083 0.745105
O O3 0.286436 0.719429 0.841742
O O4 0.000000 0.730154 0.808225
O O5 0.500000 0.711439 0.704849
O O6 0.310575 0.500000 0.693027
O O7 0.264258 0.753791 0.648058
O O8 0.771054 0.500000 0.500000
O O9 0.773148 0.247231 0.550254
O O10 0.000000 0.326624 0.500000
O O11 0.500000 0.271680 0.911058
O O12 0.330109 0.500000 0.904424
O O13 0.167495 0.270925 0.924958
O O14 0.000000 0.209160 0.391605
O O15 0.194453 0.000000 0.399215
O O16 0.000000 0.500000 0.922194
O O17 0.000000 0.326145 0.000000
#
# Coordination Sequence:
#
# PCOD9389312 Si02
#       6
#     8   8   4   8   8   4
#     4   9  15  25  42  62  84 111 146 193 247 297
#     4  10  20  32  47  70  97 124 159 203 248 296
#     4   9  17  31  54  79 100 125 162 208 252 293
#     4   9  15  23  35  51  74 106 147 196 248 299
#     4  10  20  34  52  74 100 130 163 199 245 302
#     4   9  16  24  32  46  72 108 153 200 245 296
#
# _framework density 18.289895000000001
#
# number of rings (size 3 to 8) (size 9 to 14) (size 15 to 20)
#    0.000    2.600    1.000    2.100    0.000    6.400 
#    0.000    2.500    0.000    3.000    0.000    0.000 
#    0.000    0.000    0.000    0.000    0.000    2.000 
#
# Total GULP energy -222674.464719 kJ/mol
# GULP energy per Si atom -5566.861618 kJ/mol
# Density = 1.824827 g / cm^3
# Si number density = 18.289895 Si / 1000 Ang^3
#
#
#
# Elastic Constant Matrix: (Units=GPa)
#
#
# Indices 1 2 3 4 5 6 
#
# 1 132.7949 17.8438 43.5314 0.0000 0.0000 0.0000
# 2 17.8438 10.1899 9.9791 0.0000 0.0000 0.0000
# 3 43.5314 9.9791 93.2914 0.0000 0.0000 0.0000
# 4 0.0000 0.0000 0.0000 -6.1904 0.0000 0.0000
# 5 0.0000 0.0000 0.0000 0.0000 24.3727 0.0000
# 6 0.0000 0.0000 0.0000 0.0000 0.0000 14.4870
#
#
#
# Elastic Compliance Matrix: (Units=1/GPa)
#
#
# Indices 1 2 3 4 5 6 
#
# 1 0.010704 -0.015474 -0.003340 0.000000 0.000000 0.000000
# 2 -0.015474 0.131990 -0.006898 0.000000 0.000000 0.000000
# 3 -0.003340 -0.006898 0.013015 0.000000 0.000000 0.000000
# 4 0.000000 0.000000 0.000000 -0.161542 0.000000 0.000000
# 5 0.000000 0.000000 0.000000 0.000000 0.041030 0.000000
# 6 0.000000 0.000000 0.000000 0.000000 0.000000 0.069027
#
#
# Mechanical properties :
#
#
# Convention : Reuss Voigt Hill
#
# Bulk Modulus (GPa) = 9.58906 42.10941 25.84923
# Shear Modulus (GPa) = 26.25901 17.52866 21.89383
#
# Velocity S-wave (km/s) = 3.79319 3.09913 3.46359
# Velocity P-wave (km/s) = 4.94354 5.98994 5.49172
#
# Compressibility (1/GPa) = 0.10428553
#
# Stress axis : x y z
#
# Youngs Moduli (GPa) = 93.41873 7.57634 76.83266
#
# Poissons Ratio (x) = 0.11724 0.25659
# Poissons Ratio (y) = 1.44560 0.52999
# Poissons Ratio (z) = 0.31198 0.05226
#
# Static dielectric constant tensor:
#      x y z
#    x 1.654150 0.000000 0.000000 
#    y 0.000000 1.607560 0.000000 
#    z 0.000000 0.000000 1.633790 
# 
# From -- ./inp_files/33056.got.cif
#   From: 2010.05.17/outbox.ucp.g08.bks.cvg/sg47_17_cif.got.tgz:33056.got - 2010.06.11 16:36:43.
