data_PCOD9389382
_publ_section_title
;
Structure prediction by ZEFSAII (Michael W. Deem and Ramdas Pophale) SiO2 
 PCOD9389382
Probable space group: P M M M
;
_chemical_formula_sum "Si O2"
_cell_formula_units_Z 64
_cell_length_a 9.000000
_cell_length_b 18.000000
_cell_length_c 21.000000
_cell_angle_alpha 90.000000
_cell_angle_beta 90.000000
_cell_angle_gamma 90.000000
_cell_volume 3402.000000
_symmetry_space_group_name_H-M "P M M M"
_symmetry_group_IT_number 47
_symmetry_cell_setting 'orthorhombic'
loop_
_space_group_symop_operation_xyz
x,y,z
-x,-y,z
x,-y,-z
-x,y,-z
-x,-y,-z
x,y,-z
-x,y,z
x,-y,z
loop_
_atom_site_type_symbol
_atom_site_label
_atom_site_fract_x
_atom_site_fract_y
_atom_site_fract_z
Si Si1 0.822036 0.822231 0.187837
Si Si2 0.677471 0.663851 0.812401
Si Si3 0.825852 0.179815 0.335158
Si Si4 0.680479 0.415893 0.319042
Si Si5 0.171009 0.589086 0.928708
Si Si6 0.323007 0.088927 0.928154
Si Si7 0.679434 0.695472 0.574337
Si Si8 0.332475 0.911907 0.428948
O O1 0.762287 0.740045 0.175286
O O2 0.776423 0.834154 0.262291
O O3 0.755294 0.873955 0.132468
O O4 0.000000 0.826832 0.185175
O O5 0.500000 0.674792 0.810341
O O6 0.725650 0.630376 0.743798
O O7 0.723142 0.612736 0.871570
O O8 0.741525 0.241517 0.377846
O O9 0.788164 0.108392 0.377133
O O10 0.000000 0.197834 0.333695
O O11 0.500000 0.417006 0.317273
O O12 0.734583 0.500000 0.313770
O O13 0.721599 0.378748 0.386311
O O14 0.168914 0.500000 0.930627
O O15 0.000000 0.613790 0.916969
O O16 0.214749 0.615369 0.000000
O O17 0.500000 0.103471 0.924082
O O18 0.301957 0.000000 0.925277
O O19 0.274120 0.113172 0.000000
O O20 0.728901 0.698387 0.500000
O O21 0.500000 0.700406 0.573277
O O22 0.299313 0.881856 0.500000
O O23 0.500000 0.885836 0.411686
O O24 0.339606 0.000000 0.433680
#
# Coordination Sequence:
#
# PCOD9389382 Si02
#       8
#     8   8   8   8   8   8   8   8
#     4  11  24  39  57  83 116 153 193 232 276 334
#     4  11  21  35  57  82 112 149 189 240 290 334
#     4  11  23  37  54  79 114 151 188 234 282 332
#     4   9  18  33  54  82 112 141 180 233 290 343
#     4   9  19  36  56  79 111 150 187 225 276 340
#     4   9  20  41  67  93 120 150 187 232 282 335
#     4  10  20  35  57  82 109 146 189 233 287 349
#     4   9  19  36  57  81 109 143 185 230 277 335
#
# _framework density 18.812463000000001
#
# number of rings (size 3 to 8) (size 9 to 14) (size 15 to 20)
#    0.000    2.125    1.250    3.000    0.000    6.500 
#    0.000    5.625    0.000    1.125    0.000    0.875 
#    0.000    0.000    0.000    0.000    0.000    0.000 
#
# Total GULP energy -356642.263574 kJ/mol
# GULP energy per Si atom -5572.535368 kJ/mol
# Density = 1.876965 g / cm^3
# Si number density = 18.812463 Si / 1000 Ang^3
#
#
#
# Elastic Constant Matrix: (Units=GPa)
#
#
# Indices 1 2 3 4 5 6 
#
# 1 29.2615 17.7459 47.0812 0.0000 0.0000 0.0000
# 2 17.7459 62.7704 47.2632 0.0000 0.0000 0.0000
# 3 47.0812 47.2632 173.7237 0.0000 0.0000 0.0000
# 4 0.0000 0.0000 0.0000 115.6971 0.0000 0.0000
# 5 0.0000 0.0000 0.0000 0.0000 31.8551 0.0000
# 6 0.0000 0.0000 0.0000 0.0000 0.0000 13.7512
#
#
#
# Elastic Compliance Matrix: (Units=1/GPa)
#
#
# Indices 1 2 3 4 5 6 
#
# 1 0.062447 -0.006177 -0.015243 0.000000 0.000000 0.000000
# 2 -0.006177 0.020646 -0.003943 0.000000 0.000000 0.000000
# 3 -0.015243 -0.003943 0.010960 0.000000 0.000000 0.000000
# 4 0.000000 0.000000 0.000000 0.008643 0.000000 0.000000
# 5 0.000000 0.000000 0.000000 0.000000 0.031392 0.000000
# 6 0.000000 0.000000 0.000000 0.000000 0.000000 0.072721
#
#
# Mechanical properties :
#
#
# Convention : Reuss Voigt Hill
#
# Bulk Modulus (GPa) = 23.08042 54.43736 38.75889
# Shear Modulus (GPa) = 18.38380 42.50502 30.44441
#
# Velocity S-wave (km/s) = 3.12943 4.75848 4.02719
# Velocity P-wave (km/s) = 5.03519 7.69354 6.50168
#
# Compressibility (1/GPa) = 0.04332677
#
# Stress axis : x y z
#
# Youngs Moduli (GPa) = 16.01361 48.43495 91.23980
#
# Poissons Ratio (x) = 0.29918 1.39080
# Poissons Ratio (y) = 0.09891 0.35976
# Poissons Ratio (z) = 0.24410 0.19098
#
# Static dielectric constant tensor:
#      x y z
#    x 1.644020 0.000000 0.000000 
#    y 0.000000 1.711690 0.000000 
#    z 0.000000 0.000000 1.676720 
# 
# From -- ./inp_files/30019.got.cif
#   From: 2010.05.17/outbox.ucp.g08.bks.cvg/sg47_16_cif.got.tgz:30019.got - 2010.06.11 16:36:43.
