data_PCOD9389473
_publ_section_title
;
Structure prediction by ZEFSAII (Michael W. Deem and Ramdas Pophale) SiO2 
 PCOD9389473
Probable space group: P N N N
;
_chemical_formula_sum "Si O2"
_cell_formula_units_Z 56
_cell_length_a 15.159145
_cell_length_b 8.100941
_cell_length_c 19.687802
_cell_angle_alpha 90.000000
_cell_angle_beta 90.000000
_cell_angle_gamma 90.000000
_cell_volume 2417.727828
_symmetry_space_group_name_H-M "P N N N"
_symmetry_group_IT_number 48
_space_group.IT_coordinate_system_code '2'
_symmetry_cell_setting 'orthorhombic'
loop_
_space_group_symop_operation_xyz
x,y,z
1/2-x,1/2-y,z
x,1/2-y,1/2-z
1/2-x,y,1/2-z
-x,-y,-z
1/2+x,1/2+y,-z
-x,1/2+y,1/2+z
1/2+x,-y,1/2+z
loop_
_atom_site_type_symbol
_atom_site_label
_atom_site_fract_x
_atom_site_fract_y
_atom_site_fract_z
Si Si1 0.411909 0.305122 0.455954
Si Si2 0.004307 0.514831 0.849626
Si Si3 0.608407 0.815092 0.683938
Si Si4 0.301868 0.585972 0.607244
Si Si5 0.647527 0.625791 0.075776
Si Si6 0.896169 0.202138 0.997599
Si Si7 0.037607 0.837164 0.150250
O O1 0.453210 0.472327 0.423539
O O2 0.359100 0.223370 0.392981
O O3 0.359369 0.284534 0.525825
O O4 0.504173 0.212227 0.472373
O O5 0.972430 0.683900 0.816423
O O6 0.108251 0.531599 0.856406
O O7 0.972831 0.344133 0.817482
O O8 0.659051 0.750000 0.750000
O O9 0.578505 0.003607 0.686014
O O10 0.250000 0.750000 0.634308
O O11 0.235361 0.432411 0.613024
O O12 0.338293 0.655463 0.533835
O O13 0.561857 0.625236 0.123785
O O14 0.639412 0.471585 0.024216
O O15 0.903113 0.190738 0.917187
#
# Coordination Sequence:
#
# PCOD9389473 Si02
#       7
#     8   8   8   8   8   8   8
#     4   8  15  30  44  72  99 128 175 202 262 316
#     4   9  20  33  46  76  99 137 177 212 267 318
#     4  10  19  34  52  71  97 134 183 224 262 300
#     4   9  17  28  46  73 109 138 170 207 256 337
#     4  10  15  27  50  72 104 142 163 202 270 333
#     4   9  14  28  48  72 102 139 167 201 271 326
#     4  11  18  31  53  69 104 142 164 220 272 314
#
# _framework density 23.162243
#
# number of rings (size 3 to 8) (size 9 to 14) (size 15 to 20)
#    0.857    1.714    2.857    1.714    0.000    6.286 
#    0.000    0.000    0.000    3.857    0.000    4.000 
#    0.000    2.286    1.143    0.714    0.000    0.000 
#
# Total GULP energy -311776.299013 kJ/mol
# GULP energy per Si atom -5567.433911 kJ/mol
# Density = 2.310952 g / cm^3
# Si number density = 23.162243 Si / 1000 Ang^3
#
#
#
# Elastic Constant Matrix: (Units=GPa)
#
#
# Indices 1 2 3 4 5 6 
#
# 1 59.2043 20.0551 -6.2217 0.0000 0.0000 0.0000
# 2 20.0551 156.8596 13.2659 0.0000 0.0000 0.0000
# 3 -6.2217 13.2659 45.9520 0.0000 0.0000 0.0000
# 4 0.0000 0.0000 0.0000 38.5057 0.0000 0.0000
# 5 0.0000 0.0000 0.0000 0.0000 -10.3622 0.0000
# 6 0.0000 0.0000 0.0000 0.0000 0.0000 19.7527
#
#
#
# Elastic Compliance Matrix: (Units=1/GPa)
#
#
# Indices 1 2 3 4 5 6 
#
# 1 0.018102 -0.002585 0.003197 0.000000 0.000000 0.000000
# 2 -0.002585 0.006904 -0.002343 0.000000 0.000000 0.000000
# 3 0.003197 -0.002343 0.022871 0.000000 0.000000 0.000000
# 4 0.000000 0.000000 0.000000 0.025970 0.000000 0.000000
# 5 0.000000 0.000000 0.000000 0.000000 -0.096504 0.000000
# 6 0.000000 0.000000 0.000000 0.000000 0.000000 0.050626
#
#
# Mechanical properties :
#
#
# Convention : Reuss Voigt Hill
#
# Bulk Modulus (GPa) = 22.51452 35.13496 28.82474
# Shear Modulus (GPa) = 108.14168 25.24034 66.69101
#
# Velocity S-wave (km/s) = 6.84033 3.30467 5.37173
# Velocity P-wave (km/s) = 8.49284 5.45556 7.13763
#
# Compressibility (1/GPa) = 0.04441578
#
# Stress axis : x y z
#
# Youngs Moduli (GPa) = 55.24179 144.84853 43.72321
#
# Poissons Ratio (x) = 0.37441 -0.13979
# Poissons Ratio (y) = 0.14279 0.10244
# Poissons Ratio (z) = -0.17662 0.33938
#
# Static dielectric constant tensor:
#      x y z
#    x 1.889100 0.000000 0.000000 
#    y 0.000000 1.946850 0.000000 
#    z 0.000000 0.000000 2.081470 
# 
# From -- ./inp_files/34683.got.cif
#   From: 2010.05.17/outbox.cif.g08.bks.cpg/sg48_18_cif.got.tgz:34683.got - 2010.06.03 20:39:00.
