data_PCOD9389908
_publ_section_title
;
Structure prediction by ZEFSAII (Michael W. Deem and Ramdas Pophale) SiO2 
 PCOD9389908
Probable space group: P N N N
;
_chemical_formula_sum "Si O2"
_cell_formula_units_Z 40
_cell_length_a 14.656042
_cell_length_b 16.025232
_cell_length_c 8.837404
_cell_angle_alpha 90.000000
_cell_angle_beta 90.000000
_cell_angle_gamma 90.000000
_cell_volume 2075.609910
_symmetry_space_group_name_H-M "P N N N"
_symmetry_group_IT_number 48
_space_group.IT_coordinate_system_code '2'
_symmetry_cell_setting 'orthorhombic'
loop_
_space_group_symop_operation_xyz
x,y,z
1/2-x,1/2-y,z
x,1/2-y,1/2-z
1/2-x,y,1/2-z
-x,-y,-z
1/2+x,1/2+y,-z
-x,1/2+y,1/2+z
1/2+x,-y,1/2+z
loop_
_atom_site_type_symbol
_atom_site_label
_atom_site_fract_x
_atom_site_fract_y
_atom_site_fract_z
Si Si1 0.659391 0.540156 0.644176
Si Si2 0.133183 0.707936 0.585943
Si Si3 0.429623 0.335624 0.150883
Si Si4 0.705413 0.361023 0.584397
Si Si5 0.235496 0.348411 0.579430
O O1 0.750000 0.535817 0.750000
O O2 0.580667 0.584857 0.738718
O O3 0.648911 0.446558 0.584711
O O4 0.688124 0.604019 0.515218
O O5 0.149461 0.750000 0.750000
O O6 0.210084 0.641612 0.535074
O O7 0.144947 0.782517 0.464829
O O8 0.031544 0.673643 0.590304
O O9 0.407793 0.250000 0.250000
O O10 0.359399 0.354153 0.013917
O O11 0.750000 0.350681 0.750000
O O12 0.250000 0.250000 0.581434
O O13 0.250000 0.379247 0.750000
#
# Coordination Sequence:
#
# PCOD9389908 Si02
#       5
#     8   8   8   8   8
#     4   9  19  35  61  82 112 160 195 240 300 362
#     4  10  21  37  62  84 114 160 200 242 299 362
#     4  10  19  37  59  84 114 158 201 241 296 367
#     4  10  20  40  60  84 115 156 199 241 304 351
#     4  10  19  33  55  86 113 149 192 242 306 353
#
# _framework density 19.271443999999999
#
# number of rings (size 3 to 8) (size 9 to 14) (size 15 to 20)
#    0.000    2.200    2.000    2.400    0.000    1.600 
#    7.200   13.000    0.000    0.000    0.000    0.000 
#    0.000    0.000    0.000    0.000    0.000    0.000 
#
# Total GULP energy -222802.034311 kJ/mol
# GULP energy per Si atom -5570.050858 kJ/mol
# Density = 1.922758 g / cm^3
# Si number density = 19.271444 Si / 1000 Ang^3
#
#
#
# Elastic Constant Matrix: (Units=GPa)
#
#
# Indices 1 2 3 4 5 6 
#
# 1 117.9978 32.1941 45.8122 0.0000 0.0000 0.0000
# 2 32.1941 108.2194 28.5329 0.0000 0.0000 0.0000
# 3 45.8122 28.5329 108.5061 0.0000 0.0000 0.0000
# 4 0.0000 0.0000 0.0000 -8.4614 0.0000 0.0000
# 5 0.0000 0.0000 0.0000 0.0000 18.1825 0.0000
# 6 0.0000 0.0000 0.0000 0.0000 0.0000 12.4669
#
#
#
# Elastic Compliance Matrix: (Units=1/GPa)
#
#
# Indices 1 2 3 4 5 6 
#
# 1 0.010568 -0.002114 -0.003906 0.000000 0.000000 0.000000
# 2 -0.002114 0.010352 -0.001830 0.000000 0.000000 0.000000
# 3 -0.003906 -0.001830 0.011346 0.000000 0.000000 0.000000
# 4 0.000000 0.000000 0.000000 -0.118184 0.000000 0.000000
# 5 0.000000 0.000000 0.000000 0.000000 0.054998 0.000000
# 6 0.000000 0.000000 0.000000 0.000000 0.000000 0.080212
#
#
# Mechanical properties :
#
#
# Convention : Reuss Voigt Hill
#
# Bulk Modulus (GPa) = 60.36115 60.86684 60.61399
# Shear Modulus (GPa) = 70.90770 19.64988 45.27879
#
# Velocity S-wave (km/s) = 6.07240 3.19664 4.85245
# Velocity P-wave (km/s) = 8.97524 6.72883 7.93197
#
# Compressibility (1/GPa) = 0.01656695
#
# Stress axis : x y z
#
# Youngs Moduli (GPa) = 94.62529 96.60191 88.13428
#
# Poissons Ratio (x) = 0.20422 0.34425
# Poissons Ratio (y) = 0.20004 0.16125
# Poissons Ratio (z) = 0.36961 0.17674
#
# Static dielectric constant tensor:
#      x y z
#    x 1.664390 0.000000 0.000000 
#    y 0.000000 1.710710 0.000000 
#    z 0.000000 0.000000 1.723830 
# 
# From -- ./inp_files/12524.got.cif
#   From: 2010.05.17/outbox.cif.g08.bks.cpg/sg48_7_cif.got.tgz:12524.got - 2010.06.03 20:39:00.
