data_PCOD9389223
_publ_section_title
;
Structure prediction by ZEFSAII (Michael W. Deem and Ramdas Pophale) SiO2 
 PCOD9389223
Probable space group: P M M M
;
_chemical_formula_sum "Si O2"
_cell_formula_units_Z 64
_cell_length_a 30.000000
_cell_length_b 9.000000
_cell_length_c 15.000000
_cell_angle_alpha 90.000000
_cell_angle_beta 90.000000
_cell_angle_gamma 90.000000
_cell_volume 4050.000000
_symmetry_space_group_name_H-M "P M M M"
_symmetry_group_IT_number 47
_symmetry_cell_setting 'orthorhombic'
loop_
_space_group_symop_operation_xyz
x,y,z
-x,-y,z
x,-y,-z
-x,y,-z
-x,-y,-z
x,y,-z
-x,y,z
x,-y,z
loop_
_atom_site_type_symbol
_atom_site_label
_atom_site_fract_x
_atom_site_fract_y
_atom_site_fract_z
Si Si1 0.451929 0.324759 0.392011
Si Si2 0.773753 0.678925 0.898092
Si Si3 0.188371 0.174789 0.605896
Si Si4 0.868982 0.822260 0.895650
Si Si5 0.907495 0.322408 0.603170
Si Si6 0.950196 0.178875 0.768782
Si Si7 0.268153 0.320297 0.716357
Si Si8 0.645977 0.681480 0.603789
O O1 0.451589 0.318228 0.500000
O O2 0.500000 0.260792 0.362282
O O3 0.452444 0.500000 0.368446
O O4 0.403260 0.265014 0.365882
O O5 0.776821 0.500000 0.898733
O O6 0.822264 0.744086 0.873568
O O7 0.739099 0.720399 0.820207
O O8 0.763214 0.727044 0.000000
O O9 0.197639 0.189585 0.500000
O O10 0.141176 0.253717 0.622979
O O11 0.227450 0.250302 0.661502
O O12 0.184791 0.000000 0.627138
O O13 0.910431 0.774293 0.834946
O O14 0.863351 0.000000 0.885131
O O15 0.878344 0.792816 0.000000
O O16 0.918232 0.286760 0.500000
O O17 0.905882 0.500000 0.612135
O O18 0.941198 0.252395 0.673427
O O19 0.000000 0.216011 0.801171
O O20 0.947652 0.000000 0.760362
O O21 0.265702 0.500000 0.709918
O O22 0.314205 0.273182 0.669165
O O23 0.653910 0.725398 0.500000
O O24 0.644568 0.500000 0.603450
#
# Coordination Sequence:
#
# PCOD9389223 Si02
#       8
#     8   8   8   8   8   8   8   8
#     4   7   9  14  25  42  68 103 137 169 210 254
#     4   9  18  31  45  62  84 109 138 172 209 249
#     4  10  20  32  46  65  89 115 141 170 206 249
#     4   9  18  33  52  71  89 110 137 168 203 247
#     4  10  21  36  52  68  87 114 148 181 208 237
#     4  10  21  35  51  72  95 116 137 165 205 250
#     4  10  18  27  42  62  85 114 144 175 212 252
#     4   8  13  20  31  51  79 108 139 175 212 251
#
# _framework density 15.802469
#
# number of rings (size 3 to 8) (size 9 to 14) (size 15 to 20)
#    0.000    2.875    0.000    3.000    0.000    5.750 
#    0.000    2.500    0.000    0.000    0.000    2.625 
#    0.000    1.000    0.000   11.625    0.000    4.000 
#
# Total GULP energy -356508.640888 kJ/mol
# GULP energy per Si atom -5570.447514 kJ/mol
# Density = 1.576650 g / cm^3
# Si number density = 15.802469 Si / 1000 Ang^3
#
#
#
# Elastic Constant Matrix: (Units=GPa)
#
#
# Indices 1 2 3 4 5 6 
#
# 1 105.3878 12.7690 66.7088 0.0000 0.0000 0.0000
# 2 12.7690 6.9506 15.5256 0.0000 0.0000 0.0000
# 3 66.7088 15.5256 71.0432 0.0000 0.0000 0.0000
# 4 0.0000 0.0000 0.0000 17.0701 0.0000 0.0000
# 5 0.0000 0.0000 0.0000 0.0000 18.6682 0.0000
# 6 0.0000 0.0000 0.0000 0.0000 0.0000 -13.6549
#
#
#
# Elastic Compliance Matrix: (Units=1/GPa)
#
#
# Indices 1 2 3 4 5 6 
#
# 1 0.023907 0.012158 -0.025105 0.000000 0.000000 0.000000
# 2 0.012158 0.287262 -0.074194 0.000000 0.000000 0.000000
# 3 -0.025105 -0.074194 0.053864 0.000000 0.000000 0.000000
# 4 0.000000 0.000000 0.000000 0.058582 0.000000 0.000000
# 5 0.000000 0.000000 0.000000 0.000000 0.053567 0.000000
# 6 0.000000 0.000000 0.000000 0.000000 0.000000 -0.073234
#
#
# Mechanical properties :
#
#
# Convention : Reuss Voigt Hill
#
# Bulk Modulus (GPa) = 5.24245 41.48760 23.36502
# Shear Modulus (GPa) = 7.79043 10.30857 9.04950
#
# Velocity S-wave (km/s) = 2.22274 2.55686 2.39564
# Velocity P-wave (km/s) = 3.14835 5.91841 4.74024
#
# Compressibility (1/GPa) = 0.19075052
#
# Stress axis : x y z
#
# Youngs Moduli (GPa) = 41.82890 3.48115 18.56540
#
# Poissons Ratio (x) = -0.04232 0.46609
# Poissons Ratio (y) = -0.50856 1.37744
# Poissons Ratio (z) = 1.05013 0.25828
#
# Static dielectric constant tensor:
#      x y z
#    x 1.543970 0.000000 0.000000 
#    y 0.000000 1.523800 0.000000 
#    z 0.000000 0.000000 1.534550 
# 
# From -- ./inp_files/8302.got.cif
#   From: 2010.05.17/outbox.ucp.g08.bks.cvg/sg47_5_cif.got.tgz:8302.got - 2010.06.11 16:36:43.
