data_PCOD9389396
_publ_section_title
;
Structure prediction by ZEFSAII (Michael W. Deem and Ramdas Pophale) SiO2 
 PCOD9389396
Probable space group: P M M M
;
_chemical_formula_sum "Si O2"
_cell_formula_units_Z 48
_cell_length_a 18.000000
_cell_length_b 9.000000
_cell_length_c 15.000000
_cell_angle_alpha 90.000000
_cell_angle_beta 90.000000
_cell_angle_gamma 90.000000
_cell_volume 2430.000000
_symmetry_space_group_name_H-M "P M M M"
_symmetry_group_IT_number 47
_symmetry_cell_setting 'orthorhombic'
loop_
_space_group_symop_operation_xyz
x,y,z
-x,-y,z
x,-y,-z
-x,y,-z
-x,-y,-z
x,y,-z
-x,y,z
x,-y,z
loop_
_atom_site_type_symbol
_atom_site_label
_atom_site_fract_x
_atom_site_fract_y
_atom_site_fract_z
Si Si1 0.121102 0.180933 0.902664
Si Si2 0.220151 0.172000 0.603146
Si Si3 0.293120 0.827714 0.103604
Si Si4 0.421474 0.678657 0.211348
Si Si5 0.621655 0.678645 0.402697
Si Si6 0.921408 0.818606 0.289643
O O1 0.207658 0.221294 0.891217
O O2 0.080933 0.228015 0.813373
O O3 0.117648 0.000000 0.904859
O O4 0.095059 0.232609 0.000000
O O5 0.196579 0.170231 0.500000
O O6 0.293750 0.268898 0.609332
O O7 0.152679 0.231054 0.661609
O O8 0.236966 0.000000 0.628591
O O9 0.349877 0.737901 0.162201
O O10 0.294824 0.000000 0.131079
O O11 0.314670 0.818623 0.000000
O O12 0.500000 0.727408 0.170220
O O13 0.419380 0.500000 0.210124
O O14 0.419334 0.728582 0.314140
O O15 0.595963 0.733267 0.500000
O O16 0.617570 0.500000 0.404611
O O17 0.000000 0.772426 0.330470
O O18 0.919060 0.000000 0.292197
#
# Coordination Sequence:
#
# PCOD9389396 Si02
#       6
#     8   8   8   8   8   8
#     4   8  14  25  41  61  85 114 149 187 223 260
#     4   9  17  29  46  67  90 118 152 189 227 266
#     4   9  18  33  52  71  92 123 161 195 228 271
#     4  10  21  34  48  70  98 124 150 186 235 283
#     4   9  18  33  52  71  91 119 156 194 230 274
#     4   9  16  24  37  61  91 120 148 180 222 270
#
# _framework density 19.753086
#
# number of rings (size 3 to 8) (size 9 to 14) (size 15 to 20)
#    0.000    3.000    0.000    2.000    0.000    4.000 
#    0.000    6.667    0.000    0.500    0.000    5.833 
#    0.000    0.000    0.000   14.333    0.000   11.667 
#
# Total GULP energy -267283.299118 kJ/mol
# GULP energy per Si atom -5568.402065 kJ/mol
# Density = 1.970813 g / cm^3
# Si number density = 19.753086 Si / 1000 Ang^3
#
#
#
# Elastic Constant Matrix: (Units=GPa)
#
#
# Indices 1 2 3 4 5 6 
#
# 1 70.9630 4.7875 48.1566 0.0000 0.0000 0.0000
# 2 4.7875 -8.6065 9.7365 0.0000 0.0000 0.0000
# 3 48.1566 9.7365 40.6748 0.0000 0.0000 0.0000
# 4 0.0000 0.0000 0.0000 16.5076 0.0000 0.0000
# 5 0.0000 0.0000 0.0000 0.0000 188.3311 0.0000
# 6 0.0000 0.0000 0.0000 0.0000 0.0000 2.1272
#
#
#
# Elastic Compliance Matrix: (Units=1/GPa)
#
#
# Indices 1 2 3 4 5 6 
#
# 1 0.055243 -0.034043 -0.057255 0.000000 0.000000 0.000000
# 2 -0.034043 -0.070453 0.057170 0.000000 0.000000 0.000000
# 3 -0.057255 0.057170 0.078687 0.000000 0.000000 0.000000
# 4 0.000000 0.000000 0.000000 0.060578 0.000000 0.000000
# 5 0.000000 0.000000 0.000000 0.000000 0.005310 0.000000
# 6 0.000000 0.000000 0.000000 0.000000 0.000000 0.470105
#
#
# Mechanical properties :
#
#
# Convention : Reuss Voigt Hill
#
# Bulk Modulus (GPa) = -209.20831 25.37694 -91.91569
# Shear Modulus (GPa) = 7.50599 44.08324 25.79461
#
# Velocity S-wave (km/s) = 1.95145 4.72923 3.61758
# Velocity P-wave (km/s) = 10.05306 6.53420 5.40224
#
# Compressibility (1/GPa) = -0.00477992
#
# Stress axis : x y z
#
# Youngs Moduli (GPa) = 18.10183 -14.19395 12.70851
#
# Poissons Ratio (x) = -0.48321 0.72763
# Poissons Ratio (y) = 0.61625 -0.72655
# Poissons Ratio (z) = 1.03643 0.81147
#
# Static dielectric constant tensor:
#      x y z
#    x 1.714660 0.000000 0.000000 
#    y 0.000000 1.665690 0.000000 
#    z 0.000000 0.000000 1.731240 
# 
# From -- ./inp_files/6342.got.cif
#   From: 2010.05.17/outbox.ucp.g08.bks.cvg/sg47_4_cif.got.tgz:6342.got - 2010.06.11 16:36:43.
