data_PCOD9389179
_publ_section_title
;
Structure prediction by ZEFSAII (Michael W. Deem and Ramdas Pophale) SiO2 
 PCOD9389179
Probable space group: P M M M
;
_chemical_formula_sum "Si O2"
_cell_formula_units_Z 40
_cell_length_a 27.159191
_cell_length_b 7.665253
_cell_length_c 9.392502
_cell_angle_alpha 90.000000
_cell_angle_beta 90.000000
_cell_angle_gamma 90.000000
_cell_volume 1955.350512
_symmetry_space_group_name_H-M "P M M M"
_symmetry_group_IT_number 47
_symmetry_cell_setting 'orthorhombic'
loop_
_space_group_symop_operation_xyz
x,y,z
-x,-y,z
x,-y,-z
-x,y,-z
-x,-y,-z
x,y,-z
-x,y,z
x,-y,z
loop_
_atom_site_type_symbol
_atom_site_label
_atom_site_fract_x
_atom_site_fract_y
_atom_site_fract_z
Si Si1 0.000000 0.285811 0.163395
Si Si2 0.691530 0.292070 0.662829
Si Si3 0.905358 0.708070 0.337536
Si Si4 0.500000 0.286807 0.663973
Si Si5 0.201439 0.207289 0.337597
Si Si6 0.403080 0.713751 0.163811
O O1 0.950926 0.226599 0.245251
O O2 0.000000 0.500000 0.164280
O O3 0.000000 0.230644 0.000000
O O4 0.689923 0.221935 0.500000
O O5 0.685316 0.500000 0.652800
O O6 0.746054 0.260874 0.725075
O O7 0.646733 0.226276 0.758284
O O8 0.906546 0.778476 0.500000
O O9 0.911154 0.500000 0.347292
O O10 0.851060 0.740309 0.274002
O O11 0.500000 0.500000 0.662924
O O12 0.500000 0.229866 0.500000
O O13 0.450992 0.231932 0.747314
O O14 0.201289 0.280850 0.500000
O O15 0.201625 0.000000 0.345253
O O16 0.402853 0.500000 0.163331
O O17 0.405506 0.769636 0.000000
#
# Coordination Sequence:
#
# PCOD9389179 Si02
#       6
#     4   8   8   4   8   8
#     4   9  17  29  46  69  94 118 146 181 220 262
#     4   9  16  27  44  65  88 115 148 184 220 260
#     4   9  16  28  48  71  92 116 148 184 220 260
#     4   9  15  23  37  59  88 119 148 181 224 270
#     4   9  17  29  46  68  91 115 147 187 226 262
#     4   9  16  25  38  59  88 119 149 182 221 265
#
# _framework density 20.456690999999999
#
# number of rings (size 3 to 8) (size 9 to 14) (size 15 to 20)
#    0.000    3.000    0.000    1.800    0.000    7.200 
#    0.000    1.500    0.000   10.200    0.000    0.700 
#    0.000    5.600    0.000    0.000    0.000    0.000 
#
# Total GULP energy -223044.399078 kJ/mol
# GULP energy per Si atom -5576.109977 kJ/mol
# Density = 2.041013 g / cm^3
# Si number density = 20.456691 Si / 1000 Ang^3
#
#
#
# Elastic Constant Matrix: (Units=GPa)
#
#
# Indices 1 2 3 4 5 6 
#
# 1 253.8855 1.8268 112.7333 0.0000 0.0000 0.0000
# 2 1.8268 36.4794 5.8928 0.0000 0.0000 0.0000
# 3 112.7333 5.8928 119.9849 0.0000 0.0000 0.0000
# 4 0.0000 0.0000 0.0000 -0.4958 0.0000 0.0000
# 5 0.0000 0.0000 0.0000 0.0000-1797.7270 0.0000
# 6 0.0000 0.0000 0.0000 0.0000 0.0000 -46.0907
#
#
#
# Elastic Compliance Matrix: (Units=1/GPa)
#
#
# Indices 1 2 3 4 5 6 
#
# 1 0.006776 0.000695 -0.006400 0.000000 0.000000 0.000000
# 2 0.000695 0.027703 -0.002013 0.000000 0.000000 0.000000
# 3 -0.006400 -0.002013 0.014447 0.000000 0.000000 0.000000
# 4 0.000000 0.000000 0.000000 -2.017110 0.000000 0.000000
# 5 0.000000 0.000000 0.000000 0.000000 -0.000556 0.000000
# 6 0.000000 0.000000 0.000000 0.000000 0.000000 -0.021696
#
#
# Mechanical properties :
#
#
# Convention : Reuss Voigt Hill
#
# Bulk Modulus (GPa) = 29.86167 72.36174 51.11170
# Shear Modulus (GPa) = -2.54604 -349.53623 -176.04113
#
# Velocity S-wave (km/s) = -1.11683 -13.08577 -9.28668
# Velocity P-wave (km/s) = 3.60085 13.88764 9.48421
#
# Compressibility (1/GPa) = 0.03348775
#
# Stress axis : x y z
#
# Youngs Moduli (GPa) = 147.58513 36.09702 69.21953
#
# Poissons Ratio (x) = -0.02507 0.44303
# Poissons Ratio (y) = -0.10251 0.13935
# Poissons Ratio (z) = 0.94460 0.07267
#
# Static dielectric constant tensor:
#      x y z
#    x 1.736730 0.000000 0.000000 
#    y 0.000000 1.737240 0.000000 
#    z 0.000000 0.000000 1.700030 
# 
# From -- ./inp_files/13004.got.cif
#   From: 2010.05.17/outbox.cif.g08.bks.cpg/sg47_7_cif.got.tgz:13004.got - 2010.06.03 20:15:42.
