data_PCOD9389145
_publ_section_title
;
Structure prediction by ZEFSAII (Michael W. Deem and Ramdas Pophale) SiO2 
 PCOD9389145
Probable space group: P M M M
;
_chemical_formula_sum "Si O2"
_cell_formula_units_Z 44
_cell_length_a 7.905719
_cell_length_b 31.012843
_cell_length_c 10.124102
_cell_angle_alpha 90.000000
_cell_angle_beta 90.000000
_cell_angle_gamma 90.000000
_cell_volume 2482.215404
_symmetry_space_group_name_H-M "P M M M"
_symmetry_group_IT_number 47
_symmetry_cell_setting 'orthorhombic'
loop_
_space_group_symop_operation_xyz
x,y,z
-x,-y,z
x,-y,-z
-x,y,-z
-x,-y,-z
x,y,-z
-x,y,z
x,-y,z
loop_
_atom_site_type_symbol
_atom_site_label
_atom_site_fract_x
_atom_site_fract_y
_atom_site_fract_z
Si Si1 0.294748 0.295380 0.347019
Si Si2 0.500000 0.549666 0.338576
Si Si3 0.796486 0.951778 0.650065
Si Si4 0.706429 0.780000 0.847799
Si Si5 0.811500 0.391463 0.660666
Si Si6 0.703316 0.123073 0.850599
O O1 0.244552 0.288356 0.500000
O O2 0.500000 0.297211 0.344309
O O3 0.236677 0.256767 0.252786
O O4 0.228678 0.342088 0.302713
O O5 0.500000 0.500000 0.296558
O O6 0.500000 0.549806 0.500000
O O7 0.665714 0.575990 0.295160
O O8 0.736599 0.943402 0.500000
O O9 0.748699 0.914298 0.749802
O O10 0.000000 0.953172 0.646021
O O11 0.737439 0.000000 0.689059
O O12 0.500000 0.779644 0.844835
O O13 0.761592 0.828667 0.812269
O O14 0.755992 0.771767 0.000000
O O15 0.808068 0.391973 0.500000
O O16 0.000000 0.403639 0.703341
O O17 0.500000 0.125028 0.855991
O O18 0.764609 0.114145 0.000000
#
# Coordination Sequence:
#
# PCOD9389145 Si02
#       6
#     8   4   8   8   8   8
#     4   9  15  25  43  64  87 119 157 191 227 277
#     4   9  16  26  40  60  89 125 163 199 238 289
#     4   9  19  35  51  67  90 121 157 197 240 286
#     4   8  15  28  45  66  93 123 153 188 231 278
#     4   9  16  26  40  60  89 122 156 198 243 284
#     4   9  18  32  49  71  98 124 153 192 237 286
#
# _framework density 17.726099999999999
#
# number of rings (size 3 to 8) (size 9 to 14) (size 15 to 20)
#    0.000    3.182    0.909    1.636    0.000    2.545 
#    0.000    7.273    0.000    3.818    0.000    0.000 
#    0.000    1.455    0.000    1.636    0.000    1.818 
#
# Total GULP energy -245122.363638 kJ/mol
# GULP energy per Si atom -5570.962810 kJ/mol
# Density = 1.768575 g / cm^3
# Si number density = 17.726100 Si / 1000 Ang^3
#
#
#
# Elastic Constant Matrix: (Units=GPa)
#
#
# Indices 1 2 3 4 5 6 
#
# 1 56.9658 55.8577 26.2329 0.0000 0.0000 0.0000
# 2 55.8577 191.7467 86.9720 0.0000 0.0000 0.0000
# 3 26.2329 86.9720 57.7871 0.0000 0.0000 0.0000
# 4 0.0000 0.0000 0.0000 -10.0048 0.0000 0.0000
# 5 0.0000 0.0000 0.0000 0.0000 -36.4714 0.0000
# 6 0.0000 0.0000 0.0000 0.0000 0.0000 -59.6522
#
#
#
# Elastic Compliance Matrix: (Units=1/GPa)
#
#
# Indices 1 2 3 4 5 6 
#
# 1 0.024600 -0.006620 -0.001203 0.000000 0.000000 0.000000
# 2 -0.006620 0.018215 -0.024410 0.000000 0.000000 0.000000
# 3 -0.001203 -0.024410 0.054589 0.000000 0.000000 0.000000
# 4 0.000000 0.000000 0.000000 -0.099952 0.000000 0.000000
# 5 0.000000 0.000000 0.000000 0.000000 -0.027419 0.000000
# 6 0.000000 0.000000 0.000000 0.000000 0.000000 -0.016764
#
#
# Mechanical properties :
#
#
# Convention : Reuss Voigt Hill
#
# Bulk Modulus (GPa) = 30.36064 71.62497 50.99280
# Shear Modulus (GPa) = 174.11962 -12.06320 81.02821
#
# Velocity S-wave (km/s) = 9.92175 -2.61153 6.76834
# Velocity P-wave (km/s) = 12.18276 5.60364 9.48210
#
# Compressibility (1/GPa) = 0.03293738
#
# Stress axis : x y z
#
# Youngs Moduli (GPa) = 40.65005 54.89839 18.31879
#
# Poissons Ratio (x) = 0.36345 0.02205
# Poissons Ratio (y) = 0.26912 0.44716
# Poissons Ratio (z) = 0.04892 1.34005
#
# Static dielectric constant tensor:
#      x y z
#    x 1.643710 0.000000 0.000000 
#    y 0.000000 1.594580 0.000000 
#    z 0.000000 0.000000 1.582230 
# 
# From -- ./inp_files/2307.got.cif
#   From: 2010.05.17/outbox.cif.g08.bks.cpg/sg47_2_cif.got.tgz:2307.got - 2010.06.03 20:15:42.
