data_PCOD9389046
_publ_section_title
;
Structure prediction by ZEFSAII (Michael W. Deem and Ramdas Pophale) SiO2 
 PCOD9389046
Probable space group: P M M M
;
_chemical_formula_sum "Si O2"
_cell_formula_units_Z 56
_cell_length_a 19.556650
_cell_length_b 19.590635
_cell_length_c 7.493535
_cell_angle_alpha 90.000000
_cell_angle_beta 90.000000
_cell_angle_gamma 90.000000
_cell_volume 2870.977022
_symmetry_space_group_name_H-M "P M M M"
_symmetry_group_IT_number 47
_symmetry_cell_setting 'orthorhombic'
loop_
_space_group_symop_operation_xyz
x,y,z
-x,-y,z
x,-y,-z
-x,y,-z
-x,-y,-z
x,y,-z
-x,y,z
x,-y,z
loop_
_atom_site_type_symbol
_atom_site_label
_atom_site_fract_x
_atom_site_fract_y
_atom_site_fract_z
Si Si1 0.720028 0.575127 0.709889
Si Si2 0.423720 0.360321 0.216331
Si Si3 0.220685 0.281609 0.283423
Si Si4 0.917797 0.427522 0.793885
Si Si5 0.923490 0.275430 0.702250
Si Si6 0.635634 0.217291 0.789119
Si Si7 0.580362 0.925373 0.217052
O O1 0.736194 0.572604 0.500000
O O2 0.733721 0.500000 0.787044
O O3 0.639504 0.592646 0.726871
O O4 0.760220 0.641489 0.782062
O O5 0.500000 0.380425 0.273641
O O6 0.406056 0.283227 0.279721
O O7 0.422891 0.360175 0.000000
O O8 0.217201 0.283932 0.500000
O O9 0.148254 0.252113 0.215240
O O10 0.285186 0.235482 0.235239
O O11 0.891571 0.500000 0.720551
O O12 0.907719 0.356813 0.695574
O O13 0.000000 0.432796 0.796934
O O14 0.895846 0.421242 0.000000
O O15 0.927694 0.249416 0.500000
O O16 0.000000 0.266835 0.782328
O O17 0.616372 0.143200 0.716317
O O18 0.620309 0.215215 0.000000
O O19 0.500000 0.920555 0.259783
O O20 0.605464 0.000000 0.278472
O O21 0.585467 0.925957 0.000000
#
# Coordination Sequence:
#
# PCOD9389046 Si02
#       7
#     8   8   8   8   8   8   8
#     4   9  18  31  43  54  72 101 135 169 206 249
#     4   9  17  28  42  60  80 102 131 169 208 239
#     4   9  18  31  44  58  79 107 136 168 210 254
#     4   8  14  24  36  51  73  98 121 150 196 252
#     4   9  17  28  42  59  76  96 128 170 210 248
#     4   9  16  27  44  64  86 112 141 167 192 233
#     4   8  13  22  40  68  97 120 142 169 198 226
#
# _framework density 19.505555000000001
#
# number of rings (size 3 to 8) (size 9 to 14) (size 15 to 20)
#    0.000    3.286    0.000    1.286    0.000    4.000 
#    0.000    4.286    0.000    1.714    0.000    1.000 
#    0.000    0.571    0.000    7.143    0.000    0.000 
#
# Total GULP energy -311911.429618 kJ/mol
# GULP energy per Si atom -5569.846957 kJ/mol
# Density = 1.946116 g / cm^3
# Si number density = 19.505555 Si / 1000 Ang^3
#
#
#
# Elastic Constant Matrix: (Units=GPa)
#
#
# Indices 1 2 3 4 5 6 
#
# 1 110.4151 25.6482 -12.0677 0.0000 0.0000 0.0000
# 2 25.6482 92.1905 0.9225 0.0000 0.0000 0.0000
# 3 -12.0677 0.9225 52.6165 0.0000 0.0000 0.0000
# 4 0.0000 0.0000 0.0000 -18.5563 0.0000 0.0000
# 5 0.0000 0.0000 0.0000 0.0000 12.7752 0.0000
# 6 0.0000 0.0000 0.0000 0.0000 0.0000 5.8421
#
#
#
# Elastic Compliance Matrix: (Units=1/GPa)
#
#
# Indices 1 2 3 4 5 6 
#
# 1 0.009961 -0.002795 0.002334 0.000000 0.000000 0.000000
# 2 -0.002795 0.011633 -0.000845 0.000000 0.000000 0.000000
# 3 0.002334 -0.000845 0.019555 0.000000 0.000000 0.000000
# 4 0.000000 0.000000 0.000000 -0.053890 0.000000 0.000000
# 5 0.000000 0.000000 0.000000 0.000000 0.078277 0.000000
# 6 0.000000 0.000000 0.000000 0.000000 0.000000 0.171172
#
#
# Mechanical properties :
#
#
# Convention : Reuss Voigt Hill
#
# Bulk Modulus (GPa) = 25.94868 31.58090 28.76479
# Shear Modulus (GPa) = 19.82819 16.06013 17.94416
#
# Velocity S-wave (km/s) = 3.19178 2.87254 3.03636
# Velocity P-wave (km/s) = 5.18801 5.21803 5.20304
#
# Compressibility (1/GPa) = 0.03853760
#
# Stress axis : x y z
#
# Youngs Moduli (GPa) = 100.39228 85.96214 51.13658
#
# Poissons Ratio (x) = 0.24023 -0.11933
# Poissons Ratio (y) = 0.28055 0.04321
# Poissons Ratio (z) = -0.23427 0.07263
#
# Static dielectric constant tensor:
#      x y z
#    x 1.729300 0.000000 0.000000 
#    y 0.000000 1.695010 0.000000 
#    z 0.000000 0.000000 1.754980 
# 
# From -- ./inp_files/11503.got.cif
#   From: 2010.05.17/outbox.cif.g08.bks.cpg/sg47_6_cif.got.tgz:11503.got - 2010.06.03 20:15:42.
