data_PCOD9389965
_publ_section_title
;
Structure prediction by ZEFSAII (Michael W. Deem and Ramdas Pophale) SiO2 
 PCOD9389965
Probable space group: P N N N
;
_chemical_formula_sum "Si O2"
_cell_formula_units_Z 40
_cell_length_a 10.438353
_cell_length_b 10.099222
_cell_length_c 18.154321
_cell_angle_alpha 90.000000
_cell_angle_beta 90.000000
_cell_angle_gamma 90.000000
_cell_volume 1913.814800
_symmetry_space_group_name_H-M "P N N N"
_symmetry_group_IT_number 48
_space_group.IT_coordinate_system_code '2'
_symmetry_cell_setting 'orthorhombic'
loop_
_space_group_symop_operation_xyz
x,y,z
1/2-x,1/2-y,z
x,1/2-y,1/2-z
1/2-x,y,1/2-z
-x,-y,-z
1/2+x,1/2+y,-z
-x,1/2+y,1/2+z
1/2+x,-y,1/2+z
loop_
_atom_site_type_symbol
_atom_site_label
_atom_site_fract_x
_atom_site_fract_y
_atom_site_fract_z
Si Si1 0.824999 0.031650 0.077226
Si Si2 0.584741 0.177300 0.047543
Si Si3 0.352393 0.850052 0.121574
Si Si4 0.887704 0.785607 0.164235
Si Si5 0.292206 0.105246 0.065326
O O1 0.681597 0.087725 0.097082
O O2 0.904970 0.167270 0.066676
O O3 0.895345 0.937261 0.136408
O O4 0.799022 0.948080 0.001467
O O5 0.441191 0.124367 0.042581
O O6 0.645406 0.163430 0.966903
O O7 0.250000 0.750000 0.154690
O O8 0.493945 0.803837 0.140526
O O9 0.302054 0.998335 0.130681
O O10 0.750000 0.750000 0.129645
O O11 0.879115 0.750000 0.250000
O O12 0.250000 0.250000 0.088512
#
# Coordination Sequence:
#
# PCOD9389965 Si02
#       5
#     8   8   8   8   8
#     4  10  19  36  57  91 121 153 193 247 304 363
#     4  10  19  34  60  93 125 154 186 255 324 365
#     4  11  21  38  59  91 126 154 203 253 313 368
#     4  11  24  40  61  84 118 169 213 247 289 369
#     4  11  21  32  57  93 125 156 189 249 319 369
#
# _framework density 20.900665
#
# number of rings (size 3 to 8) (size 9 to 14) (size 15 to 20)
#    0.000    1.400    4.000    6.600    2.800    2.000 
#    0.000    0.000    0.000   20.400    0.000    0.000 
#    0.000    0.000    0.000    0.000    0.000    0.000 
#
# Total GULP energy -222790.507244 kJ/mol
# GULP energy per Si atom -5569.762681 kJ/mol
# Density = 2.085309 g / cm^3
# Si number density = 20.900665 Si / 1000 Ang^3
#
#
#
# Elastic Constant Matrix: (Units=GPa)
#
#
# Indices 1 2 3 4 5 6 
#
# 1 86.6171 38.7382 11.3494 0.0000 0.0000 0.0000
# 2 38.7382 186.9808 33.3636 0.0000 0.0000 0.0000
# 3 11.3494 33.3636 39.5417 0.0000 0.0000 0.0000
# 4 0.0000 0.0000 0.0000 5.4845 0.0000 0.0000
# 5 0.0000 0.0000 0.0000 0.0000 10.9905 0.0000
# 6 0.0000 0.0000 0.0000 0.0000 0.0000 36.6543
#
#
#
# Elastic Compliance Matrix: (Units=1/GPa)
#
#
# Indices 1 2 3 4 5 6 
#
# 1 0.012820 -0.002354 -0.001694 0.000000 0.000000 0.000000
# 2 -0.002354 0.006728 -0.005001 0.000000 0.000000 0.000000
# 3 -0.001694 -0.005001 0.029996 0.000000 0.000000 0.000000
# 4 0.000000 0.000000 0.000000 0.182333 0.000000 0.000000
# 5 0.000000 0.000000 0.000000 0.000000 0.090988 0.000000
# 6 0.000000 0.000000 0.000000 0.000000 0.000000 0.027282
#
#
# Mechanical properties :
#
#
# Convention : Reuss Voigt Hill
#
# Bulk Modulus (GPa) = 31.80025 53.33798 42.56911
# Shear Modulus (GPa) = 13.20218 25.93843 19.57030
#
# Velocity S-wave (km/s) = 2.51602 3.52665 3.06330
# Velocity P-wave (km/s) = 4.86708 6.49293 5.73788
#
# Compressibility (1/GPa) = 0.03144630
#
# Stress axis : x y z
#
# Youngs Moduli (GPa) = 78.00529 148.62815 33.33801
#
# Poissons Ratio (x) = 0.34983 0.05646
# Poissons Ratio (y) = 0.18361 0.16674
# Poissons Ratio (z) = 0.13210 0.74335
#
# Static dielectric constant tensor:
#      x y z
#    x 1.900900 0.000000 0.000000 
#    y 0.000000 1.903500 0.000000 
#    z 0.000000 0.000000 1.826070 
# 
# From -- ./inp_files/34028.got.cif
#   From: 2010.05.17/outbox.cif.g08.bks.cpg/sg48_18_cif.got.tgz:34028.got - 2010.06.03 20:39:00.
