data_PCOD9389267
_publ_section_title
;
Structure prediction by ZEFSAII (Michael W. Deem and Ramdas Pophale) SiO2 
 PCOD9389267
Probable space group: P M M M
;
_chemical_formula_sum "Si O2"
_cell_formula_units_Z 60
_cell_length_a 21.000000
_cell_length_b 9.000000
_cell_length_c 18.000000
_cell_angle_alpha 90.000000
_cell_angle_beta 90.000000
_cell_angle_gamma 90.000000
_cell_volume 3402.000000
_symmetry_space_group_name_H-M "P M M M"
_symmetry_group_IT_number 47
_symmetry_cell_setting 'orthorhombic'
loop_
_space_group_symop_operation_xyz
x,y,z
-x,-y,z
x,-y,-z
-x,y,-z
-x,-y,-z
x,y,-z
-x,y,z
x,-y,z
loop_
_atom_site_type_symbol
_atom_site_label
_atom_site_fract_x
_atom_site_fract_y
_atom_site_fract_z
Si Si1 0.239464 0.829963 0.659160
Si Si2 0.573573 0.179677 0.813585
Si Si3 0.871374 0.678970 0.582574
Si Si4 0.609766 0.831129 0.352237
Si Si5 0.574878 0.339666 0.500000
Si Si6 0.800117 0.678790 0.810274
Si Si7 0.070896 0.319214 0.742202
Si Si8 0.315032 0.320099 0.086735
O O1 0.197054 0.754214 0.595810
O O2 0.313984 0.833294 0.644931
O O3 0.229984 0.735468 0.733646
O O4 0.217588 0.000000 0.670399
O O5 0.500000 0.215278 0.832768
O O6 0.587282 0.226769 0.728198
O O7 0.626214 0.251524 0.867205
O O8 0.580826 0.000000 0.816267
O O9 0.896462 0.717536 0.500000
O O10 0.865478 0.500000 0.585162
O O11 0.910787 0.722306 0.656846
O O12 0.589764 0.743068 0.424160
O O13 0.585530 0.000000 0.357547
O O14 0.607678 0.500000 0.500000
O O15 0.500000 0.356473 0.500000
O O16 0.800932 0.500000 0.811870
O O17 0.873748 0.728289 0.799712
O O18 0.752483 0.726937 0.875834
O O19 0.070351 0.500000 0.743102
O O20 0.000000 0.266569 0.760011
O O21 0.318754 0.500000 0.091624
O O22 0.317741 0.278719 0.000000
#
# Coordination Sequence:
#
# PCOD9389267 Si02
#       8
#     8   8   8   8   4   8   8   8
#     4  10  19  31  50  73  95 123 166 211 253 302
#     4  10  21  38  59  81 105 136 175 217 262 314
#     4   9  18  30  44  67 100 135 170 209 257 306
#     4  10  21  37  56  75  99 134 173 216 267 317
#     4  11  25  39  51  73 101 131 172 219 264 311
#     4   9  17  32  53  75 101 132 166 205 250 300
#     4   8  14  26  47  74 100 130 172 216 254 298
#     4  10  21  36  55  80 110 142 173 209 258 316
#
# _framework density 17.636683999999999
#
# number of rings (size 3 to 8) (size 9 to 14) (size 15 to 20)
#    0.000    2.467    1.333    1.800    0.933    4.000 
#    0.000    2.667    0.000    6.800    0.000    6.533 
#    0.000    0.000    0.000    6.000    0.000    6.667 
#
# Total GULP energy -334139.954059 kJ/mol
# GULP energy per Si atom -5568.999234 kJ/mol
# Density = 1.759654 g / cm^3
# Si number density = 17.636684 Si / 1000 Ang^3
#
#
#
# Elastic Constant Matrix: (Units=GPa)
#
#
# Indices 1 2 3 4 5 6 
#
# 1 132.7566 26.9472 69.8526 0.0000 0.0000 0.0000
# 2 26.9472 2.6887 27.6416 0.0000 0.0000 0.0000
# 3 69.8526 27.6416 136.6556 0.0000 0.0000 0.0000
# 4 0.0000 0.0000 0.0000 19.9964 0.0000 0.0000
# 5 0.0000 0.0000 0.0000 0.0000 -13.0878 0.0000
# 6 0.0000 0.0000 0.0000 0.0000 0.0000 -66.4400
#
#
#
# Elastic Compliance Matrix: (Units=1/GPa)
#
#
# Indices 1 2 3 4 5 6 
#
# 1 0.006508 0.028741 -0.009140 0.000000 0.000000 0.000000
# 2 0.028741 -0.217614 0.029326 0.000000 0.000000 0.000000
# 3 -0.009140 0.029326 0.006058 0.000000 0.000000 0.000000
# 4 0.000000 0.000000 0.000000 0.050009 0.000000 0.000000
# 5 0.000000 0.000000 0.000000 0.000000 -0.076407 0.000000
# 6 0.000000 0.000000 0.000000 0.000000 0.000000 -0.015051
#
#
# Mechanical properties :
#
#
# Convention : Reuss Voigt Hill
#
# Bulk Modulus (GPa) = -9.32887 57.88707 24.27910
# Shear Modulus (GPa) = -13.15503 -2.06231 -7.60867
#
# Velocity S-wave (km/s) = -2.73406 -1.08253 -2.07930
# Velocity P-wave (km/s) = 3.90740 5.59739 2.83399
#
# Compressibility (1/GPa) = -0.10719408
#
# Stress axis : x y z
#
# Youngs Moduli (GPa) = 153.66026 -4.59530 165.07233
#
# Poissons Ratio (x) = 0.13208 1.50878
# Poissons Ratio (y) = -4.41641 -4.84087
# Poissons Ratio (z) = 1.40447 0.13476
#
# Static dielectric constant tensor:
#      x y z
#    x 1.631300 0.000000 0.000000 
#    y 0.000000 1.639300 0.000000 
#    z 0.000000 0.000000 1.573930 
# 
# From -- ./inp_files/11560.got.cif
#   From: 2010.05.17/outbox.ucp.g08.bks.cvg/sg47_6_cif.got.tgz:11560.got - 2010.06.11 16:36:43.
