data_PCOD9389201
_publ_section_title
;
Structure prediction by ZEFSAII (Michael W. Deem and Ramdas Pophale) SiO2 
 PCOD9389201
Probable space group: P M M M
;
_chemical_formula_sum "Si O2"
_cell_formula_units_Z 40
_cell_length_a 28.940671
_cell_length_b 9.338869
_cell_length_c 7.521034
_cell_angle_alpha 90.000000
_cell_angle_beta 90.000000
_cell_angle_gamma 90.000000
_cell_volume 2032.733439
_symmetry_space_group_name_H-M "P M M M"
_symmetry_group_IT_number 47
_symmetry_cell_setting 'orthorhombic'
loop_
_space_group_symop_operation_xyz
x,y,z
-x,-y,z
x,-y,-z
-x,y,-z
-x,-y,-z
x,y,-z
-x,y,z
x,-y,z
loop_
_atom_site_type_symbol
_atom_site_label
_atom_site_fract_x
_atom_site_fract_y
_atom_site_fract_z
Si Si1 0.000000 0.836984 0.710889
Si Si2 0.810308 0.664533 0.217857
Si Si3 0.280757 0.835485 0.783193
Si Si4 0.447538 0.673882 0.500000
Si Si5 0.100635 0.163298 0.788855
Si Si6 0.626437 0.329118 0.790199
O O1 0.049394 0.772938 0.762187
O O2 0.000000 0.845867 0.500000
O O3 0.000000 0.000000 0.786729
O O4 0.808408 0.500000 0.274246
O O5 0.765005 0.751526 0.274530
O O6 0.857090 0.742455 0.279115
O O7 0.810433 0.664666 0.000000
O O8 0.327595 0.754263 0.732096
O O9 0.280322 0.000000 0.724830
O O10 0.280089 0.835365 0.000000
O O11 0.449853 0.500000 0.500000
O O12 0.500000 0.727816 0.500000
O O13 0.417382 0.714126 0.672125
O O14 0.101257 0.000000 0.716409
O O15 0.107295 0.152180 0.000000
O O16 0.633963 0.500000 0.767509
O O17 0.618708 0.303205 0.000000
#
# Coordination Sequence:
#
# PCOD9389201 Si02
#       6
#     4   8   8   4   8   8
#     4   9  17  29  46  65  86 116 152 191 234 280
#     4   9  16  26  43  69  98 124 153 193 240 289
#     4   9  16  27  46  72 100 129 161 198 242 294
#     4   9  18  32  51  77 107 137 173 216 255 294
#     4   9  16  27  45  68  91 116 151 193 234 280
#     4   9  17  30  50  75 103 136 172 210 253 299
#
# _framework density 19.677935000000002
#
# number of rings (size 3 to 8) (size 9 to 14) (size 15 to 20)
#    0.000    3.000    0.000    1.500    0.000    6.400 
#    0.000    3.000    2.200    4.800    0.000    2.800 
#    0.000    0.000    0.000    0.000    0.000    0.000 
#
# Total GULP energy -223105.055688 kJ/mol
# GULP energy per Si atom -5577.626392 kJ/mol
# Density = 1.963315 g / cm^3
# Si number density = 19.677935 Si / 1000 Ang^3
#
#
#
# Elastic Constant Matrix: (Units=GPa)
#
#
# Indices 1 2 3 4 5 6 
#
# 1 241.9902 96.3065 40.9229 0.0000 0.0000 0.0000
# 2 96.3065 93.4995 26.5902 0.0000 0.0000 0.0000
# 3 40.9229 26.5902 60.3181 0.0000 0.0000 0.0000
# 4 0.0000 0.0000 0.0000 0.8537 0.0000 0.0000
# 5 0.0000 0.0000 0.0000 0.0000 119.0453 0.0000
# 6 0.0000 0.0000 0.0000 0.0000 0.0000 35.7625
#
#
#
# Elastic Compliance Matrix: (Units=1/GPa)
#
#
# Indices 1 2 3 4 5 6 
#
# 1 0.007178 -0.006870 -0.001841 0.000000 0.000000 0.000000
# 2 -0.006870 0.018803 -0.003628 0.000000 0.000000 0.000000
# 3 -0.001841 -0.003628 0.019428 0.000000 0.000000 0.000000
# 4 0.000000 0.000000 0.000000 1.171413 0.000000 0.000000
# 5 0.000000 0.000000 0.000000 0.000000 0.008400 0.000000
# 6 0.000000 0.000000 0.000000 0.000000 0.000000 0.027962
#
#
# Mechanical properties :
#
#
# Convention : Reuss Voigt Hill
#
# Bulk Modulus (GPa) = 48.24003 80.38298 64.31151
# Shear Modulus (GPa) = 3.89174 46.59816 25.24495
#
# Velocity S-wave (km/s) = 1.40784 4.87153 3.58565
# Velocity P-wave (km/s) = 5.21639 8.51941 7.06368
#
# Compressibility (1/GPa) = 0.02072967
#
# Stress axis : x y z
#
# Youngs Moduli (GPa) = 139.32013 53.18343 51.47335
#
# Poissons Ratio (x) = 0.36534 0.09478
# Poissons Ratio (y) = 0.95706 0.18676
# Poissons Ratio (z) = 0.25655 0.19296
#
# Static dielectric constant tensor:
#      x y z
#    x 1.675600 0.000000 0.000000 
#    y 0.000000 1.670870 0.000000 
#    z 0.000000 0.000000 1.729890 
# 
# From -- ./inp_files/12980.got.cif
#   From: 2010.05.17/outbox.cif.g08.bks.cpg/sg47_7_cif.got.tgz:12980.got - 2010.06.03 20:15:42.
