data_PCOD9389339
_publ_section_title
;
Structure prediction by ZEFSAII (Michael W. Deem and Ramdas Pophale) SiO2 
 PCOD9389339
Probable space group: P M M M
;
_chemical_formula_sum "Si O2"
_cell_formula_units_Z 44
_cell_length_a 9.000000
_cell_length_b 9.000000
_cell_length_c 30.000000
_cell_angle_alpha 90.000000
_cell_angle_beta 90.000000
_cell_angle_gamma 90.000000
_cell_volume 2430.000000
_symmetry_space_group_name_H-M "P M M M"
_symmetry_group_IT_number 47
_symmetry_cell_setting 'orthorhombic'
loop_
_space_group_symop_operation_xyz
x,y,z
-x,-y,z
x,-y,-z
-x,y,-z
-x,-y,-z
x,y,-z
-x,y,z
x,-y,z
loop_
_atom_site_type_symbol
_atom_site_label
_atom_site_fract_x
_atom_site_fract_y
_atom_site_fract_z
Si Si1 0.318586 0.171289 0.500000
Si Si2 0.326644 0.178616 0.135010
Si Si3 0.171664 0.818918 0.773782
Si Si4 0.823223 0.322470 0.950471
Si Si5 0.318769 0.671540 0.409073
Si Si6 0.322953 0.823052 0.682382
O O1 0.500000 0.177347 0.500000
O O2 0.268693 0.249093 0.545593
O O3 0.275059 0.000000 0.500000
O O4 0.500000 0.214545 0.136824
O O5 0.250055 0.231304 0.180777
O O6 0.255496 0.245878 0.090784
O O7 0.310525 0.000000 0.133212
O O8 0.247379 0.768888 0.727863
O O9 0.000000 0.776796 0.774493
O O10 0.180811 0.000000 0.773569
O O11 0.801169 0.500000 0.948001
O O12 0.000000 0.295128 0.947737
O O13 0.772749 0.273128 0.000000
O O14 0.500000 0.679542 0.408975
O O15 0.276333 0.500000 0.409910
O O16 0.269308 0.747220 0.363110
O O17 0.500000 0.799330 0.686331
O O18 0.298436 0.000000 0.678415
#
# Coordination Sequence:
#
# PCOD9389339 Si02
#       6
#     4   8   8   8   8   8
#     4   9  15  23  37  59  88 121 156 191 228 274
#     4  10  20  33  51  77 106 133 164 205 251 297
#     4   9  17  30  49  71  94 123 160 200 241 286
#     4   9  19  36  55  74  99 133 171 208 247 294
#     4   9  16  25  38  59  89 122 153 188 232 279
#     4   9  16  27  44  65  89 118 153 192 233 278
#
# _framework density 18.106995999999999
#
# number of rings (size 3 to 8) (size 9 to 14) (size 15 to 20)
#    0.000    2.818    0.000    2.455    0.000    7.636 
#    0.000    3.636    0.000    3.818    0.000    0.636 
#    0.000    5.091    0.000    0.000    0.000    0.000 
#
# Total GULP energy -245278.570395 kJ/mol
# GULP energy per Si atom -5574.512964 kJ/mol
# Density = 1.806578 g / cm^3
# Si number density = 18.106996 Si / 1000 Ang^3
#
#
#
# Elastic Constant Matrix: (Units=GPa)
#
#
# Indices 1 2 3 4 5 6 
#
# 1 40.8444 47.4529 84.8087 0.0000 0.0000 0.0000
# 2 47.4529 32.7372 73.9667 0.0000 0.0000 0.0000
# 3 84.8087 73.9667 250.9748 0.0000 0.0000 0.0000
# 4 0.0000 0.0000 0.0000 -81.0401 0.0000 0.0000
# 5 0.0000 0.0000 0.0000 0.0000 -510.8009 0.0000
# 6 0.0000 0.0000 0.0000 0.0000 0.0000 12.2785
#
#
#
# Elastic Compliance Matrix: (Units=1/GPa)
#
#
# Indices 1 2 3 4 5 6 
#
# 1 -0.029476 0.060521 -0.007876 0.000000 0.000000 0.000000
# 2 0.060521 -0.032839 -0.010773 0.000000 0.000000 0.000000
# 3 -0.007876 -0.010773 0.009821 0.000000 0.000000 0.000000
# 4 0.000000 0.000000 0.000000 -0.012340 0.000000 0.000000
# 5 0.000000 0.000000 0.000000 0.000000 -0.001958 0.000000
# 6 0.000000 0.000000 0.000000 0.000000 0.000000 0.081443
#
#
# Mechanical properties :
#
#
# Convention : Reuss Voigt Hill
#
# Bulk Modulus (GPa) = 32.00032 81.89033 56.94532
# Shear Modulus (GPa) = -85.21518 -108.02396 -96.61957
#
# Velocity S-wave (km/s) = -6.86762 -7.73228 -7.31274
# Velocity P-wave (km/s) = 6.72118 5.86461 6.30745
#
# Compressibility (1/GPa) = 0.03124969
#
# Stress axis : x y z
#
# Youngs Moduli (GPa) = -33.92646 -30.45145 101.82393
#
# Poissons Ratio (x) = 1.84294 0.80199
# Poissons Ratio (y) = 2.05325 1.09692
# Poissons Ratio (z) = -0.26721 -0.32804
#
# Static dielectric constant tensor:
#      x y z
#    x 1.609730 0.000000 0.000000 
#    y 0.000000 1.609390 0.000000 
#    z 0.000000 0.000000 1.608000 
# 
# From -- ./inp_files/2073.got.cif
#   From: 2010.05.17/outbox.ucp.g08.bks.cvg/sg47_2_cif.got.tgz:2073.got - 2010.06.11 16:36:43.
