data_PCOD9389442
_publ_section_title
;
Structure prediction by ZEFSAII (Michael W. Deem and Ramdas Pophale) SiO2 
 PCOD9389442
Probable space group: P M M M
;
_chemical_formula_sum "Si O2"
_cell_formula_units_Z 37
_cell_length_a 12.000000
_cell_length_b 9.000000
_cell_length_c 18.000000
_cell_angle_alpha 90.000000
_cell_angle_beta 90.000000
_cell_angle_gamma 90.000000
_cell_volume 1944.000000
_symmetry_space_group_name_H-M "P M M M"
_symmetry_group_IT_number 47
_symmetry_cell_setting 'orthorhombic'
loop_
_space_group_symop_operation_xyz
x,y,z
-x,-y,z
x,-y,-z
-x,y,-z
-x,-y,-z
x,y,-z
-x,y,z
x,-y,z
loop_
_atom_site_type_symbol
_atom_site_label
_atom_site_fract_x
_atom_site_fract_y
_atom_site_fract_z
Si Si1 0.870398 0.319660 0.500000
Si Si2 0.744731 0.832486 0.084132
Si Si3 0.874134 0.321954 0.213425
Si Si4 0.274354 0.680342 0.355353
Si Si5 0.500000 0.819835 0.700329
Si Si6 0.500000 0.500000 0.000000
Si Si7 0.500000 0.241091 0.872472
O O1 0.876676 0.500000 0.500000
O O2 0.798196 0.278552 0.427633
O O3 0.000000 0.267421 0.500000
O O4 0.814100 0.733079 0.139765
O O5 0.616622 0.837018 0.109722
O O6 0.789091 0.000000 0.085742
O O7 0.749079 0.775208 0.000000
O O8 0.878317 0.500000 0.212590
O O9 0.800419 0.280114 0.284047
O O10 0.000000 0.264792 0.219008
O O11 0.292159 0.500000 0.356548
O O12 0.390929 0.764025 0.343869
O O13 0.500000 0.741056 0.782455
O O14 0.500000 0.000000 0.710093
O O15 0.500000 0.626213 0.067293
#
# Coordination Sequence:
#
# PCOD9389442 Si02
#       7
#     4   8   8   8   4   1   4
#     4   9  18  37  67  98 128 163 208 263 314 367
#     4  11  23  39  59  83 116 157 203 251 303 366
#     4  10  22  38  58  85 117 154 201 256 310 366
#     4  10  21  38  64  94 124 160 207 258 315 377
#     4  12  25  40  62  91 129 169 207 253 314 378
#     4  12  28  36  66 100 126 162 206 276 320 370
#     4  12  24  39  60  90 123 158 203 253 315 366
#
# _framework density 19.032921999999999
#
# number of rings (size 3 to 8) (size 9 to 14) (size 15 to 20)
#    0.000    1.405    3.243    1.946    3.027    5.189 
#    0.000    4.865    0.000    2.595    0.000    0.000 
#    0.000    0.000    0.000    0.000    0.000    0.000 
#
# Total GULP energy -206163.575977 kJ/mol
# GULP energy per Si atom -5571.988540 kJ/mol
# Density = 1.898960 g / cm^3
# Si number density = 19.032922 Si / 1000 Ang^3
#
#
#
# Elastic Constant Matrix: (Units=GPa)
#
#
# Indices 1 2 3 4 5 6 
#
# 1 176.6668 34.9452 89.6907 0.0000 0.0000 0.0000
# 2 34.9452 24.0286 12.6846 0.0000 0.0000 0.0000
# 3 89.6907 12.6846 148.5123 0.0000 0.0000 0.0000
# 4 0.0000 0.0000 0.0000 -14.3034 0.0000 0.0000
# 5 0.0000 0.0000 0.0000 0.0000 -3.8544 0.0000
# 6 0.0000 0.0000 0.0000 0.0000 0.0000 -13.0939
#
#
#
# Elastic Compliance Matrix: (Units=1/GPa)
#
#
# Indices 1 2 3 4 5 6 
#
# 1 0.011104 -0.013204 -0.005578 0.000000 0.000000 0.000000
# 2 -0.013204 0.059284 0.002911 0.000000 0.000000 0.000000
# 3 -0.005578 0.002911 0.009854 0.000000 0.000000 0.000000
# 4 0.000000 0.000000 0.000000 -0.069913 0.000000 0.000000
# 5 0.000000 0.000000 0.000000 0.000000 -0.259445 0.000000
# 6 0.000000 0.000000 0.000000 0.000000 0.000000 -0.076371
#
#
# Mechanical properties :
#
#
# Convention : Reuss Voigt Hill
#
# Bulk Modulus (GPa) = 20.61930 69.31651 44.96790
# Shear Modulus (GPa) = -18.01295 7.87548 -5.06873
#
# Velocity S-wave (km/s) = -3.07972 2.03637 -1.63368
# Velocity P-wave (km/s) = 1.33761 6.48285 4.48543
#
# Compressibility (1/GPa) = 0.04849826
#
# Stress axis : x y z
#
# Youngs Moduli (GPa) = 90.05539 16.86804 101.48413
#
# Poissons Ratio (x) = 0.22273 0.56612
# Poissons Ratio (y) = 1.18912 -0.29542
# Poissons Ratio (z) = 0.50236 -0.04910
#
# Static dielectric constant tensor:
#      x y z
#    x 1.655050 0.000000 0.000000 
#    y 0.000000 1.648110 0.000000 
#    z 0.000000 0.000000 1.649190 
# 
# From -- ./inp_files/26174.got.cif
#   From: 2010.05.17/outbox.ucp.g08.bks.cvg/sg47_14_cif.got.tgz:26174.got - 2010.06.11 16:36:43.
