data_PCOD9389300
_publ_section_title
;
Structure prediction by ZEFSAII (Michael W. Deem and Ramdas Pophale) SiO2 
 PCOD9389300
Probable space group: P M M M
;
_chemical_formula_sum "Si O2"
_cell_formula_units_Z 52
_cell_length_a 15.000000
_cell_length_b 24.000000
_cell_length_c 9.000000
_cell_angle_alpha 90.000000
_cell_angle_beta 90.000000
_cell_angle_gamma 90.000000
_cell_volume 3240.000000
_symmetry_space_group_name_H-M "P M M M"
_symmetry_group_IT_number 47
_symmetry_cell_setting 'orthorhombic'
loop_
_space_group_symop_operation_xyz
x,y,z
-x,-y,z
x,-y,-z
-x,y,-z
-x,-y,-z
x,y,-z
-x,y,z
x,-y,z
loop_
_atom_site_type_symbol
_atom_site_label
_atom_site_fract_x
_atom_site_fract_y
_atom_site_fract_z
Si Si1 0.280525 0.773398 0.322246
Si Si2 0.500000 0.934573 0.334367
Si Si3 0.608024 0.438467 0.673016
Si Si4 0.668784 0.111858 0.173177
Si Si5 0.395359 0.676188 0.177285
Si Si6 0.903865 0.179420 0.321981
Si Si7 0.861224 0.937621 0.174631
O O1 0.285605 0.768653 0.500000
O O2 0.319570 0.831973 0.266770
O O3 0.333890 0.723184 0.249144
O O4 0.177188 0.781079 0.274854
O O5 0.500000 0.908813 0.500000
O O6 0.415026 0.918053 0.240514
O O7 0.500000 0.000000 0.351220
O O8 0.633158 0.431262 0.500000
O O9 0.500000 0.439725 0.677692
O O10 0.638755 0.500000 0.723091
O O11 0.634357 0.384915 0.767363
O O12 0.755086 0.072412 0.186186
O O13 0.658298 0.126100 0.000000
O O14 0.500000 0.684064 0.220873
O O15 0.390964 0.679285 0.000000
O O16 0.897378 0.173725 0.500000
O O17 0.897879 0.117029 0.255964
O O18 0.000000 0.203073 0.282289
O O19 0.884789 0.000000 0.228800
O O20 0.885191 0.934920 0.000000
#
# Coordination Sequence:
#
# PCOD9389300 Si02
#       7
#     8   4   8   8   8   8   8
#     4  10  20  34  51  69  92 122 156 195 236 280
#     4  11  23  35  47  65  87 113 150 191 230 277
#     4   8  14  26  44  66  94 129 167 202 234 267
#     4  10  20  34  50  65  86 116 150 190 233 276
#     4  10  20  31  45  68  99 133 167 199 232 271
#     4   9  19  35  52  70  91 116 148 188 237 287
#     4   9  18  32  49  69  91 114 142 178 225 282
#
# _framework density 16.049382999999999
#
# number of rings (size 3 to 8) (size 9 to 14) (size 15 to 20)
#    0.000    2.538    0.000    2.538    1.077    4.615 
#    0.000    3.077    0.000    0.000    0.000    0.000 
#    0.000    0.615    0.000    7.077    0.000    2.308 
#
# Total GULP energy -289652.634494 kJ/mol
# GULP energy per Si atom -5570.242971 kJ/mol
# Density = 1.601285 g / cm^3
# Si number density = 16.049383 Si / 1000 Ang^3
#
#
#
# Elastic Constant Matrix: (Units=GPa)
#
#
# Indices 1 2 3 4 5 6 
#
# 1 94.2663 50.5926 35.2854 0.0000 0.0000 0.0000
# 2 50.5926 111.6964 34.5636 0.0000 0.0000 0.0000
# 3 35.2854 34.5636 27.8634 0.0000 0.0000 0.0000
# 4 0.0000 0.0000 0.0000 12.3963 0.0000 0.0000
# 5 0.0000 0.0000 0.0000 0.0000 8.4264 0.0000
# 6 0.0000 0.0000 0.0000 0.0000 0.0000 31.5676
#
#
#
# Elastic Compliance Matrix: (Units=1/GPa)
#
#
# Indices 1 2 3 4 5 6 
#
# 1 0.020448 -0.002027 -0.023380 0.000000 0.000000 0.000000
# 2 -0.002027 0.014731 -0.015707 0.000000 0.000000 0.000000
# 3 -0.023380 -0.015707 0.084980 0.000000 0.000000 0.000000
# 4 0.000000 0.000000 0.000000 0.080669 0.000000 0.000000
# 5 0.000000 0.000000 0.000000 0.000000 0.118675 0.000000
# 6 0.000000 0.000000 0.000000 0.000000 0.000000 0.031678
#
#
# Mechanical properties :
#
#
# Convention : Reuss Voigt Hill
#
# Bulk Modulus (GPa) = 26.36274 52.74547 39.55410
# Shear Modulus (GPa) = 11.20945 18.03703 14.62324
#
# Velocity S-wave (km/s) = 2.64566 3.35602 3.02178
# Velocity P-wave (km/s) = 5.07881 6.92481 6.07237
#
# Compressibility (1/GPa) = 0.03793233
#
# Stress axis : x y z
#
# Youngs Moduli (GPa) = 48.90568 67.88286 11.76742
#
# Poissons Ratio (x) = 0.13760 0.27512
# Poissons Ratio (y) = 0.09913 0.18483
# Poissons Ratio (z) = 1.14340 1.06622
#
# Static dielectric constant tensor:
#      x y z
#    x 1.613240 0.000000 0.000000 
#    y 0.000000 1.515950 0.000000 
#    z 0.000000 0.000000 1.546080 
# 
# From -- ./inp_files/7605.got.cif
#   From: 2010.05.17/outbox.ucp.g08.bks.cvg/sg47_4_cif.got.tgz:7605.got - 2010.06.11 16:36:43.
