data_PCOD9389367
_publ_section_title
;
Structure prediction by ZEFSAII (Michael W. Deem and Ramdas Pophale) SiO2 
 PCOD9389367
Probable space group: P M M M
;
_chemical_formula_sum "Si O2"
_cell_formula_units_Z 40
_cell_length_a 27.000000
_cell_length_b 9.000000
_cell_length_c 9.000000
_cell_angle_alpha 90.000000
_cell_angle_beta 90.000000
_cell_angle_gamma 90.000000
_cell_volume 2187.000000
_symmetry_space_group_name_H-M "P M M M"
_symmetry_group_IT_number 47
_symmetry_cell_setting 'orthorhombic'
loop_
_space_group_symop_operation_xyz
x,y,z
-x,-y,z
x,-y,-z
-x,y,-z
-x,-y,-z
x,y,-z
-x,y,z
x,-y,z
loop_
_atom_site_type_symbol
_atom_site_label
_atom_site_fract_x
_atom_site_fract_y
_atom_site_fract_z
Si Si1 0.000000 0.169857 0.323077
Si Si2 0.300748 0.322131 0.674286
Si Si3 0.393634 0.827011 0.179012
Si Si4 0.807873 0.319075 0.672541
Si Si5 0.500000 0.818739 0.825704
Si Si6 0.907476 0.320856 0.828330
O O1 0.048454 0.251809 0.264601
O O2 0.000000 0.171397 0.500000
O O3 0.000000 0.000000 0.270390
O O4 0.304672 0.284535 0.500000
O O5 0.301699 0.500000 0.686381
O O6 0.346576 0.257081 0.760905
O O7 0.246345 0.269923 0.725935
O O8 0.447085 0.769669 0.236762
O O9 0.389548 0.000000 0.220279
O O10 0.394787 0.819270 0.000000
O O11 0.814052 0.276205 0.500000
O O12 0.807413 0.500000 0.675297
O O13 0.854311 0.269493 0.767990
O O14 0.500000 0.000000 0.821443
O O15 0.500000 0.777701 0.000000
O O16 0.909338 0.500000 0.815445
O O17 0.913546 0.282004 0.000000
#
# Coordination Sequence:
#
# PCOD9389367 Si02
#       6
#     4   8   8   8   4   8
#     4  11  24  39  54  74 102 137 172 201 236 286
#     4   9  18  32  49  71 100 131 161 195 239 290
#     4   9  17  30  49  71  93 121 161 205 246 290
#     4   8  15  30  51  72  96 129 166 200 235 280
#     4   7  12  26  46  65  88 120 158 201 244 285
#     4  10  20  34  55  82 105 126 160 205 247 287
#
# _framework density 18.289895000000001
#
# number of rings (size 3 to 8) (size 9 to 14) (size 15 to 20)
#    0.000    3.000    0.000    3.600    0.000    4.800 
#    0.000    4.000    0.000    6.000    0.000    0.000 
#    0.000    0.000    0.000    0.000    0.000    0.000 
#
# Total GULP energy -222768.791970 kJ/mol
# GULP energy per Si atom -5569.219799 kJ/mol
# Density = 1.824827 g / cm^3
# Si number density = 18.289895 Si / 1000 Ang^3
#
#
#
# Elastic Constant Matrix: (Units=GPa)
#
#
# Indices 1 2 3 4 5 6 
#
# 1 142.6417 10.6026 41.8579 0.0000 0.0000 0.0000
# 2 10.6026 -15.7206 17.1027 0.0000 0.0000 0.0000
# 3 41.8579 17.1027 26.2920 0.0000 0.0000 0.0000
# 4 0.0000 0.0000 0.0000 34.1623 0.0000 0.0000
# 5 0.0000 0.0000 0.0000 0.0000 32.1515 0.0000
# 6 0.0000 0.0000 0.0000 0.0000 0.0000 33.6938
#
#
#
# Elastic Compliance Matrix: (Units=1/GPa)
#
#
# Indices 1 2 3 4 5 6 
#
# 1 0.011588 -0.007176 -0.013780 0.000000 0.000000 0.000000
# 2 -0.007176 -0.032806 0.032765 0.000000 0.000000 0.000000
# 3 -0.013780 0.032765 0.038659 0.000000 0.000000 0.000000
# 4 0.000000 0.000000 0.000000 0.029272 0.000000 0.000000
# 5 0.000000 0.000000 0.000000 0.000000 0.031103 0.000000
# 6 0.000000 0.000000 0.000000 0.000000 0.000000 0.029679
#
#
# Mechanical properties :
#
#
# Convention : Reuss Voigt Hill
#
# Bulk Modulus (GPa) = 24.35549 32.48217 28.41883
# Shear Modulus (GPa) = 51.24798 25.57818 38.41308
#
# Velocity S-wave (km/s) = 5.29912 3.74369 4.58780
# Velocity P-wave (km/s) = 7.12644 6.04029 6.60573
#
# Compressibility (1/GPa) = 0.04105851
#
# Stress axis : x y z
#
# Youngs Moduli (GPa) = 86.29860 -30.48269 25.86687
#
# Poissons Ratio (x) = -0.21875 0.35644
# Poissons Ratio (y) = 0.61930 -0.84752
# Poissons Ratio (z) = 1.18919 0.99875
#
# Static dielectric constant tensor:
#      x y z
#    x 1.650350 0.000000 0.000000 
#    y 0.000000 1.618340 0.000000 
#    z 0.000000 0.000000 1.615050 
# 
# From -- ./inp_files/1849.got.cif
#   From: 2010.05.17/outbox.ucp.g08.bks.cvg/sg47_1_cif.got.tgz:1849.got - 2010.06.11 16:36:43.
