data_PCOD9389051
_publ_section_title
;
Structure prediction by ZEFSAII (Michael W. Deem and Ramdas Pophale) SiO2 
 PCOD9389051
Probable space group: P M M M
;
_chemical_formula_sum "Si O2"
_cell_formula_units_Z 40
_cell_length_a 25.052653
_cell_length_b 7.433454
_cell_length_c 10.581675
_cell_angle_alpha 90.000000
_cell_angle_beta 90.000000
_cell_angle_gamma 90.000000
_cell_volume 1970.601459
_symmetry_space_group_name_H-M "P M M M"
_symmetry_group_IT_number 47
_symmetry_cell_setting 'orthorhombic'
loop_
_space_group_symop_operation_xyz
x,y,z
-x,-y,z
x,-y,-z
-x,y,-z
-x,-y,-z
x,y,-z
-x,y,z
x,-y,z
loop_
_atom_site_type_symbol
_atom_site_label
_atom_site_fract_x
_atom_site_fract_y
_atom_site_fract_z
Si Si1 0.124336 0.780225 0.249492
Si Si2 0.234507 0.781196 0.646647
Si Si3 0.061749 0.219985 0.000000
Si Si4 0.439701 0.284691 0.858595
Si Si5 0.646019 0.214740 0.642301
Si Si6 0.938723 0.780522 0.500000
O O1 0.185622 0.721251 0.266444
O O2 0.093625 0.721950 0.124428
O O3 0.092046 0.724479 0.374121
O O4 0.124508 0.000000 0.247875
O O5 0.223848 0.732932 0.500000
O O6 0.294456 0.719304 0.677824
O O7 0.234501 0.000000 0.650918
O O8 0.000000 0.277136 0.000000
O O9 0.061113 0.000000 0.000000
O O10 0.500000 0.218978 0.831022
O O11 0.442654 0.500000 0.865880
O O12 0.397936 0.247277 0.748360
O O13 0.424392 0.219962 0.000000
O O14 0.632742 0.281296 0.500000
O O15 0.650455 0.000000 0.632448
O O16 0.000000 0.722436 0.500000
O O17 0.938603 0.000000 0.500000
#
# Coordination Sequence:
#
# PCOD9389051 Si02
#       6
#     8   8   4   8   8   4
#     4   9  14  21  31  42  62  95 133 175 218 258
#     4   8  13  24  39  54  76 107 142 180 222 266
#     4   9  16  22  26  38  64  94 128 177 228 262
#     4   9  19  36  54  71  95 127 160 193 231 277
#     4   9  18  31  48  72 100 126 156 197 239 279
#     4   9  14  18  28  44  58  84 134 181 210 248
#
# _framework density 20.298370999999999
#
# number of rings (size 3 to 8) (size 9 to 14) (size 15 to 20)
#    0.000    3.200    1.000    2.400    0.000    4.000 
#    1.800    3.000    0.000    0.000    0.000    0.000 
#    0.000    0.000    0.000    0.000    0.000    6.000 
#
# Total GULP energy -223077.525303 kJ/mol
# GULP energy per Si atom -5576.938133 kJ/mol
# Density = 2.025217 g / cm^3
# Si number density = 20.298371 Si / 1000 Ang^3
#
#
#
# Elastic Constant Matrix: (Units=GPa)
#
#
# Indices 1 2 3 4 5 6 
#
# 1 212.5420 6.6220 150.4543 0.0000 0.0000 0.0000
# 2 6.6220 60.9450 5.3451 0.0000 0.0000 0.0000
# 3 150.4543 5.3451 193.3675 0.0000 0.0000 0.0000
# 4 0.0000 0.0000 0.0000 7.7178 0.0000 0.0000
# 5 0.0000 0.0000 0.0000 0.0000 40.0441 0.0000
# 6 0.0000 0.0000 0.0000 0.0000 0.0000 54.8117
#
#
#
# Elastic Compliance Matrix: (Units=1/GPa)
#
#
# Indices 1 2 3 4 5 6 
#
# 1 0.010485 -0.000425 -0.008146 0.000000 0.000000 0.000000
# 2 -0.000425 0.016465 -0.000125 0.000000 0.000000 0.000000
# 3 -0.008146 -0.000125 0.011513 0.000000 0.000000 0.000000
# 4 0.000000 0.000000 0.000000 0.129570 0.000000 0.000000
# 5 0.000000 0.000000 0.000000 0.000000 0.024972 0.000000
# 6 0.000000 0.000000 0.000000 0.000000 0.000000 0.018244
#
#
# Mechanical properties :
#
#
# Convention : Reuss Voigt Hill
#
# Bulk Modulus (GPa) = 47.45592 87.96637 67.71114
# Shear Modulus (GPa) = 21.21657 40.81027 31.01342
#
# Velocity S-wave (km/s) = 3.23652 4.48875 3.91305
# Velocity P-wave (km/s) = 6.11528 8.38426 7.33800
#
# Compressibility (1/GPa) = 0.02107219
#
# Stress axis : x y z
#
# Youngs Moduli (GPa) = 95.37747 60.73369 86.85666
#
# Poissons Ratio (x) = 0.02580 0.70754
# Poissons Ratio (y) = 0.04051 0.01083
# Poissons Ratio (z) = 0.77695 0.00757
#
# Static dielectric constant tensor:
#      x y z
#    x 1.714700 0.000000 0.000000 
#    y 0.000000 1.793980 0.000000 
#    z 0.000000 0.000000 1.692970 
# 
# From -- ./inp_files/1895.got.cif
#   From: 2010.05.17/outbox.cif.g08.bks.cpg/sg47_1_cif.got.tgz:1895.got - 2010.06.03 20:15:42.
