data_PCOD9389475
_publ_section_title
;
Structure prediction by ZEFSAII (Michael W. Deem and Ramdas Pophale) SiO2 
 PCOD9389475
Probable space group: P N N N
;
_chemical_formula_sum "Si O2"
_cell_formula_units_Z 48
_cell_length_a 16.705495
_cell_length_b 8.798685
_cell_length_c 14.543260
_cell_angle_alpha 90.000000
_cell_angle_beta 90.000000
_cell_angle_gamma 90.000000
_cell_volume 2137.661261
_symmetry_space_group_name_H-M "P N N N"
_symmetry_group_IT_number 48
_space_group.IT_coordinate_system_code '2'
_symmetry_cell_setting 'orthorhombic'
loop_
_space_group_symop_operation_xyz
x,y,z
1/2-x,1/2-y,z
x,1/2-y,1/2-z
1/2-x,y,1/2-z
-x,-y,-z
1/2+x,1/2+y,-z
-x,1/2+y,1/2+z
1/2+x,-y,1/2+z
loop_
_atom_site_type_symbol
_atom_site_label
_atom_site_fract_x
_atom_site_fract_y
_atom_site_fract_z
Si Si1 0.385888 0.991524 0.551229
Si Si2 0.403673 0.597755 0.302048
Si Si3 0.327638 0.179766 0.147200
Si Si4 0.957384 0.594482 0.627418
Si Si5 0.068782 0.191416 0.643277
Si Si6 0.731417 0.567840 0.355180
O O1 0.412187 0.984545 0.445673
O O2 0.412405 0.160696 0.583807
O O3 0.293288 0.981429 0.578491
O O4 0.449096 0.889788 0.607061
O O5 0.377368 0.750000 0.250000
O O6 0.333315 0.500385 0.347957
O O7 0.441779 0.483957 0.225246
O O8 0.477966 0.638226 0.367251
O O9 0.250000 0.250000 0.097647
O O10 0.324115 0.250000 0.250000
O O11 0.410721 0.248346 0.113625
O O12 0.076354 0.250000 0.750000
O O13 0.136695 0.065114 0.626384
O O14 0.750000 0.750000 0.360382
O O15 0.750000 0.522012 0.250000
#
# Coordination Sequence:
#
# PCOD9389475 Si02
#       6
#     8   8   8   8   8   8
#     4  10  18  28  51  80 113 157 186 231 289 340
#     4  10  18  35  61  83 106 144 196 245 285 354
#     4   9  20  37  55  78 105 139 186 238 293 354
#     4  10  19  33  51  77 116 150 191 231 295 348
#     4  10  15  28  50  82 110 139 194 236 274 343
#     4   9  13  23  43  77 110 137 181 233 261 327
#
# _framework density 22.454446999999998
#
# number of rings (size 3 to 8) (size 9 to 14) (size 15 to 20)
#    0.000    2.333    6.667    0.000    0.000    2.000 
#    0.000    7.500    0.000    1.000    4.333    4.667 
#    0.000    0.000    0.000    0.000    0.000    0.000 
#
# Total GULP energy -267607.787869 kJ/mol
# GULP energy per Si atom -5575.162247 kJ/mol
# Density = 2.240334 g / cm^3
# Si number density = 22.454447 Si / 1000 Ang^3
#
#
#
# Elastic Constant Matrix: (Units=GPa)
#
#
# Indices 1 2 3 4 5 6 
#
# 1 127.5752 51.8914 -0.7518 0.0000 0.0000 0.0000
# 2 51.8914 70.1298 -16.0370 0.0000 0.0000 0.0000
# 3 -0.7518 -16.0370 38.2020 0.0000 0.0000 0.0000
# 4 0.0000 0.0000 0.0000 10.4406 0.0000 0.0000
# 5 0.0000 0.0000 0.0000 0.0000 14.5883 0.0000
# 6 0.0000 0.0000 0.0000 0.0000 0.0000 15.0855
#
#
#
# Elastic Compliance Matrix: (Units=1/GPa)
#
#
# Indices 1 2 3 4 5 6 
#
# 1 0.011682 -0.009504 -0.003760 0.000000 0.000000 0.000000
# 2 -0.009504 0.023505 0.009680 0.000000 0.000000 0.000000
# 3 -0.003760 0.009680 0.030166 0.000000 0.000000 0.000000
# 4 0.000000 0.000000 0.000000 0.095780 0.000000 0.000000
# 5 0.000000 0.000000 0.000000 0.000000 0.068548 0.000000
# 6 0.000000 0.000000 0.000000 0.000000 0.000000 0.066289
#
#
# Mechanical properties :
#
#
# Convention : Reuss Voigt Hill
#
# Bulk Modulus (GPa) = 17.18591 34.01245 25.59918
# Shear Modulus (GPa) = 15.50237 21.40986 18.45611
#
# Velocity S-wave (km/s) = 2.63038 3.09120 2.87005
# Velocity P-wave (km/s) = 4.11041 5.28402 4.73373
#
# Compressibility (1/GPa) = 0.05818720
#
# Stress axis : x y z
#
# Youngs Moduli (GPa) = 85.60195 42.54417 33.14948
#
# Poissons Ratio (x) = 0.40432 0.12463
# Poissons Ratio (y) = 0.81353 -0.32090
# Poissons Ratio (z) = 0.32184 -0.41184
#
# Static dielectric constant tensor:
#      x y z
#    x 1.929060 0.000000 0.000000 
#    y 0.000000 1.869840 0.000000 
#    z 0.000000 0.000000 1.959340 
# 
# From -- ./inp_files/31932.got.cif
#   From: 2010.05.17/outbox.cif.g08.bks.cpg/sg48_16_cif.got.tgz:31932.got - 2010.06.03 20:39:00.
