data_PCOD9389732
_publ_section_title
;
Structure prediction by ZEFSAII (Michael W. Deem and Ramdas Pophale) SiO2 
 PCOD9389732
Probable space group: P N N N
;
_chemical_formula_sum "Si O2"
_cell_formula_units_Z 56
_cell_length_a 13.876553
_cell_length_b 13.405685
_cell_length_c 13.759732
_cell_angle_alpha 90.000000
_cell_angle_beta 90.000000
_cell_angle_gamma 90.000000
_cell_volume 2559.649995
_symmetry_space_group_name_H-M "P N N N"
_symmetry_group_IT_number 48
_space_group.IT_coordinate_system_code '2'
_symmetry_cell_setting 'orthorhombic'
loop_
_space_group_symop_operation_xyz
x,y,z
1/2-x,1/2-y,z
x,1/2-y,1/2-z
1/2-x,y,1/2-z
-x,-y,-z
1/2+x,1/2+y,-z
-x,1/2+y,1/2+z
1/2+x,-y,1/2+z
loop_
_atom_site_type_symbol
_atom_site_label
_atom_site_fract_x
_atom_site_fract_y
_atom_site_fract_z
Si Si1 0.585724 0.989367 0.422938
Si Si2 0.026650 0.826628 0.161907
Si Si3 0.935716 0.370207 0.257288
Si Si4 0.788545 0.052691 0.920949
Si Si5 0.816874 0.336985 0.093401
Si Si6 0.506423 0.846307 0.023882
Si Si7 0.405073 0.471102 0.366578
O O1 0.554663 0.912395 0.338875
O O2 0.500000 0.000000 0.500000
O O3 0.592578 0.092183 0.363751
O O4 0.671257 0.972913 0.499597
O O5 0.045093 0.750000 0.250000
O O6 0.125987 0.884761 0.132062
O O7 0.979836 0.753720 0.082074
O O8 0.941991 0.250000 0.250000
O O9 0.850481 0.404801 0.183465
O O10 0.036838 0.419517 0.221343
O O11 0.704592 0.006682 0.854314
O O12 0.735924 0.125633 0.996791
O O13 0.750000 0.250000 0.132510
O O14 0.922224 0.315769 0.050406
O O15 0.465997 0.932611 0.095976
O O16 0.588603 0.895212 0.958023
#
# Coordination Sequence:
#
# PCOD9389732 Si02
#       7
#     8   8   8   8   8   8   8
#     4  10  24  42  62  91 133 176 218 273 343 410
#     4  11  22  39  67  93 131 171 229 274 346 400
#     4  11  23  38  65  95 129 175 223 268 335 409
#     4  10  21  40  63  92 133 172 214 281 339 397
#     4  10  18  34  62  98 123 150 217 280 332 381
#     4   9  18  36  60  91 127 169 205 269 335 403
#     4   9  20  37  63  92 129 163 218 262 339 400
#
# _framework density 21.877991000000002
#
# number of rings (size 3 to 8) (size 9 to 14) (size 15 to 20)
#    0.000    2.000    1.429    2.571    6.000    2.000 
#    0.000   17.857    0.000    4.286    0.000    0.000 
#    0.000    0.000    0.000    0.000    0.000    0.000 
#
# Total GULP energy -311740.906779 kJ/mol
# GULP energy per Si atom -5566.801907 kJ/mol
# Density = 2.182820 g / cm^3
# Si number density = 21.877991 Si / 1000 Ang^3
#
#
#
# Elastic Constant Matrix: (Units=GPa)
#
#
# Indices 1 2 3 4 5 6 
#
# 1 66.8854 32.9251 20.8118 0.0000 0.0000 0.0000
# 2 32.9251 85.5991 18.9443 0.0000 0.0000 0.0000
# 3 20.8118 18.9443 71.2864 0.0000 0.0000 0.0000
# 4 0.0000 0.0000 0.0000 49.3662 0.0000 0.0000
# 5 0.0000 0.0000 0.0000 0.0000 28.4212 0.0000
# 6 0.0000 0.0000 0.0000 0.0000 0.0000 25.3506
#
#
#
# Elastic Compliance Matrix: (Units=1/GPa)
#
#
# Indices 1 2 3 4 5 6 
#
# 1 0.019420 -0.006603 -0.003915 0.000000 0.000000 0.000000
# 2 -0.006603 0.014658 -0.001967 0.000000 0.000000 0.000000
# 3 -0.003915 -0.001967 0.015694 0.000000 0.000000 0.000000
# 4 0.000000 0.000000 0.000000 0.020257 0.000000 0.000000
# 5 0.000000 0.000000 0.000000 0.000000 0.035185 0.000000
# 6 0.000000 0.000000 0.000000 0.000000 0.000000 0.039447
#
#
# Mechanical properties :
#
#
# Convention : Reuss Voigt Hill
#
# Bulk Modulus (GPa) = 40.32233 41.01478 40.66856
# Shear Modulus (GPa) = 28.10618 30.70026 29.40322
#
# Velocity S-wave (km/s) = 3.58813 3.75006 3.66999
# Velocity P-wave (km/s) = 5.96966 6.12685 6.04877
#
# Compressibility (1/GPa) = 0.02480015
#
# Stress axis : x y z
#
# Youngs Moduli (GPa) = 51.49456 68.22362 63.72008
#
# Poissons Ratio (x) = 0.45050 0.24944
# Poissons Ratio (y) = 0.34003 0.12537
# Poissons Ratio (z) = 0.20158 0.13423
#
# Static dielectric constant tensor:
#      x y z
#    x 1.867330 0.000000 0.000000 
#    y 0.000000 1.925720 0.000000 
#    z 0.000000 0.000000 1.948540 
# 
# From -- ./inp_files/27312.got.cif
#   From: 2010.05.17/outbox.cif.g08.bks.cpg/sg48_14_cif.got.tgz:27312.got - 2010.06.03 20:39:00.
