data_PCOD9389875
_publ_section_title
;
Structure prediction by ZEFSAII (Michael W. Deem and Ramdas Pophale) SiO2 
 PCOD9389875
Probable space group: P N N N
;
_chemical_formula_sum "Si O2"
_cell_formula_units_Z 40
_cell_length_a 18.155695
_cell_length_b 19.718273
_cell_length_c 5.267964
_cell_angle_alpha 90.000000
_cell_angle_beta 90.000000
_cell_angle_gamma 90.000000
_cell_volume 1885.925583
_symmetry_space_group_name_H-M "P N N N"
_symmetry_group_IT_number 48
_space_group.IT_coordinate_system_code '2'
_symmetry_cell_setting 'orthorhombic'
loop_
_space_group_symop_operation_xyz
x,y,z
1/2-x,1/2-y,z
x,1/2-y,1/2-z
1/2-x,y,1/2-z
-x,-y,-z
1/2+x,1/2+y,-z
-x,1/2+y,1/2+z
1/2+x,-y,1/2+z
loop_
_atom_site_type_symbol
_atom_site_label
_atom_site_fract_x
_atom_site_fract_y
_atom_site_fract_z
Si Si1 0.908731 0.470158 0.720918
Si Si2 0.371756 0.286200 0.996934
Si Si3 0.702564 0.574426 0.993621
Si Si4 0.461392 0.581679 0.716355
Si Si5 0.034930 0.727277 0.995194
O O1 0.839458 0.507397 0.597187
O O2 0.933035 0.415119 0.507061
O O3 0.972678 0.527332 0.755318
O O4 0.901202 0.444813 0.010406
O O5 0.342954 0.250000 0.250000
O O6 0.339838 0.250000 0.750000
O O7 0.356147 0.365191 0.972895
O O8 0.459188 0.270935 0.996818
O O9 0.750000 0.567288 0.250000
O O10 0.750000 0.596204 0.750000
O O11 0.486476 0.649925 0.570131
O O12 0.073980 0.750000 0.250000
O O13 0.079723 0.750000 0.750000
#
# Coordination Sequence:
#
# PCOD9389875 Si02
#       5
#     8   8   8   8   8
#     4  10  21  37  56  80 110 146 198 246 289 339
#     4  10  21  35  52  73 109 153 193 229 270 323
#     4  12  25  39  56  80 116 160 202 236 272 336
#     4  10  20  35  58  82 109 149 189 243 303 343
#     4  10  19  32  53  80 113 145 177 225 291 350
#
# _framework density 21.209745999999999
#
# number of rings (size 3 to 8) (size 9 to 14) (size 15 to 20)
#    0.000    1.600    0.000    6.000    0.000   12.000 
#    0.000    0.000    0.000    0.000    0.000    0.000 
#    0.000   56.000    0.000    0.000    0.000    0.000 
#
# Total GULP energy -222909.740416 kJ/mol
# GULP energy per Si atom -5572.743510 kJ/mol
# Density = 2.116147 g / cm^3
# Si number density = 21.209746 Si / 1000 Ang^3
#
#
#
# Elastic Constant Matrix: (Units=GPa)
#
#
# Indices 1 2 3 4 5 6 
#
# 1 24.5858 21.3208 10.0564 0.0000 0.0000 0.0000
# 2 21.3208 72.7418 31.5620 0.0000 0.0000 0.0000
# 3 10.0564 31.5620 199.7456 0.0000 0.0000 0.0000
# 4 0.0000 0.0000 0.0000 31.0294 0.0000 0.0000
# 5 0.0000 0.0000 0.0000 0.0000 1139.6108 0.0000
# 6 0.0000 0.0000 0.0000 0.0000 0.0000 97.7769
#
#
#
# Elastic Compliance Matrix: (Units=1/GPa)
#
#
# Indices 1 2 3 4 5 6 
#
# 1 0.054546 -0.015885 -0.000236 0.000000 0.000000 0.000000
# 2 -0.015885 0.019385 -0.002263 0.000000 0.000000 0.000000
# 3 -0.000236 -0.002263 0.005376 0.000000 0.000000 0.000000
# 4 0.000000 0.000000 0.000000 0.032228 0.000000 0.000000
# 5 0.000000 0.000000 0.000000 0.000000 0.000877 0.000000
# 6 0.000000 0.000000 0.000000 0.000000 0.000000 0.010227
#
#
# Mechanical properties :
#
#
# Convention : Reuss Voigt Hill
#
# Bulk Modulus (GPa) = 23.50836 46.99461 35.25149
# Shear Modulus (GPa) = 28.80381 269.29235 149.04808
#
# Velocity S-wave (km/s) = 3.68917 11.28016 8.39202
# Velocity P-wave (km/s) = 5.40873 13.85139 10.51465
#
# Compressibility (1/GPa) = 0.04253806
#
# Stress axis : x y z
#
# Youngs Moduli (GPa) = 18.33311 51.58565 186.01573
#
# Poissons Ratio (x) = 0.81944 0.04393
# Poissons Ratio (y) = 0.29122 0.42101
# Poissons Ratio (z) = 0.00433 0.11676
#
# Static dielectric constant tensor:
#      x y z
#    x 1.768100 0.000000 0.000000 
#    y 0.000000 1.485930 0.000000 
#    z 0.000000 0.000000 1.989570 
# 
# From -- ./inp_files/4182.got.cif
#   From: 2010.05.17/outbox.cif.g08.bks.cpg/sg48_3_cif.got.tgz:4182.got - 2010.06.03 20:39:00.
