data_PCOD9389447
_publ_section_title
;
Structure prediction by ZEFSAII (Michael W. Deem and Ramdas Pophale) SiO2 
 PCOD9389447
Probable space group: P M M M
;
_chemical_formula_sum "Si O2"
_cell_formula_units_Z 48
_cell_length_a 9.000000
_cell_length_b 15.000000
_cell_length_c 18.000000
_cell_angle_alpha 90.000000
_cell_angle_beta 90.000000
_cell_angle_gamma 90.000000
_cell_volume 2430.000000
_symmetry_space_group_name_H-M "P M M M"
_symmetry_group_IT_number 47
_symmetry_cell_setting 'orthorhombic'
loop_
_space_group_symop_operation_xyz
x,y,z
-x,-y,z
x,-y,-z
-x,y,-z
-x,-y,-z
x,y,-z
-x,y,z
x,-y,z
loop_
_atom_site_type_symbol
_atom_site_label
_atom_site_fract_x
_atom_site_fract_y
_atom_site_fract_z
Si Si1 0.678010 0.500000 0.413100
Si Si2 0.178990 0.902402 0.191177
Si Si3 0.331122 0.277362 0.172718
Si Si4 0.342797 0.104958 0.500000
Si Si5 0.838803 0.400810 0.912313
Si Si6 0.165528 0.854239 0.645014
Si Si7 0.168001 0.648611 0.315042
O O1 0.500000 0.500000 0.408763
O O2 0.721279 0.500000 0.500000
O O3 0.743673 0.415274 0.369823
O O4 0.253275 0.816473 0.156304
O O5 0.223233 0.894353 0.277971
O O6 0.000000 0.893450 0.188704
O O7 0.219409 0.000000 0.162151
O O8 0.500000 0.262528 0.192887
O O9 0.301153 0.340664 0.104240
O O10 0.250227 0.332984 0.237786
O O11 0.500000 0.152804 0.500000
O O12 0.259831 0.126689 0.425633
O O13 0.358981 0.000000 0.500000
O O14 0.823849 0.500000 0.880304
O O15 0.000000 0.362974 0.886265
O O16 0.849456 0.408501 0.000000
O O17 0.158882 0.748189 0.653044
O O18 0.000000 0.889828 0.634454
O O19 0.000000 0.615249 0.304233
#
# Coordination Sequence:
#
# PCOD9389447 Si02
#       7
#     4   8   8   4   8   8   8
#     4  11  25  41  57  81 110 139 178 233 297 347
#     4   9  18  35  58  81 106 141 188 235 276 328
#     4  11  22  35  56  87 122 153 184 230 285 336
#     4  11  23  33  45  70 101 132 163 205 272 339
#     4   9  19  37  61  87 116 153 194 232 274 329
#     4   9  19  35  54  74  96 128 174 223 269 319
#     4  10  22  40  59  78 103 143 191 231 271 327
#
# _framework density 19.753086
#
# number of rings (size 3 to 8) (size 9 to 14) (size 15 to 20)
#    0.000    2.167    0.000    4.500    2.333    6.333 
#    0.000    0.833    0.000    0.500    0.000    3.500 
#    0.000    0.000    0.000    0.000    0.000    0.000 
#
# Total GULP energy -267288.416418 kJ/mol
# GULP energy per Si atom -5568.508675 kJ/mol
# Density = 1.970813 g / cm^3
# Si number density = 19.753086 Si / 1000 Ang^3
#
#
#
# Elastic Constant Matrix: (Units=GPa)
#
#
# Indices 1 2 3 4 5 6 
#
# 1 50.8978 34.6378 24.9954 0.0000 0.0000 0.0000
# 2 34.6378 92.5617 32.4540 0.0000 0.0000 0.0000
# 3 24.9954 32.4540 26.2009 0.0000 0.0000 0.0000
# 4 0.0000 0.0000 0.0000 15.5270 0.0000 0.0000
# 5 0.0000 0.0000 0.0000 0.0000 45.0475 0.0000
# 6 0.0000 0.0000 0.0000 0.0000 0.0000 3.1164
#
#
#
# Elastic Compliance Matrix: (Units=1/GPa)
#
#
# Indices 1 2 3 4 5 6 
#
# 1 0.037322 -0.002621 -0.032358 0.000000 0.000000 0.000000
# 2 -0.002621 0.019282 -0.021383 0.000000 0.000000 0.000000
# 3 -0.032358 -0.021383 0.095523 0.000000 0.000000 0.000000
# 4 0.000000 0.000000 0.000000 0.064404 0.000000 0.000000
# 5 0.000000 0.000000 0.000000 0.000000 0.022199 0.000000
# 6 0.000000 0.000000 0.000000 0.000000 0.000000 0.320883
#
#
# Mechanical properties :
#
#
# Convention : Reuss Voigt Hill
#
# Bulk Modulus (GPa) = 25.37974 39.31499 32.34737
# Shear Modulus (GPa) = 7.29426 17.90973 12.60200
#
# Velocity S-wave (km/s) = 1.92373 3.01438 2.52856
# Velocity P-wave (km/s) = 4.22027 5.66231 4.99362
#
# Compressibility (1/GPa) = 0.03940151
#
# Stress axis : x y z
#
# Youngs Moduli (GPa) = 26.79414 51.86253 10.46869
#
# Poissons Ratio (x) = 0.13592 0.33875
# Poissons Ratio (y) = 0.07022 0.22386
# Poissons Ratio (z) = 0.86701 1.10899
#
# Static dielectric constant tensor:
#      x y z
#    x 1.325110 0.000000 0.000000 
#    y 0.000000 1.743910 0.000000 
#    z 0.000000 0.000000 1.685310 
# 
# From -- ./inp_files/21100.got.cif
#   From: 2010.05.17/outbox.ucp.g08.bks.cvg/sg47_11_cif.got.tgz:21100.got - 2010.06.11 16:36:43.
