data_PCOD9389005
_publ_section_title
;
Structure prediction by ZEFSAII (Michael W. Deem and Ramdas Pophale) SiO2 
 PCOD9389005
Probable space group: P M M M
;
_chemical_formula_sum "Si O2"
_cell_formula_units_Z 48
_cell_length_a 32.369887
_cell_length_b 9.744672
_cell_length_c 7.550352
_cell_angle_alpha 90.000000
_cell_angle_beta 90.000000
_cell_angle_gamma 90.000000
_cell_volume 2381.637216
_symmetry_space_group_name_H-M "P M M M"
_symmetry_group_IT_number 47
_symmetry_cell_setting 'orthorhombic'
loop_
_space_group_symop_operation_xyz
x,y,z
-x,-y,z
x,-y,-z
-x,y,-z
-x,-y,-z
x,y,-z
-x,y,z
x,-y,z
loop_
_atom_site_type_symbol
_atom_site_label
_atom_site_fract_x
_atom_site_fract_y
_atom_site_fract_z
Si Si1 0.453131 0.843004 0.284156
Si Si2 0.121071 0.843851 0.289101
Si Si3 0.953827 0.658414 0.283692
Si Si4 0.789049 0.843716 0.789618
Si Si5 0.698692 0.843235 0.290111
Si Si6 0.623088 0.657749 0.717187
O O1 0.453078 0.842115 0.500000
O O2 0.500000 0.810540 0.228049
O O3 0.418335 0.736991 0.226326
O O4 0.443510 0.000000 0.230953
O O5 0.115537 0.853279 0.500000
O O6 0.083412 0.753227 0.219719
O O7 0.166776 0.781855 0.260681
O O8 0.120712 0.000000 0.217279
O O9 0.953255 0.659871 0.500000
O O10 0.948299 0.500000 0.230389
O O11 0.000000 0.703353 0.230224
O O12 0.744902 0.784678 0.734669
O O13 0.789495 0.000000 0.715039
O O14 0.788442 0.851091 0.000000
O O15 0.691931 0.854629 0.500000
O O16 0.662773 0.744889 0.221864
O O17 0.697292 0.000000 0.217590
O O18 0.623314 0.657177 0.500000
O O19 0.624206 0.500000 0.774116
#
# Coordination Sequence:
#
# PCOD9389005 Si02
#       6
#     8   8   8   8   8   8
#     4   8  13  21  33  50  75 108 142 172 204 246
#     4   9  16  26  43  67  90 110 137 174 211 246
#     4   8  14  25  41  62  88 115 141 170 205 244
#     4   9  17  29  45  64  85 109 138 173 212 252
#     4   9  16  27  44  62  80 106 140 174 207 246
#     4   9  16  24  35  54  80 108 138 173 211 248
#
# _framework density 20.154202000000002
#
# number of rings (size 3 to 8) (size 9 to 14) (size 15 to 20)
#    0.000    3.333    0.000    2.000    0.000    4.667 
#    0.000    4.167    0.000    6.500    0.000    3.500 
#    0.000    0.667    0.000    7.667    0.000    9.833 
#
# Total GULP energy -267506.063337 kJ/mol
# GULP energy per Si atom -5573.042986 kJ/mol
# Density = 2.010833 g / cm^3
# Si number density = 20.154202 Si / 1000 Ang^3
#
#
#
# Elastic Constant Matrix: (Units=GPa)
#
#
# Indices 1 2 3 4 5 6 
#
# 1 224.4094 119.1712 0.6662 0.0000 0.0000 0.0000
# 2 119.1712 102.2802 5.4668 0.0000 0.0000 0.0000
# 3 0.6662 5.4668 48.0958 0.0000 0.0000 0.0000
# 4 0.0000 0.0000 0.0000 -3.5320 0.0000 0.0000
# 5 0.0000 0.0000 0.0000 0.0000 -44.2610 0.0000
# 6 0.0000 0.0000 0.0000 0.0000 0.0000 27.8517
#
#
#
# Elastic Compliance Matrix: (Units=1/GPa)
#
#
# Indices 1 2 3 4 5 6 
#
# 1 0.011782 -0.013803 0.001406 0.000000 0.000000 0.000000
# 2 -0.013803 0.026007 -0.002765 0.000000 0.000000 0.000000
# 3 0.001406 -0.002765 0.021087 0.000000 0.000000 0.000000
# 4 0.000000 0.000000 0.000000 -0.283129 0.000000 0.000000
# 5 0.000000 0.000000 0.000000 0.000000 -0.022593 0.000000
# 6 0.000000 0.000000 0.000000 0.000000 0.000000 0.035904
#
#
# Mechanical properties :
#
#
# Convention : Reuss Voigt Hill
#
# Bulk Modulus (GPa) = 35.02423 69.48820 52.25622
# Shear Modulus (GPa) = -29.22230 12.64385 -8.28923
#
# Velocity S-wave (km/s) = -3.81193 2.50742 -2.03023
# Velocity P-wave (km/s) = 1.39950 6.55256 4.52645
#
# Compressibility (1/GPa) = 0.02855166
#
# Stress axis : x y z
#
# Youngs Moduli (GPa) = 84.87741 38.45158 47.42339
#
# Poissons Ratio (x) = 0.53073 -0.06666
# Poissons Ratio (y) = 1.17152 0.13112
# Poissons Ratio (z) = -0.11931 0.10631
#
# Static dielectric constant tensor:
#      x y z
#    x 1.724960 0.000000 0.000000 
#    y 0.000000 1.688980 0.000000 
#    z 0.000000 0.000000 1.739740 
# 
# From -- ./inp_files/19995.got.cif
#   From: 2010.05.17/outbox.cif.g08.bks.cpg/sg47_10_cif.got.tgz:19995.got - 2010.06.03 20:15:42.
